MODEL 1
REMARK VINA RESULT: -8.191044825      0.000      0.000
REMARK  14 active torsions:
REMARK  status: ('A' for Active; 'I' for Inactive)
REMARK    1  A    between atoms: C1_2  and  C2_4 
REMARK    2  A    between atoms: C2_4  and  C3_5 
REMARK    3  A    between atoms: C3_5  and  S1_6 
REMARK    4  A    between atoms: S1_6  and  N1_9 
REMARK    5  A    between atoms: C7_15  and  O6_16 
REMARK    6  A    between atoms: C8_18  and  C9_19 
REMARK    7  A    between atoms: C9_19  and  C10_20 
REMARK    8  A    between atoms: C10_20  and  O7_21 
REMARK    9  A    between atoms: O7_21  and  C11_22 
REMARK   10  A    between atoms: C11_22  and  C12_23 
REMARK   11  A    between atoms: C13_24  and  C14_25 
REMARK   12  A    between atoms: C14_25  and  N2_26 
REMARK   13  A    between atoms: C18_32  and  C19_33 
REMARK   14  A    between atoms: C19_33  and  C20_34 
ROOT
HETATM    1  N1  UNL     1      37.009 -27.475 -35.851  1.00  0.00    -0.280 N 
HETATM    2  C4  UNL     1      36.150 -27.460 -36.969  1.00  0.00     0.100 C 
HETATM    3  C5  UNL     1      37.012 -27.437 -38.216  1.00  0.00     0.169 C 
HETATM    4 BR1  UNL     1      35.921 -26.805 -39.700  1.00  0.00    -0.077 Br
HETATM    5  C6  UNL     1      38.081 -26.449 -37.973  1.00  0.00     0.175 C 
HETATM    6  O5  UNL     1      38.566 -26.117 -39.076  1.00  0.00    -0.293 OA
HETATM    7  C7  UNL     1      38.668 -25.813 -36.850  1.00  0.00     0.195 C 
HETATM    8  C8  UNL     1      37.789 -25.252 -35.734  1.00  0.00     0.051 C 
HETATM    9  C18 UNL     1      36.993 -26.235 -35.029  1.00  0.00     0.131 C 
ENDROOT
BRANCH   8  10
HETATM   10  C9  UNL     1      37.352 -23.871 -36.032  1.00  0.00     0.036 C 
BRANCH  10  11
HETATM   11  C10 UNL     1      36.364 -23.684 -37.153  1.00  0.00     0.169 C 
BRANCH  11  12
HETATM   12  O7  UNL     1      36.850 -22.564 -37.880  1.00  0.00    -0.379 OA
BRANCH  12  13
HETATM   13  C11 UNL     1      37.009 -22.984 -39.189  1.00  0.00     0.261 C 
BRANCH  13  14
HETATM   14  C12 UNL     1      35.902 -22.583 -40.056  1.00  0.00    -0.079 C 
HETATM   15  C13 UNL     1      35.010 -22.240 -40.771  1.00  0.00    -0.084 C 
BRANCH  15  16
HETATM   16  C14 UNL     1      33.914 -21.790 -41.660  1.00  0.00     0.223 C 
BRANCH  16  17
HETATM   17  N2  UNL     1      32.810 -22.708 -41.632  1.00  0.00    -0.341 N 
HETATM   18  C15 UNL     1      31.510 -22.397 -41.619  1.00  0.00     0.110 A 
HETATM   19  C16 UNL     1      30.754 -23.551 -41.592  1.00  0.00     0.106 A 
HETATM   20  N3  UNL     1      31.628 -24.567 -41.588  1.00  0.00    -0.361 N 
HETATM   21  C17 UNL     1      32.881 -24.044 -41.613  1.00  0.00     0.183 A 
ATOM     22  H3  UNL     1      31.393 -25.560 -41.570  1.00  0.00     0.166 HD
ENDBRANCH  16  17
ENDBRANCH  15  16
ENDBRANCH  13  14
ENDBRANCH  12  13
ENDBRANCH  11  12
ENDBRANCH  10  11
ENDBRANCH   8  10
BRANCH   7  23
HETATM   23  O6  UNL     1      39.659 -26.616 -36.248  1.00  0.00    -0.388 OA
ATOM     24  H6  UNL     1      40.486 -26.156 -36.163  1.00  0.00     0.210 HD
ENDBRANCH   7  23
BRANCH   9  25
HETATM   25  C19 UNL     1      35.663 -26.089 -34.477  1.00  0.00     0.011 C 
BRANCH  25  26
HETATM   26  C20 UNL     1      35.396 -25.596 -33.129  1.00  0.00    -0.033 A 
HETATM   27  C21 UNL     1      34.385 -24.707 -32.894  1.00  0.00     0.053 A 
HETATM   28  C22 UNL     1      34.098 -24.218 -31.641  1.00  0.00     0.118 A 
HETATM   29  F1  UNL     1      33.079 -23.331 -31.450  1.00  0.00    -0.206 F 
HETATM   30  C23 UNL     1      34.843 -24.627 -30.582  1.00  0.00     0.066 A 
HETATM   31  C24 UNL     1      35.879 -25.526 -30.761  1.00  0.00     0.037 A 
HETATM   32 CL1  UNL     1      36.814 -26.026 -29.366  1.00  0.00    -0.084 Cl
HETATM   33  C25 UNL     1      36.142 -26.000 -32.037  1.00  0.00     0.035 A 
ENDBRANCH  25  26
ENDBRANCH   9  25
BRANCH   1  34
HETATM   34  S1  UNL     1      37.029 -28.899 -34.943  1.00  0.00     0.233 S 
HETATM   35  O3  UNL     1      37.622 -30.009 -35.765  1.00  0.00    -0.205 OA
HETATM   36  O4  UNL     1      37.847 -28.686 -33.681  1.00  0.00    -0.205 OA
BRANCH  34  37
HETATM   37  C3  UNL     1      35.418 -29.427 -34.439  1.00  0.00     0.174 C 
BRANCH  37  38
HETATM   38  C2  UNL     1      35.208 -30.893 -34.526  1.00  0.00     0.130 C 
BRANCH  38  39
HETATM   39  C1  UNL     1      34.109 -31.167 -35.512  1.00  0.00     0.173 C 
HETATM   40  O1  UNL     1      33.011 -31.629 -35.122  1.00  0.00    -0.648 OA
HETATM   41  O2  UNL     1      34.384 -30.881 -36.847  1.00  0.00    -0.648 OA
ENDBRANCH  38  39
ENDBRANCH  37  38
ENDBRANCH  34  37
ENDBRANCH   1  34
TORSDOF 14
ENDMDL
MODEL 2
REMARK VINA RESULT: -8.109940751      3.412      6.234
REMARK  14 active torsions:
REMARK  status: ('A' for Active; 'I' for Inactive)
REMARK    1  A    between atoms: C1_2  and  C2_4 
REMARK    2  A    between atoms: C2_4  and  C3_5 
REMARK    3  A    between atoms: C3_5  and  S1_6 
REMARK    4  A    between atoms: S1_6  and  N1_9 
REMARK    5  A    between atoms: C7_15  and  O6_16 
REMARK    6  A    between atoms: C8_18  and  C9_19 
REMARK    7  A    between atoms: C9_19  and  C10_20 
REMARK    8  A    between atoms: C10_20  and  O7_21 
REMARK    9  A    between atoms: O7_21  and  C11_22 
REMARK   10  A    between atoms: C11_22  and  C12_23 
REMARK   11  A    between atoms: C13_24  and  C14_25 
REMARK   12  A    between atoms: C14_25  and  N2_26 
REMARK   13  A    between atoms: C18_32  and  C19_33 
REMARK   14  A    between atoms: C19_33  and  C20_34 
ROOT
HETATM    1  N1  UNL     1      38.077 -23.833 -38.424  1.00  0.00    -0.280 N 
HETATM    2  C4  UNL     1      39.180 -22.996 -38.161  1.00  0.00     0.100 C 
HETATM    3  C5  UNL     1      40.360 -23.519 -38.957  1.00  0.00     0.169 C 
HETATM    4 BR1  UNL     1      41.992 -22.805 -38.170  1.00  0.00    -0.077 Br
HETATM    5  C6  UNL     1      40.367 -24.985 -38.788  1.00  0.00     0.175 C 
HETATM    6  O5  UNL     1      41.503 -25.410 -39.087  1.00  0.00    -0.293 OA
HETATM    7  C7  UNL     1      39.445 -25.986 -38.389  1.00  0.00     0.195 C 
HETATM    8  C8  UNL     1      38.553 -25.772 -37.169  1.00  0.00     0.051 C 
HETATM    9  C18 UNL     1      37.628 -24.663 -37.273  1.00  0.00     0.131 C 
ENDROOT
BRANCH   8  10
HETATM   10  C9  UNL     1      39.232 -26.188 -35.922  1.00  0.00     0.036 C 
BRANCH  10  11
HETATM   11  C10 UNL     1      38.574 -27.269 -35.104  1.00  0.00     0.169 C 
BRANCH  11  12
HETATM   12  O7  UNL     1      38.676 -28.439 -35.903  1.00  0.00    -0.379 OA
BRANCH  12  13
HETATM   13  C11 UNL     1      37.381 -28.879 -36.120  1.00  0.00     0.261 C 
BRANCH  13  14
HETATM   14  C12 UNL     1      37.176 -29.406 -37.469  1.00  0.00    -0.079 C 
HETATM   15  C13 UNL     1      36.999 -29.853 -38.561  1.00  0.00    -0.084 C 
BRANCH  15  16
HETATM   16  C14 UNL     1      36.775 -30.431 -39.907  1.00  0.00     0.223 C 
BRANCH  16  17
HETATM   17  N2  UNL     1      37.071 -29.478 -40.940  1.00  0.00    -0.341 N 
HETATM   18  C15 UNL     1      36.329 -28.424 -41.293  1.00  0.00     0.110 A 
HETATM   19  C16 UNL     1      36.943 -27.746 -42.326  1.00  0.00     0.106 A 
HETATM   20  N3  UNL     1      38.075 -28.415 -42.589  1.00  0.00    -0.361 N 
HETATM   21  C17 UNL     1      38.145 -29.471 -41.738  1.00  0.00     0.183 A 
ATOM     22  H3  UNL     1      38.762 -28.173 -43.302  1.00  0.00     0.166 HD
ENDBRANCH  16  17
ENDBRANCH  15  16
ENDBRANCH  13  14
ENDBRANCH  12  13
ENDBRANCH  11  12
ENDBRANCH  10  11
ENDBRANCH   8  10
BRANCH   7  23
HETATM   23  O6  UNL     1      38.616 -26.394 -39.455  1.00  0.00    -0.388 OA
ATOM     24  H6  UNL     1      38.124 -27.179 -39.242  1.00  0.00     0.210 HD
ENDBRANCH   7  23
BRANCH   9  25
HETATM   25  C19 UNL     1      37.178 -23.764 -36.231  1.00  0.00     0.011 C 
BRANCH  25  26
HETATM   26  C20 UNL     1      36.256 -24.156 -35.169  1.00  0.00    -0.033 A 
HETATM   27  C21 UNL     1      36.134 -23.405 -34.033  1.00  0.00     0.053 A 
HETATM   28  C22 UNL     1      35.280 -23.735 -33.008  1.00  0.00     0.118 A 
HETATM   29  F1  UNL     1      35.189 -22.958 -31.891  1.00  0.00    -0.206 F 
HETATM   30  C23 UNL     1      34.517 -24.854 -33.114  1.00  0.00     0.066 A 
HETATM   31  C24 UNL     1      34.599 -25.653 -34.241  1.00  0.00     0.037 A 
HETATM   32 CL1  UNL     1      33.597 -27.087 -34.334  1.00  0.00    -0.084 Cl
HETATM   33  C25 UNL     1      35.471 -25.291 -35.257  1.00  0.00     0.035 A 
ENDBRANCH  25  26
ENDBRANCH   9  25
BRANCH   1  34
HETATM   34  S1  UNL     1      36.812 -23.146 -39.308  1.00  0.00     0.233 S 
HETATM   35  O3  UNL     1      36.354 -21.886 -38.630  1.00  0.00    -0.205 OA
HETATM   36  O4  UNL     1      37.284 -22.841 -40.719  1.00  0.00    -0.205 OA
BRANCH  34  37
HETATM   37  C3  UNL     1      35.403 -24.206 -39.447  1.00  0.00     0.174 C 
BRANCH  37  38
HETATM   38  C2  UNL     1      35.000 -24.497 -40.845  1.00  0.00     0.130 C 
BRANCH  38  39
HETATM   39  C1  UNL     1      33.787 -23.678 -41.180  1.00  0.00     0.173 C 
HETATM   40  O1  UNL     1      32.641 -24.177 -41.086  1.00  0.00    -0.648 OA
HETATM   41  O2  UNL     1      34.014 -22.366 -41.588  1.00  0.00    -0.648 OA
ENDBRANCH  38  39
ENDBRANCH  37  38
ENDBRANCH  34  37
ENDBRANCH   1  34
TORSDOF 14
ENDMDL
MODEL 3
REMARK VINA RESULT: -8.041442027      3.406      6.177
REMARK  14 active torsions:
REMARK  status: ('A' for Active; 'I' for Inactive)
REMARK    1  A    between atoms: C1_2  and  C2_4 
REMARK    2  A    between atoms: C2_4  and  C3_5 
REMARK    3  A    between atoms: C3_5  and  S1_6 
REMARK    4  A    between atoms: S1_6  and  N1_9 
REMARK    5  A    between atoms: C7_15  and  O6_16 
REMARK    6  A    between atoms: C8_18  and  C9_19 
REMARK    7  A    between atoms: C9_19  and  C10_20 
REMARK    8  A    between atoms: C10_20  and  O7_21 
REMARK    9  A    between atoms: O7_21  and  C11_22 
REMARK   10  A    between atoms: C11_22  and  C12_23 
REMARK   11  A    between atoms: C13_24  and  C14_25 
REMARK   12  A    between atoms: C14_25  and  N2_26 
REMARK   13  A    between atoms: C18_32  and  C19_33 
REMARK   14  A    between atoms: C19_33  and  C20_34 
ROOT
HETATM    1  N1  UNL     1      37.835 -24.183 -38.128  1.00  0.00    -0.280 N 
HETATM    2  C4  UNL     1      38.848 -23.212 -37.991  1.00  0.00     0.100 C 
HETATM    3  C5  UNL     1      39.998 -23.613 -38.893  1.00  0.00     0.169 C 
HETATM    4 BR1  UNL     1      41.600 -22.686 -38.287  1.00  0.00    -0.077 Br
HETATM    5  C6  UNL     1      40.201 -25.062 -38.702  1.00  0.00     0.175 C 
HETATM    6  O5  UNL     1      41.346 -25.355 -39.107  1.00  0.00    -0.293 OA
HETATM    7  C7  UNL     1      39.453 -26.154 -38.196  1.00  0.00     0.195 C 
HETATM    8  C8  UNL     1      38.665 -26.014 -36.895  1.00  0.00     0.051 C 
HETATM    9  C18 UNL     1      37.606 -25.027 -36.924  1.00  0.00     0.131 C 
ENDROOT
BRANCH   8  10
HETATM   10  C9  UNL     1      39.509 -26.310 -35.717  1.00  0.00     0.036 C 
BRANCH  10  11
HETATM   11  C10 UNL     1      39.374 -27.676 -35.095  1.00  0.00     0.169 C 
BRANCH  11  12
HETATM   12  O7  UNL     1      38.239 -28.249 -35.727  1.00  0.00    -0.379 OA
BRANCH  12  13
HETATM   13  C11 UNL     1      38.648 -29.471 -36.235  1.00  0.00     0.261 C 
BRANCH  13  14
HETATM   14  C12 UNL     1      38.007 -29.805 -37.506  1.00  0.00    -0.079 C 
HETATM   15  C13 UNL     1      37.470 -30.089 -38.533  1.00  0.00    -0.084 C 
BRANCH  15  16
HETATM   16  C14 UNL     1      36.791 -30.460 -39.796  1.00  0.00     0.223 C 
BRANCH  16  17
HETATM   17  N2  UNL     1      37.094 -29.527 -40.845  1.00  0.00    -0.341 N 
HETATM   18  C15 UNL     1      36.347 -28.490 -41.235  1.00  0.00     0.110 A 
HETATM   19  C16 UNL     1      36.972 -27.828 -42.272  1.00  0.00     0.106 A 
HETATM   20  N3  UNL     1      38.115 -28.492 -42.501  1.00  0.00    -0.361 N 
HETATM   21  C17 UNL     1      38.181 -29.527 -41.626  1.00  0.00     0.183 A 
ATOM     22  H3  UNL     1      38.811 -28.258 -43.209  1.00  0.00     0.166 HD
ENDBRANCH  16  17
ENDBRANCH  15  16
ENDBRANCH  13  14
ENDBRANCH  12  13
ENDBRANCH  11  12
ENDBRANCH  10  11
ENDBRANCH   8  10
BRANCH   7  23
HETATM   23  O6  UNL     1      38.579 -26.689 -39.166  1.00  0.00    -0.388 OA
ATOM     24  H6  UNL     1      37.711 -26.848 -38.813  1.00  0.00     0.210 HD
ENDBRANCH   7  23
BRANCH   9  25
HETATM   25  C19 UNL     1      37.153 -24.160 -35.857  1.00  0.00     0.011 C 
BRANCH  25  26
HETATM   26  C20 UNL     1      36.168 -24.557 -34.855  1.00  0.00    -0.033 A 
HETATM   27  C21 UNL     1      35.626 -25.812 -34.862  1.00  0.00     0.053 A 
HETATM   28  C22 UNL     1      34.697 -26.229 -33.939  1.00  0.00     0.118 A 
HETATM   29  F1  UNL     1      34.181 -27.491 -33.983  1.00  0.00    -0.206 F 
HETATM   30  C23 UNL     1      34.290 -25.367 -32.971  1.00  0.00     0.066 A 
HETATM   31  C24 UNL     1      34.805 -24.084 -32.915  1.00  0.00     0.037 A 
HETATM   32 CL1  UNL     1      34.250 -23.007 -31.650  1.00  0.00    -0.084 Cl
HETATM   33  C25 UNL     1      35.740 -23.696 -33.861  1.00  0.00     0.035 A 
ENDBRANCH  25  26
ENDBRANCH   9  25
BRANCH   1  34
HETATM   34  S1  UNL     1      36.414 -23.678 -38.891  1.00  0.00     0.233 S 
HETATM   35  O3  UNL     1      35.229 -24.275 -38.187  1.00  0.00    -0.205 OA
HETATM   36  O4  UNL     1      36.333 -22.162 -38.863  1.00  0.00    -0.205 OA
BRANCH  34  37
HETATM   37  C3  UNL     1      36.319 -24.176 -40.585  1.00  0.00     0.174 C 
BRANCH  37  38
HETATM   38  C2  UNL     1      35.052 -24.861 -40.944  1.00  0.00     0.130 C 
BRANCH  38  39
HETATM   39  C1  UNL     1      34.021 -23.824 -41.283  1.00  0.00     0.173 C 
HETATM   40  O1  UNL     1      34.371 -22.706 -41.732  1.00  0.00    -0.648 OA
HETATM   41  O2  UNL     1      32.690 -24.176 -41.073  1.00  0.00    -0.648 OA
ENDBRANCH  38  39
ENDBRANCH  37  38
ENDBRANCH  34  37
ENDBRANCH   1  34
TORSDOF 14
ENDMDL
MODEL 4
REMARK VINA RESULT: -8.036006682      3.323      6.355
REMARK  14 active torsions:
REMARK  status: ('A' for Active; 'I' for Inactive)
REMARK    1  A    between atoms: C1_2  and  C2_4 
REMARK    2  A    between atoms: C2_4  and  C3_5 
REMARK    3  A    between atoms: C3_5  and  S1_6 
REMARK    4  A    between atoms: S1_6  and  N1_9 
REMARK    5  A    between atoms: C7_15  and  O6_16 
REMARK    6  A    between atoms: C8_18  and  C9_19 
REMARK    7  A    between atoms: C9_19  and  C10_20 
REMARK    8  A    between atoms: C10_20  and  O7_21 
REMARK    9  A    between atoms: O7_21  and  C11_22 
REMARK   10  A    between atoms: C11_22  and  C12_23 
REMARK   11  A    between atoms: C13_24  and  C14_25 
REMARK   12  A    between atoms: C14_25  and  N2_26 
REMARK   13  A    between atoms: C18_32  and  C19_33 
REMARK   14  A    between atoms: C19_33  and  C20_34 
ROOT
HETATM    1  N1  UNL     1      37.707 -24.095 -38.546  1.00  0.00    -0.280 N 
HETATM    2  C4  UNL     1      38.518 -22.942 -38.560  1.00  0.00     0.100 C 
HETATM    3  C5  UNL     1      39.785 -23.274 -39.323  1.00  0.00     0.169 C 
HETATM    4 BR1  UNL     1      41.146 -21.967 -38.844  1.00  0.00    -0.077 Br
HETATM    5  C6  UNL     1      40.228 -24.600 -38.849  1.00  0.00     0.175 C 
HETATM    6  O5  UNL     1      41.434 -24.740 -39.146  1.00  0.00    -0.293 OA
HETATM    7  C7  UNL     1      39.651 -25.704 -38.172  1.00  0.00     0.195 C 
HETATM    8  C8  UNL     1      38.757 -25.482 -36.954  1.00  0.00     0.051 C 
HETATM    9  C18 UNL     1      37.544 -24.734 -37.213  1.00  0.00     0.131 C 
ENDROOT
BRANCH   8  10
HETATM   10  C9  UNL     1      39.551 -25.394 -35.709  1.00  0.00     0.036 C 
BRANCH  10  11
HETATM   11  C10 UNL     1      39.480 -26.561 -34.759  1.00  0.00     0.169 C 
BRANCH  11  12
HETATM   12  O7  UNL     1      38.378 -26.270 -33.911  1.00  0.00    -0.379 OA
BRANCH  12  13
HETATM   13  C11 UNL     1      37.882 -27.489 -33.480  1.00  0.00     0.261 C 
BRANCH  13  14
HETATM   14  C12 UNL     1      37.325 -28.295 -34.566  1.00  0.00    -0.079 C 
HETATM   15  C13 UNL     1      36.862 -28.965 -35.438  1.00  0.00    -0.084 C 
BRANCH  15  16
HETATM   16  C14 UNL     1      36.282 -29.817 -36.502  1.00  0.00     0.223 C 
BRANCH  16  17
HETATM   17  N2  UNL     1      36.321 -29.156 -37.777  1.00  0.00    -0.341 N 
HETATM   18  C15 UNL     1      36.703 -29.687 -38.943  1.00  0.00     0.110 A 
HETATM   19  C16 UNL     1      36.603 -28.741 -39.942  1.00  0.00     0.106 A 
HETATM   20  N3  UNL     1      36.152 -27.624 -39.352  1.00  0.00    -0.361 N 
HETATM   21  C17 UNL     1      35.982 -27.887 -38.031  1.00  0.00     0.183 A 
ATOM     22  H3  UNL     1      35.969 -26.734 -39.816  1.00  0.00     0.166 HD
ENDBRANCH  16  17
ENDBRANCH  15  16
ENDBRANCH  13  14
ENDBRANCH  12  13
ENDBRANCH  11  12
ENDBRANCH  10  11
ENDBRANCH   8  10
BRANCH   7  23
HETATM   23  O6  UNL     1      38.961 -26.561 -39.054  1.00  0.00    -0.388 OA
ATOM     24  H6  UNL     1      39.439 -27.368 -39.211  1.00  0.00     0.210 HD
ENDBRANCH   7  23
BRANCH   9  25
HETATM   25  C19 UNL     1      36.867 -23.790 -36.350  1.00  0.00     0.011 C 
BRANCH  25  26
HETATM   26  C20 UNL     1      36.056 -24.181 -35.201  1.00  0.00    -0.033 A 
HETATM   27  C21 UNL     1      36.036 -23.422 -34.065  1.00  0.00     0.053 A 
HETATM   28  C22 UNL     1      35.287 -23.752 -32.960  1.00  0.00     0.118 A 
HETATM   29  F1  UNL     1      35.296 -22.966 -31.845  1.00  0.00    -0.206 F 
HETATM   30  C23 UNL     1      34.529 -24.879 -32.984  1.00  0.00     0.066 A 
HETATM   31  C24 UNL     1      34.511 -25.686 -34.107  1.00  0.00     0.037 A 
HETATM   32 CL1  UNL     1      33.519 -27.130 -34.093  1.00  0.00    -0.084 Cl
HETATM   33  C25 UNL     1      35.277 -25.325 -35.205  1.00  0.00     0.035 A 
ENDBRANCH  25  26
ENDBRANCH   9  25
BRANCH   1  34
HETATM   34  S1  UNL     1      36.279 -24.015 -39.447  1.00  0.00     0.233 S 
HETATM   35  O3  UNL     1      36.440 -24.810 -40.711  1.00  0.00    -0.205 OA
HETATM   36  O4  UNL     1      35.128 -24.565 -38.623  1.00  0.00    -0.205 OA
BRANCH  34  37
HETATM   37  C3  UNL     1      35.845 -22.367 -39.918  1.00  0.00     0.174 C 
BRANCH  37  38
HETATM   38  C2  UNL     1      35.299 -22.256 -41.294  1.00  0.00     0.130 C 
BRANCH  38  39
HETATM   39  C1  UNL     1      33.811 -22.450 -41.241  1.00  0.00     0.173 C 
HETATM   40  O1  UNL     1      33.060 -21.495 -40.929  1.00  0.00    -0.648 OA
HETATM   41  O2  UNL     1      33.336 -23.721 -41.553  1.00  0.00    -0.648 OA
ENDBRANCH  38  39
ENDBRANCH  37  38
ENDBRANCH  34  37
ENDBRANCH   1  34
TORSDOF 14
ENDMDL
MODEL 5
REMARK VINA RESULT: -7.889062477      3.352      7.668
REMARK  14 active torsions:
REMARK  status: ('A' for Active; 'I' for Inactive)
REMARK    1  A    between atoms: C1_2  and  C2_4 
REMARK    2  A    between atoms: C2_4  and  C3_5 
REMARK    3  A    between atoms: C3_5  and  S1_6 
REMARK    4  A    between atoms: S1_6  and  N1_9 
REMARK    5  A    between atoms: C7_15  and  O6_16 
REMARK    6  A    between atoms: C8_18  and  C9_19 
REMARK    7  A    between atoms: C9_19  and  C10_20 
REMARK    8  A    between atoms: C10_20  and  O7_21 
REMARK    9  A    between atoms: O7_21  and  C11_22 
REMARK   10  A    between atoms: C11_22  and  C12_23 
REMARK   11  A    between atoms: C13_24  and  C14_25 
REMARK   12  A    between atoms: C14_25  and  N2_26 
REMARK   13  A    between atoms: C18_32  and  C19_33 
REMARK   14  A    between atoms: C19_33  and  C20_34 
ROOT
HETATM    1  N1  UNL     1      37.964 -24.066 -38.037  1.00  0.00    -0.280 N 
HETATM    2  C4  UNL     1      39.011 -23.127 -37.946  1.00  0.00     0.100 C 
HETATM    3  C5  UNL     1      40.125 -23.582 -38.867  1.00  0.00     0.169 C 
HETATM    4 BR1  UNL     1      41.771 -22.696 -38.319  1.00  0.00    -0.077 Br
HETATM    5  C6  UNL     1      40.286 -25.033 -38.652  1.00  0.00     0.175 C 
HETATM    6  O5  UNL     1      41.410 -25.371 -39.079  1.00  0.00    -0.293 OA
HETATM    7  C7  UNL     1      39.515 -26.091 -38.105  1.00  0.00     0.195 C 
HETATM    8  C8  UNL     1      38.765 -25.899 -36.789  1.00  0.00     0.051 C 
HETATM    9  C18 UNL     1      37.738 -24.879 -36.811  1.00  0.00     0.131 C 
ENDROOT
BRANCH   8  10
HETATM   10  C9  UNL     1      39.629 -26.200 -35.625  1.00  0.00     0.036 C 
BRANCH  10  11
HETATM   11  C10 UNL     1      39.430 -27.527 -34.941  1.00  0.00     0.169 C 
BRANCH  11  12
HETATM   12  O7  UNL     1      38.061 -27.841 -35.153  1.00  0.00    -0.379 OA
BRANCH  12  13
HETATM   13  C11 UNL     1      37.665 -28.619 -34.078  1.00  0.00     0.261 C 
BRANCH  13  14
HETATM   14  C12 UNL     1      37.368 -27.831 -32.883  1.00  0.00    -0.079 C 
HETATM   15  C13 UNL     1      37.121 -27.172 -31.919  1.00  0.00    -0.084 C 
BRANCH  15  16
HETATM   16  C14 UNL     1      36.817 -26.331 -30.738  1.00  0.00     0.223 C 
BRANCH  16  17
HETATM   17  N2  UNL     1      37.963 -25.565 -30.334  1.00  0.00    -0.341 N 
HETATM   18  C15 UNL     1      38.497 -25.507 -29.110  1.00  0.00     0.110 A 
HETATM   19  C16 UNL     1      39.589 -24.664 -29.117  1.00  0.00     0.106 A 
HETATM   20  N3  UNL     1      39.703 -24.213 -30.374  1.00  0.00    -0.361 N 
HETATM   21  C17 UNL     1      38.706 -24.768 -31.111  1.00  0.00     0.183 A 
ATOM     22  H3  UNL     1      40.413 -23.567 -30.717  1.00  0.00     0.166 HD
ENDBRANCH  16  17
ENDBRANCH  15  16
ENDBRANCH  13  14
ENDBRANCH  12  13
ENDBRANCH  11  12
ENDBRANCH  10  11
ENDBRANCH   8  10
BRANCH   7  23
HETATM   23  O6  UNL     1      38.601 -26.615 -39.043  1.00  0.00    -0.388 OA
ATOM     24  H6  UNL     1      38.705 -27.554 -39.152  1.00  0.00     0.210 HD
ENDBRANCH   7  23
BRANCH   9  25
HETATM   25  C19 UNL     1      37.341 -23.977 -35.751  1.00  0.00     0.011 C 
BRANCH  25  26
HETATM   26  C20 UNL     1      36.292 -24.279 -34.783  1.00  0.00    -0.033 A 
HETATM   27  C21 UNL     1      36.065 -23.459 -33.714  1.00  0.00     0.053 A 
HETATM   28  C22 UNL     1      35.088 -23.704 -32.778  1.00  0.00     0.118 A 
HETATM   29  F1  UNL     1      34.895 -22.859 -31.725  1.00  0.00    -0.206 F 
HETATM   30  C23 UNL     1      34.306 -24.807 -32.909  1.00  0.00     0.066 A 
HETATM   31  C24 UNL     1      34.490 -25.674 -33.972  1.00  0.00     0.037 A 
HETATM   32 CL1  UNL     1      33.458 -27.083 -34.101  1.00  0.00    -0.084 Cl
HETATM   33  C25 UNL     1      35.484 -25.397 -34.898  1.00  0.00     0.035 A 
ENDBRANCH  25  26
ENDBRANCH   9  25
BRANCH   1  34
HETATM   34  S1  UNL     1      36.542 -23.530 -38.776  1.00  0.00     0.233 S 
HETATM   35  O3  UNL     1      35.371 -24.283 -38.211  1.00  0.00    -0.205 OA
HETATM   36  O4  UNL     1      36.375 -22.040 -38.535  1.00  0.00    -0.205 OA
BRANCH  34  37
HETATM   37  C3  UNL     1      36.528 -23.782 -40.526  1.00  0.00     0.174 C 
BRANCH  37  38
HETATM   38  C2  UNL     1      35.212 -24.203 -41.065  1.00  0.00     0.130 C 
BRANCH  38  39
HETATM   39  C1  UNL     1      34.339 -22.990 -41.214  1.00  0.00     0.173 C 
HETATM   40  O1  UNL     1      33.109 -23.063 -40.981  1.00  0.00    -0.648 OA
HETATM   41  O2  UNL     1      34.969 -21.814 -41.614  1.00  0.00    -0.648 OA
ENDBRANCH  38  39
ENDBRANCH  37  38
ENDBRANCH  34  37
ENDBRANCH   1  34
TORSDOF 14
ENDMDL
