MODEL 1
REMARK VINA RESULT: -9.335040638      0.000      0.000
REMARK  12 active torsions:
REMARK  status: ('A' for Active; 'I' for Inactive)
REMARK    1  A    between atoms: C8_10  and  C9_11 
REMARK       I    between atoms: C9_11  and  N2_13 
REMARK    2  A    between atoms: N2_13  and  C10_14 
REMARK    3  A    between atoms: C10_14  and  C11_15 
REMARK    4  A    between atoms: C12_17  and  C13_18 
REMARK    5  A    between atoms: C13_18  and  O3_19 
REMARK    6  A    between atoms: C15_21  and  O4_22 
REMARK    7  A    between atoms: O4_22  and  C16_23 
REMARK    8  A    between atoms: C16_23  and  C17_24 
REMARK    9  A    between atoms: C23_30  and  O5_31 
REMARK   10  A    between atoms: O5_31  and  C24_32 
REMARK   11  A    between atoms: C24_32  and  C25_33 
REMARK   12  A    between atoms: C31_41  and  O6_42 
ROOT
HETATM    1  C1  UNL     1      33.585 -26.888 -34.302  1.00  0.00     0.098 C 
HETATM    2  C2  UNL     1      34.314 -26.240 -33.548  1.00  0.00    -0.169 C 
HETATM    3  C3  UNL     1      35.221 -25.481 -32.671  1.00  0.00     0.083 C 
HETATM    4  C4  UNL     1      36.132 -26.441 -31.941  1.00  0.00     0.037 C 
HETATM    5  C5  UNL     1      34.273 -24.737 -31.673  1.00  0.00     0.208 C 
HETATM    6  F1  UNL     1      33.003 -25.148 -31.932  1.00  0.00    -0.246 F 
HETATM    7  C6  UNL     1      34.418 -23.257 -32.070  1.00  0.00     0.134 C 
HETATM    8  N1  UNL     1      35.861 -23.233 -32.383  1.00  0.00    -0.281 NA
HETATM    9  C7  UNL     1      36.525 -23.384 -31.129  1.00  0.00     0.116 C 
HETATM   10  C8  UNL     1      35.931 -24.342 -33.290  1.00  0.00     0.093 C 
ENDROOT
BRANCH  10  11
HETATM   11  C9  UNL     1      37.220 -24.519 -33.991  1.00  0.00     0.334 C 
HETATM   12  O1  UNL     1      38.244 -24.121 -33.366  1.00  0.00    -0.250 OA
HETATM   13  N2  UNL     1      37.255 -25.057 -35.233  1.00  0.00    -0.380 NA
BRANCH  13  14
HETATM   14  C10 UNL     1      37.404 -25.584 -36.513  1.00  0.00     0.194 C 
BRANCH  14  15
HETATM   15  C11 UNL     1      36.323 -26.192 -37.331  1.00  0.00     0.205 C 
HETATM   16  O2  UNL     1      36.211 -27.541 -37.373  1.00  0.00    -0.367 OA
HETATM   17  C12 UNL     1      36.670 -28.160 -38.511  1.00  0.00     0.177 C 
HETATM   18  C15 UNL     1      36.234 -27.595 -39.841  1.00  0.00     0.184 C 
HETATM   19  C23 UNL     1      35.653 -26.238 -39.755  1.00  0.00     0.191 C 
HETATM   20  C31 UNL     1      36.408 -25.467 -38.629  1.00  0.00     0.185 C 
BRANCH  17  21
HETATM   21  C13 UNL     1      38.202 -28.144 -38.433  1.00  0.00     0.201 C 
BRANCH  21  22
HETATM   22  O3  UNL     1      38.635 -29.320 -37.829  1.00  0.00    -0.393 OA
HETATM   23  C14 UNL     1      39.813 -29.714 -38.443  1.00  0.00     0.201 C 
ENDBRANCH  21  22
ENDBRANCH  17  21
BRANCH  18  24
HETATM   24  O4  UNL     1      37.267 -27.860 -40.700  1.00  0.00    -0.376 OA
BRANCH  24  25
HETATM   25  C16 UNL     1      37.045 -28.809 -41.664  1.00  0.00     0.207 C 
BRANCH  25  26
HETATM   26  C17 UNL     1      37.812 -30.040 -41.545  1.00  0.00    -0.035 A 
HETATM   27  C18 UNL     1      38.991 -30.285 -42.091  1.00  0.00     0.009 A 
HETATM   28  C19 UNL     1      39.650 -31.516 -41.934  1.00  0.00     0.001 A 
HETATM   29  C20 UNL     1      39.061 -32.482 -41.189  1.00  0.00     0.000 A 
HETATM   30  C21 UNL     1      37.836 -32.287 -40.590  1.00  0.00     0.001 A 
HETATM   31  C22 UNL     1      37.234 -31.078 -40.779  1.00  0.00     0.009 A 
ENDBRANCH  25  26
ENDBRANCH  24  25
ENDBRANCH  18  24
BRANCH  19  32
HETATM   32  O5  UNL     1      35.546 -25.455 -40.787  1.00  0.00    -0.351 OA
BRANCH  32  33
HETATM   33  C24 UNL     1      34.819 -24.738 -41.493  1.00  0.00     0.149 C 
BRANCH  33  34
HETATM   34  C25 UNL     1      33.626 -23.929 -41.311  1.00  0.00     0.024 A 
HETATM   35  C26 UNL     1      32.290 -24.322 -41.484  1.00  0.00     0.018 A 
HETATM   36  C27 UNL     1      31.262 -23.429 -41.569  1.00  0.00     0.020 A 
HETATM   37  C28 UNL     1      31.483 -22.108 -41.470  1.00  0.00     0.013 A 
HETATM   38 BR1  UNL     1      30.058 -20.803 -41.595  1.00  0.00    -0.051 Br
HETATM   39  C29 UNL     1      32.786 -21.630 -41.283  1.00  0.00     0.062 A 
HETATM   40  C30 UNL     1      33.800 -22.518 -41.217  1.00  0.00     0.129 A 
HETATM   41  F2  UNL     1      35.054 -21.990 -41.032  1.00  0.00    -0.205 F 
ENDBRANCH  33  34
ENDBRANCH  32  33
ENDBRANCH  19  32
BRANCH  20  42
HETATM   42  O6  UNL     1      35.720 -24.212 -38.420  1.00  0.00    -0.390 OA
ATOM     43  H6  UNL     1      35.534 -23.874 -39.288  1.00  0.00     0.210 HD
ENDBRANCH  20  42
ENDBRANCH  14  15
ENDBRANCH  13  14
ENDBRANCH  10  11
TORSDOF 12
ENDMDL
MODEL 2
REMARK VINA RESULT: -9.301794738      3.110      6.352
REMARK  12 active torsions:
REMARK  status: ('A' for Active; 'I' for Inactive)
REMARK    1  A    between atoms: C8_10  and  C9_11 
REMARK       I    between atoms: C9_11  and  N2_13 
REMARK    2  A    between atoms: N2_13  and  C10_14 
REMARK    3  A    between atoms: C10_14  and  C11_15 
REMARK    4  A    between atoms: C12_17  and  C13_18 
REMARK    5  A    between atoms: C13_18  and  O3_19 
REMARK    6  A    between atoms: C15_21  and  O4_22 
REMARK    7  A    between atoms: O4_22  and  C16_23 
REMARK    8  A    between atoms: C16_23  and  C17_24 
REMARK    9  A    between atoms: C23_30  and  O5_31 
REMARK   10  A    between atoms: O5_31  and  C24_32 
REMARK   11  A    between atoms: C24_32  and  C25_33 
REMARK   12  A    between atoms: C31_41  and  O6_42 
ROOT
HETATM    1  C1  UNL     1      33.602 -23.704 -31.432  1.00  0.00     0.098 C 
HETATM    2  C2  UNL     1      34.610 -24.373 -31.675  1.00  0.00    -0.169 C 
HETATM    3  C3  UNL     1      35.808 -25.160 -32.010  1.00  0.00     0.083 C 
HETATM    4  C4  UNL     1      35.419 -26.300 -32.923  1.00  0.00     0.037 C 
HETATM    5  C5  UNL     1      36.325 -25.694 -30.634  1.00  0.00     0.208 C 
HETATM    6  F1  UNL     1      35.430 -25.314 -29.684  1.00  0.00    -0.246 F 
HETATM    7  C6  UNL     1      37.645 -24.930 -30.421  1.00  0.00     0.134 C 
HETATM    8  N1  UNL     1      38.142 -24.919 -31.812  1.00  0.00    -0.281 NA
HETATM    9  C7  UNL     1      38.498 -26.270 -32.099  1.00  0.00     0.116 C 
HETATM   10  C8  UNL     1      36.984 -24.398 -32.479  1.00  0.00     0.093 C 
ENDROOT
BRANCH  10  11
HETATM   11  C9  UNL     1      37.166 -24.049 -33.904  1.00  0.00     0.334 C 
HETATM   12  O1  UNL     1      36.170 -23.514 -34.469  1.00  0.00    -0.250 OA
HETATM   13  N2  UNL     1      38.334 -24.321 -34.530  1.00  0.00    -0.380 NA
BRANCH  13  14
HETATM   14  C10 UNL     1      39.484 -24.569 -35.274  1.00  0.00     0.194 C 
BRANCH  14  15
HETATM   15  C11 UNL     1      39.537 -25.276 -36.579  1.00  0.00     0.205 C 
HETATM   16  O2  UNL     1      39.938 -24.596 -37.679  1.00  0.00    -0.367 OA
HETATM   17  C12 UNL     1      38.952 -24.204 -38.553  1.00  0.00     0.177 C 
HETATM   18  C15 UNL     1      37.930 -25.236 -38.966  1.00  0.00     0.184 C 
HETATM   19  C23 UNL     1      37.914 -26.441 -38.109  1.00  0.00     0.191 C 
HETATM   20  C31 UNL     1      38.233 -25.992 -36.649  1.00  0.00     0.185 C 
BRANCH  17  21
HETATM   21  C13 UNL     1      38.234 -23.015 -37.901  1.00  0.00     0.201 C 
BRANCH  21  22
HETATM   22  O3  UNL     1      38.948 -21.854 -38.171  1.00  0.00    -0.393 OA
HETATM   23  C14 UNL     1      39.232 -21.824 -39.527  1.00  0.00     0.201 C 
ENDBRANCH  21  22
ENDBRANCH  17  21
BRANCH  18  24
HETATM   24  O4  UNL     1      36.781 -24.530 -39.202  1.00  0.00    -0.376 OA
BRANCH  24  25
HETATM   25  C16 UNL     1      36.200 -24.683 -40.434  1.00  0.00     0.207 C 
BRANCH  25  26
HETATM   26  C17 UNL     1      35.189 -23.700 -40.795  1.00  0.00    -0.035 A 
HETATM   27  C18 UNL     1      35.339 -22.386 -40.800  1.00  0.00     0.009 A 
HETATM   28  C19 UNL     1      34.296 -21.512 -41.148  1.00  0.00     0.001 A 
HETATM   29  C20 UNL     1      33.097 -22.035 -41.501  1.00  0.00     0.000 A 
HETATM   30  C21 UNL     1      32.878 -23.394 -41.522  1.00  0.00     0.001 A 
HETATM   31  C22 UNL     1      33.921 -24.200 -41.168  1.00  0.00     0.009 A 
ENDBRANCH  25  26
ENDBRANCH  24  25
ENDBRANCH  18  24
BRANCH  19  32
HETATM   32  O5  UNL     1      36.908 -27.262 -38.074  1.00  0.00    -0.351 OA
BRANCH  32  33
HETATM   33  C24 UNL     1      36.313 -28.220 -38.595  1.00  0.00     0.149 C 
BRANCH  33  34
HETATM   34  C25 UNL     1      36.627 -29.283 -39.534  1.00  0.00     0.024 A 
HETATM   35  C26 UNL     1      36.752 -30.654 -39.263  1.00  0.00     0.018 A 
HETATM   36  C27 UNL     1      37.325 -31.530 -40.138  1.00  0.00     0.020 A 
HETATM   37  C28 UNL     1      37.786 -31.117 -41.329  1.00  0.00     0.013 A 
HETATM   38 BR1  UNL     1      38.616 -32.322 -42.599  1.00  0.00    -0.051 Br
HETATM   39  C29 UNL     1      37.688 -29.767 -41.687  1.00  0.00     0.062 A 
HETATM   40  C30 UNL     1      37.136 -28.902 -40.809  1.00  0.00     0.129 A 
HETATM   41  F2  UNL     1      37.067 -27.592 -41.214  1.00  0.00    -0.205 F 
ENDBRANCH  33  34
ENDBRANCH  32  33
ENDBRANCH  19  32
BRANCH  20  42
HETATM   42  O6  UNL     1      38.399 -27.185 -35.850  1.00  0.00    -0.390 OA
ATOM     43  H6  UNL     1      37.549 -27.355 -35.462  1.00  0.00     0.210 HD
ENDBRANCH  20  42
ENDBRANCH  14  15
ENDBRANCH  13  14
ENDBRANCH  10  11
TORSDOF 12
ENDMDL
MODEL 3
REMARK VINA RESULT: -9.041701470      3.284      4.872
REMARK  12 active torsions:
REMARK  status: ('A' for Active; 'I' for Inactive)
REMARK    1  A    between atoms: C8_10  and  C9_11 
REMARK       I    between atoms: C9_11  and  N2_13 
REMARK    2  A    between atoms: N2_13  and  C10_14 
REMARK    3  A    between atoms: C10_14  and  C11_15 
REMARK    4  A    between atoms: C12_17  and  C13_18 
REMARK    5  A    between atoms: C13_18  and  O3_19 
REMARK    6  A    between atoms: C15_21  and  O4_22 
REMARK    7  A    between atoms: O4_22  and  C16_23 
REMARK    8  A    between atoms: C16_23  and  C17_24 
REMARK    9  A    between atoms: C23_30  and  O5_31 
REMARK   10  A    between atoms: O5_31  and  C24_32 
REMARK   11  A    between atoms: C24_32  and  C25_33 
REMARK   12  A    between atoms: C31_41  and  O6_42 
ROOT
HETATM    1  C1  UNL     1      33.630 -23.410 -31.281  1.00  0.00     0.098 C 
HETATM    2  C2  UNL     1      34.418 -24.275 -31.668  1.00  0.00    -0.169 C 
HETATM    3  C3  UNL     1      35.345 -25.301 -32.175  1.00  0.00     0.083 C 
HETATM    4  C4  UNL     1      34.558 -26.397 -32.854  1.00  0.00     0.037 C 
HETATM    5  C5  UNL     1      36.071 -25.840 -30.898  1.00  0.00     0.208 C 
HETATM    6  F1  UNL     1      35.507 -25.234 -29.820  1.00  0.00    -0.246 F 
HETATM    7  C6  UNL     1      37.517 -25.336 -31.063  1.00  0.00     0.134 C 
HETATM    8  N1  UNL     1      37.665 -25.508 -32.522  1.00  0.00    -0.281 NA
HETATM    9  C7  UNL     1      37.700 -26.918 -32.738  1.00  0.00     0.116 C 
HETATM   10  C8  UNL     1      36.492 -24.813 -32.969  1.00  0.00     0.093 C 
ENDROOT
BRANCH  10  11
HETATM   11  C9  UNL     1      36.391 -24.595 -34.427  1.00  0.00     0.334 C 
HETATM   12  O1  UNL     1      36.188 -23.401 -34.791  1.00  0.00    -0.250 OA
HETATM   13  N2  UNL     1      36.494 -25.638 -35.283  1.00  0.00    -0.380 NA
BRANCH  13  14
HETATM   14  C10 UNL     1      36.570 -26.638 -36.249  1.00  0.00     0.194 C 
BRANCH  14  15
HETATM   15  C11 UNL     1      37.013 -26.453 -37.655  1.00  0.00     0.205 C 
HETATM   16  O2  UNL     1      38.257 -26.854 -38.009  1.00  0.00    -0.367 OA
HETATM   17  C12 UNL     1      39.203 -25.868 -38.158  1.00  0.00     0.177 C 
HETATM   18  C15 UNL     1      38.830 -24.659 -38.981  1.00  0.00     0.184 C 
HETATM   19  C23 UNL     1      37.379 -24.527 -39.232  1.00  0.00     0.191 C 
HETATM   20  C31 UNL     1      36.628 -25.049 -37.968  1.00  0.00     0.185 C 
BRANCH  17  21
HETATM   21  C13 UNL     1      39.594 -25.417 -36.745  1.00  0.00     0.201 C 
BRANCH  21  22
HETATM   22  O3  UNL     1      40.575 -26.270 -36.254  1.00  0.00    -0.393 OA
HETATM   23  C14 UNL     1      41.746 -26.036 -36.957  1.00  0.00     0.201 C 
ENDBRANCH  21  22
ENDBRANCH  17  21
BRANCH  18  24
HETATM   24  O4  UNL     1      39.544 -23.622 -38.440  1.00  0.00    -0.376 OA
BRANCH  24  25
HETATM   25  C16 UNL     1      40.374 -22.933 -39.285  1.00  0.00     0.207 C 
BRANCH  25  26
HETATM   26  C17 UNL     1      41.721 -22.678 -38.797  1.00  0.00    -0.035 A 
HETATM   27  C18 UNL     1      42.057 -22.328 -37.567  1.00  0.00     0.009 A 
HETATM   28  C19 UNL     1      43.388 -22.085 -37.192  1.00  0.00     0.001 A 
HETATM   29  C20 UNL     1      44.364 -22.223 -38.121  1.00  0.00     0.000 A 
HETATM   30  C21 UNL     1      44.081 -22.591 -39.418  1.00  0.00     0.001 A 
HETATM   31  C22 UNL     1      42.772 -22.808 -39.733  1.00  0.00     0.009 A 
ENDBRANCH  25  26
ENDBRANCH  24  25
ENDBRANCH  18  24
BRANCH  19  32
HETATM   32  O5  UNL     1      36.831 -23.408 -39.601  1.00  0.00    -0.351 OA
BRANCH  32  33
HETATM   33  C24 UNL     1      36.257 -22.762 -40.493  1.00  0.00     0.149 C 
BRANCH  33  34
HETATM   34  C25 UNL     1      34.910 -22.654 -41.028  1.00  0.00     0.024 A 
HETATM   35  C26 UNL     1      34.108 -21.505 -41.099  1.00  0.00     0.018 A 
HETATM   36  C27 UNL     1      32.767 -21.555 -41.350  1.00  0.00     0.020 A 
HETATM   37  C28 UNL     1      32.147 -22.726 -41.564  1.00  0.00     0.013 A 
HETATM   38 BR1  UNL     1      30.246 -22.847 -41.914  1.00  0.00    -0.051 Br
HETATM   39  C29 UNL     1      32.876 -23.921 -41.526  1.00  0.00     0.062 A 
HETATM   40  C30 UNL     1      34.198 -23.866 -41.259  1.00  0.00     0.129 A 
HETATM   41  F2  UNL     1      34.860 -25.068 -41.235  1.00  0.00    -0.205 F 
ENDBRANCH  33  34
ENDBRANCH  32  33
ENDBRANCH  19  32
BRANCH  20  42
HETATM   42  O6  UNL     1      35.217 -25.093 -38.283  1.00  0.00    -0.390 OA
ATOM     43  H6  UNL     1      35.059 -25.963 -38.628  1.00  0.00     0.210 HD
ENDBRANCH  20  42
ENDBRANCH  14  15
ENDBRANCH  13  14
ENDBRANCH  10  11
TORSDOF 12
ENDMDL
MODEL 4
REMARK VINA RESULT: -9.035626516      3.785      6.669
REMARK  12 active torsions:
REMARK  status: ('A' for Active; 'I' for Inactive)
REMARK    1  A    between atoms: C8_10  and  C9_11 
REMARK       I    between atoms: C9_11  and  N2_13 
REMARK    2  A    between atoms: N2_13  and  C10_14 
REMARK    3  A    between atoms: C10_14  and  C11_15 
REMARK    4  A    between atoms: C12_17  and  C13_18 
REMARK    5  A    between atoms: C13_18  and  O3_19 
REMARK    6  A    between atoms: C15_21  and  O4_22 
REMARK    7  A    between atoms: O4_22  and  C16_23 
REMARK    8  A    between atoms: C16_23  and  C17_24 
REMARK    9  A    between atoms: C23_30  and  O5_31 
REMARK   10  A    between atoms: O5_31  and  C24_32 
REMARK   11  A    between atoms: C24_32  and  C25_33 
REMARK   12  A    between atoms: C31_41  and  O6_42 
ROOT
HETATM    1  C1  UNL     1      33.323 -23.635 -31.142  1.00  0.00     0.098 C 
HETATM    2  C2  UNL     1      34.320 -24.269 -31.497  1.00  0.00    -0.169 C 
HETATM    3  C3  UNL     1      35.501 -25.014 -31.965  1.00  0.00     0.083 C 
HETATM    4  C4  UNL     1      35.060 -26.118 -32.897  1.00  0.00     0.037 C 
HETATM    5  C5  UNL     1      36.138 -25.600 -30.661  1.00  0.00     0.208 C 
HETATM    6  F1  UNL     1      35.315 -25.285 -29.626  1.00  0.00    -0.246 F 
HETATM    7  C6  UNL     1      37.456 -24.818 -30.518  1.00  0.00     0.134 C 
HETATM    8  N1  UNL     1      37.838 -24.731 -31.942  1.00  0.00    -0.281 NA
HETATM    9  C7  UNL     1      38.195 -26.059 -32.321  1.00  0.00     0.116 C 
HETATM   10  C8  UNL     1      36.621 -24.205 -32.488  1.00  0.00     0.093 C 
ENDROOT
BRANCH  10  11
HETATM   11  C9  UNL     1      36.682 -23.786 -33.904  1.00  0.00     0.334 C 
HETATM   12  O1  UNL     1      35.630 -23.258 -34.366  1.00  0.00    -0.250 OA
HETATM   13  N2  UNL     1      37.805 -23.992 -34.631  1.00  0.00    -0.380 NA
BRANCH  13  14
HETATM   14  C10 UNL     1      38.900 -24.168 -35.472  1.00  0.00     0.194 C 
BRANCH  14  15
HETATM   15  C11 UNL     1      38.923 -25.002 -36.701  1.00  0.00     0.205 C 
HETATM   16  O2  UNL     1      39.189 -24.411 -37.890  1.00  0.00    -0.367 OA
HETATM   17  C12 UNL     1      38.116 -24.190 -38.720  1.00  0.00     0.177 C 
HETATM   18  C15 UNL     1      37.160 -25.336 -38.950  1.00  0.00     0.184 C 
HETATM   19  C23 UNL     1      37.305 -26.443 -37.980  1.00  0.00     0.191 C 
HETATM   20  C31 UNL     1      37.683 -25.820 -36.600  1.00  0.00     0.185 C 
BRANCH  17  21
HETATM   21  C13 UNL     1      37.345 -23.000 -38.136  1.00  0.00     0.201 C 
BRANCH  21  22
HETATM   22  O3  UNL     1      37.632 -21.865 -38.887  1.00  0.00    -0.393 OA
HETATM   23  C14 UNL     1      38.442 -22.239 -39.947  1.00  0.00     0.201 C 
ENDBRANCH  21  22
ENDBRANCH  17  21
BRANCH  18  24
HETATM   24  O4  UNL     1      35.942 -24.750 -39.166  1.00  0.00    -0.376 OA
BRANCH  24  25
HETATM   25  C16 UNL     1      35.330 -25.013 -40.364  1.00  0.00     0.207 C 
BRANCH  25  26
HETATM   26  C17 UNL     1      34.400 -24.003 -40.847  1.00  0.00    -0.035 A 
HETATM   27  C18 UNL     1      33.162 -24.211 -41.262  1.00  0.00     0.009 A 
HETATM   28  C19 UNL     1      32.342 -23.171 -41.729  1.00  0.00     0.001 A 
HETATM   29  C20 UNL     1      32.834 -21.909 -41.747  1.00  0.00     0.000 A 
HETATM   30  C21 UNL     1      34.113 -21.625 -41.323  1.00  0.00     0.001 A 
HETATM   31  C22 UNL     1      34.872 -22.671 -40.885  1.00  0.00     0.009 A 
ENDBRANCH  25  26
ENDBRANCH  24  25
ENDBRANCH  18  24
BRANCH  19  32
HETATM   32  O5  UNL     1      36.377 -27.332 -37.787  1.00  0.00    -0.351 OA
BRANCH  32  33
HETATM   33  C24 UNL     1      36.087 -28.517 -37.555  1.00  0.00     0.149 C 
BRANCH  33  34
HETATM   34  C25 UNL     1      35.248 -29.240 -36.616  1.00  0.00     0.024 A 
HETATM   35  C26 UNL     1      34.582 -28.728 -35.492  1.00  0.00     0.018 A 
HETATM   36  C27 UNL     1      34.057 -29.526 -34.517  1.00  0.00     0.020 A 
HETATM   37  C28 UNL     1      34.137 -30.863 -34.600  1.00  0.00     0.013 A 
HETATM   38 BR1  UNL     1      33.415 -32.034 -33.237  1.00  0.00    -0.051 Br
HETATM   39  C29 UNL     1      34.772 -31.459 -35.697  1.00  0.00     0.062 A 
HETATM   40  C30 UNL     1      35.305 -30.663 -36.648  1.00  0.00     0.129 A 
HETATM   41  F2  UNL     1      35.914 -31.304 -37.699  1.00  0.00    -0.205 F 
ENDBRANCH  33  34
ENDBRANCH  32  33
ENDBRANCH  19  32
BRANCH  20  42
HETATM   42  O6  UNL     1      38.004 -26.906 -35.702  1.00  0.00    -0.390 OA
ATOM     43  H6  UNL     1      38.778 -27.320 -36.066  1.00  0.00     0.210 HD
ENDBRANCH  20  42
ENDBRANCH  14  15
ENDBRANCH  13  14
ENDBRANCH  10  11
TORSDOF 12
ENDMDL
MODEL 5
REMARK VINA RESULT: -8.983557554      4.861      9.414
REMARK  12 active torsions:
REMARK  status: ('A' for Active; 'I' for Inactive)
REMARK    1  A    between atoms: C8_10  and  C9_11 
REMARK       I    between atoms: C9_11  and  N2_13 
REMARK    2  A    between atoms: N2_13  and  C10_14 
REMARK    3  A    between atoms: C10_14  and  C11_15 
REMARK    4  A    between atoms: C12_17  and  C13_18 
REMARK    5  A    between atoms: C13_18  and  O3_19 
REMARK    6  A    between atoms: C15_21  and  O4_22 
REMARK    7  A    between atoms: O4_22  and  C16_23 
REMARK    8  A    between atoms: C16_23  and  C17_24 
REMARK    9  A    between atoms: C23_30  and  O5_31 
REMARK   10  A    between atoms: O5_31  and  C24_32 
REMARK   11  A    between atoms: C24_32  and  C25_33 
REMARK   12  A    between atoms: C31_41  and  O6_42 
ROOT
HETATM    1  C1  UNL     1      43.442 -20.033 -36.019  1.00  0.00     0.098 C 
HETATM    2  C2  UNL     1      43.165 -21.110 -36.552  1.00  0.00    -0.169 C 
HETATM    3  C3  UNL     1      42.789 -22.389 -37.178  1.00  0.00     0.083 C 
HETATM    4  C4  UNL     1      42.169 -23.293 -36.138  1.00  0.00     0.037 C 
HETATM    5  C5  UNL     1      44.138 -22.981 -37.704  1.00  0.00     0.208 C 
HETATM    6  F1  UNL     1      45.135 -22.148 -37.302  1.00  0.00    -0.246 F 
HETATM    7  C6  UNL     1      43.998 -22.899 -39.235  1.00  0.00     0.134 C 
HETATM    8  N1  UNL     1      42.566 -23.240 -39.362  1.00  0.00    -0.281 NA
HETATM    9  C7  UNL     1      42.472 -24.622 -39.019  1.00  0.00     0.116 C 
HETATM   10  C8  UNL     1      42.010 -22.302 -38.431  1.00  0.00     0.093 C 
ENDROOT
BRANCH  10  11
HETATM   11  C9  UNL     1      40.535 -22.201 -38.423  1.00  0.00     0.334 C 
HETATM   12  O1  UNL     1      40.059 -21.158 -37.892  1.00  0.00    -0.250 OA
HETATM   13  N2  UNL     1      39.779 -23.197 -38.944  1.00  0.00    -0.380 NA
BRANCH  13  14
HETATM   14  C10 UNL     1      38.910 -24.164 -39.438  1.00  0.00     0.194 C 
BRANCH  14  15
HETATM   15  C11 UNL     1      38.464 -25.381 -38.711  1.00  0.00     0.205 C 
HETATM   16  O2  UNL     1      37.250 -25.909 -38.997  1.00  0.00    -0.367 OA
HETATM   17  C12 UNL     1      36.245 -25.666 -38.092  1.00  0.00     0.177 C 
HETATM   18  C15 UNL     1      36.545 -25.903 -36.631  1.00  0.00     0.184 C 
HETATM   19  C23 UNL     1      37.987 -26.031 -36.328  1.00  0.00     0.191 C 
HETATM   20  C31 UNL     1      38.762 -25.073 -37.285  1.00  0.00     0.185 C 
BRANCH  17  21
HETATM   21  C13 UNL     1      35.817 -24.207 -38.289  1.00  0.00     0.201 C 
BRANCH  21  22
HETATM   22  O3  UNL     1      34.806 -24.158 -39.241  1.00  0.00    -0.393 OA
HETATM   23  C14 UNL     1      35.190 -23.276 -40.238  1.00  0.00     0.201 C 
ENDBRANCH  21  22
ENDBRANCH  17  21
BRANCH  18  24
HETATM   24  O4  UNL     1      35.765 -25.005 -35.954  1.00  0.00    -0.376 OA
BRANCH  24  25
HETATM   25  C16 UNL     1      34.898 -25.515 -35.022  1.00  0.00     0.207 C 
BRANCH  25  26
HETATM   26  C17 UNL     1      34.806 -24.788 -33.764  1.00  0.00    -0.035 A 
HETATM   27  C18 UNL     1      35.247 -23.564 -33.531  1.00  0.00     0.009 A 
HETATM   28  C19 UNL     1      35.128 -22.949 -32.273  1.00  0.00     0.001 A 
HETATM   29  C20 UNL     1      34.531 -23.632 -31.267  1.00  0.00     0.000 A 
HETATM   30  C21 UNL     1      34.045 -24.908 -31.446  1.00  0.00     0.001 A 
HETATM   31  C22 UNL     1      34.192 -25.463 -32.684  1.00  0.00     0.009 A 
ENDBRANCH  25  26
ENDBRANCH  24  25
ENDBRANCH  18  24
BRANCH  19  32
HETATM   32  O5  UNL     1      38.466 -25.886 -35.128  1.00  0.00    -0.351 OA
BRANCH  32  33
HETATM   33  C24 UNL     1      38.366 -25.350 -34.013  1.00  0.00     0.149 C 
BRANCH  33  34
HETATM   34  C25 UNL     1      38.138 -25.780 -32.644  1.00  0.00     0.024 A 
HETATM   35  C26 UNL     1      37.521 -26.963 -32.210  1.00  0.00     0.018 A 
HETATM   36  C27 UNL     1      37.098 -27.147 -30.926  1.00  0.00     0.020 A 
HETATM   37  C28 UNL     1      37.273 -26.195 -29.996  1.00  0.00     0.013 A 
HETATM   38 BR1  UNL     1      36.680 -26.408 -28.165  1.00  0.00    -0.051 Br
HETATM   39  C29 UNL     1      37.894 -24.988 -30.340  1.00  0.00     0.062 A 
HETATM   40  C30 UNL     1      38.294 -24.805 -31.617  1.00  0.00     0.129 A 
HETATM   41  F2  UNL     1      38.896 -23.603 -31.894  1.00  0.00    -0.205 F 
ENDBRANCH  33  34
ENDBRANCH  32  33
ENDBRANCH  19  32
BRANCH  20  42
HETATM   42  O6  UNL     1      40.174 -25.333 -37.117  1.00  0.00    -0.390 OA
ATOM     43  H6  UNL     1      40.338 -26.157 -37.560  1.00  0.00     0.210 HD
ENDBRANCH  20  42
ENDBRANCH  14  15
ENDBRANCH  13  14
ENDBRANCH  10  11
TORSDOF 12
ENDMDL
