MODEL 1
REMARK VINA RESULT: -6.928521662      0.000      0.000
REMARK  6 active torsions:
REMARK  status: ('A' for Active; 'I' for Inactive)
REMARK    1  A    between atoms: C1_2  and  C2_3 
REMARK    2  A    between atoms: C1_2  and  O2_10 
REMARK    3  A    between atoms: C3_4  and  C4_5 
REMARK    4  A    between atoms: O2_10  and  C8_11 
REMARK    5  A    between atoms: N1_13  and  O3_15 
REMARK    6  A    between atoms: C13_20  and  O4_21 
ROOT
HETATM    1  C8  UNL     1      64.886  21.791  23.098  1.00  0.00     0.208 C 
HETATM    2  C9  UNL     1      65.900  22.180  22.092  1.00  0.00     0.042 C 
HETATM    3  N1  UNL     1      67.149  22.265  22.334  1.00  0.00    -0.275 N 
ATOM      4  H1  UNL     1      67.500  22.059  23.269  1.00  0.00     0.193 HD
HETATM    5  C10 UNL     1      65.385  22.485  20.716  1.00  0.00     0.057 C 
HETATM    6  C11 UNL     1      64.189  23.405  20.777  1.00  0.00     0.008 C 
HETATM    7  C12 UNL     1      63.199  22.996  21.825  1.00  0.00     0.035 C 
HETATM    8  C13 UNL     1      63.892  22.956  23.178  1.00  0.00     0.153 C 
ENDROOT
BRANCH   1   9
HETATM    9  O2  UNL     1      65.420  21.529  24.356  1.00  0.00    -0.304 OA
BRANCH   9  10
HETATM   10  C1  UNL     1      65.671  20.224  24.794  1.00  0.00     0.283 C 
HETATM   11  O1  UNL     1      66.778  19.738  24.463  1.00  0.00    -0.260 OA
BRANCH  10  12
HETATM   12  C2  UNL     1      64.720  19.472  25.582  1.00  0.00     0.083 C 
HETATM   13  C3  UNL     1      63.437  19.549  25.289  1.00  0.00     0.025 C 
BRANCH  13  14
HETATM   14  C4  UNL     1      62.444  18.786  26.083  1.00  0.00     0.005 A 
HETATM   15  C5  UNL     1      62.304  17.428  26.176  1.00  0.00     0.019 A 
HETATM   16  C6  UNL     1      61.327  16.966  26.961  1.00  0.00     0.008 A 
HETATM   17  C7  UNL     1      60.544  17.882  27.607  1.00  0.00     0.050 A 
HETATM   18  S1  UNL     1      61.205  19.370  27.094  1.00  0.00    -0.102 SA
ENDBRANCH  13  14
ENDBRANCH  10  12
ENDBRANCH   9  10
ENDBRANCH   1   9
BRANCH   8  19
HETATM   19  O4  UNL     1      64.569  24.162  23.396  1.00  0.00    -0.393 OA
ATOM     20  H4  UNL     1      64.535  24.706  22.618  1.00  0.00     0.210 HD
ENDBRANCH   8  19
BRANCH   3  21
HETATM   21  O3  UNL     1      68.024  22.634  21.342  1.00  0.00    -0.290 OA
ATOM     22  H3  UNL     1      68.961  22.537  21.468  1.00  0.00     0.244 HD
ENDBRANCH   3  21
TORSDOF 6
ENDMDL
MODEL 2
REMARK VINA RESULT: -6.793145337      2.559      4.076
REMARK  6 active torsions:
REMARK  status: ('A' for Active; 'I' for Inactive)
REMARK    1  A    between atoms: C1_2  and  C2_3 
REMARK    2  A    between atoms: C1_2  and  O2_10 
REMARK    3  A    between atoms: C3_4  and  C4_5 
REMARK    4  A    between atoms: O2_10  and  C8_11 
REMARK    5  A    between atoms: N1_13  and  O3_15 
REMARK    6  A    between atoms: C13_20  and  O4_21 
ROOT
HETATM    1  C8  UNL     1      66.472  24.423  21.574  1.00  0.00     0.208 C 
HETATM    2  C9  UNL     1      66.862  24.472  20.147  1.00  0.00     0.042 C 
HETATM    3  N1  UNL     1      66.101  24.120  19.187  1.00  0.00    -0.275 N 
ATOM      4  H1  UNL     1      65.159  23.780  19.384  1.00  0.00     0.193 HD
HETATM    5  C10 UNL     1      68.248  24.971  19.857  1.00  0.00     0.057 C 
HETATM    6  C11 UNL     1      69.262  24.304  20.754  1.00  0.00     0.008 C 
HETATM    7  C12 UNL     1      68.820  24.249  22.185  1.00  0.00     0.035 C 
HETATM    8  C13 UNL     1      67.491  23.513  22.268  1.00  0.00     0.153 C 
ENDROOT
BRANCH   1   9
HETATM    9  O2  UNL     1      65.181  23.945  21.784  1.00  0.00    -0.304 OA
BRANCH   9  10
HETATM   10  C1  UNL     1      64.494  24.175  22.981  1.00  0.00     0.283 C 
HETATM   11  O1  UNL     1      64.232  25.373  23.241  1.00  0.00    -0.260 OA
BRANCH  10  12
HETATM   12  C2  UNL     1      64.106  23.105  23.872  1.00  0.00     0.083 C 
HETATM   13  C3  UNL     1      64.323  21.856  23.512  1.00  0.00     0.025 C 
BRANCH  13  14
HETATM   14  C4  UNL     1      63.933  20.741  24.410  1.00  0.00     0.005 A 
HETATM   15  C5  UNL     1      62.685  20.434  24.877  1.00  0.00     0.019 A 
HETATM   16  C6  UNL     1      62.576  19.374  25.681  1.00  0.00     0.008 A 
HETATM   17  C7  UNL     1      63.717  18.680  25.976  1.00  0.00     0.050 A 
HETATM   18  S1  UNL     1      64.912  19.538  25.111  1.00  0.00    -0.102 SA
ENDBRANCH  13  14
ENDBRANCH  10  12
ENDBRANCH   9  10
ENDBRANCH   1   9
BRANCH   8  19
HETATM   19  O4  UNL     1      67.589  22.288  21.598  1.00  0.00    -0.393 OA
ATOM     20  H4  UNL     1      68.310  21.776  21.945  1.00  0.00     0.210 HD
ENDBRANCH   8  19
BRANCH   3  21
HETATM   21  O3  UNL     1      66.542  24.197  17.889  1.00  0.00    -0.290 OA
ATOM     22  H3  UNL     1      66.132  24.797  17.277  1.00  0.00     0.244 HD
ENDBRANCH   3  21
TORSDOF 6
ENDMDL
MODEL 3
REMARK VINA RESULT: -6.790860558      1.628      2.576
REMARK  6 active torsions:
REMARK  status: ('A' for Active; 'I' for Inactive)
REMARK    1  A    between atoms: C1_2  and  C2_3 
REMARK    2  A    between atoms: C1_2  and  O2_10 
REMARK    3  A    between atoms: C3_4  and  C4_5 
REMARK    4  A    between atoms: O2_10  and  C8_11 
REMARK    5  A    between atoms: N1_13  and  O3_15 
REMARK    6  A    between atoms: C13_20  and  O4_21 
ROOT
HETATM    1  C8  UNL     1      65.848  21.792  23.303  1.00  0.00     0.208 C 
HETATM    2  C9  UNL     1      64.820  22.773  22.889  1.00  0.00     0.042 C 
HETATM    3  N1  UNL     1      63.596  22.482  22.687  1.00  0.00    -0.275 N 
ATOM      4  H1  UNL     1      63.276  21.522  22.810  1.00  0.00     0.193 HD
HETATM    5  C10 UNL     1      65.291  24.187  22.706  1.00  0.00     0.057 C 
HETATM    6  C11 UNL     1      66.559  24.234  21.886  1.00  0.00     0.008 C 
HETATM    7  C12 UNL     1      67.563  23.208  22.317  1.00  0.00     0.035 C 
HETATM    8  C13 UNL     1      66.935  21.826  22.223  1.00  0.00     0.153 C 
ENDROOT
BRANCH   1   9
HETATM    9  O2  UNL     1      65.357  20.498  23.449  1.00  0.00    -0.304 OA
BRANCH   9  10
HETATM   10  C1  UNL     1      65.651  19.719  24.574  1.00  0.00     0.283 C 
HETATM   11  O1  UNL     1      66.863  19.459  24.759  1.00  0.00    -0.260 OA
BRANCH  10  12
HETATM   12  C2  UNL     1      64.628  19.237  25.475  1.00  0.00     0.083 C 
HETATM   13  C3  UNL     1      63.365  19.520  25.226  1.00  0.00     0.025 C 
BRANCH  13  14
HETATM   14  C4  UNL     1      62.298  19.036  26.136  1.00  0.00     0.005 A 
HETATM   15  C5  UNL     1      61.427  19.781  26.883  1.00  0.00     0.019 A 
HETATM   16  C6  UNL     1      60.545  19.119  27.635  1.00  0.00     0.008 A 
HETATM   17  C7  UNL     1      60.581  17.752  27.603  1.00  0.00     0.050 A 
HETATM   18  S1  UNL     1      61.855  17.436  26.512  1.00  0.00    -0.102 SA
ENDBRANCH  13  14
ENDBRANCH  10  12
ENDBRANCH   9  10
ENDBRANCH   1   9
BRANCH   8  19
HETATM   19  O4  UNL     1      66.369  21.651  20.955  1.00  0.00    -0.393 OA
ATOM     20  H4  UNL     1      66.239  20.727  20.774  1.00  0.00     0.210 HD
ENDBRANCH   8  19
BRANCH   3  21
HETATM   21  O3  UNL     1      62.706  23.455  22.303  1.00  0.00    -0.290 OA
ATOM     22  H3  UNL     1      61.779  23.257  22.230  1.00  0.00     0.244 HD
ENDBRANCH   3  21
TORSDOF 6
ENDMDL
MODEL 4
REMARK VINA RESULT: -6.717083907      2.988      4.328
REMARK  6 active torsions:
REMARK  status: ('A' for Active; 'I' for Inactive)
REMARK    1  A    between atoms: C1_2  and  C2_3 
REMARK    2  A    between atoms: C1_2  and  O2_10 
REMARK    3  A    between atoms: C3_4  and  C4_5 
REMARK    4  A    between atoms: O2_10  and  C8_11 
REMARK    5  A    between atoms: N1_13  and  O3_15 
REMARK    6  A    between atoms: C13_20  and  O4_21 
ROOT
HETATM    1  C8  UNL     1      65.619  23.450  21.409  1.00  0.00     0.208 C 
HETATM    2  C9  UNL     1      66.289  23.946  20.186  1.00  0.00     0.042 C 
HETATM    3  N1  UNL     1      65.871  23.724  19.003  1.00  0.00    -0.275 N 
ATOM      4  H1  UNL     1      65.025  23.172  18.859  1.00  0.00     0.193 HD
HETATM    5  C10 UNL     1      67.536  24.757  20.396  1.00  0.00     0.057 C 
HETATM    6  C11 UNL     1      68.461  24.081  21.379  1.00  0.00     0.008 C 
HETATM    7  C12 UNL     1      67.743  23.568  22.590  1.00  0.00     0.035 C 
HETATM    8  C13 UNL     1      66.655  22.599  22.152  1.00  0.00     0.153 C 
ENDROOT
BRANCH   1   9
HETATM    9  O2  UNL     1      64.476  22.699  21.153  1.00  0.00    -0.304 OA
BRANCH   9  10
HETATM   10  C1  UNL     1      63.196  23.265  21.194  1.00  0.00     0.283 C 
HETATM   11  O1  UNL     1      62.857  23.927  20.185  1.00  0.00    -0.260 OA
BRANCH  10  12
HETATM   12  C2  UNL     1      62.310  23.101  22.325  1.00  0.00     0.083 C 
HETATM   13  C3  UNL     1      62.664  22.302  23.311  1.00  0.00     0.025 C 
BRANCH  13  14
HETATM   14  C4  UNL     1      61.771  22.119  24.481  1.00  0.00     0.005 A 
HETATM   15  C5  UNL     1      60.950  23.044  25.065  1.00  0.00     0.019 A 
HETATM   16  C6  UNL     1      60.232  22.646  26.119  1.00  0.00     0.008 A 
HETATM   17  C7  UNL     1      60.374  21.350  26.532  1.00  0.00     0.050 A 
HETATM   18  S1  UNL     1      61.514  20.726  25.424  1.00  0.00    -0.102 SA
ENDBRANCH  13  14
ENDBRANCH  10  12
ENDBRANCH   9  10
ENDBRANCH   1   9
BRANCH   8  19
HETATM   19  O4  UNL     1      67.201  21.636  21.295  1.00  0.00    -0.393 OA
ATOM     20  H4  UNL     1      66.625  20.882  21.233  1.00  0.00     0.210 HD
ENDBRANCH   8  19
BRANCH   3  21
HETATM   21  O3  UNL     1      66.554  24.222  17.920  1.00  0.00    -0.290 OA
ATOM     22  H3  UNL     1      67.068  25.017  18.001  1.00  0.00     0.244 HD
ENDBRANCH   3  21
TORSDOF 6
ENDMDL
MODEL 5
REMARK VINA RESULT: -6.709344593      2.723      3.682
REMARK  6 active torsions:
REMARK  status: ('A' for Active; 'I' for Inactive)
REMARK    1  A    between atoms: C1_2  and  C2_3 
REMARK    2  A    between atoms: C1_2  and  O2_10 
REMARK    3  A    between atoms: C3_4  and  C4_5 
REMARK    4  A    between atoms: O2_10  and  C8_11 
REMARK    5  A    between atoms: N1_13  and  O3_15 
REMARK    6  A    between atoms: C13_20  and  O4_21 
ROOT
HETATM    1  C8  UNL     1      67.015  23.220  22.563  1.00  0.00     0.208 C 
HETATM    2  C9  UNL     1      66.138  23.738  21.490  1.00  0.00     0.042 C 
HETATM    3  N1  UNL     1      65.410  23.002  20.746  1.00  0.00    -0.275 N 
ATOM      4  H1  UNL     1      65.412  21.990  20.876  1.00  0.00     0.193 HD
HETATM    5  C10 UNL     1      66.136  25.226  21.297  1.00  0.00     0.057 C 
HETATM    6  C11 UNL     1      67.544  25.770  21.262  1.00  0.00     0.008 C 
HETATM    7  C12 UNL     1      68.409  25.202  22.346  1.00  0.00     0.035 C 
HETATM    8  C13 UNL     1      68.435  23.687  22.221  1.00  0.00     0.153 C 
ENDROOT
BRANCH   1   9
HETATM    9  O2  UNL     1      66.984  21.834  22.690  1.00  0.00    -0.304 OA
BRANCH   9  10
HETATM   10  C1  UNL     1      66.423  21.208  23.809  1.00  0.00     0.283 C 
HETATM   11  O1  UNL     1      67.088  20.267  24.302  1.00  0.00    -0.260 OA
BRANCH  10  12
HETATM   12  C2  UNL     1      65.153  21.612  24.370  1.00  0.00     0.083 C 
HETATM   13  C3  UNL     1      64.038  21.269  23.756  1.00  0.00     0.025 C 
BRANCH  13  14
HETATM   14  C4  UNL     1      62.725  21.673  24.314  1.00  0.00     0.005 A 
HETATM   15  C5  UNL     1      61.865  20.924  25.070  1.00  0.00     0.019 A 
HETATM   16  C6  UNL     1      60.729  21.506  25.462  1.00  0.00     0.008 A 
HETATM   17  C7  UNL     1      60.512  22.800  25.079  1.00  0.00     0.050 A 
HETATM   18  S1  UNL     1      61.916  23.164  24.177  1.00  0.00    -0.102 SA
ENDBRANCH  13  14
ENDBRANCH  10  12
ENDBRANCH   9  10
ENDBRANCH   1   9
BRANCH   8  19
HETATM   19  O4  UNL     1      68.764  23.328  20.908  1.00  0.00    -0.393 OA
ATOM     20  H4  UNL     1      69.676  23.524  20.729  1.00  0.00     0.210 HD
ENDBRANCH   8  19
BRANCH   3  21
HETATM   21  O3  UNL     1      64.623  23.564  19.771  1.00  0.00    -0.290 OA
ATOM     22  H3  UNL     1      64.015  23.027  19.276  1.00  0.00     0.244 HD
ENDBRANCH   3  21
TORSDOF 6
ENDMDL
