MODEL 1
REMARK VINA RESULT: -7.229350453      0.000      0.000
REMARK  6 active torsions:
REMARK  status: ('A' for Active; 'I' for Inactive)
REMARK    1  A    between atoms: O1_1  and  C1_3 
REMARK    2  A    between atoms: C4_6  and  O2_7 
REMARK    3  A    between atoms: N1_9  and  C5_10 
REMARK    4  A    between atoms: C5_10  and  C6_11 
REMARK    5  A    between atoms: C6_11  and  C7_12 
REMARK    6  A    between atoms: C7_12  and  N2_13 
ROOT
HETATM    1  C1  UNL     1      63.539  20.509  24.680  1.00  0.00     0.151 A 
HETATM    2  C2  UNL     1      64.271  21.268  23.803  1.00  0.00     0.004 A 
HETATM    3  C3  UNL     1      65.531  20.713  23.790  1.00  0.00     0.008 A 
HETATM    4  C4  UNL     1      65.539  19.636  24.652  1.00  0.00     0.151 A 
HETATM    5  N1  UNL     1      64.297  19.516  25.201  1.00  0.00    -0.308 N 
HETATM    6  C9  UNL     1      66.568  21.309  22.935  1.00  0.00     0.024 C 
HETATM    7  C10 UNL     1      66.255  21.052  21.467  1.00  0.00     0.010 C 
HETATM    8  C11 UNL     1      65.345  22.158  21.018  1.00  0.00     0.005 C 
HETATM    9  C12 UNL     1      65.101  23.013  22.267  1.00  0.00    -0.009 C 
HETATM   10  C13 UNL     1      63.915  22.461  22.975  1.00  0.00     0.048 C 
HETATM   11  C14 UNL     1      66.403  22.819  23.005  1.00  0.00     0.014 C 
ENDROOT
BRANCH   5  12
HETATM   12  C5  UNL     1      63.817  18.550  26.152  1.00  0.00     0.135 C 
BRANCH  12  13
HETATM   13  C6  UNL     1      62.720  17.704  25.552  1.00  0.00     0.041 C 
BRANCH  13  14
HETATM   14  C7  UNL     1      62.291  16.586  26.429  1.00  0.00     0.141 C 
BRANCH  14  15
HETATM   15  N2  UNL     1      61.429  16.968  27.506  1.00  0.00    -0.299 N 
HETATM   16  C8  UNL     1      60.969  16.485  28.674  1.00  0.00     0.199 A 
HETATM   17  N3  UNL     1      60.158  17.430  29.183  1.00  0.00    -0.308 N 
HETATM   18  S1  UNL     1      60.510  18.337  27.826  1.00  0.00     0.071 SA
ATOM     19  H3  UNL     1      59.587  17.543  30.019  1.00  0.00     0.176 HD
ENDBRANCH  14  15
ENDBRANCH  13  14
ENDBRANCH  12  13
ENDBRANCH   5  12
BRANCH   1  20
HETATM   20  O1  UNL     1      62.188  20.769  24.963  1.00  0.00    -0.345 OA
ATOM     21  H1  UNL     1      61.482  20.497  24.387  1.00  0.00     0.219 HD
ENDBRANCH   1  20
BRANCH   4  22
HETATM   22  O2  UNL     1      66.625  18.802  24.927  1.00  0.00    -0.345 OA
ATOM     23  H2  UNL     1      67.257  18.913  25.628  1.00  0.00     0.219 HD
ENDBRANCH   4  22
TORSDOF 6
ENDMDL
MODEL 2
REMARK VINA RESULT: -7.037478951      0.573      2.283
REMARK  6 active torsions:
REMARK  status: ('A' for Active; 'I' for Inactive)
REMARK    1  A    between atoms: O1_1  and  C1_3 
REMARK    2  A    between atoms: C4_6  and  O2_7 
REMARK    3  A    between atoms: N1_9  and  C5_10 
REMARK    4  A    between atoms: C5_10  and  C6_11 
REMARK    5  A    between atoms: C6_11  and  C7_12 
REMARK    6  A    between atoms: C7_12  and  N2_13 
ROOT
HETATM    1  C1  UNL     1      65.646  19.890  24.505  1.00  0.00     0.151 A 
HETATM    2  C2  UNL     1      65.762  20.876  23.558  1.00  0.00     0.004 A 
HETATM    3  C3  UNL     1      64.510  21.436  23.444  1.00  0.00     0.008 A 
HETATM    4  C4  UNL     1      63.663  20.783  24.318  1.00  0.00     0.151 A 
HETATM    5  N1  UNL     1      64.377  19.825  24.972  1.00  0.00    -0.308 N 
HETATM    6  C9  UNL     1      64.301  22.538  22.495  1.00  0.00     0.024 C 
HETATM    7  C10 UNL     1      65.005  23.797  22.982  1.00  0.00     0.010 C 
HETATM    8  C11 UNL     1      66.418  23.725  22.482  1.00  0.00     0.005 C 
HETATM    9  C12 UNL     1      66.521  22.380  21.754  1.00  0.00    -0.009 C 
HETATM   10  C13 UNL     1      66.927  21.351  22.748  1.00  0.00     0.048 C 
HETATM   11  C14 UNL     1      65.109  22.221  21.246  1.00  0.00     0.014 C 
ENDROOT
BRANCH   5  12
HETATM   12  C5  UNL     1      63.934  18.893  25.974  1.00  0.00     0.135 C 
BRANCH  12  13
HETATM   13  C6  UNL     1      62.688  18.170  25.522  1.00  0.00     0.041 C 
BRANCH  13  14
HETATM   14  C7  UNL     1      62.373  16.970  26.338  1.00  0.00     0.141 C 
BRANCH  14  15
HETATM   15  N2  UNL     1      61.469  17.205  27.421  1.00  0.00    -0.299 N 
HETATM   16  C8  UNL     1      60.970  16.571  28.499  1.00  0.00     0.199 A 
HETATM   17  N3  UNL     1      60.133  17.439  29.095  1.00  0.00    -0.308 N 
HETATM   18  S1  UNL     1      60.526  18.517  27.882  1.00  0.00     0.071 SA
ATOM     19  H3  UNL     1      59.530  17.439  29.917  1.00  0.00     0.176 HD
ENDBRANCH  14  15
ENDBRANCH  13  14
ENDBRANCH  12  13
ENDBRANCH   5  12
BRANCH   1  20
HETATM   20  O1  UNL     1      66.727  19.086  24.899  1.00  0.00    -0.345 OA
ATOM     21  H1  UNL     1      66.620  18.185  25.180  1.00  0.00     0.219 HD
ENDBRANCH   1  20
BRANCH   4  22
HETATM   22  O2  UNL     1      62.305  21.048  24.508  1.00  0.00    -0.345 OA
ATOM     23  H2  UNL     1      61.693  21.356  23.850  1.00  0.00     0.219 HD
ENDBRANCH   4  22
TORSDOF 6
ENDMDL
MODEL 3
REMARK VINA RESULT: -6.951878267      4.104      6.012
REMARK  6 active torsions:
REMARK  status: ('A' for Active; 'I' for Inactive)
REMARK    1  A    between atoms: O1_1  and  C1_3 
REMARK    2  A    between atoms: C4_6  and  O2_7 
REMARK    3  A    between atoms: N1_9  and  C5_10 
REMARK    4  A    between atoms: C5_10  and  C6_11 
REMARK    5  A    between atoms: C6_11  and  C7_12 
REMARK    6  A    between atoms: C7_12  and  N2_13 
ROOT
HETATM    1  C1  UNL     1      62.130  20.958  24.620  1.00  0.00     0.151 A 
HETATM    2  C2  UNL     1      63.464  20.697  24.432  1.00  0.00     0.004 A 
HETATM    3  C3  UNL     1      63.894  21.604  23.490  1.00  0.00     0.008 A 
HETATM    4  C4  UNL     1      62.821  22.392  23.126  1.00  0.00     0.151 A 
HETATM    5  N1  UNL     1      61.729  21.984  23.833  1.00  0.00    -0.308 N 
HETATM    6  C9  UNL     1      65.301  21.583  23.065  1.00  0.00     0.024 C 
HETATM    7  C10 UNL     1      66.202  22.071  24.192  1.00  0.00     0.010 C 
HETATM    8  C11 UNL     1      66.512  20.876  25.046  1.00  0.00     0.005 C 
HETATM    9  C12 UNL     1      65.729  19.717  24.420  1.00  0.00    -0.009 C 
HETATM   10  C13 UNL     1      64.380  19.686  25.045  1.00  0.00     0.048 C 
HETATM   11  C14 UNL     1      65.725  20.126  22.967  1.00  0.00     0.014 C 
ENDROOT
BRANCH   5  12
HETATM   12  C5  UNL     1      60.386  22.497  23.799  1.00  0.00     0.135 C 
BRANCH  12  13
HETATM   13  C6  UNL     1      60.297  23.818  24.523  1.00  0.00     0.041 C 
BRANCH  13  14
HETATM   14  C7  UNL     1      60.090  24.975  23.615  1.00  0.00     0.141 C 
BRANCH  14  15
HETATM   15  N2  UNL     1      59.396  24.666  22.402  1.00  0.00    -0.299 N 
HETATM   16  C8  UNL     1      59.660  24.332  21.126  1.00  0.00     0.199 A 
HETATM   17  N3  UNL     1      58.468  24.184  20.520  1.00  0.00    -0.308 N 
HETATM   18  S1  UNL     1      57.772  24.570  21.987  1.00  0.00     0.071 SA
ATOM     19  H3  UNL     1      58.138  23.943  19.585  1.00  0.00     0.176 HD
ENDBRANCH  14  15
ENDBRANCH  13  14
ENDBRANCH  12  13
ENDBRANCH   5  12
BRANCH   1  20
HETATM   20  O1  UNL     1      61.334  20.230  25.518  1.00  0.00    -0.345 OA
ATOM     21  H1  UNL     1      60.637  19.651  25.233  1.00  0.00     0.219 HD
ENDBRANCH   1  20
BRANCH   4  22
HETATM   22  O2  UNL     1      62.835  23.432  22.195  1.00  0.00    -0.345 OA
ATOM     23  H2  UNL     1      62.496  24.310  22.325  1.00  0.00     0.219 HD
ENDBRANCH   4  22
TORSDOF 6
ENDMDL
MODEL 4
REMARK VINA RESULT: -6.909929300      0.998      2.605
REMARK  6 active torsions:
REMARK  status: ('A' for Active; 'I' for Inactive)
REMARK    1  A    between atoms: O1_1  and  C1_3 
REMARK    2  A    between atoms: C4_6  and  O2_7 
REMARK    3  A    between atoms: N1_9  and  C5_10 
REMARK    4  A    between atoms: C5_10  and  C6_11 
REMARK    5  A    between atoms: C6_11  and  C7_12 
REMARK    6  A    between atoms: C7_12  and  N2_13 
ROOT
HETATM    1  C1  UNL     1      64.697  19.980  24.619  1.00  0.00     0.151 A 
HETATM    2  C2  UNL     1      64.433  21.129  23.917  1.00  0.00     0.004 A 
HETATM    3  C3  UNL     1      63.105  21.411  24.146  1.00  0.00     0.008 A 
HETATM    4  C4  UNL     1      62.593  20.435  24.977  1.00  0.00     0.151 A 
HETATM    5  N1  UNL     1      63.589  19.550  25.265  1.00  0.00    -0.308 N 
HETATM    6  C9  UNL     1      62.507  22.600  23.523  1.00  0.00     0.024 C 
HETATM    7  C10 UNL     1      63.061  23.867  24.160  1.00  0.00     0.010 C 
HETATM    8  C11 UNL     1      64.327  24.203  23.427  1.00  0.00     0.005 C 
HETATM    9  C12 UNL     1      64.512  23.077  22.403  1.00  0.00    -0.009 C 
HETATM   10  C13 UNL     1      65.296  21.993  23.053  1.00  0.00     0.048 C 
HETATM   11  C14 UNL     1      63.077  22.711  22.117  1.00  0.00     0.014 C 
ENDROOT
BRANCH   5  12
HETATM   12  C5  UNL     1      63.541  18.371  26.086  1.00  0.00     0.135 C 
BRANCH  12  13
HETATM   13  C6  UNL     1      62.440  17.444  25.632  1.00  0.00     0.041 C 
BRANCH  13  14
HETATM   14  C7  UNL     1      62.156  16.349  26.594  1.00  0.00     0.141 C 
BRANCH  14  15
HETATM   15  N2  UNL     1      61.328  16.725  27.699  1.00  0.00    -0.299 N 
HETATM   16  C8  UNL     1      60.958  16.264  28.908  1.00  0.00     0.199 A 
HETATM   17  N3  UNL     1      60.117  17.181  29.421  1.00  0.00    -0.308 N 
HETATM   18  S1  UNL     1      60.343  18.049  28.014  1.00  0.00     0.071 SA
ATOM     19  H3  UNL     1      59.583  17.294  30.282  1.00  0.00     0.176 HD
ENDBRANCH  14  15
ENDBRANCH  13  14
ENDBRANCH  12  13
ENDBRANCH   5  12
BRANCH   1  20
HETATM   20  O1  UNL     1      65.963  19.374  24.631  1.00  0.00    -0.345 OA
ATOM     21  H1  UNL     1      66.580  19.488  25.345  1.00  0.00     0.219 HD
ENDBRANCH   1  20
BRANCH   4  22
HETATM   22  O2  UNL     1      61.281  20.353  25.448  1.00  0.00    -0.345 OA
ATOM     23  H2  UNL     1      60.779  19.558  25.583  1.00  0.00     0.219 HD
ENDBRANCH   4  22
TORSDOF 6
ENDMDL
MODEL 5
REMARK VINA RESULT: -6.898325898      4.279      6.261
REMARK  6 active torsions:
REMARK  status: ('A' for Active; 'I' for Inactive)
REMARK    1  A    between atoms: O1_1  and  C1_3 
REMARK    2  A    between atoms: C4_6  and  O2_7 
REMARK    3  A    between atoms: N1_9  and  C5_10 
REMARK    4  A    between atoms: C5_10  and  C6_11 
REMARK    5  A    between atoms: C6_11  and  C7_12 
REMARK    6  A    between atoms: C7_12  and  N2_13 
ROOT
HETATM    1  C1  UNL     1      64.996  22.738  21.194  1.00  0.00     0.151 A 
HETATM    2  C2  UNL     1      65.354  21.943  22.253  1.00  0.00     0.004 A 
HETATM    3  C3  UNL     1      64.804  22.535  23.368  1.00  0.00     0.008 A 
HETATM    4  C4  UNL     1      64.128  23.669  22.967  1.00  0.00     0.151 A 
HETATM    5  N1  UNL     1      64.253  23.788  21.614  1.00  0.00    -0.308 N 
HETATM    6  C9  UNL     1      65.011  21.915  24.684  1.00  0.00     0.024 C 
HETATM    7  C10 UNL     1      64.231  20.611  24.784  1.00  0.00     0.010 C 
HETATM    8  C11 UNL     1      65.110  19.536  24.215  1.00  0.00     0.005 C 
HETATM    9  C12 UNL     1      66.376  20.258  23.740  1.00  0.00    -0.009 C 
HETATM   10  C13 UNL     1      66.159  20.684  22.332  1.00  0.00     0.048 C 
HETATM   11  C14 UNL     1      66.441  21.400  24.725  1.00  0.00     0.014 C 
ENDROOT
BRANCH   5  12
HETATM   12  C5  UNL     1      63.725  24.802  20.743  1.00  0.00     0.135 C 
BRANCH  12  13
HETATM   13  C6  UNL     1      62.334  24.441  20.279  1.00  0.00     0.041 C 
BRANCH  13  14
HETATM   14  C7  UNL     1      61.262  25.137  21.034  1.00  0.00     0.141 C 
BRANCH  14  15
HETATM   15  N2  UNL     1      60.400  24.272  21.781  1.00  0.00    -0.299 N 
HETATM   16  C8  UNL     1      59.188  24.285  22.367  1.00  0.00     0.199 A 
HETATM   17  N3  UNL     1      59.016  23.066  22.908  1.00  0.00    -0.308 N 
HETATM   18  S1  UNL     1      60.528  22.684  22.314  1.00  0.00     0.071 SA
ATOM     19  H3  UNL     1      58.289  22.590  23.442  1.00  0.00     0.176 HD
ENDBRANCH  14  15
ENDBRANCH  13  14
ENDBRANCH  12  13
ENDBRANCH   5  12
BRANCH   1  20
HETATM   20  O1  UNL     1      65.376  22.455  19.872  1.00  0.00    -0.345 OA
ATOM     21  H1  UNL     1      65.282  23.084  19.166  1.00  0.00     0.219 HD
ENDBRANCH   1  20
BRANCH   4  22
HETATM   22  O2  UNL     1      63.432  24.554  23.792  1.00  0.00    -0.345 OA
ATOM     23  H2  UNL     1      62.570  24.919  23.628  1.00  0.00     0.219 HD
ENDBRANCH   4  22
TORSDOF 6
ENDMDL
