MODEL 1
REMARK VINA RESULT: -6.302015890      0.000      0.000
REMARK  7 active torsions:
REMARK  status: ('A' for Active; 'I' for Inactive)
REMARK    1  A    between atoms: C2_2  and  N1_4 
REMARK    2  A    between atoms: N1_4  and  N2_5 
REMARK    3  A    between atoms: N1_4  and  C9_23 
REMARK    4  A    between atoms: N2_5  and  N3_7 
REMARK    5  A    between atoms: N3_7  and  C4_9 
REMARK    6  A    between atoms: C6_13  and  C7_14 
REMARK    7  A    between atoms: C7_14  and  O1_15 
ROOT
HETATM    1  C4  UNL     1      62.286  20.317  25.123  1.00  0.00     0.167 A 
HETATM    2  N4  UNL     1      62.338  19.055  25.512  1.00  0.00    -0.331 N 
ATOM      3  H4  UNL     1      62.947  18.397  25.025  1.00  0.00     0.168 HD
HETATM    4  C5  UNL     1      61.620  18.650  26.510  1.00  0.00     0.096 A 
HETATM    5  C6  UNL     1      61.387  17.455  27.216  1.00  0.00     0.078 A 
HETATM    6  N5  UNL     1      60.493  17.721  28.181  1.00  0.00    -0.299 N 
ATOM      7  H5  UNL     1      60.142  17.029  28.843  1.00  0.00     0.186 HD
HETATM    8  N6  UNL     1      60.127  18.968  28.169  1.00  0.00    -0.291 N 
ATOM      9  H6  UNL     1      59.462  19.417  28.798  1.00  0.00     0.187 HD
HETATM   10  C8  UNL     1      60.815  19.559  27.141  1.00  0.00     0.121 A 
HETATM   11  S1  UNL     1      61.156  20.982  26.227  1.00  0.00    -0.031 SA
ENDROOT
BRANCH   1  12
HETATM   12  N3  UNL     1      62.998  20.966  24.045  1.00  0.00    -0.265 N 
ATOM     13  H3  UNL     1      62.737  20.875  23.064  1.00  0.00     0.190 HD
BRANCH  12  14
HETATM   14  N2  UNL     1      63.995  21.670  24.451  1.00  0.00    -0.242 N 
ATOM     15  H2  UNL     1      64.127  21.821  25.451  1.00  0.00     0.208 HD
BRANCH  14  16
HETATM   16  N1  UNL     1      64.904  22.235  23.540  1.00  0.00    -0.301 N 
BRANCH  16  17
HETATM   17  C2  UNL     1      64.537  23.492  22.944  1.00  0.00     0.096 C 
HETATM   18  C1  UNL     1      63.768  23.421  21.679  1.00  0.00     0.033 C 
HETATM   19  C3  UNL     1      63.782  24.343  23.941  1.00  0.00     0.033 C 
ENDBRANCH  16  17
BRANCH  16  20
HETATM   20  C9  UNL     1      66.106  21.512  23.288  1.00  0.00     0.039 C 
HETATM   21  C10 UNL     1      65.996  20.518  22.162  1.00  0.00     0.039 C 
HETATM   22  C11 UNL     1      67.196  22.483  22.883  1.00  0.00     0.039 C 
HETATM   23  C12 UNL     1      66.579  20.880  24.580  1.00  0.00     0.039 C 
ENDBRANCH  16  20
ENDBRANCH  14  16
ENDBRANCH  12  14
ENDBRANCH   1  12
BRANCH   5  24
HETATM   24  C7  UNL     1      62.014  16.125  26.947  1.00  0.00     0.225 C 
BRANCH  24  25
HETATM   25  O1  UNL     1      62.056  15.908  25.593  1.00  0.00    -0.395 OA
ATOM     26  H1  UNL     1      62.666  15.205  25.405  1.00  0.00     0.209 HD
ENDBRANCH  24  25
ENDBRANCH   5  24
TORSDOF 7
ENDMDL
MODEL 2
REMARK VINA RESULT: -6.170266000      0.369      2.292
REMARK  7 active torsions:
REMARK  status: ('A' for Active; 'I' for Inactive)
REMARK    1  A    between atoms: C2_2  and  N1_4 
REMARK    2  A    between atoms: N1_4  and  N2_5 
REMARK    3  A    between atoms: N1_4  and  C9_23 
REMARK    4  A    between atoms: N2_5  and  N3_7 
REMARK    5  A    between atoms: N3_7  and  C4_9 
REMARK    6  A    between atoms: C6_13  and  C7_14 
REMARK    7  A    between atoms: C7_14  and  O1_15 
ROOT
HETATM    1  C4  UNL     1      62.231  20.321  25.147  1.00  0.00     0.167 A 
HETATM    2  N4  UNL     1      62.295  19.061  25.539  1.00  0.00    -0.331 N 
ATOM      3  H4  UNL     1      62.904  18.406  25.048  1.00  0.00     0.168 HD
HETATM    4  C5  UNL     1      61.589  18.654  26.544  1.00  0.00     0.096 A 
HETATM    5  C6  UNL     1      61.370  17.459  27.255  1.00  0.00     0.078 A 
HETATM    6  N5  UNL     1      60.483  17.721  28.227  1.00  0.00    -0.299 N 
ATOM      7  H5  UNL     1      60.143  17.028  28.895  1.00  0.00     0.186 HD
HETATM    8  N6  UNL     1      60.108  18.966  28.215  1.00  0.00    -0.291 N 
ATOM      9  H6  UNL     1      59.445  19.412  28.848  1.00  0.00     0.187 HD
HETATM   10  C8  UNL     1      60.782  19.558  27.180  1.00  0.00     0.121 A 
HETATM   11  S1  UNL     1      61.105  20.981  26.259  1.00  0.00    -0.031 SA
ENDROOT
BRANCH   1  12
HETATM   12  N3  UNL     1      62.928  20.973  24.060  1.00  0.00    -0.265 N 
ATOM     13  H3  UNL     1      62.714  20.809  23.077  1.00  0.00     0.190 HD
BRANCH  12  14
HETATM   14  N2  UNL     1      63.845  21.779  24.462  1.00  0.00    -0.242 N 
ATOM     15  H2  UNL     1      63.896  22.027  25.450  1.00  0.00     0.208 HD
BRANCH  14  16
HETATM   16  N1  UNL     1      64.779  22.324  23.563  1.00  0.00    -0.301 N 
BRANCH  16  17
HETATM   17  C2  UNL     1      66.035  21.635  23.428  1.00  0.00     0.096 C 
HETATM   18  C1  UNL     1      66.555  20.969  24.646  1.00  0.00     0.033 C 
HETATM   19  C3  UNL     1      65.961  20.629  22.302  1.00  0.00     0.033 C 
ENDBRANCH  16  17
BRANCH  16  20
HETATM   20  C9  UNL     1      64.399  23.509  22.870  1.00  0.00     0.039 C 
HETATM   21  C10 UNL     1      63.462  23.267  21.715  1.00  0.00     0.039 C 
HETATM   22  C11 UNL     1      63.660  24.427  23.821  1.00  0.00     0.039 C 
HETATM   23  C12 UNL     1      65.648  24.261  22.462  1.00  0.00     0.039 C 
ENDBRANCH  16  20
ENDBRANCH  14  16
ENDBRANCH  12  14
ENDBRANCH   1  12
BRANCH   5  24
HETATM   24  C7  UNL     1      62.005  16.133  26.984  1.00  0.00     0.225 C 
BRANCH  24  25
HETATM   25  O1  UNL     1      62.052  15.920  25.630  1.00  0.00    -0.395 OA
ATOM     26  H1  UNL     1      62.417  16.686  25.203  1.00  0.00     0.209 HD
ENDBRANCH  24  25
ENDBRANCH   5  24
TORSDOF 7
ENDMDL
MODEL 3
REMARK VINA RESULT: -6.054976062      4.473      5.990
REMARK  7 active torsions:
REMARK  status: ('A' for Active; 'I' for Inactive)
REMARK    1  A    between atoms: C2_2  and  N1_4 
REMARK    2  A    between atoms: N1_4  and  N2_5 
REMARK    3  A    between atoms: N1_4  and  C9_23 
REMARK    4  A    between atoms: N2_5  and  N3_7 
REMARK    5  A    between atoms: N3_7  and  C4_9 
REMARK    6  A    between atoms: C6_13  and  C7_14 
REMARK    7  A    between atoms: C7_14  and  O1_15 
ROOT
HETATM    1  C4  UNL     1      62.139  22.484  23.143  1.00  0.00     0.167 A 
HETATM    2  N4  UNL     1      61.769  23.310  22.179  1.00  0.00    -0.331 N 
ATOM      3  H4  UNL     1      62.467  23.689  21.539  1.00  0.00     0.168 HD
HETATM    4  C5  UNL     1      60.525  23.639  22.044  1.00  0.00     0.096 A 
HETATM    5  C6  UNL     1      59.741  24.446  21.198  1.00  0.00     0.078 A 
HETATM    6  N5  UNL     1      58.468  24.350  21.612  1.00  0.00    -0.299 N 
ATOM      7  H5  UNL     1      57.685  24.837  21.173  1.00  0.00     0.186 HD
HETATM    8  N6  UNL     1      58.352  23.562  22.639  1.00  0.00    -0.291 N 
ATOM      9  H6  UNL     1      57.493  23.326  23.135  1.00  0.00     0.187 HD
HETATM   10  C8  UNL     1      59.615  23.113  22.921  1.00  0.00     0.121 A 
HETATM   11  S1  UNL     1      60.645  22.147  23.912  1.00  0.00    -0.031 SA
ENDROOT
BRANCH   1  12
HETATM   12  N3  UNL     1      63.461  21.995  23.464  1.00  0.00    -0.265 N 
ATOM     13  H3  UNL     1      63.700  21.004  23.499  1.00  0.00     0.190 HD
BRANCH  12  14
HETATM   14  N2  UNL     1      64.304  22.937  23.699  1.00  0.00    -0.242 N 
ATOM     15  H2  UNL     1      64.128  23.587  24.464  1.00  0.00     0.208 HD
BRANCH  14  16
HETATM   16  N1  UNL     1      65.463  23.086  22.919  1.00  0.00    -0.301 N 
BRANCH  16  17
HETATM   17  C2  UNL     1      66.489  22.089  23.075  1.00  0.00     0.096 C 
HETATM   18  C1  UNL     1      66.591  21.453  24.410  1.00  0.00     0.033 C 
HETATM   19  C3  UNL     1      66.340  21.015  22.021  1.00  0.00     0.033 C 
ENDBRANCH  16  17
BRANCH  16  20
HETATM   20  C9  UNL     1      65.520  24.211  22.046  1.00  0.00     0.039 C 
HETATM   21  C10 UNL     1      64.953  23.949  20.675  1.00  0.00     0.039 C 
HETATM   22  C11 UNL     1      64.694  25.337  22.631  1.00  0.00     0.039 C 
HETATM   23  C12 UNL     1      66.943  24.726  22.001  1.00  0.00     0.039 C 
ENDBRANCH  16  20
ENDBRANCH  14  16
ENDBRANCH  12  14
ENDBRANCH   1  12
BRANCH   5  24
HETATM   24  C7  UNL     1      60.228  25.265  20.047  1.00  0.00     0.225 C 
BRANCH  24  25
HETATM   25  O1  UNL     1      61.308  24.645  19.472  1.00  0.00    -0.395 OA
ATOM     26  H1  UNL     1      61.879  25.299  19.087  1.00  0.00     0.209 HD
ENDBRANCH  24  25
ENDBRANCH   5  24
TORSDOF 7
ENDMDL
MODEL 4
REMARK VINA RESULT: -5.980598825      4.542      5.687
REMARK  7 active torsions:
REMARK  status: ('A' for Active; 'I' for Inactive)
REMARK    1  A    between atoms: C2_2  and  N1_4 
REMARK    2  A    between atoms: N1_4  and  N2_5 
REMARK    3  A    between atoms: N1_4  and  C9_23 
REMARK    4  A    between atoms: N2_5  and  N3_7 
REMARK    5  A    between atoms: N3_7  and  C4_9 
REMARK    6  A    between atoms: C6_13  and  C7_14 
REMARK    7  A    between atoms: C7_14  and  O1_15 
ROOT
HETATM    1  C4  UNL     1      62.151  22.511  23.051  1.00  0.00     0.167 A 
HETATM    2  N4  UNL     1      61.749  23.338  22.103  1.00  0.00    -0.331 N 
ATOM      3  H4  UNL     1      62.425  23.725  21.445  1.00  0.00     0.168 HD
HETATM    4  C5  UNL     1      60.499  23.660  22.006  1.00  0.00     0.096 A 
HETATM    5  C6  UNL     1      59.685  24.464  21.186  1.00  0.00     0.078 A 
HETATM    6  N5  UNL     1      58.425  24.358  21.635  1.00  0.00    -0.299 N 
ATOM      7  H5  UNL     1      57.626  24.841  21.222  1.00  0.00     0.186 HD
HETATM    8  N6  UNL     1      58.344  23.564  22.661  1.00  0.00    -0.291 N 
ATOM      9  H6  UNL     1      57.501  23.319  23.181  1.00  0.00     0.187 HD
HETATM   10  C8  UNL     1      59.618  23.123  22.905  1.00  0.00     0.121 A 
HETATM   11  S1  UNL     1      60.682  22.159  23.862  1.00  0.00    -0.031 SA
ENDROOT
BRANCH   1  12
HETATM   12  N3  UNL     1      63.486  22.029  23.332  1.00  0.00    -0.265 N 
ATOM     13  H3  UNL     1      63.740  21.042  23.325  1.00  0.00     0.190 HD
BRANCH  12  14
HETATM   14  N2  UNL     1      64.318  22.974  23.591  1.00  0.00    -0.242 N 
ATOM     15  H2  UNL     1      64.180  23.550  24.421  1.00  0.00     0.208 HD
BRANCH  14  16
HETATM   16  N1  UNL     1      65.415  23.227  22.749  1.00  0.00    -0.301 N 
BRANCH  16  17
HETATM   17  C2  UNL     1      65.319  24.366  21.875  1.00  0.00     0.096 C 
HETATM   18  C1  UNL     1      64.707  24.127  20.547  1.00  0.00     0.033 C 
HETATM   19  C3  UNL     1      64.589  25.495  22.566  1.00  0.00     0.033 C 
ENDBRANCH  16  17
BRANCH  16  20
HETATM   20  C9  UNL     1      66.520  22.332  22.835  1.00  0.00     0.039 C 
HETATM   21  C10 UNL     1      66.618  21.606  24.151  1.00  0.00     0.039 C 
HETATM   22  C11 UNL     1      66.376  21.259  21.775  1.00  0.00     0.039 C 
HETATM   23  C12 UNL     1      67.788  23.083  22.487  1.00  0.00     0.039 C 
ENDBRANCH  16  20
ENDBRANCH  14  16
ENDBRANCH  12  14
ENDBRANCH   1  12
BRANCH   5  24
HETATM   24  C7  UNL     1      60.133  25.292  20.025  1.00  0.00     0.225 C 
BRANCH  24  25
HETATM   25  O1  UNL     1      61.233  24.709  19.449  1.00  0.00    -0.395 OA
ATOM     26  H1  UNL     1      61.593  25.295  18.794  1.00  0.00     0.209 HD
ENDBRANCH  24  25
ENDBRANCH   5  24
TORSDOF 7
ENDMDL
MODEL 5
REMARK VINA RESULT: -5.954548023      5.089      8.781
REMARK  7 active torsions:
REMARK  status: ('A' for Active; 'I' for Inactive)
REMARK    1  A    between atoms: C2_2  and  N1_4 
REMARK    2  A    between atoms: N1_4  and  N2_5 
REMARK    3  A    between atoms: N1_4  and  C9_23 
REMARK    4  A    between atoms: N2_5  and  N3_7 
REMARK    5  A    between atoms: N3_7  and  C4_9 
REMARK    6  A    between atoms: C6_13  and  C7_14 
REMARK    7  A    between atoms: C7_14  and  O1_15 
ROOT
HETATM    1  C4  UNL     1      68.004  23.554  21.795  1.00  0.00     0.167 A 
HETATM    2  N4  UNL     1      67.732  23.840  20.534  1.00  0.00    -0.331 N 
ATOM      3  H4  UNL     1      67.191  23.186  19.969  1.00  0.00     0.168 HD
HETATM    4  C5  UNL     1      68.148  24.950  20.014  1.00  0.00     0.096 A 
HETATM    5  C6  UNL     1      68.083  25.615  18.775  1.00  0.00     0.078 A 
HETATM    6  N5  UNL     1      68.746  26.775  18.901  1.00  0.00    -0.299 N 
ATOM      7  H5  UNL     1      68.857  27.456  18.149  1.00  0.00     0.186 HD
HETATM    8  N6  UNL     1      69.231  26.925  20.098  1.00  0.00    -0.291 N 
ATOM      9  H6  UNL     1      69.771  27.718  20.444  1.00  0.00     0.187 HD
HETATM   10  C8  UNL     1      68.870  25.805  20.800  1.00  0.00     0.121 A 
HETATM   11  S1  UNL     1      68.903  24.928  22.285  1.00  0.00    -0.031 SA
ENDROOT
BRANCH   1  12
HETATM   12  N3  UNL     1      67.638  22.382  22.561  1.00  0.00    -0.265 N 
ATOM     13  H3  UNL     1      68.169  22.048  23.365  1.00  0.00     0.190 HD
BRANCH  12  14
HETATM   14  N2  UNL     1      66.575  21.807  22.124  1.00  0.00    -0.242 N 
ATOM     15  H2  UNL     1      66.612  21.284  21.249  1.00  0.00     0.208 HD
BRANCH  14  16
HETATM   16  N1  UNL     1      65.363  21.886  22.831  1.00  0.00    -0.301 N 
BRANCH  16  17
HETATM   17  C2  UNL     1      64.418  22.880  22.398  1.00  0.00     0.096 C 
HETATM   18  C1  UNL     1      64.619  24.252  22.922  1.00  0.00     0.033 C 
HETATM   19  C3  UNL     1      64.360  22.926  20.888  1.00  0.00     0.033 C 
ENDBRANCH  16  17
BRANCH  16  20
HETATM   20  C9  UNL     1      65.180  20.976  23.912  1.00  0.00     0.039 C 
HETATM   21  C10 UNL     1      65.840  19.638  23.704  1.00  0.00     0.039 C 
HETATM   22  C11 UNL     1      65.805  21.559  25.164  1.00  0.00     0.039 C 
HETATM   23  C12 UNL     1      63.701  20.857  24.210  1.00  0.00     0.039 C 
ENDBRANCH  16  20
ENDBRANCH  14  16
ENDBRANCH  12  14
ENDBRANCH   1  12
BRANCH   5  24
HETATM   24  C7  UNL     1      67.404  25.126  17.537  1.00  0.00     0.225 C 
BRANCH  24  25
HETATM   25  O1  UNL     1      66.460  24.189  17.875  1.00  0.00    -0.395 OA
ATOM     26  H1  UNL     1      66.872  23.494  18.374  1.00  0.00     0.209 HD
ENDBRANCH  24  25
ENDBRANCH   5  24
TORSDOF 7
ENDMDL
