MODEL 1
REMARK VINA RESULT: -5.644424840      0.000      0.000
REMARK  9 active torsions:
REMARK  status: ('A' for Active; 'I' for Inactive)
REMARK    1  A    between atoms: C1_2  and  C2_4 
REMARK    2  A    between atoms: C2_4  and  C3_5 
REMARK    3  A    between atoms: C2_4  and  C5_14 
REMARK    4  A    between atoms: C3_5  and  S1_6 
REMARK    5  A    between atoms: S1_6  and  C4_7 
REMARK    6  A    between atoms: C4_7  and  N2_8 
REMARK    7  A    between atoms: C4_7  and  O2_12 
REMARK    8  A    between atoms: C5_14  and  C6_15 
REMARK    9  A    between atoms: C6_15  and  C7_17 
ROOT
HETATM    1  C2  UNL     1      18.804  -7.520   7.603  1.00  0.00     0.091 C 
ENDROOT
BRANCH   1   2
HETATM    2  C1  UNL     1      19.144  -7.740   6.178  1.00  0.00     0.236 C 
HETATM    3  N1  UNL     1      18.321  -7.230   5.141  1.00  0.00    -0.062 NA
HETATM    4  O1  UNL     1      20.180  -8.388   5.878  1.00  0.00    -0.276 OA
ENDBRANCH   1   2
BRANCH   1   5
HETATM    5  C3  UNL     1      20.088  -7.074   8.284  1.00  0.00     0.092 C 
BRANCH   5   6
HETATM    6  S1  UNL     1      20.404  -5.319   7.997  1.00  0.00    -0.109 SA
BRANCH   6   7
HETATM    7  C4  UNL     1      21.871  -5.210   6.909  1.00  0.00     0.380 C 
BRANCH   7   8
HETATM    8  N2  UNL     1      22.390  -6.532   6.611  1.00  0.00    -0.044 N 
ATOM      9  H23 UNL     1      21.661  -7.154   6.260  1.00  0.00     0.278 HD
ATOM     10  H22 UNL     1      22.993  -6.525   5.789  1.00  0.00     0.278 HD
ATOM     11  H21 UNL     1      22.863  -6.926   7.424  1.00  0.00     0.278 HD
ENDBRANCH   7   8
BRANCH   7  12
HETATM   12  O2  UNL     1      21.547  -4.561   5.714  1.00  0.00    -0.362 OA
ATOM     13  H2  UNL     1      22.114  -3.811   5.580  1.00  0.00     0.213 HD
ENDBRANCH   7  12
ENDBRANCH   6   7
ENDBRANCH   5   6
ENDBRANCH   1   5
BRANCH   1  14
HETATM   14  C5  UNL     1      17.717  -6.464   7.772  1.00  0.00     0.099 C 
BRANCH  14  15
HETATM   15  C6  UNL     1      16.914  -6.680   8.968  1.00  0.00     0.167 C 
HETATM   16  O3  UNL     1      16.611  -5.715   9.708  1.00  0.00    -0.292 OA
BRANCH  15  17
HETATM   17  C7  UNL     1      16.439  -8.038   9.333  1.00  0.00     0.050 A 
HETATM   18  C8  UNL     1      15.445  -8.759   8.730  1.00  0.00     0.023 A 
HETATM   19  C9  UNL     1      15.176  -9.977   9.224  1.00  0.00     0.009 A 
HETATM   20  C10 UNL     1      15.924 -10.395  10.295  1.00  0.00     0.050 A 
HETATM   21  S2  UNL     1      16.968  -9.078  10.572  1.00  0.00    -0.098 SA
ENDBRANCH  15  17
ENDBRANCH  14  15
ENDBRANCH   1  14
TORSDOF 9
ENDMDL
MODEL 2
REMARK VINA RESULT: -5.621370995      2.071      2.870
REMARK  9 active torsions:
REMARK  status: ('A' for Active; 'I' for Inactive)
REMARK    1  A    between atoms: C1_2  and  C2_4 
REMARK    2  A    between atoms: C2_4  and  C3_5 
REMARK    3  A    between atoms: C2_4  and  C5_14 
REMARK    4  A    between atoms: C3_5  and  S1_6 
REMARK    5  A    between atoms: S1_6  and  C4_7 
REMARK    6  A    between atoms: C4_7  and  N2_8 
REMARK    7  A    between atoms: C4_7  and  O2_12 
REMARK    8  A    between atoms: C5_14  and  C6_15 
REMARK    9  A    between atoms: C6_15  and  C7_17 
ROOT
HETATM    1  C2  UNL     1      18.894  -7.121   7.548  1.00  0.00     0.091 C 
ENDROOT
BRANCH   1   2
HETATM    2  C1  UNL     1      19.062  -7.682   6.187  1.00  0.00     0.236 C 
HETATM    3  N1  UNL     1      18.188  -7.317   5.132  1.00  0.00    -0.062 NA
HETATM    4  O1  UNL     1      19.994  -8.495   5.960  1.00  0.00    -0.276 OA
ENDBRANCH   1   2
BRANCH   1   5
HETATM    5  C3  UNL     1      19.115  -5.622   7.423  1.00  0.00     0.092 C 
BRANCH   5   6
HETATM    6  S1  UNL     1      20.666  -5.123   8.203  1.00  0.00    -0.109 SA
BRANCH   6   7
HETATM    7  C4  UNL     1      21.966  -5.217   6.920  1.00  0.00     0.380 C 
BRANCH   7   8
HETATM    8  N2  UNL     1      22.279  -6.598   6.604  1.00  0.00    -0.044 N 
ATOM      9  H23 UNL     1      22.067  -7.221   7.384  1.00  0.00     0.278 HD
ATOM     10  H22 UNL     1      21.631  -6.985   5.918  1.00  0.00     0.278 HD
ATOM     11  H21 UNL     1      23.248  -6.689   6.301  1.00  0.00     0.278 HD
ENDBRANCH   7   8
BRANCH   7  12
HETATM   12  O2  UNL     1      21.555  -4.559   5.757  1.00  0.00    -0.362 OA
ATOM     13  H2  UNL     1      22.241  -4.584   5.101  1.00  0.00     0.213 HD
ENDBRANCH   7  12
ENDBRANCH   6   7
ENDBRANCH   5   6
ENDBRANCH   1   5
BRANCH   1  14
HETATM   14  C5  UNL     1      17.508  -7.409   8.115  1.00  0.00     0.099 C 
BRANCH  14  15
HETATM   15  C6  UNL     1      17.560  -7.924   9.476  1.00  0.00     0.167 C 
HETATM   16  O3  UNL     1      16.852  -8.903   9.809  1.00  0.00    -0.292 OA
BRANCH  15  17
HETATM   17  C7  UNL     1      18.448  -7.305  10.492  1.00  0.00     0.050 A 
HETATM   18  C8  UNL     1      19.596  -7.828  11.020  1.00  0.00     0.023 A 
HETATM   19  C9  UNL     1      20.250  -7.094  11.932  1.00  0.00     0.009 A 
HETATM   20  C10 UNL     1      19.708  -5.876  12.258  1.00  0.00     0.050 A 
HETATM   21  S2  UNL     1      18.312  -5.805  11.285  1.00  0.00    -0.098 SA
ENDBRANCH  15  17
ENDBRANCH  14  15
ENDBRANCH   1  14
TORSDOF 9
ENDMDL
MODEL 3
REMARK VINA RESULT: -5.397692068      1.839      2.151
REMARK  9 active torsions:
REMARK  status: ('A' for Active; 'I' for Inactive)
REMARK    1  A    between atoms: C1_2  and  C2_4 
REMARK    2  A    between atoms: C2_4  and  C3_5 
REMARK    3  A    between atoms: C2_4  and  C5_14 
REMARK    4  A    between atoms: C3_5  and  S1_6 
REMARK    5  A    between atoms: S1_6  and  C4_7 
REMARK    6  A    between atoms: C4_7  and  N2_8 
REMARK    7  A    between atoms: C4_7  and  O2_12 
REMARK    8  A    between atoms: C5_14  and  C6_15 
REMARK    9  A    between atoms: C6_15  and  C7_17 
ROOT
HETATM    1  C2  UNL     1      18.824  -7.138   7.477  1.00  0.00     0.091 C 
ENDROOT
BRANCH   1   2
HETATM    2  C1  UNL     1      19.060  -7.674   6.116  1.00  0.00     0.236 C 
HETATM    3  N1  UNL     1      18.238  -7.294   5.025  1.00  0.00    -0.062 NA
HETATM    4  O1  UNL     1      20.006  -8.481   5.921  1.00  0.00    -0.276 OA
ENDBRANCH   1   2
BRANCH   1   5
HETATM    5  C3  UNL     1      19.079  -5.642   7.396  1.00  0.00     0.092 C 
BRANCH   5   6
HETATM    6  S1  UNL     1      20.626  -5.198   8.217  1.00  0.00    -0.109 SA
BRANCH   6   7
HETATM    7  C4  UNL     1      21.937  -5.230   6.942  1.00  0.00     0.380 C 
BRANCH   7   8
HETATM    8  N2  UNL     1      22.282  -6.595   6.593  1.00  0.00    -0.044 N 
ATOM      9  H23 UNL     1      21.534  -7.052   6.071  1.00  0.00     0.278 HD
ATOM     10  H22 UNL     1      23.010  -6.631   5.879  1.00  0.00     0.278 HD
ATOM     11  H21 UNL     1      22.542  -7.126   7.424  1.00  0.00     0.278 HD
ENDBRANCH   7   8
BRANCH   7  12
HETATM   12  O2  UNL     1      21.521  -4.550   5.794  1.00  0.00    -0.362 OA
ATOM     13  H2  UNL     1      20.871  -5.059   5.325  1.00  0.00     0.213 HD
ENDBRANCH   7  12
ENDBRANCH   6   7
ENDBRANCH   5   6
ENDBRANCH   1   5
BRANCH   1  14
HETATM   14  C5  UNL     1      17.401  -7.411   7.956  1.00  0.00     0.099 C 
BRANCH  14  15
HETATM   15  C6  UNL     1      17.152  -6.878   9.288  1.00  0.00     0.167 C 
HETATM   16  O3  UNL     1      16.274  -6.001   9.462  1.00  0.00    -0.292 OA
BRANCH  15  17
HETATM   17  C7  UNL     1      17.926  -7.358  10.459  1.00  0.00     0.050 A 
HETATM   18  C8  UNL     1      18.016  -8.641  10.924  1.00  0.00     0.023 A 
HETATM   19  C9  UNL     1      18.779  -8.856  12.006  1.00  0.00     0.009 A 
HETATM   20  C10 UNL     1      19.405  -7.766  12.555  1.00  0.00     0.050 A 
HETATM   21  S2  UNL     1      18.906  -6.488  11.545  1.00  0.00    -0.098 SA
ENDBRANCH  15  17
ENDBRANCH  14  15
ENDBRANCH   1  14
TORSDOF 9
ENDMDL
MODEL 4
REMARK VINA RESULT: -5.328493744      2.572      3.353
REMARK  9 active torsions:
REMARK  status: ('A' for Active; 'I' for Inactive)
REMARK    1  A    between atoms: C1_2  and  C2_4 
REMARK    2  A    between atoms: C2_4  and  C3_5 
REMARK    3  A    between atoms: C2_4  and  C5_14 
REMARK    4  A    between atoms: C3_5  and  S1_6 
REMARK    5  A    between atoms: S1_6  and  C4_7 
REMARK    6  A    between atoms: C4_7  and  N2_8 
REMARK    7  A    between atoms: C4_7  and  O2_12 
REMARK    8  A    between atoms: C5_14  and  C6_15 
REMARK    9  A    between atoms: C6_15  and  C7_17 
ROOT
HETATM    1  C2  UNL     1      19.165  -7.127   7.647  1.00  0.00     0.091 C 
ENDROOT
BRANCH   1   2
HETATM    2  C1  UNL     1      18.453  -7.484   6.398  1.00  0.00     0.236 C 
HETATM    3  N1  UNL     1      19.068  -7.314   5.131  1.00  0.00    -0.062 NA
HETATM    4  O1  UNL     1      17.285  -7.944   6.457  1.00  0.00    -0.276 OA
ENDBRANCH   1   2
BRANCH   1   5
HETATM    5  C3  UNL     1      19.122  -5.611   7.746  1.00  0.00     0.092 C 
BRANCH   5   6
HETATM    6  S1  UNL     1      20.714  -4.946   8.281  1.00  0.00    -0.109 SA
BRANCH   6   7
HETATM    7  C4  UNL     1      21.915  -5.290   6.946  1.00  0.00     0.380 C 
BRANCH   7   8
HETATM    8  N2  UNL     1      21.967  -6.710   6.654  1.00  0.00    -0.044 N 
ATOM      9  H23 UNL     1      21.106  -7.037   6.215  1.00  0.00     0.278 HD
ATOM     10  H22 UNL     1      22.614  -6.916   5.893  1.00  0.00     0.278 HD
ATOM     11  H21 UNL     1      22.189  -7.244   7.494  1.00  0.00     0.278 HD
ENDBRANCH   7   8
BRANCH   7  12
HETATM   12  O2  UNL     1      21.570  -4.592   5.785  1.00  0.00    -0.362 OA
ATOM     13  H2  UNL     1      21.731  -5.126   5.016  1.00  0.00     0.213 HD
ENDBRANCH   7  12
ENDBRANCH   6   7
ENDBRANCH   5   6
ENDBRANCH   1   5
BRANCH   1  14
HETATM   14  C5  UNL     1      18.512  -7.760   8.873  1.00  0.00     0.099 C 
BRANCH  14  15
HETATM   15  C6  UNL     1      19.480  -8.415   9.741  1.00  0.00     0.167 C 
HETATM   16  O3  UNL     1      20.260  -9.279   9.278  1.00  0.00    -0.292 OA
BRANCH  15  17
HETATM   17  C7  UNL     1      19.563  -8.077  11.184  1.00  0.00     0.050 A 
HETATM   18  C8  UNL     1      20.372  -7.144  11.772  1.00  0.00     0.023 A 
HETATM   19  C9  UNL     1      20.284  -6.998  13.102  1.00  0.00     0.009 A 
HETATM   20  C10 UNL     1      19.386  -7.800  13.761  1.00  0.00     0.050 A 
HETATM   21  S2  UNL     1      18.704  -8.724  12.503  1.00  0.00    -0.098 SA
ENDBRANCH  15  17
ENDBRANCH  14  15
ENDBRANCH   1  14
TORSDOF 9
ENDMDL
MODEL 5
REMARK VINA RESULT: -5.327859216      1.917      2.919
REMARK  9 active torsions:
REMARK  status: ('A' for Active; 'I' for Inactive)
REMARK    1  A    between atoms: C1_2  and  C2_4 
REMARK    2  A    between atoms: C2_4  and  C3_5 
REMARK    3  A    between atoms: C2_4  and  C5_14 
REMARK    4  A    between atoms: C3_5  and  S1_6 
REMARK    5  A    between atoms: S1_6  and  C4_7 
REMARK    6  A    between atoms: C4_7  and  N2_8 
REMARK    7  A    between atoms: C4_7  and  O2_12 
REMARK    8  A    between atoms: C5_14  and  C6_15 
REMARK    9  A    between atoms: C6_15  and  C7_17 
ROOT
HETATM    1  C2  UNL     1      18.818  -7.465   7.627  1.00  0.00     0.091 C 
ENDROOT
BRANCH   1   2
HETATM    2  C1  UNL     1      19.151  -7.716   6.205  1.00  0.00     0.236 C 
HETATM    3  N1  UNL     1      18.343  -7.198   5.161  1.00  0.00    -0.062 NA
HETATM    4  O1  UNL     1      20.166  -8.399   5.915  1.00  0.00    -0.276 OA
ENDBRANCH   1   2
BRANCH   1   5
HETATM    5  C3  UNL     1      20.110  -7.028   8.297  1.00  0.00     0.092 C 
BRANCH   5   6
HETATM    6  S1  UNL     1      20.448  -5.280   7.987  1.00  0.00    -0.109 SA
BRANCH   6   7
HETATM    7  C4  UNL     1      21.905  -5.203   6.884  1.00  0.00     0.380 C 
BRANCH   7   8
HETATM    8  N2  UNL     1      22.408  -6.535   6.603  1.00  0.00    -0.044 N 
ATOM      9  H23 UNL     1      22.379  -6.747   5.606  1.00  0.00     0.278 HD
ATOM     10  H22 UNL     1      23.417  -6.595   6.743  1.00  0.00     0.278 HD
ATOM     11  H21 UNL     1      21.908  -7.234   7.153  1.00  0.00     0.278 HD
ENDBRANCH   7   8
BRANCH   7  12
HETATM   12  O2  UNL     1      21.576  -4.571   5.682  1.00  0.00    -0.362 OA
ATOM     13  H2  UNL     1      22.315  -4.070   5.357  1.00  0.00     0.213 HD
ENDBRANCH   7  12
ENDBRANCH   6   7
ENDBRANCH   5   6
ENDBRANCH   1   5
BRANCH   1  14
HETATM   14  C5  UNL     1      17.748  -6.389   7.779  1.00  0.00     0.099 C 
BRANCH  14  15
HETATM   15  C6  UNL     1      17.018  -6.504   9.034  1.00  0.00     0.167 C 
HETATM   16  O3  UNL     1      16.212  -7.447   9.211  1.00  0.00    -0.292 OA
BRANCH  15  17
HETATM   17  C7  UNL     1      17.213  -5.515  10.123  1.00  0.00     0.050 A 
HETATM   18  C8  UNL     1      16.518  -4.353  10.321  1.00  0.00     0.023 A 
HETATM   19  C9  UNL     1      16.858  -3.601  11.378  1.00  0.00     0.009 A 
HETATM   20  C10 UNL     1      17.878  -4.063  12.172  1.00  0.00     0.050 A 
HETATM   21  S2  UNL     1      18.321  -5.523  11.415  1.00  0.00    -0.098 SA
ENDBRANCH  15  17
ENDBRANCH  14  15
ENDBRANCH   1  14
TORSDOF 9
ENDMDL
