MODEL 1
REMARK VINA RESULT: -8.671138641      0.000      0.000
REMARK  16 active torsions:
REMARK  status: ('A' for Active; 'I' for Inactive)
REMARK    1  A    between atoms: C1_2  and  C2_3 
REMARK       I    between atoms: C1_2  and  N2_10 
REMARK    2  A    between atoms: C3_4  and  C4_5 
REMARK    3  A    between atoms: N2_10  and  C6_12 
REMARK    4  A    between atoms: C6_12  and  C7_13 
REMARK    5  A    between atoms: C7_13  and  C8_14 
REMARK    6  A    between atoms: C8_14  and  C9_15 
REMARK    7  A    between atoms: C9_15  and  N3_16 
REMARK    8  A    between atoms: N3_16  and  C10_18 
REMARK    9  A    between atoms: C11_21  and  N5_22 
REMARK   10  A    between atoms: N5_22  and  C12_24 
REMARK   11  A    between atoms: C12_24  and  C13_25 
REMARK   12  A    between atoms: C13_25  and  C14_26 
REMARK   13  A    between atoms: C14_26  and  N6_27 
REMARK   14  A    between atoms: C16_29  and  O3_30 
REMARK   15  A    between atoms: C18_36  and  N8_37 
REMARK   16  A    between atoms: N8_37  and  C19_39 
ROOT
HETATM    1  C10 UNL     1       2.099 -14.960 -21.975  1.00  0.00     0.707 A 
HETATM    2  N4  UNL     1       2.964 -14.689 -22.955  1.00  0.00    -0.022 N 
ATOM      3  H4  UNL     1       3.763 -14.086 -22.762  1.00  0.00     0.203 HD
HETATM    4  C11 UNL     1       2.800 -15.201 -24.212  1.00  0.00     0.707 A 
HETATM    5  N7  UNL     1       1.775 -15.987 -24.503  1.00  0.00    -0.022 N 
ATOM      6  H7  UNL     1       1.662 -16.364 -25.444  1.00  0.00     0.203 HD
HETATM    7  C18 UNL     1       0.863 -16.289 -23.513  1.00  0.00     0.707 A 
HETATM    8  N9  UNL     1       1.049 -15.775 -22.296  1.00  0.00    -0.022 N 
ATOM      9  H9  UNL     1       0.372 -16.001 -21.568  1.00  0.00     0.203 HD
ENDROOT
BRANCH   1  10
HETATM   10  N3  UNL     1       2.256 -14.470 -20.804  1.00  0.00    -0.225 N 
ATOM     11  H3  UNL     1       1.487 -14.521 -20.136  1.00  0.00     0.177 HD
BRANCH  10  12
HETATM   12  C9  UNL     1       3.483 -13.852 -20.409  1.00  0.00     0.138 C 
BRANCH  12  13
HETATM   13  C8  UNL     1       3.860 -14.188 -18.975  1.00  0.00     0.022 C 
BRANCH  13  14
HETATM   14  C7  UNL     1       5.299 -14.705 -19.051  1.00  0.00     0.021 C 
BRANCH  14  15
HETATM   15  C6  UNL     1       5.255 -16.199 -19.199  1.00  0.00     0.123 C 
BRANCH  15  16
HETATM   16  N2  UNL     1       5.858 -16.585 -20.428  1.00  0.00    -0.358 N 
HETATM   17  C1  UNL     1       5.050 -17.132 -21.490  1.00  0.00     0.241 C 
HETATM   18  O1  UNL     1       3.838 -17.226 -21.233  1.00  0.00    -0.269 OA
ATOM     19  H2  UNL     1       6.864 -16.474 -20.559  1.00  0.00     0.162 HD
BRANCH  17  20
HETATM   20  C2  UNL     1       5.667 -17.524 -22.744  1.00  0.00     0.077 C 
HETATM   21  C3  UNL     1       6.714 -18.236 -22.912  1.00  0.00     0.046 C 
BRANCH  21  22
HETATM   22  C4  UNL     1       7.555 -18.832 -21.910  1.00  0.00     0.116 A 
HETATM   23  C5  UNL     1       8.527 -19.851 -21.920  1.00  0.00     0.153 A 
HETATM   24  N1  UNL     1       8.687 -19.648 -20.612  1.00  0.00    -0.269 N 
HETATM   25  O2  UNL     1       7.800 -18.726 -20.638  1.00  0.00    -0.237 OA
ATOM     26  H1  UNL     1       9.275 -20.059 -19.887  1.00  0.00     0.194 HD
ENDBRANCH  21  22
ENDBRANCH  17  20
ENDBRANCH  15  16
ENDBRANCH  14  15
ENDBRANCH  13  14
ENDBRANCH  12  13
ENDBRANCH  10  12
ENDBRANCH   1  10
BRANCH   4  27
HETATM   27  N5  UNL     1       3.689 -14.895 -25.124  1.00  0.00    -0.225 N 
ATOM     28  H5  UNL     1       3.494 -15.087 -26.106  1.00  0.00     0.177 HD
BRANCH  27  29
HETATM   29  C12 UNL     1       4.929 -14.294 -24.754  1.00  0.00     0.139 C 
BRANCH  29  30
HETATM   30  C13 UNL     1       6.025 -14.433 -25.760  1.00  0.00     0.037 C 
BRANCH  30  31
HETATM   31  C14 UNL     1       6.250 -13.084 -26.439  1.00  0.00     0.122 C 
BRANCH  31  32
HETATM   32  N6  UNL     1       6.049 -13.230 -27.892  1.00  0.00    -0.195 NA
HETATM   33  C15 UNL     1       5.230 -12.157 -28.343  1.00  0.00     0.154 C 
HETATM   34  C16 UNL     1       3.887 -12.835 -28.633  1.00  0.00     0.159 C 
HETATM   35  C17 UNL     1       4.402 -14.233 -28.980  1.00  0.00     0.227 C 
HETATM   36  O4  UNL     1       5.399 -14.393 -28.043  1.00  0.00    -0.301 OA
BRANCH  34  37
HETATM   37  O3  UNL     1       3.167 -12.823 -27.442  1.00  0.00    -0.392 OA
ATOM     38  H3  UNL     1       2.841 -11.939 -27.328  1.00  0.00     0.210 HD
ENDBRANCH  34  37
ENDBRANCH  31  32
ENDBRANCH  30  31
ENDBRANCH  29  30
ENDBRANCH  27  29
ENDBRANCH   4  27
BRANCH   7  39
HETATM   39  N8  UNL     1      -0.064 -17.020 -23.839  1.00  0.00    -0.220 N 
ATOM     40  H8  UNL     1       0.245 -17.699 -24.533  1.00  0.00     0.178 HD
BRANCH  39  41
HETATM   41  C19 UNL     1      -1.402 -17.201 -23.549  1.00  0.00     0.099 A 
HETATM   42  C20 UNL     1      -1.966 -17.886 -22.346  1.00  0.00     0.028 A 
HETATM   43  C21 UNL     1      -2.079 -18.560 -23.637  1.00  0.00     0.028 A 
ENDBRANCH  39  41
ENDBRANCH   7  39
TORSDOF 16
ENDMDL
MODEL 2
REMARK VINA RESULT: -8.530271759      1.968      2.772
REMARK  16 active torsions:
REMARK  status: ('A' for Active; 'I' for Inactive)
REMARK    1  A    between atoms: C1_2  and  C2_3 
REMARK       I    between atoms: C1_2  and  N2_10 
REMARK    2  A    between atoms: C3_4  and  C4_5 
REMARK    3  A    between atoms: N2_10  and  C6_12 
REMARK    4  A    between atoms: C6_12  and  C7_13 
REMARK    5  A    between atoms: C7_13  and  C8_14 
REMARK    6  A    between atoms: C8_14  and  C9_15 
REMARK    7  A    between atoms: C9_15  and  N3_16 
REMARK    8  A    between atoms: N3_16  and  C10_18 
REMARK    9  A    between atoms: C11_21  and  N5_22 
REMARK   10  A    between atoms: N5_22  and  C12_24 
REMARK   11  A    between atoms: C12_24  and  C13_25 
REMARK   12  A    between atoms: C13_25  and  C14_26 
REMARK   13  A    between atoms: C14_26  and  N6_27 
REMARK   14  A    between atoms: C16_29  and  O3_30 
REMARK   15  A    between atoms: C18_36  and  N8_37 
REMARK   16  A    between atoms: N8_37  and  C19_39 
ROOT
HETATM    1  C10 UNL     1       2.384 -14.972 -22.073  1.00  0.00     0.707 A 
HETATM    2  N4  UNL     1       3.145 -14.781 -23.153  1.00  0.00    -0.022 N 
ATOM      3  H4  UNL     1       4.023 -14.269 -23.060  1.00  0.00     0.203 HD
HETATM    4  C11 UNL     1       2.775 -15.258 -24.379  1.00  0.00     0.707 A 
HETATM    5  N7  UNL     1       1.643 -15.927 -24.540  1.00  0.00    -0.022 N 
ATOM      6  H7  UNL     1       1.376 -16.278 -25.460  1.00  0.00     0.203 HD
HETATM    7  C18 UNL     1       0.833 -16.142 -23.446  1.00  0.00     0.707 A 
HETATM    8  N9  UNL     1       1.221 -15.666 -22.261  1.00  0.00    -0.022 N 
ATOM      9  H9  UNL     1       0.619 -15.829 -21.454  1.00  0.00     0.203 HD
ENDROOT
BRANCH   1  10
HETATM   10  N3  UNL     1       2.735 -14.515 -20.931  1.00  0.00    -0.225 N 
ATOM     11  H3  UNL     1       2.026 -14.124 -20.312  1.00  0.00     0.177 HD
BRANCH  10  12
HETATM   12  C9  UNL     1       4.099 -14.541 -20.501  1.00  0.00     0.138 C 
BRANCH  12  13
HETATM   13  C8  UNL     1       4.225 -14.480 -18.987  1.00  0.00     0.022 C 
BRANCH  13  14
HETATM   14  C7  UNL     1       5.515 -15.236 -18.664  1.00  0.00     0.021 C 
BRANCH  14  15
HETATM   15  C6  UNL     1       6.359 -15.282 -19.906  1.00  0.00     0.123 C 
BRANCH  15  16
HETATM   16  N2  UNL     1       7.333 -16.313 -19.797  1.00  0.00    -0.358 N 
HETATM   17  C1  UNL     1       7.087 -17.604 -20.390  1.00  0.00     0.241 C 
HETATM   18  O1  UNL     1       5.996 -17.717 -20.973  1.00  0.00    -0.269 OA
ATOM     19  H2  UNL     1       8.206 -16.138 -19.298  1.00  0.00     0.162 HD
BRANCH  17  20
HETATM   20  C2  UNL     1       8.083 -18.656 -20.278  1.00  0.00     0.077 C 
HETATM   21  C3  UNL     1       9.030 -18.925 -21.090  1.00  0.00     0.046 C 
BRANCH  21  22
HETATM   22  C4  UNL     1       9.361 -18.265 -22.323  1.00  0.00     0.116 A 
HETATM   23  C5  UNL     1      10.291 -17.273 -22.691  1.00  0.00     0.153 A 
HETATM   24  N1  UNL     1       9.829 -17.366 -23.938  1.00  0.00    -0.269 N 
HETATM   25  O2  UNL     1       8.996 -18.266 -23.571  1.00  0.00    -0.237 OA
ATOM     26  H1  UNL     1      10.049 -16.908 -24.822  1.00  0.00     0.194 HD
ENDBRANCH  21  22
ENDBRANCH  17  20
ENDBRANCH  15  16
ENDBRANCH  14  15
ENDBRANCH  13  14
ENDBRANCH  12  13
ENDBRANCH  10  12
ENDBRANCH   1  10
BRANCH   4  27
HETATM   27  N5  UNL     1       3.572 -15.036 -25.394  1.00  0.00    -0.225 N 
ATOM     28  H5  UNL     1       4.210 -15.768 -25.707  1.00  0.00     0.177 HD
BRANCH  27  29
HETATM   29  C12 UNL     1       3.555 -13.778 -26.067  1.00  0.00     0.139 C 
BRANCH  29  30
HETATM   30  C13 UNL     1       4.744 -13.507 -26.931  1.00  0.00     0.037 C 
BRANCH  30  31
HETATM   31  C14 UNL     1       5.942 -14.283 -26.386  1.00  0.00     0.122 C 
BRANCH  31  32
HETATM   32  N6  UNL     1       6.198 -13.870 -24.995  1.00  0.00    -0.195 NA
HETATM   33  C15 UNL     1       7.415 -13.132 -24.962  1.00  0.00     0.154 C 
HETATM   34  C16 UNL     1       8.394 -14.097 -24.287  1.00  0.00     0.159 C 
HETATM   35  C17 UNL     1       7.397 -14.884 -23.434  1.00  0.00     0.227 C 
HETATM   36  O4  UNL     1       6.339 -15.012 -24.307  1.00  0.00    -0.301 OA
BRANCH  34  37
HETATM   37  O3  UNL     1       8.948 -14.878 -25.298  1.00  0.00    -0.392 OA
ATOM     38  H3  UNL     1       9.661 -15.367 -24.905  1.00  0.00     0.210 HD
ENDBRANCH  34  37
ENDBRANCH  31  32
ENDBRANCH  30  31
ENDBRANCH  29  30
ENDBRANCH  27  29
ENDBRANCH   4  27
BRANCH   7  39
HETATM   39  N8  UNL     1      -0.200 -16.767 -23.653  1.00  0.00    -0.220 N 
ATOM     40  H8  UNL     1      -0.742 -16.322 -24.393  1.00  0.00     0.178 HD
BRANCH  39  41
HETATM   41  C19 UNL     1      -0.852 -17.891 -23.187  1.00  0.00     0.099 A 
HETATM   42  C20 UNL     1      -2.190 -18.390 -23.627  1.00  0.00     0.028 A 
HETATM   43  C21 UNL     1      -2.079 -17.810 -22.291  1.00  0.00     0.028 A 
ENDBRANCH  39  41
ENDBRANCH   7  39
TORSDOF 16
ENDMDL
MODEL 3
REMARK VINA RESULT: -8.281223587      2.224      4.714
REMARK  16 active torsions:
REMARK  status: ('A' for Active; 'I' for Inactive)
REMARK    1  A    between atoms: C1_2  and  C2_3 
REMARK       I    between atoms: C1_2  and  N2_10 
REMARK    2  A    between atoms: C3_4  and  C4_5 
REMARK    3  A    between atoms: N2_10  and  C6_12 
REMARK    4  A    between atoms: C6_12  and  C7_13 
REMARK    5  A    between atoms: C7_13  and  C8_14 
REMARK    6  A    between atoms: C8_14  and  C9_15 
REMARK    7  A    between atoms: C9_15  and  N3_16 
REMARK    8  A    between atoms: N3_16  and  C10_18 
REMARK    9  A    between atoms: C11_21  and  N5_22 
REMARK   10  A    between atoms: N5_22  and  C12_24 
REMARK   11  A    between atoms: C12_24  and  C13_25 
REMARK   12  A    between atoms: C13_25  and  C14_26 
REMARK   13  A    between atoms: C14_26  and  N6_27 
REMARK   14  A    between atoms: C16_29  and  O3_30 
REMARK   15  A    between atoms: C18_36  and  N8_37 
REMARK   16  A    between atoms: N8_37  and  C19_39 
ROOT
HETATM    1  C10 UNL     1       4.116 -16.380 -23.895  1.00  0.00     0.707 A 
HETATM    2  N4  UNL     1       4.549 -15.217 -24.386  1.00  0.00    -0.022 N 
ATOM      3  H4  UNL     1       3.888 -14.593 -24.847  1.00  0.00     0.203 HD
HETATM    4  C11 UNL     1       5.860 -14.845 -24.283  1.00  0.00     0.707 A 
HETATM    5  N7  UNL     1       6.750 -15.628 -23.692  1.00  0.00    -0.022 N 
ATOM      6  H7  UNL     1       7.726 -15.341 -23.621  1.00  0.00     0.203 HD
HETATM    7  C18 UNL     1       6.336 -16.836 -23.173  1.00  0.00     0.707 A 
HETATM    8  N9  UNL     1       5.050 -17.172 -23.287  1.00  0.00    -0.022 N 
ATOM      9  H9  UNL     1       4.748 -18.066 -22.901  1.00  0.00     0.203 HD
ENDROOT
BRANCH   1  10
HETATM   10  N3  UNL     1       2.888 -16.723 -24.002  1.00  0.00    -0.225 N 
ATOM     11  H3  UNL     1       2.628 -17.435 -24.685  1.00  0.00     0.177 HD
BRANCH  10  12
HETATM   12  C9  UNL     1       1.871 -16.133 -23.189  1.00  0.00     0.138 C 
BRANCH  12  13
HETATM   13  C8  UNL     1       2.327 -15.933 -21.752  1.00  0.00     0.022 C 
BRANCH  13  14
HETATM   14  C7  UNL     1       2.015 -14.470 -21.433  1.00  0.00     0.021 C 
BRANCH  14  15
HETATM   15  C6  UNL     1       3.313 -13.722 -21.333  1.00  0.00     0.123 C 
BRANCH  15  16
HETATM   16  N2  UNL     1       4.329 -14.576 -20.822  1.00  0.00    -0.358 N 
HETATM   17  C1  UNL     1       4.741 -14.464 -19.444  1.00  0.00     0.241 C 
HETATM   18  O1  UNL     1       4.150 -13.591 -18.787  1.00  0.00    -0.269 OA
ATOM     19  H2  UNL     1       4.767 -15.269 -21.430  1.00  0.00     0.162 HD
BRANCH  17  20
HETATM   20  C2  UNL     1       5.778 -15.337 -18.923  1.00  0.00     0.077 C 
HETATM   21  C3  UNL     1       7.007 -15.385 -19.268  1.00  0.00     0.046 C 
BRANCH  21  22
HETATM   22  C4  UNL     1       7.685 -14.594 -20.258  1.00  0.00     0.116 A 
HETATM   23  C5  UNL     1       9.038 -14.357 -20.571  1.00  0.00     0.153 A 
HETATM   24  N1  UNL     1       8.623 -13.558 -21.555  1.00  0.00    -0.269 N 
HETATM   25  O2  UNL     1       7.404 -13.797 -21.244  1.00  0.00    -0.237 OA
ATOM     26  H1  UNL     1       9.086 -12.991 -22.264  1.00  0.00     0.194 HD
ENDBRANCH  21  22
ENDBRANCH  17  20
ENDBRANCH  15  16
ENDBRANCH  14  15
ENDBRANCH  13  14
ENDBRANCH  12  13
ENDBRANCH  10  12
ENDBRANCH   1  10
BRANCH   4  27
HETATM   27  N5  UNL     1       6.215 -13.688 -24.786  1.00  0.00    -0.225 N 
ATOM     28  H5  UNL     1       5.500 -13.011 -25.052  1.00  0.00     0.177 HD
BRANCH  27  29
HETATM   29  C12 UNL     1       7.594 -13.368 -24.962  1.00  0.00     0.139 C 
BRANCH  29  30
HETATM   30  C13 UNL     1       8.009 -13.117 -26.376  1.00  0.00     0.037 C 
BRANCH  30  31
HETATM   31  C14 UNL     1       7.048 -12.110 -27.005  1.00  0.00     0.122 C 
BRANCH  31  32
HETATM   32  N6  UNL     1       6.322 -12.757 -28.113  1.00  0.00    -0.195 NA
HETATM   33  C15 UNL     1       5.103 -12.054 -28.322  1.00  0.00     0.154 C 
HETATM   34  C16 UNL     1       4.043 -13.017 -27.780  1.00  0.00     0.159 C 
HETATM   35  C17 UNL     1       4.773 -14.337 -28.035  1.00  0.00     0.227 C 
HETATM   36  O4  UNL     1       6.064 -14.001 -27.687  1.00  0.00    -0.301 OA
BRANCH  34  37
HETATM   37  O3  UNL     1       3.913 -12.746 -26.421  1.00  0.00    -0.392 OA
ATOM     38  H3  UNL     1       3.186 -13.270 -26.106  1.00  0.00     0.210 HD
ENDBRANCH  34  37
ENDBRANCH  31  32
ENDBRANCH  30  31
ENDBRANCH  29  30
ENDBRANCH  27  29
ENDBRANCH   4  27
BRANCH   7  39
HETATM   39  N8  UNL     1       7.200 -17.519 -22.638  1.00  0.00    -0.220 N 
ATOM     40  H8  UNL     1       8.128 -17.206 -22.923  1.00  0.00     0.178 HD
BRANCH  39  41
HETATM   41  C19 UNL     1       7.297 -18.584 -21.765  1.00  0.00     0.099 A 
HETATM   42  C20 UNL     1       8.302 -18.748 -20.671  1.00  0.00     0.028 A 
HETATM   43  C21 UNL     1       8.422 -19.606 -21.847  1.00  0.00     0.028 A 
ENDBRANCH  39  41
ENDBRANCH   7  39
TORSDOF 16
ENDMDL
MODEL 4
REMARK VINA RESULT: -8.273385912      2.474      5.381
REMARK  16 active torsions:
REMARK  status: ('A' for Active; 'I' for Inactive)
REMARK    1  A    between atoms: C1_2  and  C2_3 
REMARK       I    between atoms: C1_2  and  N2_10 
REMARK    2  A    between atoms: C3_4  and  C4_5 
REMARK    3  A    between atoms: N2_10  and  C6_12 
REMARK    4  A    between atoms: C6_12  and  C7_13 
REMARK    5  A    between atoms: C7_13  and  C8_14 
REMARK    6  A    between atoms: C8_14  and  C9_15 
REMARK    7  A    between atoms: C9_15  and  N3_16 
REMARK    8  A    between atoms: N3_16  and  C10_18 
REMARK    9  A    between atoms: C11_21  and  N5_22 
REMARK   10  A    between atoms: N5_22  and  C12_24 
REMARK   11  A    between atoms: C12_24  and  C13_25 
REMARK   12  A    between atoms: C13_25  and  C14_26 
REMARK   13  A    between atoms: C14_26  and  N6_27 
REMARK   14  A    between atoms: C16_29  and  O3_30 
REMARK   15  A    between atoms: C18_36  and  N8_37 
REMARK   16  A    between atoms: N8_37  and  C19_39 
ROOT
HETATM    1  C10 UNL     1       5.588 -15.156 -24.194  1.00  0.00     0.707 A 
HETATM    2  N4  UNL     1       6.398 -14.746 -25.173  1.00  0.00    -0.022 N 
ATOM      3  H4  UNL     1       6.124 -14.899 -26.143  1.00  0.00     0.203 HD
HETATM    4  C11 UNL     1       7.585 -14.126 -24.902  1.00  0.00     0.707 A 
HETATM    5  N7  UNL     1       7.976 -13.909 -23.656  1.00  0.00    -0.022 N 
ATOM      6  H7  UNL     1       8.865 -13.446 -23.465  1.00  0.00     0.203 HD
HETATM    7  C18 UNL     1       7.164 -14.319 -22.620  1.00  0.00     0.707 A 
HETATM    8  N9  UNL     1       6.010 -14.922 -22.914  1.00  0.00    -0.022 N 
ATOM      9  H9  UNL     1       5.412 -15.222 -22.145  1.00  0.00     0.203 HD
ENDROOT
BRANCH   1  10
HETATM   10  N3  UNL     1       4.482 -15.743 -24.457  1.00  0.00    -0.225 N 
ATOM     11  H3  UNL     1       4.438 -16.761 -24.419  1.00  0.00     0.177 HD
BRANCH  10  12
HETATM   12  C9  UNL     1       3.307 -15.006 -24.801  1.00  0.00     0.138 C 
BRANCH  12  13
HETATM   13  C8  UNL     1       2.044 -15.644 -24.244  1.00  0.00     0.022 C 
BRANCH  13  14
HETATM   14  C7  UNL     1       2.397 -16.039 -22.808  1.00  0.00     0.021 C 
BRANCH  14  15
HETATM   15  C6  UNL     1       2.243 -14.827 -21.935  1.00  0.00     0.123 C 
BRANCH  15  16
HETATM   16  N2  UNL     1       2.878 -15.046 -20.681  1.00  0.00    -0.358 N 
HETATM   17  C1  UNL     1       3.987 -14.216 -20.278  1.00  0.00     0.241 C 
HETATM   18  O1  UNL     1       4.312 -13.339 -21.096  1.00  0.00    -0.269 OA
ATOM     19  H2  UNL     1       2.549 -15.790 -20.066  1.00  0.00     0.162 HD
BRANCH  17  20
HETATM   20  C2  UNL     1       4.634 -14.439 -18.998  1.00  0.00     0.077 C 
HETATM   21  C3  UNL     1       5.366 -15.427 -18.654  1.00  0.00     0.046 C 
BRANCH  21  22
HETATM   22  C4  UNL     1       5.741 -16.573 -19.436  1.00  0.00     0.116 A 
HETATM   23  C5  UNL     1       5.434 -17.947 -19.381  1.00  0.00     0.153 A 
HETATM   24  N1  UNL     1       6.215 -18.118 -20.448  1.00  0.00    -0.269 N 
HETATM   25  O2  UNL     1       6.473 -16.864 -20.470  1.00  0.00    -0.237 OA
ATOM     26  H1  UNL     1       6.494 -18.918 -21.014  1.00  0.00     0.194 HD
ENDBRANCH  21  22
ENDBRANCH  17  20
ENDBRANCH  15  16
ENDBRANCH  14  15
ENDBRANCH  13  14
ENDBRANCH  12  13
ENDBRANCH  10  12
ENDBRANCH   1  10
BRANCH   4  27
HETATM   27  N5  UNL     1       8.328 -13.747 -25.913  1.00  0.00    -0.225 N 
ATOM     28  H5  UNL     1       8.941 -14.422 -26.371  1.00  0.00     0.177 HD
BRANCH  27  29
HETATM   29  C12 UNL     1       8.287 -12.400 -26.378  1.00  0.00     0.139 C 
BRANCH  29  30
HETATM   30  C13 UNL     1       6.941 -11.752 -26.320  1.00  0.00     0.037 C 
BRANCH  30  31
HETATM   31  C14 UNL     1       6.393 -11.616 -27.738  1.00  0.00     0.122 C 
BRANCH  31  32
HETATM   32  N6  UNL     1       6.342 -12.946 -28.371  1.00  0.00    -0.195 NA
HETATM   33  C15 UNL     1       5.818 -12.800 -29.686  1.00  0.00     0.154 C 
HETATM   34  C16 UNL     1       4.411 -13.394 -29.573  1.00  0.00     0.159 C 
HETATM   35  C17 UNL     1       4.669 -14.394 -28.445  1.00  0.00     0.227 C 
HETATM   36  O4  UNL     1       5.493 -13.661 -27.619  1.00  0.00    -0.301 OA
BRANCH  34  37
HETATM   37  O3  UNL     1       3.571 -12.359 -29.173  1.00  0.00    -0.392 OA
ATOM     38  H3  UNL     1       3.134 -12.043 -29.955  1.00  0.00     0.210 HD
ENDBRANCH  34  37
ENDBRANCH  31  32
ENDBRANCH  30  31
ENDBRANCH  29  30
ENDBRANCH  27  29
ENDBRANCH   4  27
BRANCH   7  39
HETATM   39  N8  UNL     1       7.575 -14.094 -21.489  1.00  0.00    -0.220 N 
ATOM     40  H8  UNL     1       6.797 -13.904 -20.858  1.00  0.00     0.178 HD
BRANCH  39  41
HETATM   41  C19 UNL     1       8.775 -14.018 -20.810  1.00  0.00     0.099 A 
HETATM   42  C20 UNL     1       9.420 -15.111 -20.021  1.00  0.00     0.028 A 
HETATM   43  C21 UNL     1       8.852 -13.980 -19.291  1.00  0.00     0.028 A 
ENDBRANCH  39  41
ENDBRANCH   7  39
TORSDOF 16
ENDMDL
MODEL 5
REMARK VINA RESULT: -8.115842871      2.051      2.921
REMARK  16 active torsions:
REMARK  status: ('A' for Active; 'I' for Inactive)
REMARK    1  A    between atoms: C1_2  and  C2_3 
REMARK       I    between atoms: C1_2  and  N2_10 
REMARK    2  A    between atoms: C3_4  and  C4_5 
REMARK    3  A    between atoms: N2_10  and  C6_12 
REMARK    4  A    between atoms: C6_12  and  C7_13 
REMARK    5  A    between atoms: C7_13  and  C8_14 
REMARK    6  A    between atoms: C8_14  and  C9_15 
REMARK    7  A    between atoms: C9_15  and  N3_16 
REMARK    8  A    between atoms: N3_16  and  C10_18 
REMARK    9  A    between atoms: C11_21  and  N5_22 
REMARK   10  A    between atoms: N5_22  and  C12_24 
REMARK   11  A    between atoms: C12_24  and  C13_25 
REMARK   12  A    between atoms: C13_25  and  C14_26 
REMARK   13  A    between atoms: C14_26  and  N6_27 
REMARK   14  A    between atoms: C16_29  and  O3_30 
REMARK   15  A    between atoms: C18_36  and  N8_37 
REMARK   16  A    between atoms: N8_37  and  C19_39 
ROOT
HETATM    1  C10 UNL     1       2.683 -15.624 -22.053  1.00  0.00     0.707 A 
HETATM    2  N4  UNL     1       3.379 -15.207 -23.114  1.00  0.00    -0.022 N 
ATOM      3  H4  UNL     1       4.270 -14.733 -22.971  1.00  0.00     0.203 HD
HETATM    4  C11 UNL     1       2.921 -15.403 -24.387  1.00  0.00     0.707 A 
HETATM    5  N7  UNL     1       1.768 -16.014 -24.614  1.00  0.00    -0.022 N 
ATOM      6  H7  UNL     1       1.435 -16.154 -25.568  1.00  0.00     0.203 HD
HETATM    7  C18 UNL     1       1.025 -16.458 -23.541  1.00  0.00     0.707 A 
HETATM    8  N9  UNL     1       1.497 -16.254 -22.310  1.00  0.00    -0.022 N 
ATOM      9  H9  UNL     1       0.945 -16.585 -21.520  1.00  0.00     0.203 HD
ENDROOT
BRANCH   1  10
HETATM   10  N3  UNL     1       3.116 -15.430 -20.865  1.00  0.00    -0.225 N 
ATOM     11  H3  UNL     1       3.376 -16.234 -20.294  1.00  0.00     0.177 HD
BRANCH  10  12
HETATM   12  C9  UNL     1       3.244 -14.115 -20.320  1.00  0.00     0.138 C 
BRANCH  12  13
HETATM   13  C8  UNL     1       3.942 -14.119 -18.969  1.00  0.00     0.022 C 
BRANCH  13  14
HETATM   14  C7  UNL     1       4.922 -15.292 -19.028  1.00  0.00     0.021 C 
BRANCH  14  15
HETATM   15  C6  UNL     1       6.288 -14.750 -19.336  1.00  0.00     0.123 C 
BRANCH  15  16
HETATM   16  N2  UNL     1       7.227 -15.815 -19.420  1.00  0.00    -0.358 N 
HETATM   17  C1  UNL     1       8.532 -15.585 -19.991  1.00  0.00     0.241 C 
HETATM   18  O1  UNL     1       8.737 -14.424 -20.382  1.00  0.00    -0.269 OA
ATOM     19  H2  UNL     1       6.978 -16.743 -19.076  1.00  0.00     0.162 HD
BRANCH  17  20
HETATM   20  C2  UNL     1       9.490 -16.673 -20.075  1.00  0.00     0.077 C 
HETATM   21  C3  UNL     1       9.448 -17.695 -20.840  1.00  0.00     0.046 C 
BRANCH  21  22
HETATM   22  C4  UNL     1       8.448 -18.038 -21.813  1.00  0.00     0.116 A 
HETATM   23  C5  UNL     1       7.156 -18.595 -21.744  1.00  0.00     0.153 A 
HETATM   24  N1  UNL     1       7.096 -18.508 -23.073  1.00  0.00    -0.269 N 
HETATM   25  O2  UNL     1       8.272 -18.003 -23.100  1.00  0.00    -0.237 OA
ATOM     26  H1  UNL     1       6.400 -18.746 -23.779  1.00  0.00     0.194 HD
ENDBRANCH  21  22
ENDBRANCH  17  20
ENDBRANCH  15  16
ENDBRANCH  14  15
ENDBRANCH  13  14
ENDBRANCH  12  13
ENDBRANCH  10  12
ENDBRANCH   1  10
BRANCH   4  27
HETATM   27  N5  UNL     1       3.657 -14.970 -25.381  1.00  0.00    -0.225 N 
ATOM     28  H5  UNL     1       4.471 -15.506 -25.679  1.00  0.00     0.177 HD
BRANCH  27  29
HETATM   29  C12 UNL     1       3.327 -13.754 -26.049  1.00  0.00     0.139 C 
BRANCH  29  30
HETATM   30  C13 UNL     1       4.466 -12.805 -26.235  1.00  0.00     0.037 C 
BRANCH  30  31
HETATM   31  C14 UNL     1       5.778 -13.583 -26.161  1.00  0.00     0.122 C 
BRANCH  31  32
HETATM   32  N6  UNL     1       6.558 -13.114 -25.002  1.00  0.00    -0.195 NA
HETATM   33  C15 UNL     1       7.599 -14.052 -24.751  1.00  0.00     0.154 C 
HETATM   34  C16 UNL     1       7.137 -14.758 -23.472  1.00  0.00     0.159 C 
HETATM   35  C17 UNL     1       6.318 -13.620 -22.860  1.00  0.00     0.227 C 
HETATM   36  O4  UNL     1       5.694 -13.106 -23.976  1.00  0.00    -0.301 OA
BRANCH  34  37
HETATM   37  O3  UNL     1       6.335 -15.824 -23.871  1.00  0.00    -0.392 OA
ATOM     38  H3  UNL     1       6.526 -16.544 -23.282  1.00  0.00     0.210 HD
ENDBRANCH  34  37
ENDBRANCH  31  32
ENDBRANCH  30  31
ENDBRANCH  29  30
ENDBRANCH  27  29
ENDBRANCH   4  27
BRANCH   7  39
HETATM   39  N8  UNL     1      -0.032 -17.016 -23.810  1.00  0.00    -0.220 N 
ATOM     40  H8  UNL     1       0.088 -17.640 -24.607  1.00  0.00     0.178 HD
BRANCH  39  41
HETATM   41  C19 UNL     1      -1.336 -17.054 -23.359  1.00  0.00     0.099 A 
HETATM   42  C20 UNL     1      -1.867 -17.896 -22.245  1.00  0.00     0.028 A 
HETATM   43  C21 UNL     1      -2.252 -18.243 -23.611  1.00  0.00     0.028 A 
ENDBRANCH  39  41
ENDBRANCH   7  39
TORSDOF 16
ENDMDL
