MODEL 1
REMARK VINA RESULT: -8.496578972      0.000      0.000
REMARK  16 active torsions:
REMARK  status: ('A' for Active; 'I' for Inactive)
REMARK    1  A    between atoms: C2_2  and  C3_3 
REMARK    2  A    between atoms: C3_3  and  N1_4 
REMARK    3  A    between atoms: C6_7  and  O1_8 
REMARK    4  A    between atoms: O1_8  and  C7_9 
REMARK    5  A    between atoms: C7_9  and  C8_10 
REMARK    6  A    between atoms: C8_10  and  N2_11 
REMARK       I    between atoms: N2_11  and  C9_13 
REMARK    7  A    between atoms: C9_13  and  C10_15 
REMARK    8  A    between atoms: C12_17  and  C13_18 
REMARK    9  A    between atoms: C13_18  and  C14_19 
REMARK   10  A    between atoms: C14_19  and  C15_20 
REMARK   11  A    between atoms: C18_24  and  O4_25 
REMARK   12  A    between atoms: C18_24  and  C19_27 
REMARK   13  A    between atoms: C19_27  and  O5_28 
REMARK   14  A    between atoms: C20_30  and  O6_31 
REMARK   15  A    between atoms: C21_33  and  O7_34 
REMARK   16  A    between atoms: C22_36  and  O8_37 
ROOT
HETATM    1  C10 UNL     1       5.383 -11.268 -27.356  1.00  0.00     0.100 C 
HETATM    2  C11 UNL     1       4.912  -9.867 -27.814  1.00  0.00     0.056 C 
HETATM    3  C12 UNL     1       3.523  -9.851 -27.265  1.00  0.00     0.123 C 
HETATM    4  O3  UNL     1       3.112 -11.208 -27.325  1.00  0.00    -0.376 OA
HETATM    5  C17 UNL     1       4.195 -11.799 -26.677  1.00  0.00     0.181 C 
HETATM    6  C18 UNL     1       4.035 -13.296 -26.699  1.00  0.00     0.134 C 
HETATM    7  C20 UNL     1       4.285 -13.936 -28.014  1.00  0.00     0.188 C 
HETATM    8  C21 UNL     1       4.843 -13.044 -29.070  1.00  0.00     0.180 C 
HETATM    9  C22 UNL     1       5.804 -12.007 -28.596  1.00  0.00     0.170 C 
ENDROOT
BRANCH   1  10
HETATM   10  C9  UNL     1       6.545 -11.023 -26.444  1.00  0.00     0.231 C 
HETATM   11  N2  UNL     1       7.667 -10.301 -26.868  1.00  0.00    -0.358 N 
ATOM     12  H2  UNL     1       7.669  -9.946 -27.824  1.00  0.00     0.162 HD
HETATM   13  O2  UNL     1       6.536 -11.463 -25.265  1.00  0.00    -0.273 OA
BRANCH  11  14
HETATM   14  C8  UNL     1       8.811 -10.029 -26.053  1.00  0.00     0.149 C 
BRANCH  14  15
HETATM   15  C7  UNL     1       9.812 -11.160 -25.986  1.00  0.00     0.195 C 
BRANCH  15  16
HETATM   16  O1  UNL     1      10.276 -11.213 -24.639  1.00  0.00    -0.349 OA
BRANCH  16  17
HETATM   17  C6  UNL     1       9.981 -12.193 -23.739  1.00  0.00     0.071 A 
HETATM   18  C5  UNL     1      10.682 -13.373 -23.753  1.00  0.00     0.054 A 
HETATM   19  C4  UNL     1      10.393 -14.388 -22.836  1.00  0.00     0.093 A 
HETATM   20  N1  UNL     1       9.424 -14.218 -21.929  1.00  0.00    -0.363 N 
HETATM   21  C24 UNL     1       8.716 -13.076 -21.883  1.00  0.00     0.093 A 
HETATM   22  C23 UNL     1       8.992 -12.044 -22.797  1.00  0.00     0.054 A 
BRANCH  20  23
HETATM   23  C3  UNL     1       9.116 -15.278 -20.958  1.00  0.00     0.154 C 
BRANCH  23  24
HETATM   24  C2  UNL     1       9.944 -15.143 -19.723  1.00  0.00    -0.017 C 
HETATM   25  C1  UNL     1       9.594 -14.398 -18.699  1.00  0.00     0.008 C 
ENDBRANCH  23  24
ENDBRANCH  20  23
ENDBRANCH  16  17
ENDBRANCH  15  16
ENDBRANCH  14  15
ENDBRANCH  11  14
ENDBRANCH   1  10
BRANCH   9  26
HETATM   26  O8  UNL     1       7.037 -12.657 -28.364  1.00  0.00    -0.392 OA
ATOM     27  H8  UNL     1       7.702 -12.291 -28.935  1.00  0.00     0.210 HD
ENDBRANCH   9  26
BRANCH   3  28
HETATM   28  C13 UNL     1       2.526  -8.921 -27.771  1.00  0.00     0.032 C 
BRANCH  28  29
HETATM   29  C14 UNL     1       2.061  -8.899 -29.155  1.00  0.00     0.002 C 
BRANCH  29  30
HETATM   30  C15 UNL     1       0.828  -8.186 -29.545  1.00  0.00    -0.004 C 
HETATM   31  C16 UNL     1       1.028  -7.228 -30.700  1.00  0.00     0.005 C 
ENDBRANCH  29  30
ENDBRANCH  28  29
ENDBRANCH   3  28
BRANCH   6  32
HETATM   32  O4  UNL     1       2.696 -13.511 -26.287  1.00  0.00    -0.382 OA
ATOM     33  H4  UNL     1       2.754 -14.227 -25.666  1.00  0.00     0.210 HD
ENDBRANCH   6  32
BRANCH   6  34
HETATM   34  C19 UNL     1       4.879 -13.990 -25.640  1.00  0.00     0.207 C 
BRANCH  34  35
HETATM   35  O5  UNL     1       4.525 -13.462 -24.390  1.00  0.00    -0.398 OA
ATOM     36  H5  UNL     1       3.659 -13.080 -24.468  1.00  0.00     0.209 HD
ENDBRANCH  34  35
ENDBRANCH   6  34
BRANCH   8  37
HETATM   37  O7  UNL     1       3.785 -12.506 -29.807  1.00  0.00    -0.390 OA
ATOM     38  H7  UNL     1       4.118 -11.798 -30.347  1.00  0.00     0.210 HD
ENDBRANCH   8  37
BRANCH   7  39
HETATM   39  O6  UNL     1       5.096 -15.076 -27.913  1.00  0.00    -0.390 OA
ATOM     40  H6  UNL     1       5.495 -15.166 -27.056  1.00  0.00     0.210 HD
ENDBRANCH   7  39
TORSDOF 16
ENDMDL
MODEL 2
REMARK VINA RESULT: -8.440044816      3.447      9.005
REMARK  16 active torsions:
REMARK  status: ('A' for Active; 'I' for Inactive)
REMARK    1  A    between atoms: C2_2  and  C3_3 
REMARK    2  A    between atoms: C3_3  and  N1_4 
REMARK    3  A    between atoms: C6_7  and  O1_8 
REMARK    4  A    between atoms: O1_8  and  C7_9 
REMARK    5  A    between atoms: C7_9  and  C8_10 
REMARK    6  A    between atoms: C8_10  and  N2_11 
REMARK       I    between atoms: N2_11  and  C9_13 
REMARK    7  A    between atoms: C9_13  and  C10_15 
REMARK    8  A    between atoms: C12_17  and  C13_18 
REMARK    9  A    between atoms: C13_18  and  C14_19 
REMARK   10  A    between atoms: C14_19  and  C15_20 
REMARK   11  A    between atoms: C18_24  and  O4_25 
REMARK   12  A    between atoms: C18_24  and  C19_27 
REMARK   13  A    between atoms: C19_27  and  O5_28 
REMARK   14  A    between atoms: C20_30  and  O6_31 
REMARK   15  A    between atoms: C21_33  and  O7_34 
REMARK   16  A    between atoms: C22_36  and  O8_37 
ROOT
HETATM    1  C10 UNL     1       3.676 -14.795 -21.526  1.00  0.00     0.100 C 
HETATM    2  C11 UNL     1       4.287 -15.230 -20.172  1.00  0.00     0.056 C 
HETATM    3  C12 UNL     1       5.156 -16.361 -20.613  1.00  0.00     0.123 C 
HETATM    4  O3  UNL     1       4.465 -16.917 -21.720  1.00  0.00    -0.376 OA
HETATM    5  C17 UNL     1       4.266 -15.756 -22.466  1.00  0.00     0.181 C 
HETATM    6  C18 UNL     1       3.442 -16.079 -23.684  1.00  0.00     0.134 C 
HETATM    7  C20 UNL     1       2.004 -16.333 -23.421  1.00  0.00     0.188 C 
HETATM    8  C21 UNL     1       1.540 -16.045 -22.033  1.00  0.00     0.180 C 
HETATM    9  C22 UNL     1       2.183 -14.875 -21.370  1.00  0.00     0.170 C 
ENDROOT
BRANCH   1  10
HETATM   10  C9  UNL     1       4.130 -13.384 -21.736  1.00  0.00     0.231 C 
HETATM   11  N2  UNL     1       4.964 -13.037 -22.806  1.00  0.00    -0.358 N 
ATOM     12  H2  UNL     1       5.256 -13.779 -23.441  1.00  0.00     0.162 HD
HETATM   13  O2  UNL     1       3.766 -12.471 -20.950  1.00  0.00    -0.273 OA
BRANCH  11  14
HETATM   14  C8  UNL     1       5.436 -11.712 -23.069  1.00  0.00     0.149 C 
BRANCH  14  15
HETATM   15  C7  UNL     1       6.073 -11.536 -24.429  1.00  0.00     0.195 C 
BRANCH  15  16
HETATM   16  O1  UNL     1       5.151 -12.062 -25.381  1.00  0.00    -0.349 OA
BRANCH  16  17
HETATM   17  C6  UNL     1       4.468 -11.332 -26.307  1.00  0.00     0.071 A 
HETATM   18  C5  UNL     1       3.898 -11.954 -27.389  1.00  0.00     0.054 A 
HETATM   19  C4  UNL     1       3.194 -11.220 -28.348  1.00  0.00     0.093 A 
HETATM   20  N1  UNL     1       3.066  -9.894 -28.219  1.00  0.00    -0.363 N 
HETATM   21  C24 UNL     1       3.610  -9.249 -27.173  1.00  0.00     0.093 A 
HETATM   22  C23 UNL     1       4.322  -9.970 -26.199  1.00  0.00     0.054 A 
BRANCH  20  23
HETATM   23  C3  UNL     1       2.323  -9.115 -29.220  1.00  0.00     0.154 C 
BRANCH  23  24
HETATM   24  C2  UNL     1       1.152  -8.419 -28.610  1.00  0.00    -0.017 C 
HETATM   25  C1  UNL     1       0.166  -7.912 -29.315  1.00  0.00     0.008 C 
ENDBRANCH  23  24
ENDBRANCH  20  23
ENDBRANCH  16  17
ENDBRANCH  15  16
ENDBRANCH  14  15
ENDBRANCH  11  14
ENDBRANCH   1  10
BRANCH   9  26
HETATM   26  O8  UNL     1       1.588 -13.712 -21.909  1.00  0.00    -0.392 OA
ATOM     27  H8  UNL     1       1.096 -13.938 -22.689  1.00  0.00     0.210 HD
ENDBRANCH   9  26
BRANCH   3  28
HETATM   28  C13 UNL     1       5.629 -17.358 -19.666  1.00  0.00     0.032 C 
BRANCH  28  29
HETATM   29  C14 UNL     1       6.836 -18.157 -19.859  1.00  0.00     0.002 C 
BRANCH  29  30
HETATM   30  C15 UNL     1       7.990 -17.642 -20.625  1.00  0.00    -0.004 C 
HETATM   31  C16 UNL     1       9.315 -17.843 -19.923  1.00  0.00     0.005 C 
ENDBRANCH  29  30
ENDBRANCH  28  29
ENDBRANCH   3  28
BRANCH   6  32
HETATM   32  O4  UNL     1       4.060 -17.232 -24.228  1.00  0.00    -0.382 OA
ATOM     33  H4  UNL     1       3.918 -17.155 -25.164  1.00  0.00     0.210 HD
ENDBRANCH   6  32
BRANCH   6  34
HETATM   34  C19 UNL     1       3.570 -15.024 -24.773  1.00  0.00     0.207 C 
BRANCH  34  35
HETATM   35  O5  UNL     1       4.930 -14.881 -25.079  1.00  0.00    -0.398 OA
ATOM     36  H5  UNL     1       5.376 -14.575 -24.298  1.00  0.00     0.209 HD
ENDBRANCH  34  35
ENDBRANCH   6  34
BRANCH   8  37
HETATM   37  O7  UNL     1       1.634 -17.217 -21.278  1.00  0.00    -0.390 OA
ATOM     38  H7  UNL     1       0.924 -17.229 -20.646  1.00  0.00     0.210 HD
ENDBRANCH   8  37
BRANCH   7  39
HETATM   39  O6  UNL     1       1.164 -15.664 -24.324  1.00  0.00    -0.390 OA
ATOM     40  H6  UNL     1       0.250 -15.901 -24.218  1.00  0.00     0.210 HD
ENDBRANCH   7  39
TORSDOF 16
ENDMDL
MODEL 3
REMARK VINA RESULT: -8.339632380      2.919      5.879
REMARK  16 active torsions:
REMARK  status: ('A' for Active; 'I' for Inactive)
REMARK    1  A    between atoms: C2_2  and  C3_3 
REMARK    2  A    between atoms: C3_3  and  N1_4 
REMARK    3  A    between atoms: C6_7  and  O1_8 
REMARK    4  A    between atoms: O1_8  and  C7_9 
REMARK    5  A    between atoms: C7_9  and  C8_10 
REMARK    6  A    between atoms: C8_10  and  N2_11 
REMARK       I    between atoms: N2_11  and  C9_13 
REMARK    7  A    between atoms: C9_13  and  C10_15 
REMARK    8  A    between atoms: C12_17  and  C13_18 
REMARK    9  A    between atoms: C13_18  and  C14_19 
REMARK   10  A    between atoms: C14_19  and  C15_20 
REMARK   11  A    between atoms: C18_24  and  O4_25 
REMARK   12  A    between atoms: C18_24  and  C19_27 
REMARK   13  A    between atoms: C19_27  and  O5_28 
REMARK   14  A    between atoms: C20_30  and  O6_31 
REMARK   15  A    between atoms: C21_33  and  O7_34 
REMARK   16  A    between atoms: C22_36  and  O8_37 
ROOT
HETATM    1  C10 UNL     1       5.046 -15.085 -23.518  1.00  0.00     0.100 C 
HETATM    2  C11 UNL     1       5.361 -14.428 -24.883  1.00  0.00     0.056 C 
HETATM    3  C12 UNL     1       4.627 -13.135 -24.742  1.00  0.00     0.123 C 
HETATM    4  O3  UNL     1       3.514 -13.457 -23.923  1.00  0.00    -0.376 OA
HETATM    5  C17 UNL     1       4.181 -14.088 -22.875  1.00  0.00     0.181 C 
HETATM    6  C18 UNL     1       3.175 -14.623 -21.891  1.00  0.00     0.134 C 
HETATM    7  C20 UNL     1       2.435 -15.828 -22.339  1.00  0.00     0.188 C 
HETATM    8  C21 UNL     1       2.923 -16.451 -23.604  1.00  0.00     0.180 C 
HETATM    9  C22 UNL     1       4.397 -16.408 -23.816  1.00  0.00     0.170 C 
ENDROOT
BRANCH   1  10
HETATM   10  C9  UNL     1       6.370 -15.265 -22.843  1.00  0.00     0.231 C 
HETATM   11  N2  UNL     1       6.675 -14.607 -21.645  1.00  0.00    -0.358 N 
ATOM     12  H2  UNL     1       5.963 -13.997 -21.244  1.00  0.00     0.162 HD
HETATM   13  O2  UNL     1       7.245 -16.019 -23.342  1.00  0.00    -0.273 OA
BRANCH  11  14
HETATM   14  C8  UNL     1       7.918 -14.731 -20.945  1.00  0.00     0.149 C 
BRANCH  14  15
HETATM   15  C7  UNL     1       8.968 -13.725 -21.358  1.00  0.00     0.195 C 
BRANCH  15  16
HETATM   16  O1  UNL     1       8.272 -12.533 -21.715  1.00  0.00    -0.349 OA
BRANCH  16  17
HETATM   17  C6  UNL     1       8.111 -12.062 -22.984  1.00  0.00     0.071 A 
HETATM   18  C5  UNL     1       7.331 -10.956 -23.213  1.00  0.00     0.054 A 
HETATM   19  C4  UNL     1       7.156 -10.460 -24.508  1.00  0.00     0.093 A 
HETATM   20  N1  UNL     1       7.751 -11.062 -25.544  1.00  0.00    -0.363 N 
HETATM   21  C24 UNL     1       8.522 -12.148 -25.361  1.00  0.00     0.093 A 
HETATM   22  C23 UNL     1       8.709 -12.661 -24.066  1.00  0.00     0.054 A 
BRANCH  20  23
HETATM   23  C3  UNL     1       7.575 -10.543 -26.909  1.00  0.00     0.154 C 
BRANCH  23  24
HETATM   24  C2  UNL     1       6.684  -9.347 -26.928  1.00  0.00    -0.017 C 
HETATM   25  C1  UNL     1       5.636  -9.239 -27.714  1.00  0.00     0.008 C 
ENDBRANCH  23  24
ENDBRANCH  20  23
ENDBRANCH  16  17
ENDBRANCH  15  16
ENDBRANCH  14  15
ENDBRANCH  11  14
ENDBRANCH   1  10
BRANCH   9  26
HETATM   26  O8  UNL     1       4.965 -17.410 -22.996  1.00  0.00    -0.392 OA
ATOM     27  H8  UNL     1       4.275 -17.889 -22.555  1.00  0.00     0.210 HD
ENDBRANCH   9  26
BRANCH   3  28
HETATM   28  C13 UNL     1       4.278 -12.339 -25.907  1.00  0.00     0.032 C 
BRANCH  28  29
HETATM   29  C14 UNL     1       3.486 -12.839 -27.028  1.00  0.00     0.002 C 
BRANCH  29  30
HETATM   30  C15 UNL     1       3.840 -12.525 -28.427  1.00  0.00    -0.004 C 
HETATM   31  C16 UNL     1       5.275 -12.859 -28.773  1.00  0.00     0.005 C 
ENDBRANCH  29  30
ENDBRANCH  28  29
ENDBRANCH   3  28
BRANCH   6  32
HETATM   32  O4  UNL     1       2.284 -13.542 -21.680  1.00  0.00    -0.382 OA
ATOM     33  H4  UNL     1       2.799 -12.770 -21.884  1.00  0.00     0.210 HD
ENDBRANCH   6  32
BRANCH   6  34
HETATM   34  C19 UNL     1       3.782 -14.893 -20.522  1.00  0.00     0.207 C 
BRANCH  34  35
HETATM   35  O5  UNL     1       4.283 -13.682 -20.024  1.00  0.00    -0.398 OA
ATOM     36  H5  UNL     1       5.229 -13.706 -20.092  1.00  0.00     0.209 HD
ENDBRANCH  34  35
ENDBRANCH   6  34
BRANCH   8  37
HETATM   37  O7  UNL     1       2.204 -15.911 -24.675  1.00  0.00    -0.390 OA
ATOM     38  H7  UNL     1       2.208 -16.537 -25.389  1.00  0.00     0.210 HD
ENDBRANCH   8  37
BRANCH   7  39
HETATM   39  O6  UNL     1       2.366 -16.818 -21.348  1.00  0.00    -0.390 OA
ATOM     40  H6  UNL     1       2.969 -17.535 -21.505  1.00  0.00     0.210 HD
ENDBRANCH   7  39
TORSDOF 16
ENDMDL
MODEL 4
REMARK VINA RESULT: -8.313546544      2.706      5.945
REMARK  16 active torsions:
REMARK  status: ('A' for Active; 'I' for Inactive)
REMARK    1  A    between atoms: C2_2  and  C3_3 
REMARK    2  A    between atoms: C3_3  and  N1_4 
REMARK    3  A    between atoms: C6_7  and  O1_8 
REMARK    4  A    between atoms: O1_8  and  C7_9 
REMARK    5  A    between atoms: C7_9  and  C8_10 
REMARK    6  A    between atoms: C8_10  and  N2_11 
REMARK       I    between atoms: N2_11  and  C9_13 
REMARK    7  A    between atoms: C9_13  and  C10_15 
REMARK    8  A    between atoms: C12_17  and  C13_18 
REMARK    9  A    between atoms: C13_18  and  C14_19 
REMARK   10  A    between atoms: C14_19  and  C15_20 
REMARK   11  A    between atoms: C18_24  and  O4_25 
REMARK   12  A    between atoms: C18_24  and  C19_27 
REMARK   13  A    between atoms: C19_27  and  O5_28 
REMARK   14  A    between atoms: C20_30  and  O6_31 
REMARK   15  A    between atoms: C21_33  and  O7_34 
REMARK   16  A    between atoms: C22_36  and  O8_37 
ROOT
HETATM    1  C10 UNL     1       5.321 -14.715 -23.275  1.00  0.00     0.100 C 
HETATM    2  C11 UNL     1       5.582 -14.216 -24.716  1.00  0.00     0.056 C 
HETATM    3  C12 UNL     1       4.461 -13.242 -24.877  1.00  0.00     0.123 C 
HETATM    4  O3  UNL     1       3.414 -13.787 -24.091  1.00  0.00    -0.376 OA
HETATM    5  C17 UNL     1       4.107 -13.981 -22.897  1.00  0.00     0.181 C 
HETATM    6  C18 UNL     1       3.207 -14.660 -21.900  1.00  0.00     0.134 C 
HETATM    7  C20 UNL     1       2.956 -16.100 -22.158  1.00  0.00     0.188 C 
HETATM    8  C21 UNL     1       3.775 -16.714 -23.243  1.00  0.00     0.180 C 
HETATM    9  C22 UNL     1       5.173 -16.209 -23.357  1.00  0.00     0.170 C 
ENDROOT
BRANCH   1  10
HETATM   10  C9  UNL     1       6.534 -14.327 -22.489  1.00  0.00     0.231 C 
HETATM   11  N2  UNL     1       7.821 -14.688 -22.907  1.00  0.00    -0.358 N 
ATOM     12  H2  UNL     1       7.908 -15.227 -23.768  1.00  0.00     0.162 HD
HETATM   13  O2  UNL     1       6.423 -13.661 -21.428  1.00  0.00    -0.273 OA
BRANCH  11  14
HETATM   14  C8  UNL     1       9.025 -14.353 -22.208  1.00  0.00     0.149 C 
BRANCH  14  15
HETATM   15  C7  UNL     1       9.891 -13.334 -22.913  1.00  0.00     0.195 C 
BRANCH  15  16
HETATM   16  O1  UNL     1       9.109 -12.148 -23.031  1.00  0.00    -0.349 OA
BRANCH  16  17
HETATM   17  C6  UNL     1       8.495 -11.715 -24.168  1.00  0.00     0.071 A 
HETATM   18  C5  UNL     1       8.915 -12.170 -25.393  1.00  0.00     0.054 A 
HETATM   19  C4  UNL     1       8.296 -11.736 -26.569  1.00  0.00     0.093 A 
HETATM   20  N1  UNL     1       7.279 -10.868 -26.511  1.00  0.00    -0.363 N 
HETATM   21  C24 UNL     1       6.839 -10.400 -25.331  1.00  0.00     0.093 A 
HETATM   22  C23 UNL     1       7.449 -10.824 -24.138  1.00  0.00     0.054 A 
BRANCH  20  23
HETATM   23  C3  UNL     1       6.618 -10.411 -27.743  1.00  0.00     0.154 C 
BRANCH  23  24
HETATM   24  C2  UNL     1       5.572  -9.388 -27.453  1.00  0.00    -0.017 C 
HETATM   25  C1  UNL     1       4.733  -8.937 -28.358  1.00  0.00     0.008 C 
ENDBRANCH  23  24
ENDBRANCH  20  23
ENDBRANCH  16  17
ENDBRANCH  15  16
ENDBRANCH  14  15
ENDBRANCH  11  14
ENDBRANCH   1  10
BRANCH   9  26
HETATM   26  O8  UNL     1       5.921 -16.817 -22.323  1.00  0.00    -0.392 OA
ATOM     27  H8  UNL     1       5.942 -17.757 -22.455  1.00  0.00     0.210 HD
ENDBRANCH   9  26
BRANCH   3  28
HETATM   28  C13 UNL     1       4.030 -12.807 -26.195  1.00  0.00     0.032 C 
BRANCH  28  29
HETATM   29  C14 UNL     1       4.492 -13.407 -27.444  1.00  0.00     0.002 C 
BRANCH  29  30
HETATM   30  C15 UNL     1       3.991 -12.947 -28.755  1.00  0.00    -0.004 C 
HETATM   31  C16 UNL     1       4.185 -13.960 -29.862  1.00  0.00     0.005 C 
ENDBRANCH  29  30
ENDBRANCH  28  29
ENDBRANCH   3  28
BRANCH   6  32
HETATM   32  O4  UNL     1       1.998 -13.925 -21.963  1.00  0.00    -0.382 OA
ATOM     33  H4  UNL     1       1.640 -13.986 -21.085  1.00  0.00     0.210 HD
ENDBRANCH   6  32
BRANCH   6  34
HETATM   34  C19 UNL     1       3.687 -14.488 -20.466  1.00  0.00     0.207 C 
BRANCH  34  35
HETATM   35  O5  UNL     1       3.756 -13.115 -20.195  1.00  0.00    -0.398 OA
ATOM     36  H5  UNL     1       4.666 -12.892 -20.042  1.00  0.00     0.209 HD
ENDBRANCH  34  35
ENDBRANCH   6  34
BRANCH   8  37
HETATM   37  O7  UNL     1       3.066 -16.625 -24.444  1.00  0.00    -0.390 OA
ATOM     38  H7  UNL     1       3.379 -17.303 -25.032  1.00  0.00     0.210 HD
ENDBRANCH   8  37
BRANCH   7  39
HETATM   39  O6  UNL     1       3.080 -16.885 -21.002  1.00  0.00    -0.390 OA
ATOM     40  H6  UNL     1       2.525 -16.581 -20.293  1.00  0.00     0.210 HD
ENDBRANCH   7  39
TORSDOF 16
ENDMDL
MODEL 5
REMARK VINA RESULT: -8.292032137      2.964      5.968
REMARK  16 active torsions:
REMARK  status: ('A' for Active; 'I' for Inactive)
REMARK    1  A    between atoms: C2_2  and  C3_3 
REMARK    2  A    between atoms: C3_3  and  N1_4 
REMARK    3  A    between atoms: C6_7  and  O1_8 
REMARK    4  A    between atoms: O1_8  and  C7_9 
REMARK    5  A    between atoms: C7_9  and  C8_10 
REMARK    6  A    between atoms: C8_10  and  N2_11 
REMARK       I    between atoms: N2_11  and  C9_13 
REMARK    7  A    between atoms: C9_13  and  C10_15 
REMARK    8  A    between atoms: C12_17  and  C13_18 
REMARK    9  A    between atoms: C13_18  and  C14_19 
REMARK   10  A    between atoms: C14_19  and  C15_20 
REMARK   11  A    between atoms: C18_24  and  O4_25 
REMARK   12  A    between atoms: C18_24  and  C19_27 
REMARK   13  A    between atoms: C19_27  and  O5_28 
REMARK   14  A    between atoms: C20_30  and  O6_31 
REMARK   15  A    between atoms: C21_33  and  O7_34 
REMARK   16  A    between atoms: C22_36  and  O8_37 
ROOT
HETATM    1  C10 UNL     1       5.282 -14.874 -23.126  1.00  0.00     0.100 C 
HETATM    2  C11 UNL     1       5.630 -14.303 -24.521  1.00  0.00     0.056 C 
HETATM    3  C12 UNL     1       4.634 -13.195 -24.622  1.00  0.00     0.123 C 
HETATM    4  O3  UNL     1       3.513 -13.670 -23.892  1.00  0.00    -0.376 OA
HETATM    5  C17 UNL     1       4.154 -14.032 -22.708  1.00  0.00     0.181 C 
HETATM    6  C18 UNL     1       3.161 -14.673 -21.777  1.00  0.00     0.134 C 
HETATM    7  C20 UNL     1       2.749 -16.050 -22.147  1.00  0.00     0.188 C 
HETATM    8  C21 UNL     1       3.514 -16.673 -23.265  1.00  0.00     0.180 C 
HETATM    9  C22 UNL     1       4.963 -16.330 -23.324  1.00  0.00     0.170 C 
ENDROOT
BRANCH   1  10
HETATM   10  C9  UNL     1       6.515 -14.690 -22.298  1.00  0.00     0.231 C 
HETATM   11  N2  UNL     1       7.750 -15.214 -22.700  1.00  0.00    -0.358 N 
ATOM     12  H2  UNL     1       7.784 -15.728 -23.580  1.00  0.00     0.162 HD
HETATM   13  O2  UNL     1       6.469 -14.054 -21.213  1.00  0.00    -0.273 OA
BRANCH  11  14
HETATM   14  C8  UNL     1       8.968 -15.078 -21.961  1.00  0.00     0.149 C 
BRANCH  14  15
HETATM   15  C7  UNL     1      10.005 -14.201 -22.625  1.00  0.00     0.195 C 
BRANCH  15  16
HETATM   16  O1  UNL     1       9.548 -12.858 -22.490  1.00  0.00    -0.349 OA
BRANCH  16  17
HETATM   17  C6  UNL     1       8.889 -12.146 -23.448  1.00  0.00     0.071 A 
HETATM   18  C5  UNL     1       7.840 -11.332 -23.101  1.00  0.00     0.054 A 
HETATM   19  C4  UNL     1       7.154 -10.595 -24.071  1.00  0.00     0.093 A 
HETATM   20  N1  UNL     1       7.517 -10.676 -25.356  1.00  0.00    -0.363 N 
HETATM   21  C24 UNL     1       8.539 -11.462 -25.736  1.00  0.00     0.093 A 
HETATM   22  C23 UNL     1       9.240 -12.210 -24.774  1.00  0.00     0.054 A 
BRANCH  20  23
HETATM   23  C3  UNL     1       6.804  -9.900 -26.383  1.00  0.00     0.154 C 
BRANCH  23  24
HETATM   24  C2  UNL     1       6.791 -10.613 -27.693  1.00  0.00    -0.017 C 
HETATM   25  C1  UNL     1       5.982 -10.295 -28.679  1.00  0.00     0.008 C 
ENDBRANCH  23  24
ENDBRANCH  20  23
ENDBRANCH  16  17
ENDBRANCH  15  16
ENDBRANCH  14  15
ENDBRANCH  11  14
ENDBRANCH   1  10
BRANCH   9  26
HETATM   26  O8  UNL     1       5.614 -17.096 -22.329  1.00  0.00    -0.392 OA
ATOM     27  H8  UNL     1       6.447 -17.407 -22.662  1.00  0.00     0.210 HD
ENDBRANCH   9  26
BRANCH   3  28
HETATM   28  C13 UNL     1       4.284 -12.615 -25.908  1.00  0.00     0.032 C 
BRANCH  28  29
HETATM   29  C14 UNL     1       3.819 -13.393 -27.053  1.00  0.00     0.002 C 
BRANCH  29  30
HETATM   30  C15 UNL     1       4.763 -13.961 -28.037  1.00  0.00    -0.004 C 
HETATM   31  C16 UNL     1       4.308 -13.798 -29.470  1.00  0.00     0.005 C 
ENDBRANCH  29  30
ENDBRANCH  28  29
ENDBRANCH   3  28
BRANCH   6  32
HETATM   32  O4  UNL     1       2.046 -13.798 -21.799  1.00  0.00    -0.382 OA
ATOM     33  H4  UNL     1       1.414 -14.208 -21.220  1.00  0.00     0.210 HD
ENDBRANCH   6  32
BRANCH   6  34
HETATM   34  C19 UNL     1       3.627 -14.666 -20.329  1.00  0.00     0.207 C 
BRANCH  34  35
HETATM   35  O5  UNL     1       3.873 -13.336 -19.960  1.00  0.00    -0.398 OA
ATOM     36  H5  UNL     1       3.677 -13.248 -19.035  1.00  0.00     0.209 HD
ENDBRANCH  34  35
ENDBRANCH   6  34
BRANCH   8  37
HETATM   37  O7  UNL     1       2.846 -16.413 -24.465  1.00  0.00    -0.390 OA
ATOM     38  H7  UNL     1       2.791 -15.472 -24.584  1.00  0.00     0.210 HD
ENDBRANCH   8  37
BRANCH   7  39
HETATM   39  O6  UNL     1       2.756 -16.927 -21.053  1.00  0.00    -0.390 OA
ATOM     40  H6  UNL     1       2.420 -17.789 -21.273  1.00  0.00     0.210 HD
ENDBRANCH   7  39
TORSDOF 16
ENDMDL
