MODEL 1
REMARK VINA RESULT: -7.826359709      0.000      0.000
REMARK  16 active torsions:
REMARK  status: ('A' for Active; 'I' for Inactive)
REMARK    1  A    between atoms: C2_2  and  C4_4 
REMARK    2  A    between atoms: C2_2  and  C5_7 
REMARK    3  A    between atoms: C4_4  and  O1_5 
REMARK    4  A    between atoms: C5_7  and  N1_8 
REMARK    5  A    between atoms: N1_8  and  C6_10 
REMARK    6  A    between atoms: C7_13  and  N3_14 
REMARK    7  A    between atoms: N3_14  and  C8_16 
REMARK    8  A    between atoms: C8_16  and  C9_17 
REMARK    9  A    between atoms: C9_17  and  O2_18 
REMARK   10  A    between atoms: N5_23  and  C11_25 
REMARK   11  A    between atoms: C11_25  and  C12_26 
REMARK       I    between atoms: C12_26  and  N6_28 
REMARK   12  A    between atoms: N6_28  and  C13_30 
REMARK   13  A    between atoms: C13_30  and  C14_31 
REMARK   14  A    between atoms: C14_31  and  C15_32 
REMARK   15  A    between atoms: C15_32  and  C16_33 
REMARK   16  A    between atoms: C16_33  and  N7_34 
ROOT
HETATM    1  C6  UNL     1       4.783 -13.217 -27.016  1.00  0.00     0.707 A 
HETATM    2  N2  UNL     1       6.007 -13.557 -26.576  1.00  0.00    -0.022 N 
ATOM      3  H2  UNL     1       6.834 -13.187 -27.045  1.00  0.00     0.203 HD
HETATM    4  C7  UNL     1       6.151 -14.376 -25.524  1.00  0.00     0.707 A 
HETATM    5  N4  UNL     1       5.029 -14.854 -24.916  1.00  0.00    -0.021 N 
ATOM      6  H4  UNL     1       5.142 -15.476 -24.116  1.00  0.00     0.203 HD
HETATM    7  C10 UNL     1       3.787 -14.551 -25.310  1.00  0.00     0.711 A 
HETATM    8  N5  UNL     1       2.717 -14.980 -24.764  1.00  0.00    -0.195 N 
ATOM      9  H5  UNL     1       1.851 -14.650 -25.189  1.00  0.00     0.183 HD
HETATM   10  N8  UNL     1       3.717 -13.709 -26.388  1.00  0.00    -0.021 N 
ATOM     11  H8  UNL     1       2.794 -13.444 -26.731  1.00  0.00     0.203 HD
ENDROOT
BRANCH   8  12
HETATM   12  C11 UNL     1       2.551 -15.840 -23.664  1.00  0.00     0.180 C 
BRANCH  12  13
HETATM   13  C12 UNL     1       2.303 -15.191 -22.348  1.00  0.00     0.257 C 
HETATM   14  O3  UNL     1       1.123 -15.265 -21.854  1.00  0.00    -0.267 OA
HETATM   15  N6  UNL     1       3.273 -14.508 -21.617  1.00  0.00    -0.356 N 
ATOM     16  H6  UNL     1       4.216 -14.431 -21.999  1.00  0.00     0.162 HD
BRANCH  15  17
HETATM   17  C13 UNL     1       2.985 -13.901 -20.326  1.00  0.00     0.126 C 
BRANCH  17  18
HETATM   18  C14 UNL     1       4.019 -14.132 -19.300  1.00  0.00     0.048 C 
BRANCH  18  19
HETATM   19  C15 UNL     1       4.599 -15.479 -19.120  1.00  0.00    -0.008 C 
BRANCH  19  20
HETATM   20  C16 UNL     1       5.966 -15.840 -19.492  1.00  0.00     0.090 C 
BRANCH  20  21
HETATM   21  N7  UNL     1       6.307 -16.794 -20.462  1.00  0.00    -0.327 N 
HETATM   22  C17 UNL     1       6.774 -18.138 -20.048  1.00  0.00     0.141 C 
HETATM   23  C18 UNL     1       8.103 -18.390 -20.747  1.00  0.00     0.094 C 
HETATM   24  S1  UNL     1       7.670 -18.722 -22.503  1.00  0.00    -0.158 SA
HETATM   25  C19 UNL     1       6.175 -17.700 -22.810  1.00  0.00     0.177 C 
HETATM   26  C20 UNL     1       6.230 -16.530 -21.856  1.00  0.00     0.233 C 
HETATM   27  O4  UNL     1       6.208 -15.347 -22.294  1.00  0.00    -0.272 OA
ENDBRANCH  20  21
ENDBRANCH  19  20
ENDBRANCH  18  19
ENDBRANCH  17  18
ENDBRANCH  15  17
ENDBRANCH  12  13
ENDBRANCH   8  12
BRANCH   4  28
HETATM   28  N3  UNL     1       7.297 -14.729 -25.038  1.00  0.00    -0.223 N 
ATOM     29  H3  UNL     1       7.442 -15.706 -24.785  1.00  0.00     0.177 HD
BRANCH  28  30
HETATM   30  C8  UNL     1       8.370 -13.802 -24.842  1.00  0.00     0.164 C 
BRANCH  30  31
HETATM   31  C9  UNL     1       9.560 -14.470 -24.176  1.00  0.00     0.184 C 
BRANCH  31  32
HETATM   32  O2  UNL     1       9.811 -15.679 -24.815  1.00  0.00    -0.399 OA
ATOM     33  H2  UNL     1      10.304 -16.240 -24.228  1.00  0.00     0.209 HD
ENDBRANCH  31  32
ENDBRANCH  30  31
ENDBRANCH  28  30
ENDBRANCH   4  28
BRANCH   1  34
HETATM   34  N1  UNL     1       4.742 -12.438 -28.025  1.00  0.00    -0.224 N 
ATOM     35  H1  UNL     1       5.215 -12.779 -28.863  1.00  0.00     0.177 HD
BRANCH  34  36
HETATM   36  C5  UNL     1       4.131 -11.163 -28.146  1.00  0.00     0.149 C 
BRANCH  36  37
HETATM   37  C2  UNL     1       5.030  -9.991 -27.836  1.00  0.00    -0.010 C 
HETATM   38  C1  UNL     1       5.047  -9.811 -26.335  1.00  0.00     0.018 C 
HETATM   39  C3  UNL     1       4.598  -8.720 -28.482  1.00  0.00     0.018 C 
BRANCH  37  40
HETATM   40  C4  UNL     1       6.460 -10.266 -28.266  1.00  0.00     0.174 C 
BRANCH  40  41
HETATM   41  O1  UNL     1       6.471 -10.654 -29.618  1.00  0.00    -0.400 OA
ATOM     42  H1  UNL     1       6.407 -11.601 -29.673  1.00  0.00     0.209 HD
ENDBRANCH  40  41
ENDBRANCH  37  40
ENDBRANCH  36  37
ENDBRANCH  34  36
ENDBRANCH   1  34
TORSDOF 16
ENDMDL
MODEL 2
REMARK VINA RESULT: -7.821539175      1.172      1.472
REMARK  16 active torsions:
REMARK  status: ('A' for Active; 'I' for Inactive)
REMARK    1  A    between atoms: C2_2  and  C4_4 
REMARK    2  A    between atoms: C2_2  and  C5_7 
REMARK    3  A    between atoms: C4_4  and  O1_5 
REMARK    4  A    between atoms: C5_7  and  N1_8 
REMARK    5  A    between atoms: N1_8  and  C6_10 
REMARK    6  A    between atoms: C7_13  and  N3_14 
REMARK    7  A    between atoms: N3_14  and  C8_16 
REMARK    8  A    between atoms: C8_16  and  C9_17 
REMARK    9  A    between atoms: C9_17  and  O2_18 
REMARK   10  A    between atoms: N5_23  and  C11_25 
REMARK   11  A    between atoms: C11_25  and  C12_26 
REMARK       I    between atoms: C12_26  and  N6_28 
REMARK   12  A    between atoms: N6_28  and  C13_30 
REMARK   13  A    between atoms: C13_30  and  C14_31 
REMARK   14  A    between atoms: C14_31  and  C15_32 
REMARK   15  A    between atoms: C15_32  and  C16_33 
REMARK   16  A    between atoms: C16_33  and  N7_34 
ROOT
HETATM    1  C6  UNL     1       4.413 -13.034 -26.725  1.00  0.00     0.707 A 
HETATM    2  N2  UNL     1       5.741 -13.233 -26.675  1.00  0.00    -0.022 N 
ATOM      3  H2  UNL     1       6.360 -12.659 -27.246  1.00  0.00     0.203 HD
HETATM    4  C7  UNL     1       6.259 -14.182 -25.881  1.00  0.00     0.707 A 
HETATM    5  N4  UNL     1       5.407 -14.934 -25.129  1.00  0.00    -0.021 N 
ATOM      6  H4  UNL     1       5.805 -15.653 -24.525  1.00  0.00     0.203 HD
HETATM    7  C10 UNL     1       4.079 -14.781 -25.138  1.00  0.00     0.711 A 
HETATM    8  N5  UNL     1       3.255 -15.467 -24.447  1.00  0.00    -0.195 N 
ATOM      9  H5  UNL     1       2.273 -15.220 -24.573  1.00  0.00     0.183 HD
HETATM   10  N8  UNL     1       3.621 -13.795 -25.971  1.00  0.00    -0.021 N 
ATOM     11  H8  UNL     1       2.615 -13.633 -26.018  1.00  0.00     0.203 HD
ENDROOT
BRANCH   8  12
HETATM   12  C11 UNL     1       3.494 -16.514 -23.540  1.00  0.00     0.180 C 
BRANCH  12  13
HETATM   13  C12 UNL     1       3.371 -16.179 -22.096  1.00  0.00     0.257 C 
HETATM   14  O3  UNL     1       2.537 -16.851 -21.392  1.00  0.00    -0.267 OA
HETATM   15  N6  UNL     1       4.105 -15.182 -21.459  1.00  0.00    -0.356 N 
ATOM     16  H6  UNL     1       4.767 -14.630 -22.005  1.00  0.00     0.162 HD
BRANCH  15  17
HETATM   17  C13 UNL     1       3.959 -14.901 -20.037  1.00  0.00     0.126 C 
BRANCH  17  18
HETATM   18  C14 UNL     1       4.954 -15.570 -19.179  1.00  0.00     0.048 C 
BRANCH  18  19
HETATM   19  C15 UNL     1       6.343 -15.071 -19.124  1.00  0.00    -0.008 C 
BRANCH  19  20
HETATM   20  C16 UNL     1       7.401 -15.487 -20.042  1.00  0.00     0.090 C 
BRANCH  20  21
HETATM   21  N7  UNL     1       7.431 -16.708 -20.731  1.00  0.00    -0.327 N 
HETATM   22  C17 UNL     1       7.856 -17.944 -20.032  1.00  0.00     0.141 C 
HETATM   23  C18 UNL     1       8.969 -18.573 -20.861  1.00  0.00     0.094 C 
HETATM   24  S1  UNL     1       8.128 -19.299 -22.326  1.00  0.00    -0.158 SA
HETATM   25  C19 UNL     1       6.700 -18.187 -22.636  1.00  0.00     0.177 C 
HETATM   26  C20 UNL     1       7.070 -16.824 -22.100  1.00  0.00     0.233 C 
HETATM   27  O4  UNL     1       7.058 -15.815 -22.858  1.00  0.00    -0.272 OA
ENDBRANCH  20  21
ENDBRANCH  19  20
ENDBRANCH  18  19
ENDBRANCH  17  18
ENDBRANCH  15  17
ENDBRANCH  12  13
ENDBRANCH   8  12
BRANCH   4  28
HETATM   28  N3  UNL     1       7.527 -14.415 -25.771  1.00  0.00    -0.223 N 
ATOM     29  H3  UNL     1       7.900 -15.286 -26.149  1.00  0.00     0.177 HD
BRANCH  28  30
HETATM   30  C8  UNL     1       8.428 -13.498 -25.140  1.00  0.00     0.164 C 
BRANCH  30  31
HETATM   31  C9  UNL     1       9.558 -14.231 -24.440  1.00  0.00     0.184 C 
BRANCH  31  32
HETATM   32  O2  UNL     1       9.562 -15.556 -24.860  1.00  0.00    -0.399 OA
ATOM     33  H2  UNL     1      10.341 -15.711 -25.380  1.00  0.00     0.209 HD
ENDBRANCH  31  32
ENDBRANCH  30  31
ENDBRANCH  28  30
ENDBRANCH   4  28
BRANCH   1  34
HETATM   34  N1  UNL     1       4.009 -12.115 -27.513  1.00  0.00    -0.224 N 
ATOM     35  H1  UNL     1       3.037 -12.191 -27.815  1.00  0.00     0.177 HD
BRANCH  34  36
HETATM   36  C5  UNL     1       4.722 -11.002 -28.028  1.00  0.00     0.149 C 
BRANCH  36  37
HETATM   37  C2  UNL     1       4.089  -9.658 -27.762  1.00  0.00    -0.010 C 
HETATM   38  C1  UNL     1       4.996  -8.600 -28.348  1.00  0.00     0.018 C 
HETATM   39  C3  UNL     1       3.871  -9.377 -26.315  1.00  0.00     0.018 C 
BRANCH  37  40
HETATM   40  C4  UNL     1       2.749  -9.533 -28.465  1.00  0.00     0.174 C 
BRANCH  40  41
HETATM   41  O1  UNL     1       2.724 -10.397 -29.574  1.00  0.00    -0.400 OA
ATOM     42  H1  UNL     1       1.887 -10.846 -29.603  1.00  0.00     0.209 HD
ENDBRANCH  40  41
ENDBRANCH  37  40
ENDBRANCH  36  37
ENDBRANCH  34  36
ENDBRANCH   1  34
TORSDOF 16
ENDMDL
MODEL 3
REMARK VINA RESULT: -7.796659419      2.369      4.967
REMARK  16 active torsions:
REMARK  status: ('A' for Active; 'I' for Inactive)
REMARK    1  A    between atoms: C2_2  and  C4_4 
REMARK    2  A    between atoms: C2_2  and  C5_7 
REMARK    3  A    between atoms: C4_4  and  O1_5 
REMARK    4  A    between atoms: C5_7  and  N1_8 
REMARK    5  A    between atoms: N1_8  and  C6_10 
REMARK    6  A    between atoms: C7_13  and  N3_14 
REMARK    7  A    between atoms: N3_14  and  C8_16 
REMARK    8  A    between atoms: C8_16  and  C9_17 
REMARK    9  A    between atoms: C9_17  and  O2_18 
REMARK   10  A    between atoms: N5_23  and  C11_25 
REMARK   11  A    between atoms: C11_25  and  C12_26 
REMARK       I    between atoms: C12_26  and  N6_28 
REMARK   12  A    between atoms: N6_28  and  C13_30 
REMARK   13  A    between atoms: C13_30  and  C14_31 
REMARK   14  A    between atoms: C14_31  and  C15_32 
REMARK   15  A    between atoms: C15_32  and  C16_33 
REMARK   16  A    between atoms: C16_33  and  N7_34 
ROOT
HETATM    1  C6  UNL     1       3.954 -14.168 -25.391  1.00  0.00     0.707 A 
HETATM    2  N2  UNL     1       2.797 -14.854 -25.395  1.00  0.00    -0.022 N 
ATOM      3  H2  UNL     1       2.226 -14.876 -26.240  1.00  0.00     0.203 HD
HETATM    4  C7  UNL     1       2.388 -15.508 -24.299  1.00  0.00     0.707 A 
HETATM    5  N4  UNL     1       3.172 -15.461 -23.185  1.00  0.00    -0.021 N 
ATOM      6  H4  UNL     1       2.858 -15.961 -22.354  1.00  0.00     0.203 HD
HETATM    7  C10 UNL     1       4.330 -14.796 -23.123  1.00  0.00     0.711 A 
HETATM    8  N5  UNL     1       5.087 -14.732 -22.097  1.00  0.00    -0.195 N 
ATOM      9  H5  UNL     1       5.937 -14.182 -22.220  1.00  0.00     0.183 HD
HETATM   10  N8  UNL     1       4.685 -14.152 -24.278  1.00  0.00    -0.021 N 
ATOM     11  H8  UNL     1       5.561 -13.630 -24.288  1.00  0.00     0.203 HD
ENDROOT
BRANCH   8  12
HETATM   12  C11 UNL     1       4.926 -15.304 -20.823  1.00  0.00     0.180 C 
BRANCH  12  13
HETATM   13  C12 UNL     1       5.711 -16.538 -20.549  1.00  0.00     0.257 C 
HETATM   14  O3  UNL     1       6.054 -16.774 -19.337  1.00  0.00    -0.267 OA
HETATM   15  N6  UNL     1       6.095 -17.455 -21.524  1.00  0.00    -0.356 N 
ATOM     16  H6  UNL     1       5.838 -17.279 -22.496  1.00  0.00     0.162 HD
BRANCH  15  17
HETATM   17  C13 UNL     1       6.851 -18.657 -21.203  1.00  0.00     0.126 C 
BRANCH  17  18
HETATM   18  C14 UNL     1       7.670 -19.176 -22.313  1.00  0.00     0.048 C 
BRANCH  18  19
HETATM   19  C15 UNL     1       9.100 -18.821 -22.412  1.00  0.00    -0.008 C 
BRANCH  19  20
HETATM   20  C16 UNL     1       9.598 -17.578 -22.998  1.00  0.00     0.090 C 
BRANCH  20  21
HETATM   21  N7  UNL     1       9.414 -16.302 -22.447  1.00  0.00    -0.327 N 
HETATM   22  C17 UNL     1      10.218 -15.876 -21.277  1.00  0.00     0.141 C 
HETATM   23  C18 UNL     1       9.244 -15.404 -20.206  1.00  0.00     0.094 C 
HETATM   24  S1  UNL     1       8.633 -13.772 -20.793  1.00  0.00    -0.158 SA
HETATM   25  C19 UNL     1       8.636 -13.911 -22.625  1.00  0.00     0.177 C 
HETATM   26  C20 UNL     1       8.469 -15.374 -22.962  1.00  0.00     0.233 C 
HETATM   27  O4  UNL     1       7.509 -15.757 -23.686  1.00  0.00    -0.272 OA
ENDBRANCH  20  21
ENDBRANCH  19  20
ENDBRANCH  18  19
ENDBRANCH  17  18
ENDBRANCH  15  17
ENDBRANCH  12  13
ENDBRANCH   8  12
BRANCH   4  28
HETATM   28  N3  UNL     1       1.296 -16.201 -24.240  1.00  0.00    -0.223 N 
ATOM     29  H3  UNL     1       1.104 -16.876 -24.979  1.00  0.00     0.177 HD
BRANCH  28  30
HETATM   30  C8  UNL     1       0.348 -16.056 -23.177  1.00  0.00     0.164 C 
BRANCH  30  31
HETATM   31  C9  UNL     1      -0.590 -17.248 -23.111  1.00  0.00     0.184 C 
BRANCH  31  32
HETATM   32  O2  UNL     1       0.147 -18.411 -23.309  1.00  0.00    -0.399 OA
ATOM     33  H2  UNL     1      -0.032 -19.013 -22.596  1.00  0.00     0.209 HD
ENDBRANCH  31  32
ENDBRANCH  30  31
ENDBRANCH  28  30
ENDBRANCH   4  28
BRANCH   1  34
HETATM   34  N1  UNL     1       4.261 -13.571 -26.476  1.00  0.00    -0.224 N 
ATOM     35  H1  UNL     1       4.050 -12.573 -26.503  1.00  0.00     0.177 HD
BRANCH  34  36
HETATM   36  C5  UNL     1       4.854 -14.101 -27.651  1.00  0.00     0.149 C 
BRANCH  36  37
HETATM   37  C2  UNL     1       4.629 -13.289 -28.903  1.00  0.00    -0.010 C 
HETATM   38  C1  UNL     1       3.587 -12.239 -28.588  1.00  0.00     0.018 C 
HETATM   39  C3  UNL     1       4.178 -14.100 -30.068  1.00  0.00     0.018 C 
BRANCH  37  40
HETATM   40  C4  UNL     1       5.892 -12.552 -29.314  1.00  0.00     0.174 C 
BRANCH  40  41
HETATM   41  O1  UNL     1       6.253 -12.941 -30.616  1.00  0.00    -0.400 OA
ATOM     42  H1  UNL     1       6.517 -13.854 -30.608  1.00  0.00     0.209 HD
ENDBRANCH  40  41
ENDBRANCH  37  40
ENDBRANCH  36  37
ENDBRANCH  34  36
ENDBRANCH   1  34
TORSDOF 16
ENDMDL
MODEL 4
REMARK VINA RESULT: -7.736785483      3.215      4.830
REMARK  16 active torsions:
REMARK  status: ('A' for Active; 'I' for Inactive)
REMARK    1  A    between atoms: C2_2  and  C4_4 
REMARK    2  A    between atoms: C2_2  and  C5_7 
REMARK    3  A    between atoms: C4_4  and  O1_5 
REMARK    4  A    between atoms: C5_7  and  N1_8 
REMARK    5  A    between atoms: N1_8  and  C6_10 
REMARK    6  A    between atoms: C7_13  and  N3_14 
REMARK    7  A    between atoms: N3_14  and  C8_16 
REMARK    8  A    between atoms: C8_16  and  C9_17 
REMARK    9  A    between atoms: C9_17  and  O2_18 
REMARK   10  A    between atoms: N5_23  and  C11_25 
REMARK   11  A    between atoms: C11_25  and  C12_26 
REMARK       I    between atoms: C12_26  and  N6_28 
REMARK   12  A    between atoms: N6_28  and  C13_30 
REMARK   13  A    between atoms: C13_30  and  C14_31 
REMARK   14  A    between atoms: C14_31  and  C15_32 
REMARK   15  A    between atoms: C15_32  and  C16_33 
REMARK   16  A    between atoms: C16_33  and  N7_34 
ROOT
HETATM    1  C6  UNL     1       9.739 -13.444 -24.092  1.00  0.00     0.707 A 
HETATM    2  N2  UNL     1       9.910 -14.715 -24.493  1.00  0.00    -0.022 N 
ATOM      3  H2  UNL     1      10.178 -14.909 -25.458  1.00  0.00     0.203 HD
HETATM    4  C7  UNL     1       9.732 -15.731 -23.636  1.00  0.00     0.707 A 
HETATM    5  N4  UNL     1       9.375 -15.441 -22.353  1.00  0.00    -0.021 N 
ATOM      6  H4  UNL     1       9.241 -16.217 -21.704  1.00  0.00     0.203 HD
HETATM    7  C10 UNL     1       9.191 -14.198 -21.899  1.00  0.00     0.711 A 
HETATM    8  N5  UNL     1       8.857 -13.893 -20.705  1.00  0.00    -0.195 N 
ATOM      9  H5  UNL     1       8.759 -12.894 -20.525  1.00  0.00     0.183 HD
HETATM   10  N8  UNL     1       9.390 -13.212 -22.828  1.00  0.00    -0.021 N 
ATOM     11  H8  UNL     1       9.264 -12.243 -22.536  1.00  0.00     0.203 HD
ENDROOT
BRANCH   8  12
HETATM   12  C11 UNL     1       8.602 -14.726 -19.601  1.00  0.00     0.180 C 
BRANCH  12  13
HETATM   13  C12 UNL     1       7.215 -15.249 -19.474  1.00  0.00     0.257 C 
HETATM   14  O3  UNL     1       7.013 -16.485 -19.746  1.00  0.00    -0.267 OA
HETATM   15  N6  UNL     1       6.123 -14.483 -19.077  1.00  0.00    -0.356 N 
ATOM     16  H6  UNL     1       6.263 -13.495 -18.865  1.00  0.00     0.162 HD
BRANCH  15  17
HETATM   17  C13 UNL     1       4.785 -15.046 -18.953  1.00  0.00     0.126 C 
BRANCH  17  18
HETATM   18  C14 UNL     1       3.712 -14.044 -18.822  1.00  0.00     0.048 C 
BRANCH  18  19
HETATM   19  C15 UNL     1       2.889 -13.678 -19.993  1.00  0.00    -0.008 C 
BRANCH  19  20
HETATM   20  C16 UNL     1       3.436 -13.294 -21.293  1.00  0.00     0.090 C 
BRANCH  20  21
HETATM   21  N7  UNL     1       4.157 -14.146 -22.142  1.00  0.00    -0.327 N 
HETATM   22  C17 UNL     1       3.548 -15.411 -22.615  1.00  0.00     0.141 C 
HETATM   23  C18 UNL     1       4.521 -16.534 -22.279  1.00  0.00     0.094 C 
HETATM   24  S1  UNL     1       5.894 -16.361 -23.490  1.00  0.00    -0.158 SA
HETATM   25  C19 UNL     1       6.001 -14.556 -23.810  1.00  0.00     0.177 C 
HETATM   26  C20 UNL     1       5.476 -13.852 -22.581  1.00  0.00     0.233 C 
HETATM   27  O4  UNL     1       6.199 -13.023 -21.962  1.00  0.00    -0.272 OA
ENDBRANCH  20  21
ENDBRANCH  19  20
ENDBRANCH  18  19
ENDBRANCH  17  18
ENDBRANCH  15  17
ENDBRANCH  12  13
ENDBRANCH   8  12
BRANCH   4  28
HETATM   28  N3  UNL     1       9.897 -16.975 -23.950  1.00  0.00    -0.223 N 
ATOM     29  H3  UNL     1       9.918 -17.232 -24.937  1.00  0.00     0.177 HD
BRANCH  28  30
HETATM   30  C8  UNL     1      10.052 -18.005 -22.968  1.00  0.00     0.164 C 
BRANCH  30  31
HETATM   31  C9  UNL     1       8.739 -18.725 -22.713  1.00  0.00     0.184 C 
BRANCH  31  32
HETATM   32  O2  UNL     1       8.219 -18.293 -21.498  1.00  0.00    -0.399 OA
ATOM     33  H2  UNL     1       7.951 -19.051 -20.993  1.00  0.00     0.209 HD
ENDBRANCH  31  32
ENDBRANCH  30  31
ENDBRANCH  28  30
ENDBRANCH   4  28
BRANCH   1  34
HETATM   34  N1  UNL     1       9.923 -12.542 -24.976  1.00  0.00    -0.224 N 
ATOM     35  H1  UNL     1      10.278 -12.874 -25.874  1.00  0.00     0.177 HD
BRANCH  34  36
HETATM   36  C5  UNL     1       9.705 -11.144 -24.886  1.00  0.00     0.149 C 
BRANCH  36  37
HETATM   37  C2  UNL     1       8.391 -10.664 -25.452  1.00  0.00    -0.010 C 
HETATM   38  C1  UNL     1       7.992 -11.614 -26.558  1.00  0.00     0.018 C 
HETATM   39  C3  UNL     1       8.443  -9.275 -25.988  1.00  0.00     0.018 C 
BRANCH  37  40
HETATM   40  C4  UNL     1       7.291 -10.715 -24.406  1.00  0.00     0.174 C 
BRANCH  40  41
HETATM   41  O1  UNL     1       7.870 -10.744 -23.124  1.00  0.00    -0.400 OA
ATOM     42  H1  UNL     1       8.426 -11.511 -23.049  1.00  0.00     0.209 HD
ENDBRANCH  40  41
ENDBRANCH  37  40
ENDBRANCH  36  37
ENDBRANCH  34  36
ENDBRANCH   1  34
TORSDOF 16
ENDMDL
MODEL 5
REMARK VINA RESULT: -7.735132524      2.385      7.832
REMARK  16 active torsions:
REMARK  status: ('A' for Active; 'I' for Inactive)
REMARK    1  A    between atoms: C2_2  and  C4_4 
REMARK    2  A    between atoms: C2_2  and  C5_7 
REMARK    3  A    between atoms: C4_4  and  O1_5 
REMARK    4  A    between atoms: C5_7  and  N1_8 
REMARK    5  A    between atoms: N1_8  and  C6_10 
REMARK    6  A    between atoms: C7_13  and  N3_14 
REMARK    7  A    between atoms: N3_14  and  C8_16 
REMARK    8  A    between atoms: C8_16  and  C9_17 
REMARK    9  A    between atoms: C9_17  and  O2_18 
REMARK   10  A    between atoms: N5_23  and  C11_25 
REMARK   11  A    between atoms: C11_25  and  C12_26 
REMARK       I    between atoms: C12_26  and  N6_28 
REMARK   12  A    between atoms: N6_28  and  C13_30 
REMARK   13  A    between atoms: C13_30  and  C14_31 
REMARK   14  A    between atoms: C14_31  and  C15_32 
REMARK   15  A    between atoms: C15_32  and  C16_33 
REMARK   16  A    between atoms: C16_33  and  N7_34 
ROOT
HETATM    1  C6  UNL     1       4.930 -15.552 -23.418  1.00  0.00     0.707 A 
HETATM    2  N2  UNL     1       3.626 -15.880 -23.402  1.00  0.00    -0.022 N 
ATOM      3  H2  UNL     1       3.233 -16.348 -22.585  1.00  0.00     0.203 HD
HETATM    4  C7  UNL     1       2.839 -15.597 -24.450  1.00  0.00     0.707 A 
HETATM    5  N4  UNL     1       3.392 -14.971 -25.526  1.00  0.00    -0.021 N 
ATOM      6  H4  UNL     1       2.789 -14.757 -26.321  1.00  0.00     0.203 HD
HETATM    7  C10 UNL     1       4.680 -14.622 -25.598  1.00  0.00     0.711 A 
HETATM    8  N5  UNL     1       5.229 -14.035 -26.590  1.00  0.00    -0.195 N 
ATOM      9  H5  UNL     1       6.224 -13.839 -26.481  1.00  0.00     0.183 HD
HETATM   10  N8  UNL     1       5.424 -14.941 -24.493  1.00  0.00    -0.021 N 
ATOM     11  H8  UNL     1       6.414 -14.696 -24.493  1.00  0.00     0.203 HD
ENDROOT
BRANCH   8  12
HETATM   12  C11 UNL     1       4.670 -13.619 -27.811  1.00  0.00     0.180 C 
BRANCH  12  13
HETATM   13  C12 UNL     1       4.032 -12.275 -27.822  1.00  0.00     0.257 C 
HETATM   14  O3  UNL     1       3.180 -12.007 -26.903  1.00  0.00    -0.267 OA
HETATM   15  N6  UNL     1       4.302 -11.288 -28.766  1.00  0.00    -0.356 N 
ATOM     16  H6  UNL     1       4.971 -11.487 -29.511  1.00  0.00     0.162 HD
BRANCH  15  17
HETATM   17  C13 UNL     1       3.662  -9.981 -28.725  1.00  0.00     0.126 C 
BRANCH  17  18
HETATM   18  C14 UNL     1       4.584  -8.859 -28.471  1.00  0.00     0.048 C 
BRANCH  18  19
HETATM   19  C15 UNL     1       5.421  -8.846 -27.254  1.00  0.00    -0.008 C 
BRANCH  19  20
HETATM   20  C16 UNL     1       6.728  -9.493 -27.151  1.00  0.00     0.090 C 
BRANCH  20  21
HETATM   21  N7  UNL     1       7.048 -10.514 -26.244  1.00  0.00    -0.327 N 
HETATM   22  C17 UNL     1       6.152 -10.796 -25.098  1.00  0.00     0.141 C 
HETATM   23  C18 UNL     1       7.003 -10.753 -23.836  1.00  0.00     0.094 C 
HETATM   24  S1  UNL     1       7.991 -12.304 -23.867  1.00  0.00    -0.158 SA
HETATM   25  C19 UNL     1       8.268 -12.638 -25.652  1.00  0.00     0.177 C 
HETATM   26  C20 UNL     1       8.219 -11.310 -26.368  1.00  0.00     0.233 C 
HETATM   27  O4  UNL     1       9.200 -10.920 -27.060  1.00  0.00    -0.272 OA
ENDBRANCH  20  21
ENDBRANCH  19  20
ENDBRANCH  18  19
ENDBRANCH  17  18
ENDBRANCH  15  17
ENDBRANCH  12  13
ENDBRANCH   8  12
BRANCH   4  28
HETATM   28  N3  UNL     1       1.574 -15.868 -24.493  1.00  0.00    -0.223 N 
ATOM     29  H3  UNL     1       1.149 -16.081 -25.396  1.00  0.00     0.177 HD
BRANCH  28  30
HETATM   30  C8  UNL     1       0.747 -15.882 -23.324  1.00  0.00     0.164 C 
BRANCH  30  31
HETATM   31  C9  UNL     1       0.157 -17.260 -23.084  1.00  0.00     0.184 C 
BRANCH  31  32
HETATM   32  O2  UNL     1      -0.514 -17.667 -24.232  1.00  0.00    -0.399 OA
ATOM     33  H2  UNL     1      -1.402 -17.911 -23.998  1.00  0.00     0.209 HD
ENDBRANCH  31  32
ENDBRANCH  30  31
ENDBRANCH  28  30
ENDBRANCH   4  28
BRANCH   1  34
HETATM   34  N1  UNL     1       5.604 -15.865 -22.381  1.00  0.00    -0.224 N 
ATOM     35  H1  UNL     1       6.044 -16.785 -22.404  1.00  0.00     0.177 HD
BRANCH  34  36
HETATM   36  C5  UNL     1       5.827 -15.112 -21.199  1.00  0.00     0.149 C 
BRANCH  36  37
HETATM   37  C2  UNL     1       5.014 -15.543 -20.003  1.00  0.00    -0.010 C 
HETATM   38  C1  UNL     1       3.740 -14.729 -19.996  1.00  0.00     0.018 C 
HETATM   39  C3  UNL     1       5.723 -15.365 -18.705  1.00  0.00     0.018 C 
BRANCH  37  40
HETATM   40  C4  UNL     1       4.608 -17.002 -20.112  1.00  0.00     0.174 C 
BRANCH  40  41
HETATM   41  O1  UNL     1       3.365 -17.090 -20.765  1.00  0.00    -0.400 OA
ATOM     42  H1  UNL     1       3.294 -16.387 -21.400  1.00  0.00     0.209 HD
ENDBRANCH  40  41
ENDBRANCH  37  40
ENDBRANCH  36  37
ENDBRANCH  34  36
ENDBRANCH   1  34
TORSDOF 16
ENDMDL
