MODEL 1
REMARK VINA RESULT: -8.275452645      0.000      0.000
REMARK  16 active torsions:
REMARK  status: ('A' for Active; 'I' for Inactive)
REMARK    1  A    between atoms: C2_2  and  N1_3 
REMARK       I    between atoms: N2_6  and  C5_7 
REMARK    2  A    between atoms: C5_7  and  C6_9 
REMARK    3  A    between atoms: C6_9  and  N3_10 
REMARK    4  A    between atoms: C7_13  and  N5_14 
REMARK    5  A    between atoms: N7_20  and  C9_22 
REMARK    6  A    between atoms: C9_22  and  C10_23 
REMARK    7  A    between atoms: C10_23  and  C11_24 
REMARK    8  A    between atoms: C11_24  and  C12_25 
REMARK    9  A    between atoms: C12_25  and  N8_26 
REMARK   10  A    between atoms: N8_26  and  C13_28 
REMARK   11  A    between atoms: C16_33  and  N10_34 
REMARK   12  A    between atoms: N10_34  and  C17_36 
REMARK   13  A    between atoms: C17_36  and  C18_37 
REMARK   14  A    between atoms: C18_37  and  C19_38 
REMARK   15  A    between atoms: C19_38  and  C20_39 
REMARK   16  A    between atoms: C20_39  and  N11_40 
ROOT
HETATM    1  C9  UNL     1       3.224 -14.674 -20.529  1.00  0.00     0.138 C 
ENDROOT
BRANCH   1   2
HETATM    2  N7  UNL     1       3.443 -14.889 -21.927  1.00  0.00    -0.224 N 
HETATM    3  C8  UNL     1       2.499 -15.304 -22.674  1.00  0.00     0.710 A 
HETATM    4  N3  UNL     1       2.591 -15.538 -23.984  1.00  0.00    -0.100 N 
HETATM    5  N6  UNL     1       1.236 -15.585 -22.294  1.00  0.00    -0.020 N 
HETATM    6  N4  UNL     1       1.398 -15.956 -24.394  1.00  0.00    -0.115 N 
HETATM    7  C7  UNL     1       0.542 -15.994 -23.364  1.00  0.00     0.705 A 
ATOM      8  H4  UNL     1       1.167 -16.211 -25.355  1.00  0.00     0.206 HD
ATOM      9  H6  UNL     1       0.869 -15.500 -21.346  1.00  0.00     0.203 HD
ATOM     10  H7  UNL     1       4.364 -14.709 -22.328  1.00  0.00     0.177 HD
BRANCH   4  11
HETATM   11  C6  UNL     1       3.758 -15.376 -24.822  1.00  0.00     0.271 C 
BRANCH  11  12
HETATM   12  C5  UNL     1       3.687 -14.046 -25.470  1.00  0.00     0.240 C 
HETATM   13  N2  UNL     1       4.682 -13.053 -25.304  1.00  0.00    -0.347 N 
HETATM   14  C4  UNL     1       4.521 -11.787 -25.978  1.00  0.00     0.156 C 
HETATM   15  C21 UNL     1       5.865 -13.230 -24.488  1.00  0.00     0.156 C 
HETATM   16  C3  UNL     1       5.269 -10.667 -25.316  1.00  0.00     0.292 C 
HETATM   17  N1  UNL     1       6.611 -11.014 -24.932  1.00  0.00     0.091 N 
HETATM   18  C22 UNL     1       6.953 -12.379 -25.156  1.00  0.00     0.292 C 
HETATM   19  O1  UNL     1       2.697 -13.794 -26.200  1.00  0.00    -0.271 OA
BRANCH  17  20
HETATM   20  C2  UNL     1       7.595 -10.082 -25.437  1.00  0.00     0.268 C 
HETATM   21  C1  UNL     1       7.145  -9.620 -26.806  1.00  0.00     0.037 C 
ENDBRANCH  17  20
ENDBRANCH  11  12
ENDBRANCH   4  11
BRANCH   7  22
HETATM   22  N5  UNL     1      -0.690 -16.347 -23.393  1.00  0.00    -0.233 N 
ATOM     23  H52 UNL     1      -1.446 -15.892 -23.906  1.00  0.00     0.174 HD
ATOM     24  H51 UNL     1      -1.116 -17.140 -22.911  1.00  0.00     0.174 HD
ENDBRANCH   7  22
ENDBRANCH   1   2
BRANCH   1  25
HETATM   25  C10 UNL     1       4.424 -15.192 -19.728  1.00  0.00     0.022 C 
BRANCH  25  26
HETATM   26  C11 UNL     1       4.639 -16.624 -20.204  1.00  0.00     0.022 C 
BRANCH  26  27
HETATM   27  C12 UNL     1       5.405 -17.427 -19.155  1.00  0.00     0.138 C 
BRANCH  27  28
HETATM   28  N8  UNL     1       6.034 -18.579 -19.754  1.00  0.00    -0.226 N 
ATOM     29  H8  UNL     1       5.651 -19.511 -19.589  1.00  0.00     0.177 HD
BRANCH  28  30
HETATM   30  C13 UNL     1       7.070 -18.436 -20.489  1.00  0.00     0.679 A 
HETATM   31  N9  UNL     1       7.129 -19.139 -21.649  1.00  0.00    -0.202 N 
HETATM   32  C14 UNL     1       8.196 -19.038 -22.480  1.00  0.00     0.110 A 
ATOM     33  H9  UNL     1       6.356 -19.754 -21.901  1.00  0.00     0.183 HD
HETATM   34  C15 UNL     1       9.230 -18.194 -22.112  1.00  0.00     0.066 A 
HETATM   35  C16 UNL     1       9.176 -17.477 -20.935  1.00  0.00     0.118 A 
HETATM   36  N12 UNL     1       8.088 -17.624 -20.157  1.00  0.00    -0.177 N 
ATOM     37  H12 UNL     1       8.034 -17.100 -19.284  1.00  0.00     0.185 HD
BRANCH  35  38
HETATM   38  N10 UNL     1      10.157 -16.709 -20.638  1.00  0.00    -0.376 N 
ATOM     39  H10 UNL     1      10.690 -16.905 -19.790  1.00  0.00     0.161 HD
BRANCH  38  40
HETATM   40  C17 UNL     1      10.540 -15.580 -21.448  1.00  0.00     0.121 C 
BRANCH  40  41
HETATM   41  C18 UNL     1       9.371 -14.622 -21.488  1.00  0.00     0.021 C 
BRANCH  41  42
HETATM   42  C19 UNL     1       9.432 -13.836 -22.782  1.00  0.00     0.029 C 
BRANCH  42  43
HETATM   43  C20 UNL     1      10.207 -14.585 -23.845  1.00  0.00     0.229 C 
BRANCH  43  44
HETATM   44  N11 UNL     1       9.366 -15.090 -24.883  1.00  0.00    -0.079 N 
ATOM     45 3H11 UNL     1       9.829 -15.839 -25.398  1.00  0.00     0.274 HD
ATOM     46 2H11 UNL     1       8.582 -15.615 -24.496  1.00  0.00     0.274 HD
ATOM     47 1H11 UNL     1       9.041 -14.358 -25.515  1.00  0.00     0.274 HD
ENDBRANCH  43  44
ENDBRANCH  42  43
ENDBRANCH  41  42
ENDBRANCH  40  41
ENDBRANCH  38  40
ENDBRANCH  35  38
ENDBRANCH  28  30
ENDBRANCH  27  28
ENDBRANCH  26  27
ENDBRANCH  25  26
ENDBRANCH   1  25
TORSDOF 16
ENDMDL
MODEL 2
REMARK VINA RESULT: -8.154071058      0.930      1.608
REMARK  16 active torsions:
REMARK  status: ('A' for Active; 'I' for Inactive)
REMARK    1  A    between atoms: C2_2  and  N1_3 
REMARK       I    between atoms: N2_6  and  C5_7 
REMARK    2  A    between atoms: C5_7  and  C6_9 
REMARK    3  A    between atoms: C6_9  and  N3_10 
REMARK    4  A    between atoms: C7_13  and  N5_14 
REMARK    5  A    between atoms: N7_20  and  C9_22 
REMARK    6  A    between atoms: C9_22  and  C10_23 
REMARK    7  A    between atoms: C10_23  and  C11_24 
REMARK    8  A    between atoms: C11_24  and  C12_25 
REMARK    9  A    between atoms: C12_25  and  N8_26 
REMARK   10  A    between atoms: N8_26  and  C13_28 
REMARK   11  A    between atoms: C16_33  and  N10_34 
REMARK   12  A    between atoms: N10_34  and  C17_36 
REMARK   13  A    between atoms: C17_36  and  C18_37 
REMARK   14  A    between atoms: C18_37  and  C19_38 
REMARK   15  A    between atoms: C19_38  and  C20_39 
REMARK   16  A    between atoms: C20_39  and  N11_40 
ROOT
HETATM    1  C9  UNL     1       3.290 -14.726 -20.498  1.00  0.00     0.138 C 
ENDROOT
BRANCH   1   2
HETATM    2  N7  UNL     1       3.478 -14.942 -21.900  1.00  0.00    -0.224 N 
HETATM    3  C8  UNL     1       2.506 -15.318 -22.633  1.00  0.00     0.710 A 
HETATM    4  N3  UNL     1       2.567 -15.549 -23.946  1.00  0.00    -0.100 N 
HETATM    5  N6  UNL     1       1.240 -15.555 -22.232  1.00  0.00    -0.020 N 
HETATM    6  N4  UNL     1       1.353 -15.920 -24.337  1.00  0.00    -0.115 N 
HETATM    7  C7  UNL     1       0.514 -15.932 -23.292  1.00  0.00     0.705 A 
ATOM      8  H4  UNL     1       1.097 -16.162 -25.295  1.00  0.00     0.206 HD
ATOM      9  H6  UNL     1       0.893 -15.461 -21.278  1.00  0.00     0.203 HD
ATOM     10  H7  UNL     1       4.397 -14.793 -22.317  1.00  0.00     0.177 HD
BRANCH   4  11
HETATM   11  C6  UNL     1       3.725 -15.425 -24.803  1.00  0.00     0.271 C 
BRANCH  11  12
HETATM   12  C5  UNL     1       3.684 -14.096 -25.456  1.00  0.00     0.240 C 
HETATM   13  N2  UNL     1       4.671 -13.104 -25.250  1.00  0.00    -0.347 N 
HETATM   14  C4  UNL     1       4.541 -11.840 -25.933  1.00  0.00     0.156 C 
HETATM   15  C21 UNL     1       5.818 -13.281 -24.384  1.00  0.00     0.156 C 
HETATM   16  C3  UNL     1       5.261 -10.719 -25.241  1.00  0.00     0.292 C 
HETATM   17  N1  UNL     1       6.584 -11.066 -24.799  1.00  0.00     0.091 N 
HETATM   18  C22 UNL     1       6.935 -12.432 -25.005  1.00  0.00     0.292 C 
HETATM   19  O1  UNL     1       2.726 -13.845 -26.228  1.00  0.00    -0.271 OA
BRANCH  17  20
HETATM   20  C2  UNL     1       7.590 -10.136 -25.264  1.00  0.00     0.268 C 
HETATM   21  C1  UNL     1       8.091 -10.619 -26.608  1.00  0.00     0.037 C 
ENDBRANCH  17  20
ENDBRANCH  11  12
ENDBRANCH   4  11
BRANCH   7  22
HETATM   22  N5  UNL     1      -0.731 -16.240 -23.302  1.00  0.00    -0.233 N 
ATOM     23  H52 UNL     1      -1.171 -16.994 -23.830  1.00  0.00     0.174 HD
ATOM     24  H51 UNL     1      -1.483 -15.784 -22.783  1.00  0.00     0.174 HD
ENDBRANCH   7  22
ENDBRANCH   1   2
BRANCH   1  25
HETATM   25  C10 UNL     1       4.487 -15.286 -19.720  1.00  0.00     0.022 C 
BRANCH  25  26
HETATM   26  C11 UNL     1       4.474 -16.787 -19.986  1.00  0.00     0.022 C 
BRANCH  26  27
HETATM   27  C12 UNL     1       5.722 -17.444 -19.403  1.00  0.00     0.138 C 
BRANCH  27  28
HETATM   28  N8  UNL     1       6.136 -18.564 -20.213  1.00  0.00    -0.226 N 
ATOM     29  H8  UNL     1       5.586 -19.424 -20.211  1.00  0.00     0.177 HD
BRANCH  28  30
HETATM   30  C13 UNL     1       7.189 -18.482 -20.932  1.00  0.00     0.679 A 
HETATM   31  N9  UNL     1       8.029 -19.548 -20.956  1.00  0.00    -0.202 N 
HETATM   32  C14 UNL     1       9.165 -19.534 -21.695  1.00  0.00     0.110 A 
ATOM     33  H9  UNL     1       7.800 -20.377 -20.407  1.00  0.00     0.183 HD
HETATM   34  C15 UNL     1       9.448 -18.396 -22.431  1.00  0.00     0.066 A 
HETATM   35  C16 UNL     1       8.600 -17.309 -22.413  1.00  0.00     0.118 A 
HETATM   36  N12 UNL     1       7.489 -17.390 -21.657  1.00  0.00    -0.177 N 
ATOM     37  H12 UNL     1       6.852 -16.594 -21.633  1.00  0.00     0.185 HD
BRANCH  35  38
HETATM   38  N10 UNL     1       8.904 -16.279 -23.110  1.00  0.00    -0.376 N 
ATOM     39  H10 UNL     1       9.372 -16.417 -24.006  1.00  0.00     0.161 HD
BRANCH  38  40
HETATM   40  C17 UNL     1       8.613 -14.933 -22.683  1.00  0.00     0.121 C 
BRANCH  40  41
HETATM   41  C18 UNL     1       9.485 -14.630 -21.486  1.00  0.00     0.021 C 
BRANCH  41  42
HETATM   42  C19 UNL     1       8.623 -14.010 -20.403  1.00  0.00     0.029 C 
BRANCH  42  43
HETATM   43  C20 UNL     1       9.210 -14.248 -19.029  1.00  0.00     0.229 C 
BRANCH  43  44
HETATM   44  N11 UNL     1      10.356 -15.100 -19.062  1.00  0.00    -0.079 N 
ATOM     45 3H11 UNL     1      10.116 -16.025 -19.417  1.00  0.00     0.274 HD
ATOM     46 2H11 UNL     1      11.008 -14.808 -19.791  1.00  0.00     0.274 HD
ATOM     47 1H11 UNL     1      10.823 -15.165 -18.157  1.00  0.00     0.274 HD
ENDBRANCH  43  44
ENDBRANCH  42  43
ENDBRANCH  41  42
ENDBRANCH  40  41
ENDBRANCH  38  40
ENDBRANCH  35  38
ENDBRANCH  28  30
ENDBRANCH  27  28
ENDBRANCH  26  27
ENDBRANCH  25  26
ENDBRANCH   1  25
TORSDOF 16
ENDMDL
MODEL 3
REMARK VINA RESULT: -8.105671284      2.241      7.137
REMARK  16 active torsions:
REMARK  status: ('A' for Active; 'I' for Inactive)
REMARK    1  A    between atoms: C2_2  and  N1_3 
REMARK       I    between atoms: N2_6  and  C5_7 
REMARK    2  A    between atoms: C5_7  and  C6_9 
REMARK    3  A    between atoms: C6_9  and  N3_10 
REMARK    4  A    between atoms: C7_13  and  N5_14 
REMARK    5  A    between atoms: N7_20  and  C9_22 
REMARK    6  A    between atoms: C9_22  and  C10_23 
REMARK    7  A    between atoms: C10_23  and  C11_24 
REMARK    8  A    between atoms: C11_24  and  C12_25 
REMARK    9  A    between atoms: C12_25  and  N8_26 
REMARK   10  A    between atoms: N8_26  and  C13_28 
REMARK   11  A    between atoms: C16_33  and  N10_34 
REMARK   12  A    between atoms: N10_34  and  C17_36 
REMARK   13  A    between atoms: C17_36  and  C18_37 
REMARK   14  A    between atoms: C18_37  and  C19_38 
REMARK   15  A    between atoms: C19_38  and  C20_39 
REMARK   16  A    between atoms: C20_39  and  N11_40 
ROOT
HETATM    1  C9  UNL     1       3.469 -14.390 -25.511  1.00  0.00     0.138 C 
ENDROOT
BRANCH   1   2
HETATM    2  N7  UNL     1       3.376 -14.621 -24.102  1.00  0.00    -0.224 N 
HETATM    3  C8  UNL     1       2.473 -15.384 -23.629  1.00  0.00     0.710 A 
HETATM    4  N3  UNL     1       2.294 -15.670 -22.338  1.00  0.00    -0.100 N 
HETATM    5  N6  UNL     1       1.532 -16.048 -24.331  1.00  0.00    -0.020 N 
HETATM    6  N4  UNL     1       1.257 -16.496 -22.257  1.00  0.00    -0.115 N 
HETATM    7  C7  UNL     1       0.768 -16.744 -23.480  1.00  0.00     0.705 A 
ATOM      8  H4  UNL     1       0.887 -16.886 -21.390  1.00  0.00     0.206 HD
ATOM      9  H6  UNL     1       1.420 -16.023 -25.344  1.00  0.00     0.203 HD
ATOM     10  H7  UNL     1       4.038 -14.170 -23.470  1.00  0.00     0.177 HD
BRANCH   4  11
HETATM   11  C6  UNL     1       3.070 -15.183 -21.219  1.00  0.00     0.271 C 
BRANCH  11  12
HETATM   12  C5  UNL     1       4.033 -16.236 -20.824  1.00  0.00     0.240 C 
HETATM   13  N2  UNL     1       5.422 -15.998 -20.686  1.00  0.00    -0.347 N 
HETATM   14  C4  UNL     1       6.279 -17.091 -20.297  1.00  0.00     0.156 C 
HETATM   15  C21 UNL     1       6.042 -14.710 -20.914  1.00  0.00     0.156 C 
HETATM   16  C3  UNL     1       7.706 -16.902 -20.723  1.00  0.00     0.292 C 
HETATM   17  N1  UNL     1       8.214 -15.580 -20.476  1.00  0.00     0.091 N 
HETATM   18  C22 UNL     1       7.249 -14.664 -19.967  1.00  0.00     0.292 C 
HETATM   19  O1  UNL     1       3.592 -17.390 -20.604  1.00  0.00    -0.271 OA
BRANCH  17  20
HETATM   20  C2  UNL     1       9.452 -15.588 -19.727  1.00  0.00     0.268 C 
HETATM   21  C1  UNL     1       9.472 -14.363 -18.839  1.00  0.00     0.037 C 
ENDBRANCH  17  20
ENDBRANCH  11  12
ENDBRANCH   4  11
BRANCH   7  22
HETATM   22  N5  UNL     1      -0.228 -17.496 -23.778  1.00  0.00    -0.233 N 
ATOM     23  H52 UNL     1      -0.438 -18.416 -23.390  1.00  0.00     0.174 HD
ATOM     24  H51 UNL     1      -0.972 -17.297 -24.448  1.00  0.00     0.174 HD
ENDBRANCH   7  22
ENDBRANCH   1   2
BRANCH   1  25
HETATM   25  C10 UNL     1       4.941 -14.382 -25.941  1.00  0.00     0.022 C 
BRANCH  25  26
HETATM   26  C11 UNL     1       5.733 -14.697 -24.677  1.00  0.00     0.022 C 
BRANCH  26  27
HETATM   27  C12 UNL     1       6.894 -13.719 -24.515  1.00  0.00     0.138 C 
BRANCH  27  28
HETATM   28  N8  UNL     1       6.409 -12.365 -24.395  1.00  0.00    -0.226 N 
ATOM     29  H8  UNL     1       5.612 -12.162 -23.792  1.00  0.00     0.177 HD
BRANCH  28  30
HETATM   30  C13 UNL     1       6.975 -11.421 -25.044  1.00  0.00     0.679 A 
HETATM   31  N9  UNL     1       8.297 -11.201 -24.824  1.00  0.00    -0.202 N 
HETATM   32  C14 UNL     1       8.965 -10.217 -25.475  1.00  0.00     0.110 A 
ATOM     33  H9  UNL     1       8.797 -11.786 -24.156  1.00  0.00     0.183 HD
HETATM   34  C15 UNL     1       8.260  -9.438 -26.377  1.00  0.00     0.066 A 
HETATM   35  C16 UNL     1       6.918  -9.657 -26.607  1.00  0.00     0.118 A 
HETATM   36  N12 UNL     1       6.316 -10.650 -25.926  1.00  0.00    -0.177 N 
ATOM     37  H12 UNL     1       5.324 -10.823 -26.085  1.00  0.00     0.185 HD
BRANCH  35  38
HETATM   38  N10 UNL     1       6.309  -8.911 -27.451  1.00  0.00    -0.376 N 
ATOM     39  H10 UNL     1       6.425  -7.900 -27.381  1.00  0.00     0.161 HD
BRANCH  38  40
HETATM   40  C17 UNL     1       5.466  -9.439 -28.495  1.00  0.00     0.121 C 
BRANCH  40  41
HETATM   41  C18 UNL     1       4.055  -8.966 -28.232  1.00  0.00     0.021 C 
BRANCH  41  42
HETATM   42  C19 UNL     1       3.091 -10.050 -28.671  1.00  0.00     0.029 C 
BRANCH  42  43
HETATM   43  C20 UNL     1       3.554 -11.416 -28.214  1.00  0.00     0.229 C 
BRANCH  43  44
HETATM   44  N11 UNL     1       3.548 -12.379 -29.269  1.00  0.00    -0.079 N 
ATOM     45 3H11 UNL     1       4.289 -12.189 -29.943  1.00  0.00     0.274 HD
ATOM     46 2H11 UNL     1       3.859 -13.291 -28.934  1.00  0.00     0.274 HD
ATOM     47 1H11 UNL     1       2.641 -12.449 -29.731  1.00  0.00     0.274 HD
ENDBRANCH  43  44
ENDBRANCH  42  43
ENDBRANCH  41  42
ENDBRANCH  40  41
ENDBRANCH  38  40
ENDBRANCH  35  38
ENDBRANCH  28  30
ENDBRANCH  27  28
ENDBRANCH  26  27
ENDBRANCH  25  26
ENDBRANCH   1  25
TORSDOF 16
ENDMDL
MODEL 4
REMARK VINA RESULT: -8.082886208      2.054      6.165
REMARK  16 active torsions:
REMARK  status: ('A' for Active; 'I' for Inactive)
REMARK    1  A    between atoms: C2_2  and  N1_3 
REMARK       I    between atoms: N2_6  and  C5_7 
REMARK    2  A    between atoms: C5_7  and  C6_9 
REMARK    3  A    between atoms: C6_9  and  N3_10 
REMARK    4  A    between atoms: C7_13  and  N5_14 
REMARK    5  A    between atoms: N7_20  and  C9_22 
REMARK    6  A    between atoms: C9_22  and  C10_23 
REMARK    7  A    between atoms: C10_23  and  C11_24 
REMARK    8  A    between atoms: C11_24  and  C12_25 
REMARK    9  A    between atoms: C12_25  and  N8_26 
REMARK   10  A    between atoms: N8_26  and  C13_28 
REMARK   11  A    between atoms: C16_33  and  N10_34 
REMARK   12  A    between atoms: N10_34  and  C17_36 
REMARK   13  A    between atoms: C17_36  and  C18_37 
REMARK   14  A    between atoms: C18_37  and  C19_38 
REMARK   15  A    between atoms: C19_38  and  C20_39 
REMARK   16  A    between atoms: C20_39  and  N11_40 
ROOT
HETATM    1  C9  UNL     1       3.520 -14.292 -25.394  1.00  0.00     0.138 C 
ENDROOT
BRANCH   1   2
HETATM    2  N7  UNL     1       3.418 -14.563 -23.993  1.00  0.00    -0.224 N 
HETATM    3  C8  UNL     1       2.515 -15.344 -23.548  1.00  0.00     0.710 A 
HETATM    4  N3  UNL     1       2.328 -15.667 -22.267  1.00  0.00    -0.100 N 
HETATM    5  N6  UNL     1       1.582 -15.992 -24.275  1.00  0.00    -0.020 N 
HETATM    6  N4  UNL     1       1.295 -16.500 -22.217  1.00  0.00    -0.115 N 
HETATM    7  C7  UNL     1       0.815 -16.715 -23.450  1.00  0.00     0.705 A 
ATOM      8  H4  UNL     1       0.920 -16.915 -21.364  1.00  0.00     0.206 HD
ATOM      9  H6  UNL     1       1.477 -15.939 -25.288  1.00  0.00     0.203 HD
ATOM     10  H7  UNL     1       4.073 -14.128 -23.344  1.00  0.00     0.177 HD
BRANCH   4  11
HETATM   11  C6  UNL     1       3.094 -15.208 -21.129  1.00  0.00     0.271 C 
BRANCH  11  12
HETATM   12  C5  UNL     1       4.075 -16.258 -20.772  1.00  0.00     0.240 C 
HETATM   13  N2  UNL     1       5.463 -16.009 -20.652  1.00  0.00    -0.347 N 
HETATM   14  C4  UNL     1       6.339 -17.101 -20.300  1.00  0.00     0.156 C 
HETATM   15  C21 UNL     1       6.066 -14.710 -20.866  1.00  0.00     0.156 C 
HETATM   16  C3  UNL     1       7.756 -16.888 -20.747  1.00  0.00     0.292 C 
HETATM   17  N1  UNL     1       8.254 -15.566 -20.483  1.00  0.00     0.091 N 
HETATM   18  C22 UNL     1       7.289 -14.670 -19.939  1.00  0.00     0.292 C 
HETATM   19  O1  UNL     1       3.650 -17.422 -20.566  1.00  0.00    -0.271 OA
BRANCH  17  20
HETATM   20  C2  UNL     1       9.505 -15.575 -19.756  1.00  0.00     0.268 C 
HETATM   21  C1  UNL     1       9.518 -14.379 -18.828  1.00  0.00     0.037 C 
ENDBRANCH  17  20
ENDBRANCH  11  12
ENDBRANCH   4  11
BRANCH   7  22
HETATM   22  N5  UNL     1      -0.176 -17.462 -23.776  1.00  0.00    -0.233 N 
ATOM     23  H52 UNL     1      -1.103 -17.156 -24.070  1.00  0.00     0.174 HD
ATOM     24  H51 UNL     1      -0.197 -18.483 -23.796  1.00  0.00     0.174 HD
ENDBRANCH   7  22
ENDBRANCH   1   2
BRANCH   1  25
HETATM   25  C10 UNL     1       4.957 -14.537 -25.868  1.00  0.00     0.022 C 
BRANCH  25  26
HETATM   26  C11 UNL     1       5.078 -13.792 -27.192  1.00  0.00     0.022 C 
BRANCH  26  27
HETATM   27  C12 UNL     1       4.362 -12.445 -27.114  1.00  0.00     0.138 C 
BRANCH  27  28
HETATM   28  N8  UNL     1       5.307 -11.376 -26.901  1.00  0.00    -0.226 N 
ATOM     29  H8  UNL     1       5.555 -10.754 -27.672  1.00  0.00     0.177 HD
BRANCH  28  30
HETATM   30  C13 UNL     1       5.835 -11.207 -25.750  1.00  0.00     0.679 A 
HETATM   31  N9  UNL     1       5.011 -10.939 -24.705  1.00  0.00    -0.202 N 
HETATM   32  C14 UNL     1       5.498 -10.747 -23.454  1.00  0.00     0.110 A 
ATOM     33  H9  UNL     1       4.005 -10.881 -24.863  1.00  0.00     0.183 HD
HETATM   34  C15 UNL     1       6.868 -10.832 -23.269  1.00  0.00     0.066 A 
HETATM   35  C16 UNL     1       7.711 -11.105 -24.326  1.00  0.00     0.118 A 
HETATM   36  N12 UNL     1       7.161 -11.284 -25.541  1.00  0.00    -0.177 N 
ATOM     37  H12 UNL     1       7.772 -11.486 -26.332  1.00  0.00     0.185 HD
BRANCH  35  38
HETATM   38  N10 UNL     1       8.971 -11.174 -24.106  1.00  0.00    -0.376 N 
ATOM     39  H10 UNL     1       9.585 -10.508 -24.574  1.00  0.00     0.161 HD
BRANCH  38  40
HETATM   40  C17 UNL     1       9.558 -12.153 -23.224  1.00  0.00     0.121 C 
BRANCH  40  41
HETATM   41  C18 UNL     1      10.190 -13.225 -24.082  1.00  0.00     0.021 C 
BRANCH  41  42
HETATM   42  C19 UNL     1       9.431 -14.521 -23.876  1.00  0.00     0.029 C 
BRANCH  42  43
HETATM   43  C20 UNL     1      10.361 -15.647 -23.479  1.00  0.00     0.229 C 
BRANCH  43  44
HETATM   44  N11 UNL     1       9.871 -16.929 -23.876  1.00  0.00    -0.079 N 
ATOM     45 3H11 UNL     1      10.522 -17.668 -23.611  1.00  0.00     0.274 HD
ATOM     46 2H11 UNL     1       9.068 -17.205 -23.312  1.00  0.00     0.274 HD
ATOM     47 1H11 UNL     1       9.652 -16.973 -24.872  1.00  0.00     0.274 HD
ENDBRANCH  43  44
ENDBRANCH  42  43
ENDBRANCH  41  42
ENDBRANCH  40  41
ENDBRANCH  38  40
ENDBRANCH  35  38
ENDBRANCH  28  30
ENDBRANCH  27  28
ENDBRANCH  26  27
ENDBRANCH  25  26
ENDBRANCH   1  25
TORSDOF 16
ENDMDL
MODEL 5
REMARK VINA RESULT: -8.077961351      1.366      2.879
REMARK  16 active torsions:
REMARK  status: ('A' for Active; 'I' for Inactive)
REMARK    1  A    between atoms: C2_2  and  N1_3 
REMARK       I    between atoms: N2_6  and  C5_7 
REMARK    2  A    between atoms: C5_7  and  C6_9 
REMARK    3  A    between atoms: C6_9  and  N3_10 
REMARK    4  A    between atoms: C7_13  and  N5_14 
REMARK    5  A    between atoms: N7_20  and  C9_22 
REMARK    6  A    between atoms: C9_22  and  C10_23 
REMARK    7  A    between atoms: C10_23  and  C11_24 
REMARK    8  A    between atoms: C11_24  and  C12_25 
REMARK    9  A    between atoms: C12_25  and  N8_26 
REMARK   10  A    between atoms: N8_26  and  C13_28 
REMARK   11  A    between atoms: C16_33  and  N10_34 
REMARK   12  A    between atoms: N10_34  and  C17_36 
REMARK   13  A    between atoms: C17_36  and  C18_37 
REMARK   14  A    between atoms: C18_37  and  C19_38 
REMARK   15  A    between atoms: C19_38  and  C20_39 
REMARK   16  A    between atoms: C20_39  and  N11_40 
ROOT
HETATM    1  C9  UNL     1       2.866 -14.430 -20.472  1.00  0.00     0.138 C 
ENDROOT
BRANCH   1   2
HETATM    2  N7  UNL     1       3.173 -14.758 -21.831  1.00  0.00    -0.224 N 
HETATM    3  C8  UNL     1       2.281 -15.251 -22.595  1.00  0.00     0.710 A 
HETATM    4  N3  UNL     1       2.456 -15.592 -23.873  1.00  0.00    -0.100 N 
HETATM    5  N6  UNL     1       1.001 -15.522 -22.268  1.00  0.00    -0.020 N 
HETATM    6  N4  UNL     1       1.296 -16.065 -24.317  1.00  0.00    -0.115 N 
HETATM    7  C7  UNL     1       0.380 -16.032 -23.339  1.00  0.00     0.705 A 
ATOM      8  H4  UNL     1       1.127 -16.403 -25.264  1.00  0.00     0.206 HD
ATOM      9  H6  UNL     1       0.576 -15.365 -21.355  1.00  0.00     0.203 HD
ATOM     10  H7  UNL     1       4.113 -14.594 -22.191  1.00  0.00     0.177 HD
BRANCH   4  11
HETATM   11  C6  UNL     1       3.670 -15.479 -24.651  1.00  0.00     0.271 C 
BRANCH  11  12
HETATM   12  C5  UNL     1       3.686 -14.149 -25.302  1.00  0.00     0.240 C 
HETATM   13  N2  UNL     1       4.700 -13.189 -25.070  1.00  0.00    -0.347 N 
HETATM   14  C4  UNL     1       4.626 -11.920 -25.753  1.00  0.00     0.156 C 
HETATM   15  C21 UNL     1       5.820 -13.404 -24.178  1.00  0.00     0.156 C 
HETATM   16  C3  UNL     1       5.366 -10.824 -25.042  1.00  0.00     0.292 C 
HETATM   17  N1  UNL     1       6.667 -11.215 -24.571  1.00  0.00     0.091 N 
HETATM   18  C22 UNL     1       6.978 -12.591 -24.772  1.00  0.00     0.292 C 
HETATM   19  O1  UNL     1       2.755 -13.866 -26.095  1.00  0.00    -0.271 OA
BRANCH  17  20
HETATM   20  C2  UNL     1       7.712 -10.317 -25.009  1.00  0.00     0.268 C 
HETATM   21  C1  UNL     1       8.380 -10.930 -26.222  1.00  0.00     0.037 C 
ENDBRANCH  17  20
ENDBRANCH  11  12
ENDBRANCH   4  11
BRANCH   7  22
HETATM   22  N5  UNL     1      -0.844 -16.409 -23.412  1.00  0.00    -0.233 N 
ATOM     23  H52 UNL     1      -1.545 -16.361 -22.672  1.00  0.00     0.174 HD
ATOM     24  H51 UNL     1      -1.317 -16.816 -24.220  1.00  0.00     0.174 HD
ENDBRANCH   7  22
ENDBRANCH   1   2
BRANCH   1  25
HETATM   25  C10 UNL     1       4.094 -13.808 -19.796  1.00  0.00     0.022 C 
BRANCH  25  26
HETATM   26  C11 UNL     1       4.545 -14.831 -18.760  1.00  0.00     0.022 C 
BRANCH  26  27
HETATM   27  C12 UNL     1       5.882 -15.448 -19.165  1.00  0.00     0.138 C 
BRANCH  27  28
HETATM   28  N8  UNL     1       6.798 -14.431 -19.618  1.00  0.00    -0.226 N 
ATOM     29  H8  UNL     1       6.858 -13.542 -19.120  1.00  0.00     0.177 HD
BRANCH  28  30
HETATM   30  C13 UNL     1       7.534 -14.639 -20.642  1.00  0.00     0.679 A 
HETATM   31  N9  UNL     1       8.439 -13.686 -20.981  1.00  0.00    -0.202 N 
HETATM   32  C14 UNL     1       9.254 -13.837 -22.054  1.00  0.00     0.110 A 
ATOM     33  H9  UNL     1       8.508 -12.839 -20.417  1.00  0.00     0.183 HD
HETATM   34  C15 UNL     1       9.138 -14.997 -22.801  1.00  0.00     0.066 A 
HETATM   35  C16 UNL     1       8.222 -15.970 -22.462  1.00  0.00     0.118 A 
HETATM   36  N12 UNL     1       7.444 -15.756 -21.385  1.00  0.00    -0.177 N 
ATOM     37  H12 UNL     1       6.761 -16.467 -21.123  1.00  0.00     0.185 HD
BRANCH  35  38
HETATM   38  N10 UNL     1       8.151 -17.026 -23.183  1.00  0.00    -0.376 N 
ATOM     39  H10 UNL     1       7.396 -17.103 -23.865  1.00  0.00     0.161 HD
BRANCH  38  40
HETATM   40  C17 UNL     1       9.093 -18.113 -23.073  1.00  0.00     0.121 C 
BRANCH  40  41
HETATM   41  C18 UNL     1       8.368 -19.293 -22.467  1.00  0.00     0.021 C 
BRANCH  41  42
HETATM   42  C19 UNL     1       9.104 -19.723 -21.215  1.00  0.00     0.029 C 
BRANCH  42  43
HETATM   43  C20 UNL     1       8.794 -18.806 -20.051  1.00  0.00     0.229 C 
BRANCH  43  44
HETATM   44  N11 UNL     1       7.391 -18.654 -19.831  1.00  0.00    -0.079 N 
ATOM     45 3H11 UNL     1       6.917 -18.351 -20.682  1.00  0.00     0.274 HD
ATOM     46 2H11 UNL     1       6.940 -19.561 -19.705  1.00  0.00     0.274 HD
ATOM     47 1H11 UNL     1       7.182 -18.029 -19.053  1.00  0.00     0.274 HD
ENDBRANCH  43  44
ENDBRANCH  42  43
ENDBRANCH  41  42
ENDBRANCH  40  41
ENDBRANCH  38  40
ENDBRANCH  35  38
ENDBRANCH  28  30
ENDBRANCH  27  28
ENDBRANCH  26  27
ENDBRANCH  25  26
ENDBRANCH   1  25
TORSDOF 16
ENDMDL
