MODEL 1
REMARK VINA RESULT: -8.548186377      0.000      0.000
REMARK  13 active torsions:
REMARK  status: ('A' for Active; 'I' for Inactive)
REMARK    1  A    between atoms: C1_2  and  C2_4 
REMARK    2  A    between atoms: C2_4  and  N2_5 
REMARK    3  A    between atoms: N3_8  and  C5_9 
REMARK    4  A    between atoms: C5_9  and  C6_10 
REMARK    5  A    between atoms: C5_9  and  C16_26 
REMARK    6  A    between atoms: C6_10  and  N4_11 
REMARK    7  A    between atoms: N4_11  and  C7_13 
REMARK    8  A    between atoms: C7_13  and  C8_14 
REMARK    9  A    between atoms: C8_14  and  C9_15 
REMARK   10  A    between atoms: C9_15  and  C10_16 
REMARK   11  A    between atoms: C16_26  and  O2_27 
REMARK   12  A    between atoms: O2_27  and  C17_28 
REMARK   13  A    between atoms: C21_35  and  O4_36 
ROOT
HETATM    1  C5  UNL     1       4.953 -15.207 -24.271  1.00  0.00     0.120 C 
ENDROOT
BRANCH   1   2
HETATM    2  N3  UNL     1       4.725 -16.236 -23.352  1.00  0.00    -0.402 N 
HETATM    3  C4  UNL     1       5.631 -17.193 -22.955  1.00  0.00     0.137 C 
HETATM    4  C3  UNL     1       5.354 -17.584 -21.484  1.00  0.00     0.141 C 
HETATM    5  N2  UNL     1       4.450 -16.729 -20.842  1.00  0.00    -0.383 N 
HETATM    6  C23 UNL     1       3.195 -16.478 -21.465  1.00  0.00     0.141 C 
HETATM    7  C22 UNL     1       3.345 -16.443 -22.978  1.00  0.00     0.137 C 
BRANCH   5   8
HETATM    8  C2  UNL     1       4.766 -16.055 -19.667  1.00  0.00     0.157 C 
BRANCH   8   9
HETATM    9  C1  UNL     1       4.909 -14.574 -19.835  1.00  0.00     0.269 C 
HETATM   10  N1  UNL     1       4.121 -13.710 -19.045  1.00  0.00    -0.057 NA
HETATM   11  O1  UNL     1       5.726 -14.111 -20.671  1.00  0.00    -0.270 OA
ENDBRANCH   8   9
ENDBRANCH   5   8
ENDBRANCH   1   2
BRANCH   1  12
HETATM   12  C6  UNL     1       6.340 -14.642 -24.141  1.00  0.00     0.141 C 
BRANCH  12  13
HETATM   13  N4  UNL     1       7.068 -14.550 -25.383  1.00  0.00    -0.419 N 
ATOM     14  H4  UNL     1       6.678 -14.870 -26.270  1.00  0.00     0.153 HD
BRANCH  13  15
HETATM   15  C7  UNL     1       8.372 -13.981 -25.282  1.00  0.00     0.114 C 
BRANCH  15  16
HETATM   16  C8  UNL     1       9.080 -14.263 -24.006  1.00  0.00     0.025 C 
BRANCH  16  17
HETATM   17  C9  UNL     1      10.077 -15.371 -24.028  1.00  0.00     0.058 C 
BRANCH  17  18
HETATM   18  C10 UNL     1       9.687 -16.456 -23.098  1.00  0.00     0.010 A 
HETATM   19  C11 UNL     1       9.609 -16.441 -21.737  1.00  0.00     0.040 A 
HETATM   20  C12 UNL     1       9.193 -17.697 -21.312  1.00  0.00     0.009 A 
HETATM   21  C13 UNL     1       8.872 -18.523 -20.261  1.00  0.00     0.101 A 
HETATM   22  C15 UNL     1       9.033 -18.437 -22.484  1.00  0.00     0.059 A 
HETATM   23  N5  UNL     1       8.523 -19.731 -20.740  1.00  0.00    -0.372 N 
HETATM   24  C14 UNL     1       8.618 -19.690 -22.076  1.00  0.00     0.117 A 
ATOM     25  H5  UNL     1       8.237 -20.536 -20.183  1.00  0.00     0.164 HD
HETATM   26  N6  UNL     1       9.331 -17.687 -23.549  1.00  0.00    -0.358 N 
ATOM     27  H6  UNL     1       9.298 -17.985 -24.523  1.00  0.00     0.166 HD
ENDBRANCH  17  18
ENDBRANCH  16  17
ENDBRANCH  15  16
ENDBRANCH  13  15
ENDBRANCH  12  13
ENDBRANCH   1  12
BRANCH   1  28
HETATM   28  C16 UNL     1       3.914 -14.166 -24.394  1.00  0.00     0.197 C 
BRANCH  28  29
HETATM   29  O2  UNL     1       3.244 -13.979 -25.513  1.00  0.00    -0.362 OA
BRANCH  29  30
HETATM   30  C17 UNL     1       3.575 -13.122 -26.499  1.00  0.00     0.252 C 
HETATM   31  N7  UNL     1       4.468 -12.061 -25.960  1.00  0.00    -0.332 N 
HETATM   32  C18 UNL     1       5.244 -11.297 -26.814  1.00  0.00     0.219 C 
ATOM     33  H7  UNL     1       4.509 -11.896 -24.954  1.00  0.00     0.165 HD
HETATM   34  O3  UNL     1       5.873 -10.247 -26.388  1.00  0.00    -0.274 OA
HETATM   35  C19 UNL     1       5.394 -11.632 -28.245  1.00  0.00     0.105 C 
HETATM   36  C20 UNL     1       4.217 -12.446 -28.731  1.00  0.00     0.045 C 
HETATM   37  C21 UNL     1       4.164 -13.650 -27.764  1.00  0.00     0.167 C 
BRANCH  37  38
HETATM   38  O4  UNL     1       5.459 -14.109 -27.643  1.00  0.00    -0.391 OA
ATOM     39  H4  UNL     1       6.061 -13.489 -27.249  1.00  0.00     0.210 HD
ENDBRANCH  37  38
ENDBRANCH  29  30
ENDBRANCH  28  29
ENDBRANCH   1  28
TORSDOF 13
ENDMDL
MODEL 2
REMARK VINA RESULT: -8.372102978      1.703      1.835
REMARK  13 active torsions:
REMARK  status: ('A' for Active; 'I' for Inactive)
REMARK    1  A    between atoms: C1_2  and  C2_4 
REMARK    2  A    between atoms: C2_4  and  N2_5 
REMARK    3  A    between atoms: N3_8  and  C5_9 
REMARK    4  A    between atoms: C5_9  and  C6_10 
REMARK    5  A    between atoms: C5_9  and  C16_26 
REMARK    6  A    between atoms: C6_10  and  N4_11 
REMARK    7  A    between atoms: N4_11  and  C7_13 
REMARK    8  A    between atoms: C7_13  and  C8_14 
REMARK    9  A    between atoms: C8_14  and  C9_15 
REMARK   10  A    between atoms: C9_15  and  C10_16 
REMARK   11  A    between atoms: C16_26  and  O2_27 
REMARK   12  A    between atoms: O2_27  and  C17_28 
REMARK   13  A    between atoms: C21_35  and  O4_36 
ROOT
HETATM    1  C5  UNL     1       4.328 -15.006 -24.908  1.00  0.00     0.120 C 
ENDROOT
BRANCH   1   2
HETATM    2  N3  UNL     1       3.725 -15.707 -23.860  1.00  0.00    -0.402 N 
HETATM    3  C4  UNL     1       4.320 -16.659 -23.063  1.00  0.00     0.137 C 
HETATM    4  C3  UNL     1       3.704 -16.600 -21.645  1.00  0.00     0.141 C 
HETATM    5  N2  UNL     1       2.900 -15.473 -21.434  1.00  0.00    -0.383 N 
HETATM    6  C23 UNL     1       1.861 -15.197 -22.367  1.00  0.00     0.141 C 
HETATM    7  C22 UNL     1       2.287 -15.585 -23.775  1.00  0.00     0.137 C 
BRANCH   5   8
HETATM    8  C2  UNL     1       3.133 -14.573 -20.399  1.00  0.00     0.157 C 
BRANCH   8   9
HETATM    9  C1  UNL     1       3.704 -13.264 -20.848  1.00  0.00     0.269 C 
HETATM   10  N1  UNL     1       3.036 -12.068 -20.510  1.00  0.00    -0.057 NA
HETATM   11  O1  UNL     1       4.768 -13.236 -21.517  1.00  0.00    -0.270 OA
ENDBRANCH   8   9
ENDBRANCH   5   8
ENDBRANCH   1   2
BRANCH   1  12
HETATM   12  C6  UNL     1       5.665 -14.447 -24.507  1.00  0.00     0.141 C 
BRANCH  12  13
HETATM   13  N4  UNL     1       6.709 -14.634 -25.486  1.00  0.00    -0.419 N 
ATOM     14  H4  UNL     1       6.612 -15.274 -26.274  1.00  0.00     0.153 HD
BRANCH  13  15
HETATM   15  C7  UNL     1       7.888 -13.859 -25.270  1.00  0.00     0.114 C 
BRANCH  15  16
HETATM   16  C8  UNL     1       8.996 -14.582 -24.591  1.00  0.00     0.025 C 
BRANCH  16  17
HETATM   17  C9  UNL     1       9.123 -14.374 -23.121  1.00  0.00     0.058 C 
BRANCH  17  18
HETATM   18  C10 UNL     1       8.484 -15.481 -22.371  1.00  0.00     0.010 A 
HETATM   19  C11 UNL     1       7.987 -15.491 -21.102  1.00  0.00     0.040 A 
HETATM   20  C12 UNL     1       7.485 -16.760 -20.843  1.00  0.00     0.009 A 
HETATM   21  C13 UNL     1       6.869 -17.609 -19.953  1.00  0.00     0.101 A 
HETATM   22  C15 UNL     1       7.712 -17.482 -22.014  1.00  0.00     0.059 A 
HETATM   23  N5  UNL     1       6.711 -18.813 -20.531  1.00  0.00    -0.372 N 
HETATM   24  C14 UNL     1       7.216 -18.748 -21.770  1.00  0.00     0.117 A 
ATOM     25  H5  UNL     1       6.282 -19.632 -20.100  1.00  0.00     0.164 HD
HETATM   26  N6  UNL     1       8.312 -16.710 -22.924  1.00  0.00    -0.358 N 
ATOM     27  H6  UNL     1       8.590 -16.991 -23.864  1.00  0.00     0.166 HD
ENDBRANCH  17  18
ENDBRANCH  16  17
ENDBRANCH  15  16
ENDBRANCH  13  15
ENDBRANCH  12  13
ENDBRANCH   1  12
BRANCH   1  28
HETATM   28  C16 UNL     1       3.494 -14.035 -25.644  1.00  0.00     0.197 C 
BRANCH  28  29
HETATM   29  O2  UNL     1       3.895 -13.486 -26.772  1.00  0.00    -0.362 OA
BRANCH  29  30
HETATM   30  C17 UNL     1       4.119 -12.173 -26.977  1.00  0.00     0.252 C 
HETATM   31  N7  UNL     1       5.540 -11.961 -27.362  1.00  0.00    -0.332 N 
HETATM   32  C18 UNL     1       5.930 -10.790 -27.986  1.00  0.00     0.219 C 
ATOM     33  H7  UNL     1       6.232 -12.685 -27.165  1.00  0.00     0.165 HD
HETATM   34  O3  UNL     1       7.184 -10.503 -28.150  1.00  0.00    -0.274 OA
HETATM   35  C19 UNL     1       4.949  -9.808 -28.492  1.00  0.00     0.105 C 
HETATM   36  C20 UNL     1       3.636  -9.933 -27.753  1.00  0.00     0.045 C 
HETATM   37  C21 UNL     1       3.246 -11.419 -27.923  1.00  0.00     0.167 C 
BRANCH  37  38
HETATM   38  O4  UNL     1       3.448 -11.724 -29.253  1.00  0.00    -0.391 OA
ATOM     39  H4  UNL     1       2.893 -11.244 -29.856  1.00  0.00     0.210 HD
ENDBRANCH  37  38
ENDBRANCH  29  30
ENDBRANCH  28  29
ENDBRANCH   1  28
TORSDOF 13
ENDMDL
MODEL 3
REMARK VINA RESULT: -8.323527005      2.108      5.458
REMARK  13 active torsions:
REMARK  status: ('A' for Active; 'I' for Inactive)
REMARK    1  A    between atoms: C1_2  and  C2_4 
REMARK    2  A    between atoms: C2_4  and  N2_5 
REMARK    3  A    between atoms: N3_8  and  C5_9 
REMARK    4  A    between atoms: C5_9  and  C6_10 
REMARK    5  A    between atoms: C5_9  and  C16_26 
REMARK    6  A    between atoms: C6_10  and  N4_11 
REMARK    7  A    between atoms: N4_11  and  C7_13 
REMARK    8  A    between atoms: C7_13  and  C8_14 
REMARK    9  A    between atoms: C8_14  and  C9_15 
REMARK   10  A    between atoms: C9_15  and  C10_16 
REMARK   11  A    between atoms: C16_26  and  O2_27 
REMARK   12  A    between atoms: O2_27  and  C17_28 
REMARK   13  A    between atoms: C21_35  and  O4_36 
ROOT
HETATM    1  C5  UNL     1       6.576 -14.572 -22.762  1.00  0.00     0.120 C 
ENDROOT
BRANCH   1   2
HETATM    2  N3  UNL     1       7.383 -13.432 -22.820  1.00  0.00    -0.402 N 
HETATM    3  C4  UNL     1       8.707 -13.348 -22.452  1.00  0.00     0.137 C 
HETATM    4  C3  UNL     1       9.423 -12.306 -23.343  1.00  0.00     0.141 C 
HETATM    5  N2  UNL     1       8.657 -11.893 -24.441  1.00  0.00    -0.383 N 
HETATM    6  C23 UNL     1       7.335 -11.423 -24.206  1.00  0.00     0.141 C 
HETATM    7  C22 UNL     1       6.688 -12.188 -23.061  1.00  0.00     0.137 C 
BRANCH   5   8
HETATM    8  C2  UNL     1       9.110 -12.005 -25.751  1.00  0.00     0.157 C 
BRANCH   8   9
HETATM    9  C1  UNL     1       8.357 -13.006 -26.572  1.00  0.00     0.269 C 
HETATM   10  N1  UNL     1       8.357 -14.361 -26.178  1.00  0.00    -0.057 NA
HETATM   11  O1  UNL     1       7.733 -12.637 -27.599  1.00  0.00    -0.270 OA
ENDBRANCH   8   9
ENDBRANCH   5   8
ENDBRANCH   1   2
BRANCH   1  12
HETATM   12  C6  UNL     1       7.375 -15.831 -22.955  1.00  0.00     0.141 C 
BRANCH  12  13
HETATM   13  N4  UNL     1       6.589 -16.994 -23.289  1.00  0.00    -0.419 N 
ATOM     14  H4  UNL     1       5.828 -16.963 -23.967  1.00  0.00     0.153 HD
BRANCH  13  15
HETATM   15  C7  UNL     1       6.953 -18.190 -22.601  1.00  0.00     0.114 C 
BRANCH  15  16
HETATM   16  C8  UNL     1       7.196 -18.026 -21.144  1.00  0.00     0.025 C 
BRANCH  16  17
HETATM   17  C9  UNL     1       6.031 -18.263 -20.245  1.00  0.00     0.058 C 
BRANCH  17  18
HETATM   18  C10 UNL     1       5.263 -17.015 -20.029  1.00  0.00     0.010 A 
HETATM   19  C11 UNL     1       5.416 -16.061 -19.066  1.00  0.00     0.040 A 
HETATM   20  C12 UNL     1       4.461 -15.075 -19.277  1.00  0.00     0.009 A 
HETATM   21  C13 UNL     1       3.912 -13.880 -18.874  1.00  0.00     0.101 A 
HETATM   22  C15 UNL     1       3.751 -15.498 -20.401  1.00  0.00     0.059 A 
HETATM   23  N5  UNL     1       2.903 -13.557 -19.701  1.00  0.00    -0.372 N 
HETATM   24  C14 UNL     1       2.796 -14.524 -20.623  1.00  0.00     0.117 A 
ATOM     25  H5  UNL     1       2.321 -12.722 -19.638  1.00  0.00     0.164 HD
HETATM   26  N6  UNL     1       4.236 -16.660 -20.845  1.00  0.00    -0.358 N 
ATOM     27  H6  UNL     1       3.898 -17.186 -21.650  1.00  0.00     0.166 HD
ENDBRANCH  17  18
ENDBRANCH  16  17
ENDBRANCH  15  16
ENDBRANCH  13  15
ENDBRANCH  12  13
ENDBRANCH   1  12
BRANCH   1  28
HETATM   28  C16 UNL     1       5.325 -14.558 -23.546  1.00  0.00     0.197 C 
BRANCH  28  29
HETATM   29  O2  UNL     1       5.309 -14.824 -24.837  1.00  0.00    -0.362 OA
BRANCH  29  30
HETATM   30  C17 UNL     1       5.070 -13.938 -25.824  1.00  0.00     0.252 C 
HETATM   31  N7  UNL     1       5.228 -14.605 -27.144  1.00  0.00    -0.332 N 
HETATM   32  C18 UNL     1       4.680 -14.043 -28.283  1.00  0.00     0.219 C 
ATOM     33  H7  UNL     1       5.743 -15.483 -27.210  1.00  0.00     0.165 HD
HETATM   34  O3  UNL     1       4.971 -14.499 -29.462  1.00  0.00    -0.274 OA
HETATM   35  C19 UNL     1       3.744 -12.901 -28.220  1.00  0.00     0.105 C 
HETATM   36  C20 UNL     1       3.945 -12.114 -26.945  1.00  0.00     0.045 C 
HETATM   37  C21 UNL     1       3.793 -13.166 -25.824  1.00  0.00     0.167 C 
BRANCH  37  38
HETATM   38  O4  UNL     1       2.676 -13.911 -26.137  1.00  0.00    -0.391 OA
ATOM     39  H4  UNL     1       2.089 -13.498 -26.760  1.00  0.00     0.210 HD
ENDBRANCH  37  38
ENDBRANCH  29  30
ENDBRANCH  28  29
ENDBRANCH   1  28
TORSDOF 13
ENDMDL
MODEL 4
REMARK VINA RESULT: -8.322798993      3.573      5.896
REMARK  13 active torsions:
REMARK  status: ('A' for Active; 'I' for Inactive)
REMARK    1  A    between atoms: C1_2  and  C2_4 
REMARK    2  A    between atoms: C2_4  and  N2_5 
REMARK    3  A    between atoms: N3_8  and  C5_9 
REMARK    4  A    between atoms: C5_9  and  C6_10 
REMARK    5  A    between atoms: C5_9  and  C16_26 
REMARK    6  A    between atoms: C6_10  and  N4_11 
REMARK    7  A    between atoms: N4_11  and  C7_13 
REMARK    8  A    between atoms: C7_13  and  C8_14 
REMARK    9  A    between atoms: C8_14  and  C9_15 
REMARK   10  A    between atoms: C9_15  and  C10_16 
REMARK   11  A    between atoms: C16_26  and  O2_27 
REMARK   12  A    between atoms: O2_27  and  C17_28 
REMARK   13  A    between atoms: C21_35  and  O4_36 
ROOT
HETATM    1  C5  UNL     1       2.516 -15.227 -22.399  1.00  0.00     0.120 C 
ENDROOT
BRANCH   1   2
HETATM    2  N3  UNL     1       3.374 -15.408 -23.488  1.00  0.00    -0.402 N 
HETATM    3  C4  UNL     1       3.227 -14.862 -24.743  1.00  0.00     0.137 C 
HETATM    4  C3  UNL     1       4.623 -14.599 -25.356  1.00  0.00     0.141 C 
HETATM    5  N2  UNL     1       5.669 -14.730 -24.434  1.00  0.00    -0.383 N 
HETATM    6  C23 UNL     1       5.753 -15.927 -23.670  1.00  0.00     0.141 C 
HETATM    7  C22 UNL     1       4.364 -16.450 -23.337  1.00  0.00     0.137 C 
BRANCH   5   8
HETATM    8  C2  UNL     1       6.572 -13.703 -24.180  1.00  0.00     0.157 C 
BRANCH   8   9
HETATM    9  C1  UNL     1       6.438 -13.097 -22.817  1.00  0.00     0.269 C 
HETATM   10  N1  UNL     1       5.233 -12.452 -22.465  1.00  0.00    -0.057 NA
HETATM   11  O1  UNL     1       7.390 -13.166 -22.001  1.00  0.00    -0.270 OA
ENDBRANCH   8   9
ENDBRANCH   5   8
ENDBRANCH   1   2
BRANCH   1  12
HETATM   12  C6  UNL     1       3.230 -15.423 -21.090  1.00  0.00     0.141 C 
BRANCH  12  13
HETATM   13  N4  UNL     1       3.780 -14.215 -20.523  1.00  0.00    -0.419 N 
ATOM     14  H4  UNL     1       3.963 -13.382 -21.082  1.00  0.00     0.153 HD
BRANCH  13  15
HETATM   15  C7  UNL     1       4.052 -14.272 -19.123  1.00  0.00     0.114 C 
BRANCH  15  16
HETATM   16  C8  UNL     1       5.060 -15.287 -18.722  1.00  0.00     0.025 C 
BRANCH  16  17
HETATM   17  C9  UNL     1       6.469 -15.024 -19.131  1.00  0.00     0.058 C 
BRANCH  17  18
HETATM   18  C10 UNL     1       6.983 -16.111 -19.996  1.00  0.00     0.010 A 
HETATM   19  C11 UNL     1       6.513 -17.381 -20.161  1.00  0.00     0.040 A 
HETATM   20  C12 UNL     1       7.326 -18.028 -21.082  1.00  0.00     0.009 A 
HETATM   21  C13 UNL     1       7.601 -19.176 -21.788  1.00  0.00     0.101 A 
HETATM   22  C15 UNL     1       8.284 -17.081 -21.443  1.00  0.00     0.059 A 
HETATM   23  N5  UNL     1       8.681 -18.969 -22.562  1.00  0.00    -0.372 N 
HETATM   24  C14 UNL     1       9.101 -17.712 -22.362  1.00  0.00     0.117 A 
ATOM     25  H5  UNL     1       9.106 -19.650 -23.192  1.00  0.00     0.164 HD
HETATM   26  N6  UNL     1       8.072 -15.936 -20.789  1.00  0.00    -0.358 N 
ATOM     27  H6  UNL     1       8.628 -15.085 -20.869  1.00  0.00     0.166 HD
ENDBRANCH  17  18
ENDBRANCH  16  17
ENDBRANCH  15  16
ENDBRANCH  13  15
ENDBRANCH  12  13
ENDBRANCH   1  12
BRANCH   1  28
HETATM   28  C16 UNL     1       1.206 -15.906 -22.449  1.00  0.00     0.197 C 
BRANCH  28  29
HETATM   29  O2  UNL     1       0.073 -15.232 -22.442  1.00  0.00    -0.362 OA
BRANCH  29  30
HETATM   30  C17 UNL     1      -1.022 -15.521 -23.173  1.00  0.00     0.252 C 
HETATM   31  N7  UNL     1      -1.129 -16.994 -23.353  1.00  0.00    -0.332 N 
HETATM   32  C18 UNL     1      -2.332 -17.569 -23.723  1.00  0.00     0.219 C 
ATOM     33  H7  UNL     1      -0.311 -17.584 -23.201  1.00  0.00     0.165 HD
HETATM   34  O3  UNL     1      -2.399 -18.815 -24.074  1.00  0.00    -0.274 OA
HETATM   35  C19 UNL     1      -3.594 -16.801 -23.740  1.00  0.00     0.105 C 
HETATM   36  C20 UNL     1      -3.319 -15.324 -23.903  1.00  0.00     0.045 C 
HETATM   37  C21 UNL     1      -2.349 -14.990 -22.747  1.00  0.00     0.167 C 
BRANCH  37  38
HETATM   38  O4  UNL     1      -2.868 -15.588 -21.618  1.00  0.00    -0.391 OA
ATOM     39  H4  UNL     1      -3.806 -15.476 -21.509  1.00  0.00     0.210 HD
ENDBRANCH  37  38
ENDBRANCH  29  30
ENDBRANCH  28  29
ENDBRANCH   1  28
TORSDOF 13
ENDMDL
MODEL 5
REMARK VINA RESULT: -8.275895951      3.236      5.728
REMARK  13 active torsions:
REMARK  status: ('A' for Active; 'I' for Inactive)
REMARK    1  A    between atoms: C1_2  and  C2_4 
REMARK    2  A    between atoms: C2_4  and  N2_5 
REMARK    3  A    between atoms: N3_8  and  C5_9 
REMARK    4  A    between atoms: C5_9  and  C6_10 
REMARK    5  A    between atoms: C5_9  and  C16_26 
REMARK    6  A    between atoms: C6_10  and  N4_11 
REMARK    7  A    between atoms: N4_11  and  C7_13 
REMARK    8  A    between atoms: C7_13  and  C8_14 
REMARK    9  A    between atoms: C8_14  and  C9_15 
REMARK   10  A    between atoms: C9_15  and  C10_16 
REMARK   11  A    between atoms: C16_26  and  O2_27 
REMARK   12  A    between atoms: O2_27  and  C17_28 
REMARK   13  A    between atoms: C21_35  and  O4_36 
ROOT
HETATM    1  C5  UNL     1       2.843 -14.358 -22.491  1.00  0.00     0.120 C 
ENDROOT
BRANCH   1   2
HETATM    2  N3  UNL     1       3.727 -14.838 -23.463  1.00  0.00    -0.402 N 
HETATM    3  C4  UNL     1       3.918 -14.318 -24.723  1.00  0.00     0.137 C 
HETATM    4  C3  UNL     1       5.389 -14.532 -25.150  1.00  0.00     0.141 C 
HETATM    5  N2  UNL     1       6.217 -14.955 -24.102  1.00  0.00    -0.383 N 
HETATM    6  C23 UNL     1       5.820 -16.090 -23.341  1.00  0.00     0.141 C 
HETATM    7  C22 UNL     1       4.307 -16.134 -23.192  1.00  0.00     0.137 C 
BRANCH   5   8
HETATM    8  C2  UNL     1       7.361 -14.258 -23.727  1.00  0.00     0.157 C 
BRANCH   8   9
HETATM    9  C1  UNL     1       7.135 -13.256 -22.638  1.00  0.00     0.269 C 
HETATM   10  N1  UNL     1       6.362 -12.107 -22.907  1.00  0.00    -0.057 NA
HETATM   11  O1  UNL     1       7.630 -13.443 -21.498  1.00  0.00    -0.270 OA
ENDBRANCH   8   9
ENDBRANCH   5   8
ENDBRANCH   1   2
BRANCH   1  12
HETATM   12  C6  UNL     1       3.571 -13.872 -21.269  1.00  0.00     0.141 C 
BRANCH  12  13
HETATM   13  N4  UNL     1       3.536 -14.783 -20.150  1.00  0.00    -0.419 N 
ATOM     14  H4  UNL     1       2.930 -15.603 -20.131  1.00  0.00     0.153 HD
BRANCH  13  15
HETATM   15  C7  UNL     1       4.411 -14.453 -19.072  1.00  0.00     0.114 C 
BRANCH  15  16
HETATM   16  C8  UNL     1       5.120 -15.610 -18.466  1.00  0.00     0.025 C 
BRANCH  16  17
HETATM   17  C9  UNL     1       4.985 -16.917 -19.170  1.00  0.00     0.058 C 
BRANCH  17  18
HETATM   18  C10 UNL     1       6.258 -17.303 -19.822  1.00  0.00     0.010 A 
HETATM   19  C11 UNL     1       7.348 -16.536 -20.112  1.00  0.00     0.040 A 
HETATM   20  C12 UNL     1       8.297 -17.346 -20.722  1.00  0.00     0.009 A 
HETATM   21  C13 UNL     1       9.545 -17.452 -21.291  1.00  0.00     0.101 A 
HETATM   22  C15 UNL     1       7.712 -18.611 -20.771  1.00  0.00     0.059 A 
HETATM   23  N5  UNL     1       9.745 -18.722 -21.683  1.00  0.00    -0.372 N 
HETATM   24  C14 UNL     1       8.648 -19.428 -21.376  1.00  0.00     0.117 A 
ATOM     25  H5  UNL     1      10.584 -19.085 -22.134  1.00  0.00     0.164 HD
HETATM   26  N6  UNL     1       6.491 -18.577 -20.231  1.00  0.00    -0.358 N 
ATOM     27  H6  UNL     1       5.849 -19.364 -20.142  1.00  0.00     0.166 HD
ENDBRANCH  17  18
ENDBRANCH  16  17
ENDBRANCH  15  16
ENDBRANCH  13  15
ENDBRANCH  12  13
ENDBRANCH   1  12
BRANCH   1  28
HETATM   28  C16 UNL     1       1.670 -15.194 -22.170  1.00  0.00     0.197 C 
BRANCH  28  29
HETATM   29  O2  UNL     1       0.614 -15.244 -22.958  1.00  0.00    -0.362 OA
BRANCH  29  30
HETATM   30  C17 UNL     1      -0.515 -15.941 -22.723  1.00  0.00     0.252 C 
HETATM   31  N7  UNL     1      -1.655 -15.301 -23.433  1.00  0.00    -0.332 N 
HETATM   32  C18 UNL     1      -2.820 -16.009 -23.670  1.00  0.00     0.219 C 
ATOM     33  H7  UNL     1      -1.577 -14.334 -23.748  1.00  0.00     0.165 HD
HETATM   34  O3  UNL     1      -3.887 -15.416 -24.106  1.00  0.00    -0.274 OA
HETATM   35  C19 UNL     1      -2.911 -17.466 -23.438  1.00  0.00     0.105 C 
HETATM   36  C20 UNL     1      -1.885 -17.911 -22.421  1.00  0.00     0.045 C 
HETATM   37  C21 UNL     1      -0.541 -17.408 -22.994  1.00  0.00     0.167 C 
BRANCH  37  38
HETATM   38  O4  UNL     1      -0.540 -17.741 -24.333  1.00  0.00    -0.391 OA
ATOM     39  H4  UNL     1       0.277 -17.560 -24.783  1.00  0.00     0.210 HD
ENDBRANCH  37  38
ENDBRANCH  29  30
ENDBRANCH  28  29
ENDBRANCH   1  28
TORSDOF 13
ENDMDL
