MODEL 1
REMARK VINA RESULT: -8.871091961      0.000      0.000
REMARK  13 active torsions:
REMARK  status: ('A' for Active; 'I' for Inactive)
REMARK    1  A    between atoms: C2_2  and  C4_4 
REMARK    2  A    between atoms: C4_4  and  O1_5 
REMARK    3  A    between atoms: C4_4  and  C5_7 
REMARK    4  A    between atoms: C5_7  and  C6_8 
REMARK    5  A    between atoms: C5_7  and  N4_16 
REMARK    6  A    between atoms: C6_8  and  N1_9 
REMARK    7  A    between atoms: N1_9  and  N2_11 
REMARK    8  A    between atoms: C15_31  and  N7_32 
REMARK    9  A    between atoms: N7_32  and  C16_35 
REMARK   10  A    between atoms: C16_35  and  C17_36 
REMARK   11  A    between atoms: C17_36  and  C18_37 
REMARK   12  A    between atoms: C18_37  and  O2_38 
REMARK   13  A    between atoms: O2_38  and  N8_39 
ROOT
HETATM    1  N4  UNL     1       5.496 -11.780 -26.475  1.00  0.00    -0.343 N 
HETATM    2  C7  UNL     1       6.705 -11.000 -26.481  1.00  0.00     0.126 C 
HETATM    3  C8  UNL     1       7.724 -11.277 -25.441  1.00  0.00     0.022 C 
HETATM    4  C9  UNL     1       9.012 -10.578 -25.925  1.00  0.00     0.029 C 
HETATM    5  C10 UNL     1      10.207 -11.073 -25.155  1.00  0.00     0.232 C 
HETATM    6  N5  UNL     1      10.289 -12.507 -25.120  1.00  0.00    -0.074 N 
ATOM      7  H51 UNL     1      11.029 -12.875 -25.720  1.00  0.00     0.277 HD
ATOM      8  H52 UNL     1       9.501 -12.959 -25.583  1.00  0.00     0.277 HD
HETATM    9  C11 UNL     1      10.435 -12.915 -23.735  1.00  0.00     0.259 C 
HETATM   10  C12 UNL     1      10.546 -14.411 -23.595  1.00  0.00     0.259 C 
HETATM   11  N6  UNL     1       9.700 -14.948 -22.570  1.00  0.00    -0.073 N 
ATOM     12  H61 UNL     1       9.367 -14.211 -21.949  1.00  0.00     0.277 HD
ATOM     13  H62 UNL     1      10.242 -15.496 -21.900  1.00  0.00     0.277 HD
HETATM   14  C13 UNL     1       8.595 -15.719 -23.098  1.00  0.00     0.234 C 
HETATM   15  C14 UNL     1       7.314 -15.008 -22.668  1.00  0.00     0.060 C 
HETATM   16  C15 UNL     1       6.139 -15.427 -23.491  1.00  0.00     0.188 C 
HETATM   17  C19 UNL     1       5.917 -14.546 -24.673  1.00  0.00     0.042 C 
HETATM   18  C20 UNL     1       5.506 -13.151 -24.261  1.00  0.00     0.105 C 
HETATM   19  C21 UNL     1       4.876 -12.431 -25.407  1.00  0.00     0.220 C 
HETATM   20  O5  UNL     1       3.592 -12.414 -25.405  1.00  0.00    -0.273 OA
ENDROOT
BRANCH   1  21
HETATM   21  C5  UNL     1       4.858 -11.868 -27.803  1.00  0.00     0.139 C 
BRANCH  21  22
HETATM   22  C4  UNL     1       3.771 -10.945 -28.101  1.00  0.00     0.170 C 
BRANCH  22  23
HETATM   23  C2  UNL     1       3.944  -9.514 -27.744  1.00  0.00    -0.063 C 
HETATM   24  C1  UNL     1       3.292  -9.002 -26.690  1.00  0.00     0.016 C 
HETATM   25  C3  UNL     1       4.813  -8.563 -28.485  1.00  0.00     0.045 C 
ENDBRANCH  22  23
BRANCH  22  26
HETATM   26  O1  UNL     1       3.223 -11.080 -29.390  1.00  0.00    -0.389 OA
ATOM     27  H1  UNL     1       3.397 -10.308 -29.916  1.00  0.00     0.210 HD
ENDBRANCH  22  26
ENDBRANCH  21  22
BRANCH  21  28
HETATM   28  C6  UNL     1       5.967 -11.726 -28.852  1.00  0.00     0.169 C 
BRANCH  28  29
HETATM   29  N1  UNL     1       5.723 -12.682 -29.912  1.00  0.00    -0.321 N 
ATOM     30  H1  UNL     1       6.360 -12.748 -30.706  1.00  0.00     0.181 HD
BRANCH  29  31
HETATM   31  N2  UNL     1       4.594 -13.520 -29.833  1.00  0.00    -0.254 N 
HETATM   32  N3  UNL     1       3.819 -13.697 -30.805  1.00  0.00    -0.331 N 
ATOM     33  H32 UNL     1       4.030 -13.209 -31.675  1.00  0.00     0.178 HD
ATOM     34  H31 UNL     1       3.002 -14.303 -30.748  1.00  0.00     0.178 HD
ATOM     35  H2  UNL     1       4.399 -14.000 -28.955  1.00  0.00     0.207 HD
ENDBRANCH  29  31
ENDBRANCH  28  29
ENDBRANCH  21  28
ENDBRANCH   1  21
BRANCH  16  36
HETATM   36  N7  UNL     1       4.926 -15.550 -22.728  1.00  0.00    -0.071 N 
ATOM     37  H72 UNL     1       4.530 -14.631 -22.528  1.00  0.00     0.277 HD
ATOM     38  H71 UNL     1       4.177 -15.937 -23.303  1.00  0.00     0.277 HD
BRANCH  36  39
HETATM   39  C16 UNL     1       5.082 -16.320 -21.501  1.00  0.00     0.235 C 
BRANCH  39  40
HETATM   40  C17 UNL     1       4.054 -15.992 -20.458  1.00  0.00     0.056 C 
BRANCH  40  41
HETATM   41  C18 UNL     1       4.526 -14.723 -19.743  1.00  0.00     0.209 C 
BRANCH  41  42
HETATM   42  O2  UNL     1       4.517 -13.634 -20.652  1.00  0.00    -0.221 OA
BRANCH  42  43
HETATM   43  N8  UNL     1       3.382 -12.929 -20.935  1.00  0.00     0.004 N 
HETATM   44  O3  UNL     1       3.058 -11.909 -20.294  1.00  0.00    -0.511 OA
HETATM   45  O4  UNL     1       2.561 -13.341 -21.954  1.00  0.00    -0.511 OA
ENDBRANCH  42  43
ENDBRANCH  41  42
ENDBRANCH  40  41
ENDBRANCH  39  40
ENDBRANCH  36  39
ENDBRANCH  16  36
TORSDOF 13
ENDMDL
MODEL 2
REMARK VINA RESULT: -8.778543906      1.675      2.019
REMARK  13 active torsions:
REMARK  status: ('A' for Active; 'I' for Inactive)
REMARK    1  A    between atoms: C2_2  and  C4_4 
REMARK    2  A    between atoms: C4_4  and  O1_5 
REMARK    3  A    between atoms: C4_4  and  C5_7 
REMARK    4  A    between atoms: C5_7  and  C6_8 
REMARK    5  A    between atoms: C5_7  and  N4_16 
REMARK    6  A    between atoms: C6_8  and  N1_9 
REMARK    7  A    between atoms: N1_9  and  N2_11 
REMARK    8  A    between atoms: C15_31  and  N7_32 
REMARK    9  A    between atoms: N7_32  and  C16_35 
REMARK   10  A    between atoms: C16_35  and  C17_36 
REMARK   11  A    between atoms: C17_36  and  C18_37 
REMARK   12  A    between atoms: C18_37  and  O2_38 
REMARK   13  A    between atoms: O2_38  and  N8_39 
ROOT
HETATM    1  N4  UNL     1       4.985 -11.943 -26.761  1.00  0.00    -0.343 N 
HETATM    2  C7  UNL     1       6.079 -11.249 -26.133  1.00  0.00     0.126 C 
HETATM    3  C8  UNL     1       6.558 -11.739 -24.818  1.00  0.00     0.022 C 
HETATM    4  C9  UNL     1       7.927 -11.062 -24.596  1.00  0.00     0.029 C 
HETATM    5  C10 UNL     1       8.681 -11.740 -23.483  1.00  0.00     0.232 C 
HETATM    6  N5  UNL     1       8.744 -13.166 -23.644  1.00  0.00    -0.074 N 
ATOM      7  H51 UNL     1       9.670 -13.491 -23.926  1.00  0.00     0.277 HD
ATOM      8  H52 UNL     1       8.230 -13.494 -24.461  1.00  0.00     0.277 HD
HETATM    9  C11 UNL     1       8.286 -13.778 -22.410  1.00  0.00     0.259 C 
HETATM   10  C12 UNL     1       8.331 -15.282 -22.474  1.00  0.00     0.259 C 
HETATM   11  N6  UNL     1       7.130 -15.905 -22.000  1.00  0.00    -0.073 N 
ATOM     12  H61 UNL     1       6.561 -15.245 -21.470  1.00  0.00     0.277 HD
ATOM     13  H62 UNL     1       7.335 -16.578 -21.261  1.00  0.00     0.277 HD
HETATM   14  C13 UNL     1       6.358 -16.519 -23.060  1.00  0.00     0.234 C 
HETATM   15  C14 UNL     1       5.014 -15.795 -23.104  1.00  0.00     0.060 C 
HETATM   16  C15 UNL     1       4.304 -16.014 -24.401  1.00  0.00     0.188 C 
HETATM   17  C19 UNL     1       4.605 -14.960 -25.411  1.00  0.00     0.042 C 
HETATM   18  C20 UNL     1       4.053 -13.615 -24.996  1.00  0.00     0.105 C 
HETATM   19  C21 UNL     1       3.970 -12.699 -26.172  1.00  0.00     0.220 C 
HETATM   20  O5  UNL     1       2.809 -12.599 -26.709  1.00  0.00    -0.273 OA
ENDROOT
BRANCH   1  21
HETATM   21  C5  UNL     1       4.976 -11.797 -28.230  1.00  0.00     0.139 C 
BRANCH  21  22
HETATM   22  C4  UNL     1       5.193 -10.468 -28.785  1.00  0.00     0.170 C 
BRANCH  22  23
HETATM   23  C2  UNL     1       4.496  -9.318 -28.156  1.00  0.00    -0.063 C 
HETATM   24  C1  UNL     1       5.194  -8.240 -27.769  1.00  0.00     0.016 C 
HETATM   25  C3  UNL     1       3.032  -9.257 -27.908  1.00  0.00     0.045 C 
ENDBRANCH  22  23
BRANCH  22  26
HETATM   26  O1  UNL     1       6.539 -10.156 -29.051  1.00  0.00    -0.389 OA
ATOM     27  H1  UNL     1       7.089 -10.358 -28.304  1.00  0.00     0.210 HD
ENDBRANCH  22  26
ENDBRANCH  21  22
BRANCH  21  28
HETATM   28  C6  UNL     1       6.014 -12.775 -28.793  1.00  0.00     0.169 C 
BRANCH  28  29
HETATM   29  N1  UNL     1       5.899 -12.787 -30.235  1.00  0.00    -0.321 N 
ATOM     30  H1  UNL     1       6.350 -12.064 -30.796  1.00  0.00     0.181 HD
BRANCH  29  31
HETATM   31  N2  UNL     1       5.157 -13.810 -30.855  1.00  0.00    -0.254 N 
HETATM   32  N3  UNL     1       3.914 -13.734 -31.020  1.00  0.00    -0.331 N 
ATOM     33  H32 UNL     1       3.441 -12.893 -30.686  1.00  0.00     0.178 HD
ATOM     34  H31 UNL     1       3.376 -14.474 -31.468  1.00  0.00     0.178 HD
ATOM     35  H2  UNL     1       5.645 -14.643 -31.183  1.00  0.00     0.207 HD
ENDBRANCH  29  31
ENDBRANCH  28  29
ENDBRANCH  21  28
ENDBRANCH   1  21
BRANCH  16  36
HETATM   36  N7  UNL     1       2.881 -16.168 -24.251  1.00  0.00    -0.071 N 
ATOM     37  H72 UNL     1       2.390 -15.356 -24.627  1.00  0.00     0.277 HD
ATOM     38  H71 UNL     1       2.529 -16.888 -24.881  1.00  0.00     0.277 HD
BRANCH  36  39
HETATM   39  C16 UNL     1       2.462 -16.434 -22.881  1.00  0.00     0.235 C 
BRANCH  39  40
HETATM   40  C17 UNL     1       1.401 -15.493 -22.391  1.00  0.00     0.056 C 
BRANCH  40  41
HETATM   41  C18 UNL     1       2.053 -14.581 -21.348  1.00  0.00     0.209 C 
BRANCH  41  42
HETATM   42  O2  UNL     1       2.439 -13.359 -21.958  1.00  0.00    -0.221 OA
BRANCH  42  43
HETATM   43  N8  UNL     1       3.224 -12.442 -21.321  1.00  0.00     0.004 N 
HETATM   44  O3  UNL     1       3.113 -12.208 -20.101  1.00  0.00    -0.511 OA
HETATM   45  O4  UNL     1       4.171 -11.747 -22.031  1.00  0.00    -0.511 OA
ENDBRANCH  42  43
ENDBRANCH  41  42
ENDBRANCH  40  41
ENDBRANCH  39  40
ENDBRANCH  36  39
ENDBRANCH  16  36
TORSDOF 13
ENDMDL
MODEL 3
REMARK VINA RESULT: -8.457237405      2.375      6.999
REMARK  13 active torsions:
REMARK  status: ('A' for Active; 'I' for Inactive)
REMARK    1  A    between atoms: C2_2  and  C4_4 
REMARK    2  A    between atoms: C4_4  and  O1_5 
REMARK    3  A    between atoms: C4_4  and  C5_7 
REMARK    4  A    between atoms: C5_7  and  C6_8 
REMARK    5  A    between atoms: C5_7  and  N4_16 
REMARK    6  A    between atoms: C6_8  and  N1_9 
REMARK    7  A    between atoms: N1_9  and  N2_11 
REMARK    8  A    between atoms: C15_31  and  N7_32 
REMARK    9  A    between atoms: N7_32  and  C16_35 
REMARK   10  A    between atoms: C16_35  and  C17_36 
REMARK   11  A    between atoms: C17_36  and  C18_37 
REMARK   12  A    between atoms: C18_37  and  O2_38 
REMARK   13  A    between atoms: O2_38  and  N8_39 
ROOT
HETATM    1  N4  UNL     1       3.991 -15.733 -22.903  1.00  0.00    -0.343 N 
HETATM    2  C7  UNL     1       5.204 -16.388 -22.488  1.00  0.00     0.126 C 
HETATM    3  C8  UNL     1       6.497 -15.799 -22.906  1.00  0.00     0.022 C 
HETATM    4  C9  UNL     1       7.567 -16.475 -22.022  1.00  0.00     0.029 C 
HETATM    5  C10 UNL     1       8.867 -15.719 -22.089  1.00  0.00     0.232 C 
HETATM    6  N5  UNL     1       8.703 -14.312 -21.849  1.00  0.00    -0.074 N 
ATOM      7  H51 UNL     1       9.048 -14.025 -20.932  1.00  0.00     0.277 HD
ATOM      8  H52 UNL     1       7.728 -14.045 -21.717  1.00  0.00     0.277 HD
HETATM    9  C11 UNL     1       9.340 -13.594 -22.938  1.00  0.00     0.259 C 
HETATM   10  C12 UNL     1       9.235 -12.101 -22.768  1.00  0.00     0.259 C 
HETATM   11  N6  UNL     1       8.815 -11.424 -23.960  1.00  0.00    -0.073 N 
ATOM     12  H61 UNL     1       8.905 -12.029 -24.775  1.00  0.00     0.277 HD
ATOM     13  H62 UNL     1       9.481 -10.695 -24.220  1.00  0.00     0.277 HD
HETATM   14  C13 UNL     1       7.473 -10.888 -23.860  1.00  0.00     0.234 C 
HETATM   15  C14 UNL     1       6.635 -11.593 -24.923  1.00  0.00     0.060 C 
HETATM   16  C15 UNL     1       5.170 -11.471 -24.651  1.00  0.00     0.188 C 
HETATM   17  C19 UNL     1       4.634 -12.610 -23.852  1.00  0.00     0.042 C 
HETATM   18  C20 UNL     1       4.683 -13.908 -24.625  1.00  0.00     0.105 C 
HETATM   19  C21 UNL     1       3.769 -14.917 -24.013  1.00  0.00     0.220 C 
HETATM   20  O5  UNL     1       2.628 -15.044 -24.587  1.00  0.00    -0.273 OA
ENDROOT
BRANCH   1  21
HETATM   21  C5  UNL     1       2.852 -16.000 -22.001  1.00  0.00     0.139 C 
BRANCH  21  22
HETATM   22  C4  UNL     1       2.279 -14.874 -21.275  1.00  0.00     0.170 C 
BRANCH  22  23
HETATM   23  C2  UNL     1       3.186 -14.021 -20.466  1.00  0.00    -0.063 C 
HETATM   24  C1  UNL     1       3.237 -12.699 -20.685  1.00  0.00     0.016 C 
HETATM   25  C3  UNL     1       4.078 -14.528 -19.390  1.00  0.00     0.045 C 
ENDBRANCH  22  23
BRANCH  22  26
HETATM   26  O1  UNL     1       1.383 -14.088 -22.023  1.00  0.00    -0.389 OA
ATOM     27  H1  UNL     1       1.081 -14.556 -22.792  1.00  0.00     0.210 HD
ENDBRANCH  22  26
ENDBRANCH  21  22
BRANCH  21  28
HETATM   28  C6  UNL     1       1.766 -16.695 -22.829  1.00  0.00     0.169 C 
BRANCH  28  29
HETATM   29  N1  UNL     1       0.605 -16.895 -21.989  1.00  0.00    -0.321 N 
ATOM     30  H1  UNL     1       0.706 -17.285 -21.052  1.00  0.00     0.181 HD
BRANCH  29  31
HETATM   31  N2  UNL     1      -0.667 -16.545 -22.482  1.00  0.00    -0.254 N 
HETATM   32  N3  UNL     1      -0.823 -15.701 -23.399  1.00  0.00    -0.331 N 
ATOM     33  H32 UNL     1       0.012 -15.264 -23.790  1.00  0.00     0.178 HD
ATOM     34  H31 UNL     1      -1.743 -15.447 -23.756  1.00  0.00     0.178 HD
ATOM     35  H2  UNL     1      -1.491 -16.992 -22.080  1.00  0.00     0.207 HD
ENDBRANCH  29  31
ENDBRANCH  28  29
ENDBRANCH  21  28
ENDBRANCH   1  21
BRANCH  16  36
HETATM   36  N7  UNL     1       4.385 -11.285 -25.842  1.00  0.00    -0.071 N 
ATOM     37  H72 UNL     1       4.741 -11.865 -26.603  1.00  0.00     0.277 HD
ATOM     38  H71 UNL     1       3.460 -11.700 -25.731  1.00  0.00     0.277 HD
BRANCH  36  39
HETATM   39  C16 UNL     1       4.279  -9.894 -26.262  1.00  0.00     0.235 C 
BRANCH  39  40
HETATM   40  C17 UNL     1       3.623  -9.726 -27.601  1.00  0.00     0.056 C 
BRANCH  40  41
HETATM   41  C18 UNL     1       3.847 -11.026 -28.380  1.00  0.00     0.209 C 
BRANCH  41  42
HETATM   42  O2  UNL     1       5.222 -11.155 -28.705  1.00  0.00    -0.221 OA
BRANCH  42  43
HETATM   43  N8  UNL     1       5.820 -12.371 -28.876  1.00  0.00     0.004 N 
HETATM   44  O3  UNL     1       5.887 -13.212 -27.958  1.00  0.00    -0.511 OA
HETATM   45  O4  UNL     1       6.367 -12.694 -30.092  1.00  0.00    -0.511 OA
ENDBRANCH  42  43
ENDBRANCH  41  42
ENDBRANCH  40  41
ENDBRANCH  39  40
ENDBRANCH  36  39
ENDBRANCH  16  36
TORSDOF 13
ENDMDL
MODEL 4
REMARK VINA RESULT: -8.411464170      1.288      1.541
REMARK  13 active torsions:
REMARK  status: ('A' for Active; 'I' for Inactive)
REMARK    1  A    between atoms: C2_2  and  C4_4 
REMARK    2  A    between atoms: C4_4  and  O1_5 
REMARK    3  A    between atoms: C4_4  and  C5_7 
REMARK    4  A    between atoms: C5_7  and  C6_8 
REMARK    5  A    between atoms: C5_7  and  N4_16 
REMARK    6  A    between atoms: C6_8  and  N1_9 
REMARK    7  A    between atoms: N1_9  and  N2_11 
REMARK    8  A    between atoms: C15_31  and  N7_32 
REMARK    9  A    between atoms: N7_32  and  C16_35 
REMARK   10  A    between atoms: C16_35  and  C17_36 
REMARK   11  A    between atoms: C17_36  and  C18_37 
REMARK   12  A    between atoms: C18_37  and  O2_38 
REMARK   13  A    between atoms: O2_38  and  N8_39 
ROOT
HETATM    1  N4  UNL     1       5.449 -11.856 -26.477  1.00  0.00    -0.343 N 
HETATM    2  C7  UNL     1       6.653 -11.068 -26.438  1.00  0.00     0.126 C 
HETATM    3  C8  UNL     1       7.653 -11.367 -25.387  1.00  0.00     0.022 C 
HETATM    4  C9  UNL     1       8.946 -10.647 -25.826  1.00  0.00     0.029 C 
HETATM    5  C10 UNL     1      10.129 -11.155 -25.047  1.00  0.00     0.232 C 
HETATM    6  N5  UNL     1      10.221 -12.589 -25.050  1.00  0.00    -0.074 N 
ATOM      7  H51 UNL     1      10.974 -12.935 -25.645  1.00  0.00     0.277 HD
ATOM      8  H52 UNL     1       9.445 -13.033 -25.541  1.00  0.00     0.277 HD
HETATM    9  C11 UNL     1      10.343 -13.034 -23.674  1.00  0.00     0.259 C 
HETATM   10  C12 UNL     1      10.461 -14.532 -23.573  1.00  0.00     0.259 C 
HETATM   11  N6  UNL     1       9.600 -15.103 -22.580  1.00  0.00    -0.073 N 
ATOM     12  H61 UNL     1       9.249 -14.386 -21.945  1.00  0.00     0.277 HD
ATOM     13  H62 UNL     1      10.132 -15.666 -21.915  1.00  0.00     0.277 HD
HETATM   14  C13 UNL     1       8.510 -15.867 -23.150  1.00  0.00     0.234 C 
HETATM   15  C14 UNL     1       7.216 -15.176 -22.726  1.00  0.00     0.060 C 
HETATM   16  C15 UNL     1       6.061 -15.579 -23.584  1.00  0.00     0.188 C 
HETATM   17  C19 UNL     1       5.855 -14.667 -24.745  1.00  0.00     0.042 C 
HETATM   18  C20 UNL     1       5.426 -13.287 -24.303  1.00  0.00     0.105 C 
HETATM   19  C21 UNL     1       4.813 -12.540 -25.440  1.00  0.00     0.220 C 
HETATM   20  O5  UNL     1       3.529 -12.532 -25.463  1.00  0.00    -0.273 OA
ENDROOT
BRANCH   1  21
HETATM   21  C5  UNL     1       4.838 -11.911 -27.820  1.00  0.00     0.139 C 
BRANCH  21  22
HETATM   22  C4  UNL     1       3.762 -10.976 -28.120  1.00  0.00     0.170 C 
BRANCH  22  23
HETATM   23  C2  UNL     1       3.950  -9.548 -27.760  1.00  0.00    -0.063 C 
HETATM   24  C1  UNL     1       3.353  -9.047 -26.667  1.00  0.00     0.016 C 
HETATM   25  C3  UNL     1       4.775  -8.587 -28.537  1.00  0.00     0.045 C 
ENDBRANCH  22  23
BRANCH  22  26
HETATM   26  O1  UNL     1       3.216 -11.102 -29.410  1.00  0.00    -0.389 OA
ATOM     27  H1  UNL     1       3.848 -10.850 -30.073  1.00  0.00     0.210 HD
ENDBRANCH  22  26
ENDBRANCH  21  22
BRANCH  21  28
HETATM   28  C6  UNL     1       5.968 -11.753 -28.844  1.00  0.00     0.169 C 
BRANCH  28  29
HETATM   29  N1  UNL     1       5.719 -12.655 -29.948  1.00  0.00    -0.321 N 
ATOM     30  H1  UNL     1       6.323 -12.645 -30.770  1.00  0.00     0.181 HD
BRANCH  29  31
HETATM   31  N2  UNL     1       4.632 -13.547 -29.872  1.00  0.00    -0.254 N 
HETATM   32  N3  UNL     1       3.845 -13.728 -30.833  1.00  0.00    -0.331 N 
ATOM     33  H32 UNL     1       4.013 -13.203 -31.692  1.00  0.00     0.178 HD
ATOM     34  H31 UNL     1       3.057 -14.374 -30.779  1.00  0.00     0.178 HD
ATOM     35  H2  UNL     1       4.479 -14.064 -29.007  1.00  0.00     0.207 HD
ENDBRANCH  29  31
ENDBRANCH  28  29
ENDBRANCH  21  28
ENDBRANCH   1  21
BRANCH  16  36
HETATM   36  N7  UNL     1       4.833 -15.732 -22.848  1.00  0.00    -0.071 N 
ATOM     37  H72 UNL     1       4.069 -15.246 -23.317  1.00  0.00     0.277 HD
ATOM     38  H71 UNL     1       4.491 -16.691 -22.914  1.00  0.00     0.277 HD
BRANCH  36  39
HETATM   39  C16 UNL     1       4.930 -15.316 -21.455  1.00  0.00     0.235 C 
BRANCH  39  40
HETATM   40  C17 UNL     1       3.596 -15.058 -20.817  1.00  0.00     0.056 C 
BRANCH  40  41
HETATM   41  C18 UNL     1       2.770 -14.242 -21.815  1.00  0.00     0.209 C 
BRANCH  41  42
HETATM   42  O2  UNL     1       2.104 -15.117 -22.711  1.00  0.00    -0.221 OA
BRANCH  42  43
HETATM   43  N8  UNL     1       0.926 -15.730 -22.392  1.00  0.00     0.004 N 
HETATM   44  O3  UNL     1      -0.176 -15.163 -22.535  1.00  0.00    -0.511 OA
HETATM   45  O4  UNL     1       0.937 -17.010 -21.898  1.00  0.00    -0.511 OA
ENDBRANCH  42  43
ENDBRANCH  41  42
ENDBRANCH  40  41
ENDBRANCH  39  40
ENDBRANCH  36  39
ENDBRANCH  16  36
TORSDOF 13
ENDMDL
MODEL 5
REMARK VINA RESULT: -8.406939613      2.228      6.988
REMARK  13 active torsions:
REMARK  status: ('A' for Active; 'I' for Inactive)
REMARK    1  A    between atoms: C2_2  and  C4_4 
REMARK    2  A    between atoms: C4_4  and  O1_5 
REMARK    3  A    between atoms: C4_4  and  C5_7 
REMARK    4  A    between atoms: C5_7  and  C6_8 
REMARK    5  A    between atoms: C5_7  and  N4_16 
REMARK    6  A    between atoms: C6_8  and  N1_9 
REMARK    7  A    between atoms: N1_9  and  N2_11 
REMARK    8  A    between atoms: C15_31  and  N7_32 
REMARK    9  A    between atoms: N7_32  and  C16_35 
REMARK   10  A    between atoms: C16_35  and  C17_36 
REMARK   11  A    between atoms: C17_36  and  C18_37 
REMARK   12  A    between atoms: C18_37  and  O2_38 
REMARK   13  A    between atoms: O2_38  and  N8_39 
ROOT
HETATM    1  N4  UNL     1       4.353 -15.861 -22.201  1.00  0.00    -0.343 N 
HETATM    2  C7  UNL     1       5.016 -17.130 -22.050  1.00  0.00     0.126 C 
HETATM    3  C8  UNL     1       6.335 -17.314 -22.700  1.00  0.00     0.022 C 
HETATM    4  C9  UNL     1       6.939 -18.582 -22.062  1.00  0.00     0.029 C 
HETATM    5  C10 UNL     1       8.410 -18.681 -22.364  1.00  0.00     0.232 C 
HETATM    6  N5  UNL     1       9.121 -17.469 -22.059  1.00  0.00    -0.074 N 
ATOM      7  H51 UNL     1       9.698 -17.550 -21.221  1.00  0.00     0.277 HD
ATOM      8  H52 UNL     1       8.507 -16.724 -21.731  1.00  0.00     0.277 HD
HETATM    9  C11 UNL     1       9.886 -17.091 -23.233  1.00  0.00     0.259 C 
HETATM   10  C12 UNL     1      10.683 -15.833 -23.006  1.00  0.00     0.259 C 
HETATM   11  N6  UNL     1      10.558 -14.883 -24.073  1.00  0.00    -0.073 N 
ATOM     12  H61 UNL     1      10.164 -15.320 -24.906  1.00  0.00     0.277 HD
ATOM     13  H62 UNL     1      11.474 -14.624 -24.440  1.00  0.00     0.277 HD
HETATM   14  C13 UNL     1       9.799 -13.709 -23.696  1.00  0.00     0.234 C 
HETATM   15  C14 UNL     1       8.563 -13.676 -24.592  1.00  0.00     0.060 C 
HETATM   16  C15 UNL     1       7.492 -12.795 -24.033  1.00  0.00     0.188 C 
HETATM   17  C19 UNL     1       6.523 -13.535 -23.175  1.00  0.00     0.042 C 
HETATM   18  C20 UNL     1       5.706 -14.521 -23.977  1.00  0.00     0.105 C 
HETATM   19  C21 UNL     1       4.480 -14.919 -23.223  1.00  0.00     0.220 C 
HETATM   20  O5  UNL     1       3.403 -14.309 -23.564  1.00  0.00    -0.273 OA
ENDROOT
BRANCH   1  21
HETATM   21  C5  UNL     1       3.415 -15.564 -21.100  1.00  0.00     0.139 C 
BRANCH  21  22
HETATM   22  C4  UNL     1       3.842 -14.620 -20.075  1.00  0.00     0.170 C 
BRANCH  22  23
HETATM   23  C2  UNL     1       5.070 -14.929 -19.300  1.00  0.00    -0.063 C 
HETATM   24  C1  UNL     1       4.990 -15.663 -18.180  1.00  0.00     0.016 C 
HETATM   25  C3  UNL     1       6.435 -14.477 -19.675  1.00  0.00     0.045 C 
ENDBRANCH  22  23
BRANCH  22  26
HETATM   26  O1  UNL     1       3.825 -13.272 -20.476  1.00  0.00    -0.389 OA
ATOM     27  H1  UNL     1       4.028 -12.698 -19.747  1.00  0.00     0.210 HD
ENDBRANCH  22  26
ENDBRANCH  21  22
BRANCH  21  28
HETATM   28  C6  UNL     1       2.102 -15.090 -21.733  1.00  0.00     0.169 C 
BRANCH  28  29
HETATM   29  N1  UNL     1       1.295 -16.251 -22.042  1.00  0.00    -0.321 N 
ATOM     30  H1  UNL     1       0.700 -16.672 -21.328  1.00  0.00     0.181 HD
BRANCH  29  31
HETATM   31  N2  UNL     1       1.340 -16.792 -23.341  1.00  0.00    -0.254 N 
HETATM   32  N3  UNL     1       1.277 -16.074 -24.370  1.00  0.00    -0.331 N 
ATOM     33  H32 UNL     1       1.191 -15.066 -24.242  1.00  0.00     0.178 HD
ATOM     34  H31 UNL     1       1.310 -16.466 -25.311  1.00  0.00     0.178 HD
ATOM     35  H2  UNL     1       1.427 -17.802 -23.451  1.00  0.00     0.207 HD
ENDBRANCH  29  31
ENDBRANCH  28  29
ENDBRANCH  21  28
ENDBRANCH   1  21
BRANCH  16  36
HETATM   36  N7  UNL     1       6.791 -12.044 -25.041  1.00  0.00    -0.071 N 
ATOM     37  H72 UNL     1       7.446 -11.651 -25.718  1.00  0.00     0.277 HD
ATOM     38  H71 UNL     1       6.266 -12.668 -25.654  1.00  0.00     0.277 HD
BRANCH  36  39
HETATM   39  C16 UNL     1       5.925 -11.005 -24.500  1.00  0.00     0.235 C 
BRANCH  39  40
HETATM   40  C17 UNL     1       4.858 -10.562 -25.459  1.00  0.00     0.056 C 
BRANCH  40  41
HETATM   41  C18 UNL     1       4.519 -11.766 -26.343  1.00  0.00     0.209 C 
BRANCH  41  42
HETATM   42  O2  UNL     1       5.186 -11.644 -27.589  1.00  0.00    -0.221 OA
BRANCH  42  43
HETATM   43  N8  UNL     1       5.856 -12.686 -28.163  1.00  0.00     0.004 N 
HETATM   44  O3  UNL     1       6.156 -13.714 -27.523  1.00  0.00    -0.511 OA
HETATM   45  O4  UNL     1       6.217 -12.618 -29.485  1.00  0.00    -0.511 OA
ENDBRANCH  42  43
ENDBRANCH  41  42
ENDBRANCH  40  41
ENDBRANCH  39  40
ENDBRANCH  36  39
ENDBRANCH  16  36
TORSDOF 13
ENDMDL
