MODEL 1
REMARK VINA RESULT: -10.734366033      0.000      0.000
REMARK  11 active torsions:
REMARK  status: ('A' for Active; 'I' for Inactive)
REMARK    1  A    between atoms: O1_2  and  C2_3 
REMARK    2  A    between atoms: C2_3  and  C3_4 
REMARK    3  A    between atoms: C6_8  and  C7_9 
REMARK    4  A    between atoms: C7_9  and  N2_10 
REMARK    5  A    between atoms: N2_10  and  C8_11 
REMARK    6  A    between atoms: N2_10  and  C9_13 
REMARK    7  A    between atoms: C9_13  and  C10_14 
REMARK    8  A    between atoms: C10_14  and  C11_15 
REMARK    9  A    between atoms: C11_15  and  C12_16 
REMARK   10  A    between atoms: C14_18  and  C15_19 
REMARK   11  A    between atoms: C16_20  and  C17_21 
ROOT
HETATM    1  C12 UNL     1      -6.716  55.332  -5.283  1.00  0.00    -0.028 A 
HETATM    2  C13 UNL     1      -6.445  56.456  -4.487  1.00  0.00     0.030 A 
HETATM    3  C14 UNL     1      -7.332  56.952  -3.571  1.00  0.00     0.019 A 
HETATM    4  C23 UNL     1      -8.534  56.287  -3.458  1.00  0.00     0.036 A 
HETATM    5  C24 UNL     1      -8.845  55.179  -4.216  1.00  0.00     0.011 A 
HETATM    6  C25 UNL     1      -9.933  54.329  -4.296  1.00  0.00     0.120 A 
HETATM    7  N5  UNL     1      -9.708  53.374  -5.212  1.00  0.00    -0.311 N 
ATOM      8  H5  UNL     1     -10.341  52.618  -5.473  1.00  0.00     0.186 HD
HETATM    9  N6  UNL     1      -8.513  53.601  -5.705  1.00  0.00    -0.300 N 
ATOM     10  H6  UNL     1      -8.073  53.030  -6.426  1.00  0.00     0.187 HD
HETATM   11  C26 UNL     1      -7.934  54.695  -5.135  1.00  0.00     0.066 A 
ENDROOT
BRANCH   1  12
HETATM   12  C11 UNL     1      -5.744  54.865  -6.276  1.00  0.00     0.042 C 
BRANCH  12  13
HETATM   13  C10 UNL     1      -4.552  54.127  -5.758  1.00  0.00     0.025 C 
BRANCH  13  14
HETATM   14  C9  UNL     1      -3.921  53.137  -6.657  1.00  0.00     0.125 C 
BRANCH  14  15
HETATM   15  N2  UNL     1      -4.097  51.746  -6.201  1.00  0.00    -0.357 N 
BRANCH  15  16
HETATM   16  C7  UNL     1      -4.811  50.800  -6.973  1.00  0.00     0.165 C 
BRANCH  16  17
HETATM   17  C6  UNL     1      -6.240  51.150  -7.372  1.00  0.00     0.269 C 
HETATM   18  N1  UNL     1      -6.431  51.385  -8.716  1.00  0.00     0.104 N 
HETATM   19  C5  UNL     1      -6.550  52.762  -9.169  1.00  0.00     0.274 C 
HETATM   20  C31 UNL     1      -7.643  50.851  -9.272  1.00  0.00     0.233 C 
HETATM   21  C4  UNL     1      -6.803  52.555 -10.663  1.00  0.00     0.039 C 
HETATM   22  C3  UNL     1      -7.705  51.340 -10.682  1.00  0.00     0.045 C 
HETATM   23  C30 UNL     1      -7.618  49.356  -9.101  1.00  0.00     0.063 C 
HETATM   24  C29 UNL     1      -7.797  49.230  -7.581  1.00  0.00    -0.020 C 
HETATM   25  C27 UNL     1      -7.141  50.085  -6.816  1.00  0.00    -0.053 C 
HETATM   26  C28 UNL     1      -7.292  49.998  -5.313  1.00  0.00     0.045 C 
BRANCH  22  27
HETATM   27  C2  UNL     1      -7.286  50.328 -11.702  1.00  0.00     0.173 C 
BRANCH  27  28
HETATM   28  O1  UNL     1      -8.116  50.285 -12.808  1.00  0.00    -0.396 OA
HETATM   29  C1  UNL     1      -8.821  49.080 -12.758  1.00  0.00     0.201 C 
ENDBRANCH  27  28
ENDBRANCH  22  27
ENDBRANCH  16  17
ENDBRANCH  15  16
BRANCH  15  30
HETATM   30  C8  UNL     1      -3.567  51.416  -4.932  1.00  0.00     0.350 C 
HETATM   31  O2  UNL     1      -3.954  50.381  -4.360  1.00  0.00    -0.284 OA
ENDBRANCH  15  30
ENDBRANCH  14  15
ENDBRANCH  13  14
ENDBRANCH  12  13
ENDBRANCH   1  12
BRANCH   3  32
HETATM   32  C15 UNL     1      -7.018  58.111  -2.768  1.00  0.00    -0.061 C 
HETATM   33  C16 UNL     1      -6.751  59.092  -2.117  1.00  0.00    -0.057 C 
BRANCH  33  34
HETATM   34  C17 UNL     1      -6.428  60.270  -1.365  1.00  0.00     0.069 A 
HETATM   35  C18 UNL     1      -6.723  61.549  -1.841  1.00  0.00    -0.015 A 
HETATM   36  C19 UNL     1      -7.393  61.618  -3.170  1.00  0.00     0.052 C 
HETATM   37  C20 UNL     1      -6.411  62.676  -1.116  1.00  0.00     0.080 A 
HETATM   38 CL1  UNL     1      -6.787  64.264  -1.728  1.00  0.00    -0.080 Cl
HETATM   39  C21 UNL     1      -5.794  62.556   0.104  1.00  0.00     0.127 A 
HETATM   40 CL2  UNL     1      -5.385  63.998   1.049  1.00  0.00    -0.063 Cl
HETATM   41  N3  UNL     1      -5.507  61.329   0.567  1.00  0.00    -0.331 N 
HETATM   42  C22 UNL     1      -5.810  60.218  -0.136  1.00  0.00     0.119 A 
ATOM     43  H3  UNL     1      -5.049  61.234   1.473  1.00  0.00     0.168 HD
HETATM   44  N4  UNL     1      -5.519  59.035   0.339  1.00  0.00    -0.384 N 
ATOM     45  H42 UNL     1      -5.748  58.195  -0.192  1.00  0.00     0.157 HD
ATOM     46  H41 UNL     1      -5.061  58.997   1.249  1.00  0.00     0.157 HD
ENDBRANCH  33  34
ENDBRANCH   3  32
TORSDOF 11
ENDMDL
MODEL 2
REMARK VINA RESULT: -10.653777558      0.963      1.515
REMARK  11 active torsions:
REMARK  status: ('A' for Active; 'I' for Inactive)
REMARK    1  A    between atoms: O1_2  and  C2_3 
REMARK    2  A    between atoms: C2_3  and  C3_4 
REMARK    3  A    between atoms: C6_8  and  C7_9 
REMARK    4  A    between atoms: C7_9  and  N2_10 
REMARK    5  A    between atoms: N2_10  and  C8_11 
REMARK    6  A    between atoms: N2_10  and  C9_13 
REMARK    7  A    between atoms: C9_13  and  C10_14 
REMARK    8  A    between atoms: C10_14  and  C11_15 
REMARK    9  A    between atoms: C11_15  and  C12_16 
REMARK   10  A    between atoms: C14_18  and  C15_19 
REMARK   11  A    between atoms: C16_20  and  C17_21 
ROOT
HETATM    1  C12 UNL     1      -6.793  55.186  -5.401  1.00  0.00    -0.028 A 
HETATM    2  C13 UNL     1      -6.473  56.276  -4.577  1.00  0.00     0.030 A 
HETATM    3  C14 UNL     1      -7.317  56.752  -3.611  1.00  0.00     0.019 A 
HETATM    4  C23 UNL     1      -8.525  56.103  -3.475  1.00  0.00     0.036 A 
HETATM    5  C24 UNL     1      -8.883  55.027  -4.260  1.00  0.00     0.011 A 
HETATM    6  C25 UNL     1      -9.987  54.197  -4.328  1.00  0.00     0.120 A 
HETATM    7  N5  UNL     1      -9.813  53.273  -5.285  1.00  0.00    -0.311 N 
ATOM      8  H5  UNL     1     -10.468  52.537  -5.548  1.00  0.00     0.186 HD
HETATM    9  N6  UNL     1      -8.634  53.499  -5.815  1.00  0.00    -0.300 N 
ATOM     10  H6  UNL     1      -8.231  52.947  -6.572  1.00  0.00     0.187 HD
HETATM   11  C26 UNL     1      -8.015  54.563  -5.229  1.00  0.00     0.066 A 
ENDROOT
BRANCH   1  12
HETATM   12  C11 UNL     1      -5.867  54.740  -6.446  1.00  0.00     0.042 C 
BRANCH  12  13
HETATM   13  C10 UNL     1      -4.545  54.207  -5.995  1.00  0.00     0.025 C 
BRANCH  13  14
HETATM   14  C9  UNL     1      -3.910  53.165  -6.829  1.00  0.00     0.125 C 
BRANCH  14  15
HETATM   15  N2  UNL     1      -4.140  51.799  -6.325  1.00  0.00    -0.357 N 
BRANCH  15  16
HETATM   16  C7  UNL     1      -4.861  50.844  -7.079  1.00  0.00     0.165 C 
BRANCH  16  17
HETATM   17  C6  UNL     1      -6.283  51.202  -7.494  1.00  0.00     0.269 C 
HETATM   18  N1  UNL     1      -6.462  51.417  -8.843  1.00  0.00     0.104 N 
HETATM   19  C5  UNL     1      -6.564  52.787  -9.319  1.00  0.00     0.274 C 
HETATM   20  C31 UNL     1      -7.675  50.886  -9.399  1.00  0.00     0.233 C 
HETATM   21  C4  UNL     1      -6.808  52.558 -10.811  1.00  0.00     0.039 C 
HETATM   22  C3  UNL     1      -7.722  51.352 -10.818  1.00  0.00     0.045 C 
HETATM   23  C30 UNL     1      -7.667  49.394  -9.204  1.00  0.00     0.063 C 
HETATM   24  C29 UNL     1      -7.858  49.294  -7.683  1.00  0.00    -0.020 C 
HETATM   25  C27 UNL     1      -7.199  50.155  -6.927  1.00  0.00    -0.053 C 
HETATM   26  C28 UNL     1      -7.361  50.095  -5.424  1.00  0.00     0.045 C 
BRANCH  22  27
HETATM   27  C2  UNL     1      -7.306  50.320 -11.818  1.00  0.00     0.173 C 
BRANCH  27  28
HETATM   28  O1  UNL     1      -8.186  50.193 -12.877  1.00  0.00    -0.396 OA
HETATM   29  C1  UNL     1      -8.841  48.967 -12.736  1.00  0.00     0.201 C 
ENDBRANCH  27  28
ENDBRANCH  22  27
ENDBRANCH  16  17
ENDBRANCH  15  16
BRANCH  15  30
HETATM   30  C8  UNL     1      -3.654  51.505  -5.029  1.00  0.00     0.350 C 
HETATM   31  O2  UNL     1      -3.991  50.441  -4.479  1.00  0.00    -0.284 OA
ENDBRANCH  15  30
ENDBRANCH  14  15
ENDBRANCH  13  14
ENDBRANCH  12  13
ENDBRANCH   1  12
BRANCH   3  32
HETATM   32  C15 UNL     1      -6.953  57.877  -2.780  1.00  0.00    -0.061 C 
HETATM   33  C16 UNL     1      -6.641  58.827  -2.104  1.00  0.00    -0.057 C 
BRANCH  33  34
HETATM   34  C17 UNL     1      -6.259  59.968  -1.323  1.00  0.00     0.069 A 
HETATM   35  C18 UNL     1      -6.262  59.936   0.073  1.00  0.00    -0.015 A 
HETATM   36  C19 UNL     1      -6.680  58.652   0.702  1.00  0.00     0.052 C 
HETATM   37  C20 UNL     1      -5.896  61.033   0.818  1.00  0.00     0.080 A 
HETATM   38 CL1  UNL     1      -5.905  60.974   2.560  1.00  0.00    -0.080 Cl
HETATM   39  C21 UNL     1      -5.517  62.193   0.188  1.00  0.00     0.127 A 
HETATM   40 CL2  UNL     1      -5.044  63.615   1.134  1.00  0.00    -0.063 Cl
HETATM   41  N3  UNL     1      -5.514  62.230  -1.153  1.00  0.00    -0.331 N 
HETATM   42  C22 UNL     1      -5.871  61.159  -1.893  1.00  0.00     0.119 A 
ATOM     43  H3  UNL     1      -5.233  63.089  -1.626  1.00  0.00     0.168 HD
HETATM   44  N4  UNL     1      -5.858  61.223  -3.198  1.00  0.00    -0.384 N 
ATOM     45  H42 UNL     1      -6.127  60.414  -3.757  1.00  0.00     0.157 HD
ATOM     46  H41 UNL     1      -5.570  62.105  -3.620  1.00  0.00     0.157 HD
ENDBRANCH  33  34
ENDBRANCH   3  32
TORSDOF 11
ENDMDL
MODEL 3
REMARK VINA RESULT: -10.468817245      1.557      2.413
REMARK  11 active torsions:
REMARK  status: ('A' for Active; 'I' for Inactive)
REMARK    1  A    between atoms: O1_2  and  C2_3 
REMARK    2  A    between atoms: C2_3  and  C3_4 
REMARK    3  A    between atoms: C6_8  and  C7_9 
REMARK    4  A    between atoms: C7_9  and  N2_10 
REMARK    5  A    between atoms: N2_10  and  C8_11 
REMARK    6  A    between atoms: N2_10  and  C9_13 
REMARK    7  A    between atoms: C9_13  and  C10_14 
REMARK    8  A    between atoms: C10_14  and  C11_15 
REMARK    9  A    between atoms: C11_15  and  C12_16 
REMARK   10  A    between atoms: C14_18  and  C15_19 
REMARK   11  A    between atoms: C16_20  and  C17_21 
ROOT
HETATM    1  C12 UNL     1      -6.834  55.367  -5.267  1.00  0.00    -0.028 A 
HETATM    2  C13 UNL     1      -6.522  56.481  -4.473  1.00  0.00     0.030 A 
HETATM    3  C14 UNL     1      -7.369  56.977  -3.519  1.00  0.00     0.019 A 
HETATM    4  C23 UNL     1      -8.571  56.323  -3.365  1.00  0.00     0.036 A 
HETATM    5  C24 UNL     1      -8.922  55.224  -4.120  1.00  0.00     0.011 A 
HETATM    6  C25 UNL     1     -10.020  54.384  -4.165  1.00  0.00     0.120 A 
HETATM    7  N5  UNL     1      -9.839  53.435  -5.096  1.00  0.00    -0.311 N 
ATOM      8  H5  UNL     1     -10.489  52.688  -5.339  1.00  0.00     0.186 HD
HETATM    9  N6  UNL     1      -8.662  53.656  -5.633  1.00  0.00    -0.300 N 
ATOM     10  H6  UNL     1      -8.256  53.087  -6.375  1.00  0.00     0.187 HD
HETATM   11  C26 UNL     1      -8.051  54.740  -5.077  1.00  0.00     0.066 A 
ENDROOT
BRANCH   1  12
HETATM   12  C11 UNL     1      -5.905  54.900  -6.300  1.00  0.00     0.042 C 
BRANCH  12  13
HETATM   13  C10 UNL     1      -4.586  54.373  -5.834  1.00  0.00     0.025 C 
BRANCH  13  14
HETATM   14  C9  UNL     1      -4.602  53.217  -4.912  1.00  0.00     0.125 C 
BRANCH  14  15
HETATM   15  N2  UNL     1      -4.346  51.933  -5.588  1.00  0.00    -0.357 N 
BRANCH  15  16
HETATM   16  C7  UNL     1      -4.735  51.715  -6.931  1.00  0.00     0.165 C 
BRANCH  16  17
HETATM   17  C6  UNL     1      -5.513  50.442  -7.241  1.00  0.00     0.269 C 
HETATM   18  N1  UNL     1      -6.855  50.488  -6.931  1.00  0.00     0.104 N 
HETATM   19  C5  UNL     1      -7.311  49.818  -5.724  1.00  0.00     0.274 C 
HETATM   20  C31 UNL     1      -7.732  49.870  -7.886  1.00  0.00     0.233 C 
HETATM   21  C4  UNL     1      -8.817  50.065  -5.806  1.00  0.00     0.039 C 
HETATM   22  C3  UNL     1      -9.099  49.914  -7.285  1.00  0.00     0.045 C 
HETATM   23  C30 UNL     1      -7.575  50.587  -9.200  1.00  0.00     0.063 C 
HETATM   24  C29 UNL     1      -6.167  50.136  -9.615  1.00  0.00    -0.020 C 
HETATM   25  C27 UNL     1      -5.241  50.080  -8.674  1.00  0.00    -0.053 C 
HETATM   26  C28 UNL     1      -3.841  49.638  -9.039  1.00  0.00     0.045 C 
BRANCH  22  27
HETATM   27  C2  UNL     1      -9.971  51.007  -7.820  1.00  0.00     0.173 C 
BRANCH  27  28
HETATM   28  O1  UNL     1     -10.846  51.522  -6.882  1.00  0.00    -0.396 OA
HETATM   29  C1  UNL     1     -11.966  51.999  -7.569  1.00  0.00     0.201 C 
ENDBRANCH  27  28
ENDBRANCH  22  27
ENDBRANCH  16  17
ENDBRANCH  15  16
BRANCH  15  30
HETATM   30  C8  UNL     1      -3.746  50.911  -4.817  1.00  0.00     0.350 C 
HETATM   31  O2  UNL     1      -4.349  50.461  -3.826  1.00  0.00    -0.284 OA
ENDBRANCH  15  30
ENDBRANCH  14  15
ENDBRANCH  13  14
ENDBRANCH  12  13
ENDBRANCH   1  12
BRANCH   3  32
HETATM   32  C15 UNL     1      -7.013  58.127  -2.720  1.00  0.00    -0.061 C 
HETATM   33  C16 UNL     1      -6.721  59.101  -2.069  1.00  0.00    -0.057 C 
BRANCH  33  34
HETATM   34  C17 UNL     1      -6.379  60.274  -1.317  1.00  0.00     0.069 A 
HETATM   35  C18 UNL     1      -6.657  61.558  -1.792  1.00  0.00    -0.015 A 
HETATM   36  C19 UNL     1      -7.329  61.638  -3.119  1.00  0.00     0.052 C 
HETATM   37  C20 UNL     1      -6.326  62.680  -1.068  1.00  0.00     0.080 A 
HETATM   38 CL1  UNL     1      -6.681  64.274  -1.677  1.00  0.00    -0.080 Cl
HETATM   39  C21 UNL     1      -5.709  62.550   0.152  1.00  0.00     0.127 A 
HETATM   40 CL2  UNL     1      -5.276  63.985   1.096  1.00  0.00    -0.063 Cl
HETATM   41  N3  UNL     1      -5.439  61.319   0.613  1.00  0.00    -0.331 N 
HETATM   42  C22 UNL     1      -5.759  60.212  -0.090  1.00  0.00     0.119 A 
ATOM     43  H3  UNL     1      -4.980  61.217   1.518  1.00  0.00     0.168 HD
HETATM   44  N4  UNL     1      -5.484  59.026   0.384  1.00  0.00    -0.384 N 
ATOM     45  H42 UNL     1      -5.727  58.189  -0.148  1.00  0.00     0.157 HD
ATOM     46  H41 UNL     1      -5.025  58.980   1.293  1.00  0.00     0.157 HD
ENDBRANCH  33  34
ENDBRANCH   3  32
TORSDOF 11
ENDMDL
MODEL 4
REMARK VINA RESULT: -10.405701222      3.231      4.544
REMARK  11 active torsions:
REMARK  status: ('A' for Active; 'I' for Inactive)
REMARK    1  A    between atoms: O1_2  and  C2_3 
REMARK    2  A    between atoms: C2_3  and  C3_4 
REMARK    3  A    between atoms: C6_8  and  C7_9 
REMARK    4  A    between atoms: C7_9  and  N2_10 
REMARK    5  A    between atoms: N2_10  and  C8_11 
REMARK    6  A    between atoms: N2_10  and  C9_13 
REMARK    7  A    between atoms: C9_13  and  C10_14 
REMARK    8  A    between atoms: C10_14  and  C11_15 
REMARK    9  A    between atoms: C11_15  and  C12_16 
REMARK   10  A    between atoms: C14_18  and  C15_19 
REMARK   11  A    between atoms: C16_20  and  C17_21 
ROOT
HETATM    1  C12 UNL     1      -8.451  58.364  -4.555  1.00  0.00    -0.028 A 
HETATM    2  C13 UNL     1      -8.869  59.488  -3.826  1.00  0.00     0.030 A 
HETATM    3  C14 UNL     1      -8.159  60.657  -3.787  1.00  0.00     0.019 A 
HETATM    4  C23 UNL     1      -6.987  60.688  -4.510  1.00  0.00     0.036 A 
HETATM    5  C24 UNL     1      -6.536  59.611  -5.243  1.00  0.00     0.011 A 
HETATM    6  C25 UNL     1      -5.441  59.376  -6.054  1.00  0.00     0.120 A 
HETATM    7  N5  UNL     1      -5.493  58.131  -6.553  1.00  0.00    -0.311 N 
ATOM      8  H5  UNL     1      -4.815  57.696  -7.178  1.00  0.00     0.186 HD
HETATM    9  N6  UNL     1      -6.587  57.583  -6.079  1.00  0.00    -0.300 N 
ATOM     10  H6  UNL     1      -6.889  56.632  -6.291  1.00  0.00     0.187 HD
HETATM   11  C26 UNL     1      -7.269  58.441  -5.269  1.00  0.00     0.066 A 
ENDROOT
BRANCH   1  12
HETATM   12  C11 UNL     1      -9.231  57.124  -4.533  1.00  0.00     0.042 C 
BRANCH  12  13
HETATM   13  C10 UNL     1      -8.623  55.957  -3.823  1.00  0.00     0.025 C 
BRANCH  13  14
HETATM   14  C9  UNL     1      -8.397  54.725  -4.609  1.00  0.00     0.125 C 
BRANCH  14  15
HETATM   15  N2  UNL     1      -6.970  54.448  -4.854  1.00  0.00    -0.357 N 
BRANCH  15  16
HETATM   16  C7  UNL     1      -6.552  53.609  -5.913  1.00  0.00     0.165 C 
BRANCH  16  17
HETATM   17  C6  UNL     1      -6.700  52.104  -5.720  1.00  0.00     0.269 C 
HETATM   18  N1  UNL     1      -7.560  51.485  -6.602  1.00  0.00     0.104 N 
HETATM   19  C5  UNL     1      -8.889  51.122  -6.135  1.00  0.00     0.274 C 
HETATM   20  C31 UNL     1      -7.127  50.206  -7.092  1.00  0.00     0.233 C 
HETATM   21  C4  UNL     1      -9.453  50.431  -7.376  1.00  0.00     0.039 C 
HETATM   22  C3  UNL     1      -8.259  49.667  -7.905  1.00  0.00     0.045 C 
HETATM   23  C30 UNL     1      -5.830  50.400  -7.829  1.00  0.00     0.063 C 
HETATM   24  C29 UNL     1      -4.875  50.716  -6.668  1.00  0.00    -0.020 C 
HETATM   25  C27 UNL     1      -5.321  51.509  -5.709  1.00  0.00    -0.053 C 
HETATM   26  C28 UNL     1      -4.415  51.843  -4.545  1.00  0.00     0.045 C 
BRANCH  22  27
HETATM   27  C2  UNL     1      -8.083  49.824  -9.383  1.00  0.00     0.173 C 
BRANCH  27  28
HETATM   28  O1  UNL     1      -9.273  49.795 -10.086  1.00  0.00    -0.396 OA
HETATM   29  C1  UNL     1      -8.992  49.322 -11.370  1.00  0.00     0.201 C 
ENDBRANCH  27  28
ENDBRANCH  22  27
ENDBRANCH  16  17
ENDBRANCH  15  16
BRANCH  15  30
HETATM   30  C8  UNL     1      -6.043  55.014  -3.948  1.00  0.00     0.350 C 
HETATM   31  O2  UNL     1      -5.150  55.766  -4.380  1.00  0.00    -0.284 OA
ENDBRANCH  15  30
ENDBRANCH  14  15
ENDBRANCH  13  14
ENDBRANCH  12  13
ENDBRANCH   1  12
BRANCH   3  32
HETATM   32  C15 UNL     1      -8.621  61.794  -3.024  1.00  0.00    -0.061 C 
HETATM   33  C16 UNL     1      -9.011  62.755  -2.407  1.00  0.00    -0.057 C 
BRANCH  33  34
HETATM   34  C17 UNL     1      -9.478  63.910  -1.696  1.00  0.00     0.069 A 
HETATM   35  C18 UNL     1     -10.831  64.096  -1.403  1.00  0.00    -0.015 A 
HETATM   36  C19 UNL     1     -11.757  63.027  -1.868  1.00  0.00     0.052 C 
HETATM   37  C20 UNL     1     -11.273  65.207  -0.722  1.00  0.00     0.080 A 
HETATM   38 CL1  UNL     1     -12.966  65.421  -0.366  1.00  0.00    -0.080 Cl
HETATM   39  C21 UNL     1     -10.376  66.163  -0.315  1.00  0.00     0.127 A 
HETATM   40 CL2  UNL     1     -10.930  67.599   0.562  1.00  0.00    -0.063 Cl
HETATM   41  N3  UNL     1      -9.074  65.990  -0.594  1.00  0.00    -0.331 N 
HETATM   42  C22 UNL     1      -8.631  64.904  -1.262  1.00  0.00     0.119 A 
ATOM     43  H3  UNL     1      -8.403  66.697  -0.294  1.00  0.00     0.168 HD
HETATM   44  N4  UNL     1      -7.357  64.762  -1.520  1.00  0.00    -0.384 N 
ATOM     45  H42 UNL     1      -7.021  63.941  -2.024  1.00  0.00     0.157 HD
ATOM     46  H41 UNL     1      -6.729  65.498  -1.198  1.00  0.00     0.157 HD
ENDBRANCH  33  34
ENDBRANCH   3  32
TORSDOF 11
ENDMDL
MODEL 5
REMARK VINA RESULT: -10.377979814      3.293      4.435
REMARK  11 active torsions:
REMARK  status: ('A' for Active; 'I' for Inactive)
REMARK    1  A    between atoms: O1_2  and  C2_3 
REMARK    2  A    between atoms: C2_3  and  C3_4 
REMARK    3  A    between atoms: C6_8  and  C7_9 
REMARK    4  A    between atoms: C7_9  and  N2_10 
REMARK    5  A    between atoms: N2_10  and  C8_11 
REMARK    6  A    between atoms: N2_10  and  C9_13 
REMARK    7  A    between atoms: C9_13  and  C10_14 
REMARK    8  A    between atoms: C10_14  and  C11_15 
REMARK    9  A    between atoms: C11_15  and  C12_16 
REMARK   10  A    between atoms: C14_18  and  C15_19 
REMARK   11  A    between atoms: C16_20  and  C17_21 
ROOT
HETATM    1  C12 UNL     1      -8.460  58.328  -4.471  1.00  0.00    -0.028 A 
HETATM    2  C13 UNL     1      -8.903  59.463  -3.774  1.00  0.00     0.030 A 
HETATM    3  C14 UNL     1      -8.217  60.647  -3.766  1.00  0.00     0.019 A 
HETATM    4  C23 UNL     1      -7.044  60.682  -4.488  1.00  0.00     0.036 A 
HETATM    5  C24 UNL     1      -6.568  59.595  -5.189  1.00  0.00     0.011 A 
HETATM    6  C25 UNL     1      -5.466  59.360  -5.990  1.00  0.00     0.120 A 
HETATM    7  N5  UNL     1      -5.492  58.100  -6.454  1.00  0.00    -0.311 N 
ATOM      8  H5  UNL     1      -4.803  57.662  -7.065  1.00  0.00     0.186 HD
HETATM    9  N6  UNL     1      -6.576  57.543  -5.967  1.00  0.00    -0.300 N 
ATOM     10  H6  UNL     1      -6.857  56.581  -6.154  1.00  0.00     0.187 HD
HETATM   11  C26 UNL     1      -7.277  58.409  -5.183  1.00  0.00     0.066 A 
ENDROOT
BRANCH   1  12
HETATM   12  C11 UNL     1      -9.214  57.073  -4.416  1.00  0.00     0.042 C 
BRANCH  12  13
HETATM   13  C10 UNL     1      -8.468  55.855  -3.975  1.00  0.00     0.025 C 
BRANCH  13  14
HETATM   14  C9  UNL     1      -8.964  54.545  -4.448  1.00  0.00     0.125 C 
BRANCH  14  15
HETATM   15  N2  UNL     1      -7.934  53.752  -5.143  1.00  0.00    -0.357 N 
BRANCH  15  16
HETATM   16  C7  UNL     1      -8.251  52.536  -5.792  1.00  0.00     0.165 C 
BRANCH  16  17
HETATM   17  C6  UNL     1      -8.704  52.611  -7.245  1.00  0.00     0.269 C 
HETATM   18  N1  UNL     1      -7.806  52.113  -8.164  1.00  0.00     0.104 N 
HETATM   19  C5  UNL     1      -7.012  53.055  -8.937  1.00  0.00     0.274 C 
HETATM   20  C31 UNL     1      -8.378  51.353  -9.240  1.00  0.00     0.233 C 
HETATM   21  C4  UNL     1      -6.228  52.101  -9.839  1.00  0.00     0.039 C 
HETATM   22  C3  UNL     1      -7.254  51.040 -10.173  1.00  0.00     0.045 C 
HETATM   23  C30 UNL     1      -9.085  50.162  -8.649  1.00  0.00     0.063 C 
HETATM   24  C29 UNL     1     -10.284  50.839  -7.968  1.00  0.00    -0.020 C 
HETATM   25  C27 UNL     1     -10.063  51.975  -7.331  1.00  0.00    -0.053 C 
HETATM   26  C28 UNL     1     -11.217  52.677  -6.649  1.00  0.00     0.045 C 
BRANCH  22  27
HETATM   27  C2  UNL     1      -6.711  49.652 -10.038  1.00  0.00     0.173 C 
BRANCH  27  28
HETATM   28  O1  UNL     1      -6.441  49.045 -11.251  1.00  0.00    -0.396 OA
HETATM   29  C1  UNL     1      -7.541  49.264 -12.084  1.00  0.00     0.201 C 
ENDBRANCH  27  28
ENDBRANCH  22  27
ENDBRANCH  16  17
ENDBRANCH  15  16
BRANCH  15  30
HETATM   30  C8  UNL     1      -6.605  54.234  -5.083  1.00  0.00     0.350 C 
HETATM   31  O2  UNL     1      -6.095  54.742  -6.099  1.00  0.00    -0.284 OA
ENDBRANCH  15  30
ENDBRANCH  14  15
ENDBRANCH  13  14
ENDBRANCH  12  13
ENDBRANCH   1  12
BRANCH   3  32
HETATM   32  C15 UNL     1      -8.705  61.795  -3.037  1.00  0.00    -0.061 C 
HETATM   33  C16 UNL     1      -9.091  62.764  -2.429  1.00  0.00    -0.057 C 
BRANCH  33  34
HETATM   34  C17 UNL     1      -9.526  63.924  -1.707  1.00  0.00     0.069 A 
HETATM   35  C18 UNL     1     -10.870  64.130  -1.388  1.00  0.00    -0.015 A 
HETATM   36  C19 UNL     1     -11.822  63.076  -1.837  1.00  0.00     0.052 C 
HETATM   37  C20 UNL     1     -11.282  65.245  -0.695  1.00  0.00     0.080 A 
HETATM   38 CL1  UNL     1     -12.964  65.485  -0.306  1.00  0.00    -0.080 Cl
HETATM   39  C21 UNL     1     -10.362  66.186  -0.303  1.00  0.00     0.127 A 
HETATM   40 CL2  UNL     1     -10.878  67.628   0.589  1.00  0.00    -0.063 Cl
HETATM   41  N3  UNL     1      -9.070  65.994  -0.607  1.00  0.00    -0.331 N 
HETATM   42  C22 UNL     1      -8.656  64.903  -1.286  1.00  0.00     0.119 A 
ATOM     43  H3  UNL     1      -8.382  66.690  -0.318  1.00  0.00     0.168 HD
HETATM   44  N4  UNL     1      -7.390  64.742  -1.568  1.00  0.00    -0.384 N 
ATOM     45  H42 UNL     1      -7.076  63.917  -2.081  1.00  0.00     0.157 HD
ATOM     46  H41 UNL     1      -6.744  65.467  -1.256  1.00  0.00     0.157 HD
ENDBRANCH  33  34
ENDBRANCH   3  32
TORSDOF 11
ENDMDL
