MODEL 1
REMARK VINA RESULT: -11.944106404      0.000      0.000
REMARK  9 active torsions:
REMARK  status: ('A' for Active; 'I' for Inactive)
REMARK    1  A    between atoms: C2_2  and  N1_4 
REMARK    2  A    between atoms: C2_2  and  C21_25 
REMARK       I    between atoms: N1_4  and  C4_6 
REMARK    3  A    between atoms: C4_6  and  C5_8 
REMARK    4  A    between atoms: C5_8  and  C6_9 
REMARK       I    between atoms: C21_25  and  N2_27 
REMARK    5  A    between atoms: N2_27  and  C22_29 
REMARK    6  A    between atoms: C25_32  and  C26_33 
REMARK    7  A    between atoms: C29_37  and  C30_38 
REMARK       I    between atoms: C30_38  and  N4_40 
REMARK    8  A    between atoms: N4_40  and  C31_42 
REMARK    9  A    between atoms: C31_42  and  C32_43 
ROOT
HETATM    1  C26 UNL     1      -7.126  47.971 -11.097  1.00  0.00     0.128 C 
HETATM    2  C27 UNL     1      -7.825  48.906 -11.950  1.00  0.00     0.059 C 
HETATM    3  N3  UNL     1      -8.391  49.654 -12.613  1.00  0.00    -0.197 NA
ENDROOT
BRANCH   1   4
HETATM    4  C25 UNL     1      -6.781  48.566  -9.749  1.00  0.00    -0.001 C 
HETATM    5  C24 UNL     1      -5.827  49.703 -10.014  1.00  0.00     0.007 C 
HETATM    6  C23 UNL     1      -5.308  50.337  -8.733  1.00  0.00     0.026 C 
HETATM    7  C22 UNL     1      -6.515  50.796  -7.936  1.00  0.00     0.097 C 
HETATM    8  C29 UNL     1      -7.493  49.696  -7.704  1.00  0.00     0.101 C 
HETATM    9  C28 UNL     1      -7.975  49.087  -9.023  1.00  0.00     0.021 C 
BRANCH   7  10
HETATM   10  N2  UNL     1      -6.133  51.376  -6.676  1.00  0.00    -0.353 N 
HETATM   11  C21 UNL     1      -5.663  52.699  -6.528  1.00  0.00     0.245 C 
HETATM   12  O3  UNL     1      -5.554  53.437  -7.519  1.00  0.00    -0.271 OA
ATOM     13  H2  UNL     1      -6.206  50.796  -5.839  1.00  0.00     0.163 HD
BRANCH  11  14
HETATM   14  C2  UNL     1      -5.295  53.220  -5.185  1.00  0.00     0.106 C 
HETATM   15  C1  UNL     1      -5.520  52.103  -4.166  1.00  0.00     0.048 C 
HETATM   16  C3  UNL     1      -3.874  53.679  -5.215  1.00  0.00     0.048 C 
BRANCH  14  17
HETATM   17  N1  UNL     1      -6.141  54.325  -4.802  1.00  0.00    -0.344 N 
HETATM   18  C4  UNL     1      -7.570  54.250  -4.882  1.00  0.00     0.218 C 
HETATM   19  O1  UNL     1      -8.072  53.183  -5.308  1.00  0.00    -0.274 OA
ATOM     20  H1  UNL     1      -5.709  55.184  -4.463  1.00  0.00     0.163 HD
BRANCH  18  21
HETATM   21  C5  UNL     1      -8.409  55.432  -4.461  1.00  0.00     0.108 C 
BRANCH  21  22
HETATM   22  C6  UNL     1      -7.644  56.216  -3.404  1.00  0.00     0.003 C 
HETATM   23  C7  UNL     1      -8.188  56.003  -2.048  1.00  0.00     0.006 C 
HETATM   24  C8  UNL     1      -8.667  57.337  -1.560  1.00  0.00     0.007 C 
HETATM   25  C9  UNL     1      -8.548  58.327  -2.695  1.00  0.00     0.006 C 
HETATM   26  C10 UNL     1      -8.210  59.704  -2.212  1.00  0.00    -0.016 C 
HETATM   27  C19 UNL     1      -7.637  57.705  -3.677  1.00  0.00    -0.035 C 
HETATM   28  C11 UNL     1      -8.628  59.772  -0.732  1.00  0.00     0.020 C 
HETATM   29  C12 UNL     1      -9.005  60.759  -2.907  1.00  0.00     0.022 C 
HETATM   30  C16 UNL     1      -6.765  59.986  -2.244  1.00  0.00    -0.068 C 
HETATM   31  C13 UNL     1      -8.682  62.150  -2.439  1.00  0.00     0.084 C 
HETATM   32  C14 UNL     1      -7.342  62.316  -1.871  1.00  0.00     0.149 C 
HETATM   33  O2  UNL     1      -7.015  63.343  -1.221  1.00  0.00    -0.293 OA
HETATM   34  C15 UNL     1      -6.362  61.228  -2.081  1.00  0.00     0.053 C 
HETATM   35  C17 UNL     1      -5.779  58.914  -2.453  1.00  0.00     0.036 C 
HETATM   36  C18 UNL     1      -6.217  58.166  -3.689  1.00  0.00     0.014 C 
HETATM   37  C20 UNL     1      -8.183  57.929  -5.098  1.00  0.00     0.016 C 
ENDBRANCH  21  22
ENDBRANCH  18  21
ENDBRANCH  14  17
ENDBRANCH  11  14
ENDBRANCH   7  10
BRANCH   8  38
HETATM   38  C30 UNL     1      -8.653  50.185  -6.943  1.00  0.00     0.224 C 
HETATM   39  O4  UNL     1      -8.799  49.754  -5.749  1.00  0.00    -0.273 OA
HETATM   40  N4  UNL     1      -9.611  51.088  -7.432  1.00  0.00    -0.352 N 
ATOM     41  H4  UNL     1      -9.525  51.452  -8.380  1.00  0.00     0.162 HD
BRANCH  40  42
HETATM   42  C31 UNL     1     -10.715  51.504  -6.602  1.00  0.00     0.239 C 
BRANCH  42  43
HETATM   43  C32 UNL     1     -11.890  52.014  -7.387  1.00  0.00     0.403 C 
HETATM   44  F1  UNL     1     -11.542  52.860  -8.410  1.00  0.00    -0.169 F 
HETATM   45  F2  UNL     1     -12.683  50.993  -7.884  1.00  0.00    -0.169 F 
HETATM   46  F3  UNL     1     -12.681  52.748  -6.505  1.00  0.00    -0.169 F 
ENDBRANCH  42  43
ENDBRANCH  40  42
ENDBRANCH   8  38
ENDBRANCH   1   4
TORSDOF 9
ENDMDL
MODEL 2
REMARK VINA RESULT: -11.665083332      2.599     10.149
REMARK  9 active torsions:
REMARK  status: ('A' for Active; 'I' for Inactive)
REMARK    1  A    between atoms: C2_2  and  N1_4 
REMARK    2  A    between atoms: C2_2  and  C21_25 
REMARK       I    between atoms: N1_4  and  C4_6 
REMARK    3  A    between atoms: C4_6  and  C5_8 
REMARK    4  A    between atoms: C5_8  and  C6_9 
REMARK       I    between atoms: C21_25  and  N2_27 
REMARK    5  A    between atoms: N2_27  and  C22_29 
REMARK    6  A    between atoms: C25_32  and  C26_33 
REMARK    7  A    between atoms: C29_37  and  C30_38 
REMARK       I    between atoms: C30_38  and  N4_40 
REMARK    8  A    between atoms: N4_40  and  C31_42 
REMARK    9  A    between atoms: C31_42  and  C32_43 
ROOT
HETATM    1  C26 UNL     1      -8.308  60.998  -4.352  1.00  0.00     0.128 C 
HETATM    2  C27 UNL     1      -7.911  61.189  -2.974  1.00  0.00     0.059 C 
HETATM    3  N3  UNL     1      -7.603  61.322  -1.876  1.00  0.00    -0.197 NA
ENDROOT
BRANCH   1   4
HETATM    4  C25 UNL     1      -7.936  59.628  -4.876  1.00  0.00    -0.001 C 
HETATM    5  C24 UNL     1      -6.443  59.498  -4.712  1.00  0.00     0.007 C 
HETATM    6  C23 UNL     1      -5.906  58.200  -5.296  1.00  0.00     0.026 C 
HETATM    7  C22 UNL     1      -6.643  57.061  -4.617  1.00  0.00     0.097 C 
HETATM    8  C29 UNL     1      -8.123  57.197  -4.727  1.00  0.00     0.101 C 
HETATM    9  C28 UNL     1      -8.609  58.523  -4.135  1.00  0.00     0.021 C 
BRANCH   7  10
HETATM   10  N2  UNL     1      -6.236  55.780  -5.133  1.00  0.00    -0.353 N 
HETATM   11  C21 UNL     1      -5.385  54.889  -4.444  1.00  0.00     0.245 C 
HETATM   12  O3  UNL     1      -4.935  55.192  -3.329  1.00  0.00    -0.271 OA
ATOM     13  H2  UNL     1      -6.584  55.500  -6.050  1.00  0.00     0.163 HD
BRANCH  11  14
HETATM   14  C2  UNL     1      -5.021  53.581  -5.049  1.00  0.00     0.106 C 
HETATM   15  C1  UNL     1      -3.536  53.625  -5.412  1.00  0.00     0.048 C 
HETATM   16  C3  UNL     1      -5.332  52.492  -4.075  1.00  0.00     0.048 C 
BRANCH  14  17
HETATM   17  N1  UNL     1      -5.752  53.346  -6.271  1.00  0.00    -0.344 N 
HETATM   18  C4  UNL     1      -7.157  53.063  -6.272  1.00  0.00     0.218 C 
HETATM   19  O1  UNL     1      -7.740  53.019  -5.163  1.00  0.00    -0.274 OA
ATOM     20  H1  UNL     1      -5.255  53.383  -7.160  1.00  0.00     0.163 HD
BRANCH  18  21
HETATM   21  C5  UNL     1      -7.876  52.833  -7.578  1.00  0.00     0.108 C 
BRANCH  21  22
HETATM   22  C6  UNL     1      -6.926  52.128  -8.535  1.00  0.00     0.003 C 
HETATM   23  C7  UNL     1      -6.539  52.987  -9.672  1.00  0.00     0.006 C 
HETATM   24  C8  UNL     1      -7.035  52.312 -10.913  1.00  0.00     0.007 C 
HETATM   25  C9  UNL     1      -7.861  51.114 -10.504  1.00  0.00     0.006 C 
HETATM   26  C10 UNL     1      -7.734  49.981 -11.476  1.00  0.00    -0.016 C 
HETATM   27  C19 UNL     1      -7.510  50.847  -9.095  1.00  0.00    -0.035 C 
HETATM   28  C11 UNL     1      -7.263  50.588 -12.809  1.00  0.00     0.020 C 
HETATM   29  C12 UNL     1      -9.049  49.335 -11.765  1.00  0.00     0.022 C 
HETATM   30  C16 UNL     1      -6.708  48.999 -11.085  1.00  0.00    -0.068 C 
HETATM   31  C13 UNL     1      -8.947  48.193 -12.738  1.00  0.00     0.084 C 
HETATM   32  C14 UNL     1      -7.637  47.540 -12.790  1.00  0.00     0.149 C 
HETATM   33  O2  UNL     1      -7.325  46.744 -13.713  1.00  0.00    -0.293 OA
HETATM   34  C15 UNL     1      -6.669  47.845 -11.714  1.00  0.00     0.053 C 
HETATM   35  C17 UNL     1      -5.739  49.289 -10.016  1.00  0.00     0.036 C 
HETATM   36  C18 UNL     1      -6.544  49.742  -8.821  1.00  0.00     0.014 C 
HETATM   37  C20 UNL     1      -8.786  50.522  -8.301  1.00  0.00     0.016 C 
ENDBRANCH  21  22
ENDBRANCH  18  21
ENDBRANCH  14  17
ENDBRANCH  11  14
ENDBRANCH   7  10
BRANCH   8  38
HETATM   38  C30 UNL     1      -8.799  56.085  -4.044  1.00  0.00     0.224 C 
HETATM   39  O4  UNL     1      -8.449  55.831  -2.841  1.00  0.00    -0.273 OA
HETATM   40  N4  UNL     1      -9.798  55.280  -4.615  1.00  0.00    -0.352 N 
ATOM     41  H4  UNL     1     -10.103  55.454  -5.573  1.00  0.00     0.162 HD
BRANCH  40  42
HETATM   42  C31 UNL     1     -10.398  54.209  -3.857  1.00  0.00     0.239 C 
BRANCH  42  43
HETATM   43  C32 UNL     1     -11.376  53.392  -4.653  1.00  0.00     0.403 C 
HETATM   44  F1  UNL     1     -10.780  52.537  -5.545  1.00  0.00    -0.169 F 
HETATM   45  F2  UNL     1     -12.254  52.680  -3.851  1.00  0.00    -0.169 F 
HETATM   46  F3  UNL     1     -12.143  54.286  -5.397  1.00  0.00    -0.169 F 
ENDBRANCH  42  43
ENDBRANCH  40  42
ENDBRANCH   8  38
ENDBRANCH   1   4
TORSDOF 9
ENDMDL
MODEL 3
REMARK VINA RESULT: -11.513123419      1.439      1.574
REMARK  9 active torsions:
REMARK  status: ('A' for Active; 'I' for Inactive)
REMARK    1  A    between atoms: C2_2  and  N1_4 
REMARK    2  A    between atoms: C2_2  and  C21_25 
REMARK       I    between atoms: N1_4  and  C4_6 
REMARK    3  A    between atoms: C4_6  and  C5_8 
REMARK    4  A    between atoms: C5_8  and  C6_9 
REMARK       I    between atoms: C21_25  and  N2_27 
REMARK    5  A    between atoms: N2_27  and  C22_29 
REMARK    6  A    between atoms: C25_32  and  C26_33 
REMARK    7  A    between atoms: C29_37  and  C30_38 
REMARK       I    between atoms: C30_38  and  N4_40 
REMARK    8  A    between atoms: N4_40  and  C31_42 
REMARK    9  A    between atoms: C31_42  and  C32_43 
ROOT
HETATM    1  C26 UNL     1      -8.037  48.686 -12.391  1.00  0.00     0.128 C 
HETATM    2  C27 UNL     1      -7.606  47.351 -12.741  1.00  0.00     0.059 C 
HETATM    3  N3  UNL     1      -7.247  46.292 -13.008  1.00  0.00    -0.197 NA
ENDROOT
BRANCH   1   4
HETATM    4  C25 UNL     1      -7.848  48.987 -10.920  1.00  0.00    -0.001 C 
HETATM    5  C24 UNL     1      -6.426  49.460 -10.758  1.00  0.00     0.007 C 
HETATM    6  C23 UNL     1      -6.056  49.704  -9.303  1.00  0.00     0.026 C 
HETATM    7  C22 UNL     1      -7.046  50.711  -8.749  1.00  0.00     0.097 C 
HETATM    8  C29 UNL     1      -8.461  50.282  -8.942  1.00  0.00     0.101 C 
HETATM    9  C28 UNL     1      -8.776  50.041 -10.421  1.00  0.00     0.021 C 
BRANCH   7  10
HETATM   10  N2  UNL     1      -6.810  50.981  -7.355  1.00  0.00    -0.353 N 
HETATM   11  C21 UNL     1      -6.035  52.063  -6.883  1.00  0.00     0.245 C 
HETATM   12  O3  UNL     1      -5.506  52.847  -7.684  1.00  0.00    -0.271 OA
ATOM     13  H2  UNL     1      -7.227  50.352  -6.668  1.00  0.00     0.163 HD
BRANCH  11  14
HETATM   14  C2  UNL     1      -5.847  52.270  -5.424  1.00  0.00     0.106 C 
HETATM   15  C1  UNL     1      -6.010  50.919  -4.728  1.00  0.00     0.048 C 
HETATM   16  C3  UNL     1      -4.499  52.868  -5.187  1.00  0.00     0.048 C 
BRANCH  14  17
HETATM   17  N1  UNL     1      -6.856  53.152  -4.885  1.00  0.00    -0.344 N 
HETATM   18  C4  UNL     1      -6.711  54.578  -4.914  1.00  0.00     0.218 C 
HETATM   19  O1  UNL     1      -5.665  55.044  -5.423  1.00  0.00    -0.274 OA
ATOM     20  H1  UNL     1      -7.696  52.748  -4.472  1.00  0.00     0.163 HD
BRANCH  18  21
HETATM   21  C5  UNL     1      -7.799  55.454  -4.344  1.00  0.00     0.108 C 
BRANCH  21  22
HETATM   22  C6  UNL     1      -7.198  56.320  -3.247  1.00  0.00     0.003 C 
HETATM   23  C7  UNL     1      -7.787  56.034  -1.924  1.00  0.00     0.006 C 
HETATM   24  C8  UNL     1      -8.454  57.295  -1.465  1.00  0.00     0.007 C 
HETATM   25  C9  UNL     1      -8.395  58.299  -2.592  1.00  0.00     0.006 C 
HETATM   26  C10 UNL     1      -8.257  59.704  -2.091  1.00  0.00    -0.016 C 
HETATM   27  C19 UNL     1      -7.360  57.801  -3.520  1.00  0.00    -0.035 C 
HETATM   28  C11 UNL     1      -8.764  59.711  -0.638  1.00  0.00     0.020 C 
HETATM   29  C12 UNL     1      -9.136  60.657  -2.832  1.00  0.00     0.022 C 
HETATM   30  C16 UNL     1      -6.858  60.163  -2.042  1.00  0.00    -0.068 C 
HETATM   31  C13 UNL     1      -9.014  62.075  -2.347  1.00  0.00     0.084 C 
HETATM   32  C14 UNL     1      -7.739  62.401  -1.704  1.00  0.00     0.149 C 
HETATM   33  O2  UNL     1      -7.579  63.457  -1.038  1.00  0.00    -0.293 OA
HETATM   34  C15 UNL     1      -6.622  61.444  -1.857  1.00  0.00     0.053 C 
HETATM   35  C17 UNL     1      -5.738  59.221  -2.193  1.00  0.00     0.036 C 
HETATM   36  C18 UNL     1      -6.009  58.433  -3.452  1.00  0.00     0.014 C 
HETATM   37  C20 UNL     1      -7.848  57.964  -4.970  1.00  0.00     0.016 C 
ENDBRANCH  21  22
ENDBRANCH  18  21
ENDBRANCH  14  17
ENDBRANCH  11  14
ENDBRANCH   7  10
BRANCH   8  38
HETATM   38  C30 UNL     1      -9.387  51.291  -8.407  1.00  0.00     0.224 C 
HETATM   39  O4  UNL     1      -9.101  52.520  -8.608  1.00  0.00    -0.273 OA
HETATM   40  N4  UNL     1     -10.560  51.005  -7.692  1.00  0.00    -0.352 N 
ATOM     41  H4  UNL     1     -10.821  50.035  -7.513  1.00  0.00     0.162 HD
BRANCH  40  42
HETATM   42  C31 UNL     1     -11.402  52.071  -7.207  1.00  0.00     0.239 C 
BRANCH  42  43
HETATM   43  C32 UNL     1     -11.125  52.446  -5.779  1.00  0.00     0.403 C 
HETATM   44  F1  UNL     1     -10.174  53.424  -5.641  1.00  0.00    -0.169 F 
HETATM   45  F2  UNL     1     -12.271  52.819  -5.094  1.00  0.00    -0.169 F 
HETATM   46  F3  UNL     1     -10.631  51.306  -5.148  1.00  0.00    -0.169 F 
ENDBRANCH  42  43
ENDBRANCH  40  42
ENDBRANCH   8  38
ENDBRANCH   1   4
TORSDOF 9
ENDMDL
MODEL 4
REMARK VINA RESULT: -11.505291026      1.848      2.680
REMARK  9 active torsions:
REMARK  status: ('A' for Active; 'I' for Inactive)
REMARK    1  A    between atoms: C2_2  and  N1_4 
REMARK    2  A    between atoms: C2_2  and  C21_25 
REMARK       I    between atoms: N1_4  and  C4_6 
REMARK    3  A    between atoms: C4_6  and  C5_8 
REMARK    4  A    between atoms: C5_8  and  C6_9 
REMARK       I    between atoms: C21_25  and  N2_27 
REMARK    5  A    between atoms: N2_27  and  C22_29 
REMARK    6  A    between atoms: C25_32  and  C26_33 
REMARK    7  A    between atoms: C29_37  and  C30_38 
REMARK       I    between atoms: C30_38  and  N4_40 
REMARK    8  A    between atoms: N4_40  and  C31_42 
REMARK    9  A    between atoms: C31_42  and  C32_43 
ROOT
HETATM    1  C26 UNL     1      -8.027  48.658 -12.394  1.00  0.00     0.128 C 
HETATM    2  C27 UNL     1      -7.599  47.343 -12.816  1.00  0.00     0.059 C 
HETATM    3  N3  UNL     1      -7.242  46.301 -13.142  1.00  0.00    -0.197 NA
ENDROOT
BRANCH   1   4
HETATM    4  C25 UNL     1      -7.786  48.898 -10.919  1.00  0.00    -0.001 C 
HETATM    5  C24 UNL     1      -6.324  49.236 -10.774  1.00  0.00     0.007 C 
HETATM    6  C23 UNL     1      -5.907  49.402  -9.320  1.00  0.00     0.026 C 
HETATM    7  C22 UNL     1      -6.791  50.478  -8.718  1.00  0.00     0.097 C 
HETATM    8  C29 UNL     1      -8.242  50.185  -8.894  1.00  0.00     0.101 C 
HETATM    9  C28 UNL     1      -8.605  50.017 -10.372  1.00  0.00     0.021 C 
BRANCH   7  10
HETATM   10  N2  UNL     1      -6.506  50.684  -7.323  1.00  0.00    -0.353 N 
HETATM   11  C21 UNL     1      -5.282  51.193  -6.837  1.00  0.00     0.245 C 
HETATM   12  O3  UNL     1      -4.372  51.488  -7.625  1.00  0.00    -0.271 OA
ATOM     13  H2  UNL     1      -7.231  50.448  -6.646  1.00  0.00     0.163 HD
BRANCH  11  14
HETATM   14  C2  UNL     1      -5.074  51.380  -5.377  1.00  0.00     0.106 C 
HETATM   15  C1  UNL     1      -6.387  51.049  -4.666  1.00  0.00     0.048 C 
HETATM   16  C3  UNL     1      -3.952  50.502  -4.929  1.00  0.00     0.048 C 
BRANCH  14  17
HETATM   17  N1  UNL     1      -4.753  52.752  -5.064  1.00  0.00    -0.344 N 
HETATM   18  C4  UNL     1      -5.615  53.837  -5.433  1.00  0.00     0.218 C 
HETATM   19  O1  UNL     1      -6.669  53.555  -6.050  1.00  0.00    -0.274 OA
ATOM     20  H1  UNL     1      -3.887  52.956  -4.566  1.00  0.00     0.163 HD
BRANCH  18  21
HETATM   21  C5  UNL     1      -5.236  55.252  -5.075  1.00  0.00     0.108 C 
BRANCH  21  22
HETATM   22  C6  UNL     1      -6.391  56.172  -5.447  1.00  0.00     0.003 C 
HETATM   23  C7  UNL     1      -6.007  57.164  -6.470  1.00  0.00     0.006 C 
HETATM   24  C8  UNL     1      -6.167  58.516  -5.843  1.00  0.00     0.007 C 
HETATM   25  C9  UNL     1      -6.502  58.324  -4.383  1.00  0.00     0.006 C 
HETATM   26  C10 UNL     1      -7.421  59.390  -3.869  1.00  0.00    -0.016 C 
HETATM   27  C19 UNL     1      -6.944  56.921  -4.253  1.00  0.00    -0.035 C 
HETATM   28  C11 UNL     1      -7.280  60.595  -4.815  1.00  0.00     0.020 C 
HETATM   29  C12 UNL     1      -7.015  59.884  -2.520  1.00  0.00     0.022 C 
HETATM   30  C16 UNL     1      -8.840  58.996  -3.912  1.00  0.00    -0.068 C 
HETATM   31  C13 UNL     1      -7.924  60.953  -1.982  1.00  0.00     0.084 C 
HETATM   32  C14 UNL     1      -9.288  60.934  -2.517  1.00  0.00     0.149 C 
HETATM   33  O2  UNL     1     -10.081  61.897  -2.355  1.00  0.00    -0.293 OA
HETATM   34  C15 UNL     1      -9.718  59.735  -3.269  1.00  0.00     0.053 C 
HETATM   35  C17 UNL     1      -9.282  57.806  -4.655  1.00  0.00     0.036 C 
HETATM   36  C18 UNL     1      -8.413  56.663  -4.187  1.00  0.00     0.014 C 
HETATM   37  C20 UNL     1      -6.333  56.306  -2.982  1.00  0.00     0.016 C 
ENDBRANCH  21  22
ENDBRANCH  18  21
ENDBRANCH  14  17
ENDBRANCH  11  14
ENDBRANCH   7  10
BRANCH   8  38
HETATM   38  C30 UNL     1      -9.062  51.257  -8.312  1.00  0.00     0.224 C 
HETATM   39  O4  UNL     1      -8.660  52.460  -8.471  1.00  0.00    -0.273 OA
HETATM   40  N4  UNL     1     -10.254  51.058  -7.596  1.00  0.00    -0.352 N 
ATOM     41  H4  UNL     1     -10.605  50.111  -7.451  1.00  0.00     0.162 HD
BRANCH  40  42
HETATM   42  C31 UNL     1     -10.985  52.182  -7.064  1.00  0.00     0.239 C 
BRANCH  42  43
HETATM   43  C32 UNL     1     -10.801  52.365  -5.584  1.00  0.00     0.403 C 
HETATM   44  F1  UNL     1      -9.886  53.334  -5.260  1.00  0.00    -0.169 F 
HETATM   45  F2  UNL     1     -11.993  52.619  -4.925  1.00  0.00    -0.169 F 
HETATM   46  F3  UNL     1     -10.312  51.160  -5.083  1.00  0.00    -0.169 F 
ENDBRANCH  42  43
ENDBRANCH  40  42
ENDBRANCH   8  38
ENDBRANCH   1   4
TORSDOF 9
ENDMDL
MODEL 5
REMARK VINA RESULT: -11.368504797      1.074      1.323
REMARK  9 active torsions:
REMARK  status: ('A' for Active; 'I' for Inactive)
REMARK    1  A    between atoms: C2_2  and  N1_4 
REMARK    2  A    between atoms: C2_2  and  C21_25 
REMARK       I    between atoms: N1_4  and  C4_6 
REMARK    3  A    between atoms: C4_6  and  C5_8 
REMARK    4  A    between atoms: C5_8  and  C6_9 
REMARK       I    between atoms: C21_25  and  N2_27 
REMARK    5  A    between atoms: N2_27  and  C22_29 
REMARK    6  A    between atoms: C25_32  and  C26_33 
REMARK    7  A    between atoms: C29_37  and  C30_38 
REMARK       I    between atoms: C30_38  and  N4_40 
REMARK    8  A    between atoms: N4_40  and  C31_42 
REMARK    9  A    between atoms: C31_42  and  C32_43 
ROOT
HETATM    1  C26 UNL     1      -7.365  48.050 -11.353  1.00  0.00     0.128 C 
HETATM    2  C27 UNL     1      -7.967  48.957 -12.304  1.00  0.00     0.059 C 
HETATM    3  N3  UNL     1      -8.459  49.683 -13.047  1.00  0.00    -0.197 NA
ENDROOT
BRANCH   1   4
HETATM    4  C25 UNL     1      -7.142  48.696 -10.002  1.00  0.00    -0.001 C 
HETATM    5  C24 UNL     1      -5.721  49.198  -9.996  1.00  0.00     0.007 C 
HETATM    6  C23 UNL     1      -5.316  49.785  -8.652  1.00  0.00     0.026 C 
HETATM    7  C22 UNL     1      -6.301  50.893  -8.330  1.00  0.00     0.097 C 
HETATM    8  C29 UNL     1      -7.716  50.427  -8.378  1.00  0.00     0.101 C 
HETATM    9  C28 UNL     1      -8.067  49.837  -9.746  1.00  0.00     0.021 C 
BRANCH   7  10
HETATM   10  N2  UNL     1      -6.032  51.490  -7.049  1.00  0.00    -0.353 N 
HETATM   11  C21 UNL     1      -5.213  52.626  -6.866  1.00  0.00     0.245 C 
HETATM   12  O3  UNL     1      -4.671  53.168  -7.841  1.00  0.00    -0.271 OA
ATOM     13  H2  UNL     1      -6.458  51.067  -6.224  1.00  0.00     0.163 HD
BRANCH  11  14
HETATM   14  C2  UNL     1      -4.993  53.181  -5.506  1.00  0.00     0.106 C 
HETATM   15  C1  UNL     1      -5.363  52.102  -4.488  1.00  0.00     0.048 C 
HETATM   16  C3  UNL     1      -3.568  53.611  -5.380  1.00  0.00     0.048 C 
BRANCH  14  17
HETATM   17  N1  UNL     1      -5.851  54.315  -5.257  1.00  0.00    -0.344 N 
HETATM   18  C4  UNL     1      -7.268  54.173  -5.093  1.00  0.00     0.218 C 
HETATM   19  O1  UNL     1      -7.748  53.018  -5.179  1.00  0.00    -0.274 OA
ATOM     20  H1  UNL     1      -5.438  55.244  -5.196  1.00  0.00     0.163 HD
BRANCH  18  21
HETATM   21  C5  UNL     1      -8.119  55.389  -4.826  1.00  0.00     0.108 C 
BRANCH  21  22
HETATM   22  C6  UNL     1      -7.462  56.208  -3.724  1.00  0.00     0.003 C 
HETATM   23  C7  UNL     1      -8.229  56.163  -2.463  1.00  0.00     0.006 C 
HETATM   24  C8  UNL     1      -8.657  57.568  -2.167  1.00  0.00     0.007 C 
HETATM   25  C9  UNL     1      -8.275  58.437  -3.342  1.00  0.00     0.006 C 
HETATM   26  C10 UNL     1      -7.894  59.824  -2.919  1.00  0.00    -0.016 C 
HETATM   27  C19 UNL     1      -7.280  57.661  -4.109  1.00  0.00    -0.035 C 
HETATM   28  C11 UNL     1      -8.532  60.059  -1.538  1.00  0.00     0.020 C 
HETATM   29  C12 UNL     1      -8.474  60.867  -3.817  1.00  0.00     0.022 C 
HETATM   30  C16 UNL     1      -6.443  59.992  -2.736  1.00  0.00    -0.068 C 
HETATM   31  C13 UNL     1      -8.104  62.267  -3.413  1.00  0.00     0.084 C 
HETATM   32  C14 UNL     1      -6.860  62.383  -2.648  1.00  0.00     0.149 C 
HETATM   33  O2  UNL     1      -6.550  63.438  -2.037  1.00  0.00    -0.293 OA
HETATM   34  C15 UNL     1      -5.961  61.209  -2.608  1.00  0.00     0.053 C 
HETATM   35  C17 UNL     1      -5.537  58.833  -2.696  1.00  0.00     0.036 C 
HETATM   36  C18 UNL     1      -5.840  58.010  -3.924  1.00  0.00     0.014 C 
HETATM   37  C20 UNL     1      -7.575  57.793  -5.613  1.00  0.00     0.016 C 
ENDBRANCH  21  22
ENDBRANCH  18  21
ENDBRANCH  14  17
ENDBRANCH  11  14
ENDBRANCH   7  10
BRANCH   8  38
HETATM   38  C30 UNL     1      -8.636  51.533  -8.076  1.00  0.00     0.224 C 
HETATM   39  O4  UNL     1      -8.378  52.673  -8.593  1.00  0.00    -0.273 OA
HETATM   40  N4  UNL     1      -9.777  51.430  -7.263  1.00  0.00    -0.352 N 
ATOM     41  H4  UNL     1     -10.014  50.535  -6.835  1.00  0.00     0.162 HD
BRANCH  40  42
HETATM   42  C31 UNL     1     -10.616  52.579  -7.029  1.00  0.00     0.239 C 
BRANCH  42  43
HETATM   43  C32 UNL     1     -11.202  52.617  -5.646  1.00  0.00     0.403 C 
HETATM   44  F1  UNL     1     -10.949  51.486  -4.911  1.00  0.00    -0.169 F 
HETATM   45  F2  UNL     1     -10.801  53.731  -4.927  1.00  0.00    -0.169 F 
HETATM   46  F3  UNL     1     -12.585  52.706  -5.792  1.00  0.00    -0.169 F 
ENDBRANCH  42  43
ENDBRANCH  40  42
ENDBRANCH   8  38
ENDBRANCH   1   4
TORSDOF 9
ENDMDL
