MODEL 1
REMARK VINA RESULT: -10.220179458      0.000      0.000
REMARK  10 active torsions:
REMARK  status: ('A' for Active; 'I' for Inactive)
REMARK    1  A    between atoms: C1_2  and  O2_3 
REMARK       I    between atoms: C1_2  and  N1_9 
REMARK    2  A    between atoms: O2_3  and  C2_4 
REMARK    3  A    between atoms: C7_10  and  N2_11 
REMARK    4  A    between atoms: N2_11  and  C8_14 
REMARK    5  A    between atoms: C8_14  and  C9_15 
REMARK    6  A    between atoms: C9_15  and  C10_16 
REMARK    7  A    between atoms: C10_16  and  O3_17 
REMARK    8  A    between atoms: O3_17  and  C11_18 
REMARK    9  A    between atoms: C14_22  and  C15_23 
REMARK   10  A    between atoms: C21_31  and  O4_32 
ROOT
HETATM    1  O1  UNL     1      -9.534  60.617  -2.495  1.00  0.00    -0.238 OA
HETATM    2  C1  UNL     1      -8.408  61.011  -2.105  1.00  0.00     0.365 C 
HETATM    3  N1  UNL     1      -7.454  60.180  -1.509  1.00  0.00    -0.294 N 
HETATM    4  C7  UNL     1      -7.689  58.739  -1.284  1.00  0.00     0.291 C 
HETATM    5  C19 UNL     1      -7.388  58.717   0.224  1.00  0.00     0.064 C 
HETATM    6  C20 UNL     1      -6.084  59.513   0.220  1.00  0.00     0.041 C 
HETATM    7  C21 UNL     1      -5.974  60.478   1.349  1.00  0.00     0.124 C 
HETATM    8  C22 UNL     1      -5.059  61.548   0.734  1.00  0.00     0.034 C 
HETATM    9  C23 UNL     1      -5.796  61.776  -0.584  1.00  0.00     0.028 C 
HETATM   10  C24 UNL     1      -6.142  60.404  -1.001  1.00  0.00     0.098 C 
ENDROOT
BRANCH   4  11
HETATM   11  N2  UNL     1      -6.627  58.015  -1.909  1.00  0.00    -0.054 N 
ATOM     12  H22 UNL     1      -5.843  58.635  -2.115  1.00  0.00     0.279 HD
ATOM     13  H21 UNL     1      -6.179  57.388  -1.241  1.00  0.00     0.279 HD
BRANCH  11  14
HETATM   14  C8  UNL     1      -7.029  57.290  -3.098  1.00  0.00     0.237 C 
BRANCH  14  15
HETATM   15  C9  UNL     1      -8.241  56.430  -2.823  1.00  0.00     0.054 C 
BRANCH  15  16
HETATM   16  C10 UNL     1      -8.814  55.882  -4.095  1.00  0.00     0.177 C 
BRANCH  16  17
HETATM   17  O3  UNL     1      -8.909  54.470  -4.009  1.00  0.00    -0.348 OA
BRANCH  17  18
HETATM   18  C11 UNL     1      -9.016  53.673  -5.147  1.00  0.00     0.107 A 
HETATM   19  C12 UNL     1      -7.949  53.515  -5.981  1.00  0.00     0.069 A 
HETATM   20 CL1  UNL     1      -6.429  54.319  -5.627  1.00  0.00    -0.081 Cl
HETATM   21  C13 UNL     1      -8.026  52.720  -7.133  1.00  0.00     0.038 A 
HETATM   22  C14 UNL     1      -9.224  52.082  -7.420  1.00  0.00    -0.033 A 
HETATM   23  C17 UNL     1     -10.315  52.234  -6.581  1.00  0.00     0.033 A 
HETATM   24  C18 UNL     1     -10.186  53.021  -5.469  1.00  0.00     0.046 A 
HETATM   25 BR2  UNL     1     -11.657  53.270  -4.267  1.00  0.00    -0.048 Br
BRANCH  22  26
HETATM   26  C15 UNL     1      -9.358  51.245  -8.603  1.00  0.00     0.019 C 
HETATM   27  C16 UNL     1      -8.335  50.735  -9.232  1.00  0.00     0.057 C 
HETATM   28 BR1  UNL     1      -8.668  49.652 -10.776  1.00  0.00    -0.064 Br
ENDBRANCH  22  26
ENDBRANCH  17  18
ENDBRANCH  16  17
ENDBRANCH  15  16
ENDBRANCH  14  15
ENDBRANCH  11  14
ENDBRANCH   4  11
BRANCH   2  29
HETATM   29  O2  UNL     1      -8.129  62.354  -2.293  1.00  0.00    -0.298 OA
BRANCH  29  30
HETATM   30  C2  UNL     1      -8.574  63.341  -1.426  1.00  0.00     0.133 C 
HETATM   31  C3  UNL     1      -7.798  64.632  -1.709  1.00  0.00     0.032 C 
HETATM   32  C4  UNL     1      -8.622  65.640  -0.945  1.00  0.00     0.002 C 
HETATM   33  C5  UNL     1     -10.049  65.176  -1.061  1.00  0.00     0.002 C 
HETATM   34  C6  UNL     1      -9.994  63.755  -1.617  1.00  0.00     0.032 C 
ENDBRANCH  29  30
ENDBRANCH   2  29
BRANCH   7  35
HETATM   35  O4  UNL     1      -5.305  59.976   2.450  1.00  0.00    -0.395 OA
ATOM     36  H4  UNL     1      -4.585  59.395   2.230  1.00  0.00     0.210 HD
ENDBRANCH   7  35
TORSDOF 10
ENDMDL
MODEL 2
REMARK VINA RESULT: -10.112603130      1.364      1.595
REMARK  10 active torsions:
REMARK  status: ('A' for Active; 'I' for Inactive)
REMARK    1  A    between atoms: C1_2  and  O2_3 
REMARK       I    between atoms: C1_2  and  N1_9 
REMARK    2  A    between atoms: O2_3  and  C2_4 
REMARK    3  A    between atoms: C7_10  and  N2_11 
REMARK    4  A    between atoms: N2_11  and  C8_14 
REMARK    5  A    between atoms: C8_14  and  C9_15 
REMARK    6  A    between atoms: C9_15  and  C10_16 
REMARK    7  A    between atoms: C10_16  and  O3_17 
REMARK    8  A    between atoms: O3_17  and  C11_18 
REMARK    9  A    between atoms: C14_22  and  C15_23 
REMARK   10  A    between atoms: C21_31  and  O4_32 
ROOT
HETATM    1  O1  UNL     1      -9.518  60.704  -2.446  1.00  0.00    -0.238 OA
HETATM    2  C1  UNL     1      -8.398  61.105  -2.044  1.00  0.00     0.365 C 
HETATM    3  N1  UNL     1      -7.428  60.271  -1.478  1.00  0.00    -0.294 N 
HETATM    4  C7  UNL     1      -7.638  58.820  -1.301  1.00  0.00     0.291 C 
HETATM    5  C19 UNL     1      -7.334  58.753   0.206  1.00  0.00     0.064 C 
HETATM    6  C20 UNL     1      -6.044  59.571   0.227  1.00  0.00     0.041 C 
HETATM    7  C21 UNL     1      -5.949  60.500   1.387  1.00  0.00     0.124 C 
HETATM    8  C22 UNL     1      -5.055  61.606   0.808  1.00  0.00     0.034 C 
HETATM    9  C23 UNL     1      -5.798  61.865  -0.502  1.00  0.00     0.028 C 
HETATM   10  C24 UNL     1      -6.120  60.501  -0.963  1.00  0.00     0.098 C 
ENDROOT
BRANCH   4  11
HETATM   11  N2  UNL     1      -6.564  58.136  -1.950  1.00  0.00    -0.054 N 
ATOM     12  H22 UNL     1      -5.837  58.795  -2.230  1.00  0.00     0.279 HD
ATOM     13  H21 UNL     1      -6.039  57.575  -1.280  1.00  0.00     0.279 HD
BRANCH  11  14
HETATM   14  C8  UNL     1      -6.979  57.326  -3.078  1.00  0.00     0.237 C 
BRANCH  14  15
HETATM   15  C9  UNL     1      -8.291  56.630  -2.791  1.00  0.00     0.054 C 
BRANCH  15  16
HETATM   16  C10 UNL     1      -8.855  56.009  -4.032  1.00  0.00     0.177 C 
BRANCH  16  17
HETATM   17  O3  UNL     1      -8.765  54.596  -3.944  1.00  0.00    -0.348 OA
BRANCH  17  18
HETATM   18  C11 UNL     1      -8.923  53.781  -5.063  1.00  0.00     0.107 A 
HETATM   19  C12 UNL     1     -10.118  53.170  -5.308  1.00  0.00     0.069 A 
HETATM   20 CL1  UNL     1     -11.467  53.405  -4.209  1.00  0.00    -0.081 Cl
HETATM   21  C13 UNL     1     -10.309  52.345  -6.424  1.00  0.00     0.038 A 
HETATM   22  C14 UNL     1      -9.247  52.154  -7.297  1.00  0.00    -0.033 A 
HETATM   23  C17 UNL     1      -8.030  52.770  -7.061  1.00  0.00     0.033 A 
HETATM   24  C18 UNL     1      -7.896  53.566  -5.956  1.00  0.00     0.046 A 
HETATM   25 BR2  UNL     1      -6.239  54.446  -5.573  1.00  0.00    -0.048 Br
BRANCH  22  26
HETATM   26  C15 UNL     1      -9.391  51.308  -8.472  1.00  0.00     0.019 C 
HETATM   27  C16 UNL     1      -8.379  50.721  -9.053  1.00  0.00     0.057 C 
HETATM   28 BR1  UNL     1      -8.723  49.636 -10.592  1.00  0.00    -0.064 Br
ENDBRANCH  22  26
ENDBRANCH  17  18
ENDBRANCH  16  17
ENDBRANCH  15  16
ENDBRANCH  14  15
ENDBRANCH  11  14
ENDBRANCH   4  11
BRANCH   2  29
HETATM   29  O2  UNL     1      -8.143  62.458  -2.188  1.00  0.00    -0.298 OA
BRANCH  29  30
HETATM   30  C2  UNL     1      -8.705  63.419  -1.361  1.00  0.00     0.133 C 
HETATM   31  C3  UNL     1      -7.970  64.746  -1.576  1.00  0.00     0.032 C 
HETATM   32  C4  UNL     1      -8.902  65.710  -0.883  1.00  0.00     0.002 C 
HETATM   33  C5  UNL     1     -10.290  65.182  -1.120  1.00  0.00     0.002 C 
HETATM   34  C6  UNL     1     -10.122  63.768  -1.672  1.00  0.00     0.032 C 
ENDBRANCH  29  30
ENDBRANCH   2  29
BRANCH   7  35
HETATM   35  O4  UNL     1      -5.270  59.973   2.470  1.00  0.00    -0.395 OA
ATOM     36  H4  UNL     1      -5.435  60.431   3.286  1.00  0.00     0.210 HD
ENDBRANCH   7  35
TORSDOF 10
ENDMDL
MODEL 3
REMARK VINA RESULT: -10.064131930      4.337     11.366
REMARK  10 active torsions:
REMARK  status: ('A' for Active; 'I' for Inactive)
REMARK    1  A    between atoms: C1_2  and  O2_3 
REMARK       I    between atoms: C1_2  and  N1_9 
REMARK    2  A    between atoms: O2_3  and  C2_4 
REMARK    3  A    between atoms: C7_10  and  N2_11 
REMARK    4  A    between atoms: N2_11  and  C8_14 
REMARK    5  A    between atoms: C8_14  and  C9_15 
REMARK    6  A    between atoms: C9_15  and  C10_16 
REMARK    7  A    between atoms: C10_16  and  O3_17 
REMARK    8  A    between atoms: O3_17  and  C11_18 
REMARK    9  A    between atoms: C14_22  and  C15_23 
REMARK   10  A    between atoms: C21_31  and  O4_32 
ROOT
HETATM    1  O1  UNL     1      -5.794  49.928  -8.153  1.00  0.00    -0.238 OA
HETATM    2  C1  UNL     1      -6.969  50.314  -8.369  1.00  0.00     0.365 C 
HETATM    3  N1  UNL     1      -7.542  51.442  -7.772  1.00  0.00    -0.294 N 
HETATM    4  C7  UNL     1      -6.803  52.296  -6.820  1.00  0.00     0.291 C 
HETATM    5  C19 UNL     1      -7.816  52.236  -5.664  1.00  0.00     0.064 C 
HETATM    6  C20 UNL     1      -9.095  52.518  -6.452  1.00  0.00     0.041 C 
HETATM    7  C21 UNL     1     -10.251  51.683  -6.025  1.00  0.00     0.124 C 
HETATM    8  C22 UNL     1     -11.065  51.619  -7.326  1.00  0.00     0.034 C 
HETATM    9  C23 UNL     1      -9.955  51.205  -8.292  1.00  0.00     0.028 C 
HETATM   10  C24 UNL     1      -8.826  52.052  -7.865  1.00  0.00     0.098 C 
ENDROOT
BRANCH   4  11
HETATM   11  N2  UNL     1      -6.840  53.638  -7.308  1.00  0.00    -0.054 N 
ATOM     12  H22 UNL     1      -7.481  53.714  -8.099  1.00  0.00     0.279 HD
ATOM     13  H21 UNL     1      -7.315  54.248  -6.644  1.00  0.00     0.279 HD
BRANCH  11  14
HETATM   14  C8  UNL     1      -5.539  54.174  -7.654  1.00  0.00     0.237 C 
BRANCH  14  15
HETATM   15  C9  UNL     1      -5.381  55.587  -7.137  1.00  0.00     0.054 C 
BRANCH  15  16
HETATM   16  C10 UNL     1      -5.991  55.734  -5.776  1.00  0.00     0.177 C 
BRANCH  16  17
HETATM   17  O3  UNL     1      -7.293  56.283  -5.891  1.00  0.00    -0.348 OA
BRANCH  17  18
HETATM   18  C11 UNL     1      -7.740  57.292  -5.041  1.00  0.00     0.107 A 
HETATM   19  C12 UNL     1      -7.401  58.592  -5.275  1.00  0.00     0.069 A 
HETATM   20 CL1  UNL     1      -6.393  59.003  -6.652  1.00  0.00    -0.081 Cl
HETATM   21  C13 UNL     1      -7.835  59.629  -4.438  1.00  0.00     0.038 A 
HETATM   22  C14 UNL     1      -8.631  59.312  -3.347  1.00  0.00    -0.033 A 
HETATM   23  C17 UNL     1      -8.984  57.997  -3.099  1.00  0.00     0.033 A 
HETATM   24  C18 UNL     1      -8.534  57.021  -3.947  1.00  0.00     0.046 A 
HETATM   25 BR2  UNL     1      -8.987  55.183  -3.660  1.00  0.00    -0.048 Br
BRANCH  22  26
HETATM   26  C15 UNL     1      -9.109  60.350  -2.446  1.00  0.00     0.019 C 
HETATM   27  C16 UNL     1      -9.361  61.569  -2.838  1.00  0.00     0.057 C 
HETATM   28 BR1  UNL     1      -9.985  62.828  -1.536  1.00  0.00    -0.064 Br
ENDBRANCH  22  26
ENDBRANCH  17  18
ENDBRANCH  16  17
ENDBRANCH  15  16
ENDBRANCH  14  15
ENDBRANCH  11  14
ENDBRANCH   4  11
BRANCH   2  29
HETATM   29  O2  UNL     1      -7.711  49.555  -9.257  1.00  0.00    -0.298 OA
BRANCH  29  30
HETATM   30  C2  UNL     1      -7.472  49.555 -10.624  1.00  0.00     0.133 C 
HETATM   31  C3  UNL     1      -8.783  49.236 -11.353  1.00  0.00     0.032 C 
HETATM   32  C4  UNL     1      -8.424  49.608 -12.771  1.00  0.00     0.002 C 
HETATM   33  C5  UNL     1      -7.493  50.785 -12.665  1.00  0.00     0.002 C 
HETATM   34  C6  UNL     1      -7.085  50.877 -11.197  1.00  0.00     0.032 C 
ENDBRANCH  29  30
ENDBRANCH   2  29
BRANCH   7  35
HETATM   35  O4  UNL     1     -11.063  52.290  -5.085  1.00  0.00    -0.395 OA
ATOM     36  H4  UNL     1     -11.696  51.704  -4.688  1.00  0.00     0.210 HD
ENDBRANCH   7  35
TORSDOF 10
ENDMDL
MODEL 4
REMARK VINA RESULT: -10.024699851      4.319     11.286
REMARK  10 active torsions:
REMARK  status: ('A' for Active; 'I' for Inactive)
REMARK    1  A    between atoms: C1_2  and  O2_3 
REMARK       I    between atoms: C1_2  and  N1_9 
REMARK    2  A    between atoms: O2_3  and  C2_4 
REMARK    3  A    between atoms: C7_10  and  N2_11 
REMARK    4  A    between atoms: N2_11  and  C8_14 
REMARK    5  A    between atoms: C8_14  and  C9_15 
REMARK    6  A    between atoms: C9_15  and  C10_16 
REMARK    7  A    between atoms: C10_16  and  O3_17 
REMARK    8  A    between atoms: O3_17  and  C11_18 
REMARK    9  A    between atoms: C14_22  and  C15_23 
REMARK   10  A    between atoms: C21_31  and  O4_32 
ROOT
HETATM    1  O1  UNL     1      -5.274  52.461  -8.926  1.00  0.00    -0.238 OA
HETATM    2  C1  UNL     1      -6.263  52.013  -8.296  1.00  0.00     0.365 C 
HETATM    3  N1  UNL     1      -6.289  51.834  -6.909  1.00  0.00    -0.294 N 
HETATM    4  C7  UNL     1      -5.136  52.165  -6.046  1.00  0.00     0.291 C 
HETATM    5  C19 UNL     1      -5.003  50.799  -5.352  1.00  0.00     0.064 C 
HETATM    6  C20 UNL     1      -6.470  50.569  -4.990  1.00  0.00     0.041 C 
HETATM    7  C21 UNL     1      -6.919  49.165  -5.197  1.00  0.00     0.124 C 
HETATM    8  C22 UNL     1      -8.416  49.372  -5.475  1.00  0.00     0.034 C 
HETATM    9  C23 UNL     1      -8.321  50.460  -6.543  1.00  0.00     0.028 C 
HETATM   10  C24 UNL     1      -7.276  51.351  -6.003  1.00  0.00     0.098 C 
ENDROOT
BRANCH   4  11
HETATM   11  N2  UNL     1      -5.584  53.076  -5.041  1.00  0.00    -0.054 N 
ATOM     12  H22 UNL     1      -6.550  53.355  -5.214  1.00  0.00     0.279 HD
ATOM     13  H21 UNL     1      -5.702  52.596  -4.149  1.00  0.00     0.279 HD
BRANCH  11  14
HETATM   14  C8  UNL     1      -4.738  54.242  -4.884  1.00  0.00     0.237 C 
BRANCH  14  15
HETATM   15  C9  UNL     1      -5.075  54.988  -3.613  1.00  0.00     0.054 C 
BRANCH  15  16
HETATM   16  C10 UNL     1      -5.367  56.430  -3.895  1.00  0.00     0.177 C 
BRANCH  16  17
HETATM   17  O3  UNL     1      -6.744  56.590  -4.194  1.00  0.00    -0.348 OA
BRANCH  17  18
HETATM   18  C11 UNL     1      -7.446  57.735  -3.822  1.00  0.00     0.107 A 
HETATM   19  C12 UNL     1      -8.041  57.813  -2.598  1.00  0.00     0.069 A 
HETATM   20 CL1  UNL     1      -7.928  56.465  -1.478  1.00  0.00    -0.081 Cl
HETATM   21  C13 UNL     1      -8.753  58.951  -2.195  1.00  0.00     0.038 A 
HETATM   22  C14 UNL     1      -8.847  60.020  -3.074  1.00  0.00    -0.033 A 
HETATM   23  C17 UNL     1      -8.247  59.955  -4.320  1.00  0.00     0.033 A 
HETATM   24  C18 UNL     1      -7.563  58.820  -4.664  1.00  0.00     0.046 A 
HETATM   25 BR2  UNL     1      -6.709  58.667  -6.372  1.00  0.00    -0.048 Br
BRANCH  22  26
HETATM   26  C15 UNL     1      -9.575  61.226  -2.707  1.00  0.00     0.019 C 
HETATM   27  C16 UNL     1      -9.405  61.838  -1.567  1.00  0.00     0.057 C 
HETATM   28 BR1  UNL     1     -10.435  63.415  -1.224  1.00  0.00    -0.064 Br
ENDBRANCH  22  26
ENDBRANCH  17  18
ENDBRANCH  16  17
ENDBRANCH  15  16
ENDBRANCH  14  15
ENDBRANCH  11  14
ENDBRANCH   4  11
BRANCH   2  29
HETATM   29  O2  UNL     1      -7.376  51.688  -9.052  1.00  0.00    -0.298 OA
BRANCH  29  30
HETATM   30  C2  UNL     1      -7.333  50.773 -10.094  1.00  0.00     0.133 C 
HETATM   31  C3  UNL     1      -8.648  49.986 -10.114  1.00  0.00     0.032 C 
HETATM   32  C4  UNL     1      -8.565  49.315 -11.463  1.00  0.00     0.002 C 
HETATM   33  C5  UNL     1      -7.865  50.293 -12.367  1.00  0.00     0.002 C 
HETATM   34  C6  UNL     1      -7.283  51.374 -11.459  1.00  0.00     0.032 C 
ENDBRANCH  29  30
ENDBRANCH   2  29
BRANCH   7  35
HETATM   35  O4  UNL     1      -6.836  48.378  -4.063  1.00  0.00    -0.395 OA
ATOM     36  H4  UNL     1      -6.615  47.472  -4.240  1.00  0.00     0.210 HD
ENDBRANCH   7  35
TORSDOF 10
ENDMDL
MODEL 5
REMARK VINA RESULT: -9.985722731      4.309     11.261
REMARK  10 active torsions:
REMARK  status: ('A' for Active; 'I' for Inactive)
REMARK    1  A    between atoms: C1_2  and  O2_3 
REMARK       I    between atoms: C1_2  and  N1_9 
REMARK    2  A    between atoms: O2_3  and  C2_4 
REMARK    3  A    between atoms: C7_10  and  N2_11 
REMARK    4  A    between atoms: N2_11  and  C8_14 
REMARK    5  A    between atoms: C8_14  and  C9_15 
REMARK    6  A    between atoms: C9_15  and  C10_16 
REMARK    7  A    between atoms: C10_16  and  O3_17 
REMARK    8  A    between atoms: O3_17  and  C11_18 
REMARK    9  A    between atoms: C14_22  and  C15_23 
REMARK   10  A    between atoms: C21_31  and  O4_32 
ROOT
HETATM    1  O1  UNL     1      -5.247  52.552  -8.826  1.00  0.00    -0.238 OA
HETATM    2  C1  UNL     1      -6.241  52.089  -8.215  1.00  0.00     0.365 C 
HETATM    3  N1  UNL     1      -6.282  51.886  -6.832  1.00  0.00    -0.294 N 
HETATM    4  C7  UNL     1      -5.141  52.206  -5.950  1.00  0.00     0.291 C 
HETATM    5  C19 UNL     1      -5.010  50.829  -5.279  1.00  0.00     0.064 C 
HETATM    6  C20 UNL     1      -6.479  50.587  -4.938  1.00  0.00     0.041 C 
HETATM    7  C21 UNL     1      -6.921  49.185  -5.174  1.00  0.00     0.124 C 
HETATM    8  C22 UNL     1      -8.415  49.392  -5.465  1.00  0.00     0.034 C 
HETATM    9  C23 UNL     1      -8.313  50.498  -6.513  1.00  0.00     0.028 C 
HETATM   10  C24 UNL     1      -7.278  51.383  -5.946  1.00  0.00     0.098 C 
ENDROOT
BRANCH   4  11
HETATM   11  N2  UNL     1      -5.604  53.098  -4.935  1.00  0.00    -0.054 N 
ATOM     12  H22 UNL     1      -6.620  53.057  -4.858  1.00  0.00     0.279 HD
ATOM     13  H21 UNL     1      -5.348  52.752  -4.010  1.00  0.00     0.279 HD
BRANCH  11  14
HETATM   14  C8  UNL     1      -5.161  54.467  -5.108  1.00  0.00     0.237 C 
BRANCH  14  15
HETATM   15  C9  UNL     1      -5.319  55.253  -3.825  1.00  0.00     0.054 C 
BRANCH  15  16
HETATM   16  C10 UNL     1      -5.558  56.705  -4.108  1.00  0.00     0.177 C 
BRANCH  16  17
HETATM   17  O3  UNL     1      -6.945  56.936  -4.286  1.00  0.00    -0.348 OA
BRANCH  17  18
HETATM   18  C11 UNL     1      -7.538  58.145  -3.925  1.00  0.00     0.107 A 
HETATM   19  C12 UNL     1      -7.497  59.213  -4.772  1.00  0.00     0.069 A 
HETATM   20 CL1  UNL     1      -6.694  59.072  -6.327  1.00  0.00    -0.081 Cl
HETATM   21  C13 UNL     1      -8.084  60.441  -4.439  1.00  0.00     0.038 A 
HETATM   22  C14 UNL     1      -8.720  60.561  -3.211  1.00  0.00    -0.033 A 
HETATM   23  C17 UNL     1      -8.769  59.484  -2.342  1.00  0.00     0.033 A 
HETATM   24  C18 UNL     1      -8.180  58.307  -2.717  1.00  0.00     0.046 A 
HETATM   25 BR2  UNL     1      -8.214  56.780  -1.561  1.00  0.00    -0.048 Br
BRANCH  22  26
HETATM   26  C15 UNL     1      -9.345  61.813  -2.814  1.00  0.00     0.019 C 
HETATM   27  C16 UNL     1      -9.617  62.109  -1.572  1.00  0.00     0.057 C 
HETATM   28 BR1  UNL     1     -10.442  63.797  -1.203  1.00  0.00    -0.064 Br
ENDBRANCH  22  26
ENDBRANCH  17  18
ENDBRANCH  16  17
ENDBRANCH  15  16
ENDBRANCH  14  15
ENDBRANCH  11  14
ENDBRANCH   4  11
BRANCH   2  29
HETATM   29  O2  UNL     1      -7.345  51.772  -8.990  1.00  0.00    -0.298 OA
BRANCH  29  30
HETATM   30  C2  UNL     1      -7.287  50.872 -10.043  1.00  0.00     0.133 C 
HETATM   31  C3  UNL     1      -8.585  50.056 -10.066  1.00  0.00     0.032 C 
HETATM   32  C4  UNL     1      -8.494  49.404 -11.424  1.00  0.00     0.002 C 
HETATM   33  C5  UNL     1      -7.822  50.409 -12.319  1.00  0.00     0.002 C 
HETATM   34  C6  UNL     1      -7.259  51.491 -11.401  1.00  0.00     0.032 C 
ENDBRANCH  29  30
ENDBRANCH   2  29
BRANCH   7  35
HETATM   35  O4  UNL     1      -6.848  48.380  -4.053  1.00  0.00    -0.395 OA
ATOM     36  H4  UNL     1      -7.607  47.822  -3.930  1.00  0.00     0.210 HD
ENDBRANCH   7  35
TORSDOF 10
ENDMDL
