MODEL 1
REMARK VINA RESULT: -9.478538158      0.000      0.000
REMARK  11 active torsions:
REMARK  status: ('A' for Active; 'I' for Inactive)
REMARK    1  A    between atoms: C3_8  and  C4_9 
REMARK    2  A    between atoms: C6_13  and  N5_14 
REMARK    3  A    between atoms: N5_14  and  C7_16 
REMARK    4  A    between atoms: C7_16  and  C8_17 
REMARK    5  A    between atoms: C8_17  and  O1_18 
REMARK    6  A    between atoms: C8_17  and  C9_20 
REMARK    7  A    between atoms: C8_17  and  C10_23 
REMARK    8  A    between atoms: C9_20  and  O2_21 
REMARK    9  A    between atoms: C10_23  and  O3_24 
REMARK   10  A    between atoms: C13_35  and  N8_36 
REMARK   11  A    between atoms: N8_36  and  N9_38 
ROOT
HETATM    1  N1  UNL     1     -12.859  18.117  -8.638  1.00  0.00    -0.190 NA
HETATM    2  C1  UNL     1     -13.069  18.103  -9.774  1.00  0.00     0.123 C 
HETATM    3  C2  UNL     1     -13.302  18.097 -11.191  1.00  0.00     0.174 A 
HETATM    4  N2  UNL     1     -12.319  18.527 -12.031  1.00  0.00    -0.286 N 
ATOM      5  H2  UNL     1     -11.437  18.843 -11.628  1.00  0.00     0.188 HD
HETATM    6  N3  UNL     1     -12.460  18.551 -13.345  1.00  0.00    -0.287 N 
ATOM      7  H3  UNL     1     -11.693  18.883 -13.929  1.00  0.00     0.188 HD
HETATM    8  C3  UNL     1     -13.599  18.144 -13.915  1.00  0.00     0.118 A 
HETATM    9  N7  UNL     1     -14.584  17.716 -13.114  1.00  0.00    -0.326 N 
ATOM     10  H7  UNL     1     -15.455  17.406 -13.544  1.00  0.00     0.169 HD
HETATM   11  C13 UNL     1     -14.484  17.674 -11.754  1.00  0.00     0.160 A 
ENDROOT
BRANCH  11  12
HETATM   12  N8  UNL     1     -15.465  17.253 -11.050  1.00  0.00    -0.290 N 
ATOM     13  H8  UNL     1     -16.040  17.976 -10.616  1.00  0.00     0.188 HD
BRANCH  12  14
HETATM   14  N9  UNL     1     -15.844  15.975 -10.802  1.00  0.00    -0.344 N 
ATOM     15  H92 UNL     1     -15.328  15.272 -11.331  1.00  0.00     0.176 HD
ATOM     16  H91 UNL     1     -16.566  15.636 -10.166  1.00  0.00     0.176 HD
ENDBRANCH  12  14
ENDBRANCH  11  12
BRANCH   8  17
HETATM   17  C4  UNL     1     -13.805  18.150 -15.363  1.00  0.00     0.202 C 
HETATM   18  C5  UNL     1     -14.573  19.299 -15.884  1.00  0.00     0.134 C 
HETATM   19  N4  UNL     1     -15.798  18.921 -16.579  1.00  0.00    -0.354 N 
HETATM   20  C11 UNL     1     -13.814  20.092 -16.846  1.00  0.00     0.122 C 
HETATM   21  C6  UNL     1     -15.945  19.631 -17.643  1.00  0.00     0.172 C 
ATOM     22  H4  UNL     1     -16.446  18.198 -16.265  1.00  0.00     0.163 HD
HETATM   23  N6  UNL     1     -14.852  20.552 -17.782  1.00  0.00    -0.355 N 
ATOM     24  H6  UNL     1     -14.804  21.361 -18.402  1.00  0.00     0.163 HD
HETATM   25  C12 UNL     1     -12.800  19.276 -17.557  1.00  0.00     0.168 C 
HETATM   26  S1  UNL     1     -12.240  18.204 -16.251  1.00  0.00     0.159 S 
HETATM   27  O4  UNL     1     -11.194  18.907 -15.457  1.00  0.00    -0.227 OA
HETATM   28  O5  UNL     1     -11.833  16.871 -16.734  1.00  0.00    -0.227 OA
BRANCH  21  29
HETATM   29  N5  UNL     1     -17.021  19.537 -18.561  1.00  0.00    -0.359 N 
ATOM     30  H5  UNL     1     -16.859  19.704 -19.555  1.00  0.00     0.162 HD
BRANCH  29  31
HETATM   31  C7  UNL     1     -18.338  19.206 -18.094  1.00  0.00     0.165 C 
BRANCH  31  32
HETATM   32  C8  UNL     1     -18.958  18.065 -18.840  1.00  0.00     0.116 C 
BRANCH  32  33
HETATM   33  O1  UNL     1     -18.174  17.828 -19.968  1.00  0.00    -0.384 OA
ATOM     34  H1  UNL     1     -18.647  17.217 -20.520  1.00  0.00     0.210 HD
ENDBRANCH  32  33
BRANCH  32  35
HETATM   35  C9  UNL     1     -20.346  18.400 -19.339  1.00  0.00     0.205 C 
BRANCH  35  36
HETATM   36  O2  UNL     1     -20.408  18.490 -20.723  1.00  0.00    -0.398 OA
ATOM     37  H2  UNL     1     -21.232  18.175 -21.073  1.00  0.00     0.209 HD
ENDBRANCH  35  36
ENDBRANCH  32  35
BRANCH  32  38
HETATM   38  C10 UNL     1     -18.971  16.807 -17.998  1.00  0.00     0.205 C 
BRANCH  38  39
HETATM   39  O3  UNL     1     -18.020  16.903 -16.966  1.00  0.00    -0.398 OA
ATOM     40  H3  UNL     1     -17.468  16.129 -16.954  1.00  0.00     0.209 HD
ENDBRANCH  38  39
ENDBRANCH  32  38
ENDBRANCH  31  32
ENDBRANCH  29  31
ENDBRANCH  21  29
ENDBRANCH   8  17
TORSDOF 11
ENDMDL
MODEL 2
REMARK VINA RESULT: -9.356375901      1.009      1.202
REMARK  11 active torsions:
REMARK  status: ('A' for Active; 'I' for Inactive)
REMARK    1  A    between atoms: C3_8  and  C4_9 
REMARK    2  A    between atoms: C6_13  and  N5_14 
REMARK    3  A    between atoms: N5_14  and  C7_16 
REMARK    4  A    between atoms: C7_16  and  C8_17 
REMARK    5  A    between atoms: C8_17  and  O1_18 
REMARK    6  A    between atoms: C8_17  and  C9_20 
REMARK    7  A    between atoms: C8_17  and  C10_23 
REMARK    8  A    between atoms: C9_20  and  O2_21 
REMARK    9  A    between atoms: C10_23  and  O3_24 
REMARK   10  A    between atoms: C13_35  and  N8_36 
REMARK   11  A    between atoms: N8_36  and  N9_38 
ROOT
HETATM    1  N1  UNL     1     -13.167  17.995  -8.625  1.00  0.00    -0.190 NA
HETATM    2  C1  UNL     1     -13.336  18.055  -9.766  1.00  0.00     0.123 C 
HETATM    3  C2  UNL     1     -13.525  18.108 -11.189  1.00  0.00     0.174 A 
HETATM    4  N2  UNL     1     -12.784  17.294 -11.991  1.00  0.00    -0.286 N 
ATOM      5  H2  UNL     1     -12.109  16.664 -11.558  1.00  0.00     0.188 HD
HETATM    6  N3  UNL     1     -12.901  17.287 -13.308  1.00  0.00    -0.287 N 
ATOM      7  H3  UNL     1     -12.320  16.659 -13.864  1.00  0.00     0.188 HD
HETATM    8  C3  UNL     1     -13.774  18.096 -13.918  1.00  0.00     0.118 A 
HETATM    9  N7  UNL     1     -14.517  18.907 -13.154  1.00  0.00    -0.326 N 
ATOM     10  H7  UNL     1     -15.184  19.527 -13.615  1.00  0.00     0.169 HD
HETATM   11  C13 UNL     1     -14.430  18.950 -11.793  1.00  0.00     0.160 A 
ENDROOT
BRANCH  11  12
HETATM   12  N8  UNL     1     -15.172  19.750 -11.126  1.00  0.00    -0.290 N 
ATOM     13  H8  UNL     1     -15.901  19.311 -10.563  1.00  0.00     0.188 HD
BRANCH  12  14
HETATM   14  N9  UNL     1     -15.119  21.103 -11.066  1.00  0.00    -0.344 N 
ATOM     15  H92 UNL     1     -14.205  21.500 -11.283  1.00  0.00     0.176 HD
ATOM     16  H91 UNL     1     -15.865  21.760 -10.837  1.00  0.00     0.176 HD
ENDBRANCH  12  14
ENDBRANCH  11  12
BRANCH   8  17
HETATM   17  C4  UNL     1     -13.943  18.125 -15.370  1.00  0.00     0.202 C 
HETATM   18  C5  UNL     1     -14.703  19.279 -15.892  1.00  0.00     0.134 C 
HETATM   19  N4  UNL     1     -15.909  18.908 -16.623  1.00  0.00    -0.354 N 
HETATM   20  C11 UNL     1     -13.924  20.091 -16.821  1.00  0.00     0.122 C 
HETATM   21  C6  UNL     1     -16.032  19.635 -17.679  1.00  0.00     0.172 C 
ATOM     22  H4  UNL     1     -16.561  18.178 -16.338  1.00  0.00     0.163 HD
HETATM   23  N6  UNL     1     -14.939  20.563 -17.775  1.00  0.00    -0.355 N 
ATOM     24  H6  UNL     1     -14.880  21.381 -18.381  1.00  0.00     0.163 HD
HETATM   25  C12 UNL     1     -12.888  19.291 -17.520  1.00  0.00     0.168 C 
HETATM   26  S1  UNL     1     -12.357  18.200 -16.218  1.00  0.00     0.159 S 
HETATM   27  O4  UNL     1     -11.334  18.893 -15.387  1.00  0.00    -0.227 OA
HETATM   28  O5  UNL     1     -11.932  16.877 -16.712  1.00  0.00    -0.227 OA
BRANCH  21  29
HETATM   29  N5  UNL     1     -17.084  19.552 -18.626  1.00  0.00    -0.359 N 
ATOM     30  H5  UNL     1     -16.890  19.692 -19.617  1.00  0.00     0.162 HD
BRANCH  29  31
HETATM   31  C7  UNL     1     -18.423  19.270 -18.190  1.00  0.00     0.165 C 
BRANCH  31  32
HETATM   32  C8  UNL     1     -19.050  18.121 -18.917  1.00  0.00     0.116 C 
BRANCH  32  33
HETATM   33  O1  UNL     1     -18.208  17.788 -19.977  1.00  0.00    -0.384 OA
ATOM     34  H1  UNL     1     -18.538  16.984 -20.360  1.00  0.00     0.210 HD
ENDBRANCH  32  33
BRANCH  32  35
HETATM   35  C9  UNL     1     -20.384  18.493 -19.524  1.00  0.00     0.205 C 
BRANCH  35  36
HETATM   36  O2  UNL     1     -20.371  18.447 -20.911  1.00  0.00    -0.398 OA
ATOM     37  H2  UNL     1     -21.094  17.944 -21.267  1.00  0.00     0.209 HD
ENDBRANCH  35  36
ENDBRANCH  32  35
BRANCH  32  38
HETATM   38  C10 UNL     1     -19.180  16.912 -18.015  1.00  0.00     0.205 C 
BRANCH  38  39
HETATM   39  O3  UNL     1     -18.194  16.945 -17.012  1.00  0.00    -0.398 OA
ATOM     40  H3  UNL     1     -17.470  16.374 -17.244  1.00  0.00     0.209 HD
ENDBRANCH  38  39
ENDBRANCH  32  38
ENDBRANCH  31  32
ENDBRANCH  29  31
ENDBRANCH  21  29
ENDBRANCH   8  17
TORSDOF 11
ENDMDL
MODEL 3
REMARK VINA RESULT: -9.313080565      3.029      7.672
REMARK  11 active torsions:
REMARK  status: ('A' for Active; 'I' for Inactive)
REMARK    1  A    between atoms: C3_8  and  C4_9 
REMARK    2  A    between atoms: C6_13  and  N5_14 
REMARK    3  A    between atoms: N5_14  and  C7_16 
REMARK    4  A    between atoms: C7_16  and  C8_17 
REMARK    5  A    between atoms: C8_17  and  O1_18 
REMARK    6  A    between atoms: C8_17  and  C9_20 
REMARK    7  A    between atoms: C8_17  and  C10_23 
REMARK    8  A    between atoms: C9_20  and  O2_21 
REMARK    9  A    between atoms: C10_23  and  O3_24 
REMARK   10  A    between atoms: C13_35  and  N8_36 
REMARK   11  A    between atoms: N8_36  and  N9_38 
ROOT
HETATM    1  N1  UNL     1     -20.595  18.108 -20.465  1.00  0.00    -0.190 NA
HETATM    2  C1  UNL     1     -19.746  18.194 -19.686  1.00  0.00     0.123 C 
HETATM    3  C2  UNL     1     -18.685  18.328 -18.727  1.00  0.00     0.174 A 
HETATM    4  N2  UNL     1     -17.990  19.498 -18.662  1.00  0.00    -0.286 N 
ATOM      5  H2  UNL     1     -18.242  20.253 -19.299  1.00  0.00     0.188 HD
HETATM    6  N3  UNL     1     -17.001  19.696 -17.807  1.00  0.00    -0.287 N 
ATOM      7  H3  UNL     1     -16.511  20.591 -17.800  1.00  0.00     0.188 HD
HETATM    8  C3  UNL     1     -16.637  18.734 -16.952  1.00  0.00     0.118 A 
HETATM    9  N7  UNL     1     -17.303  17.573 -16.994  1.00  0.00    -0.326 N 
ATOM     10  H7  UNL     1     -17.029  16.836 -16.344  1.00  0.00     0.169 HD
HETATM   11  C13 UNL     1     -18.329  17.323 -17.859  1.00  0.00     0.160 A 
ENDROOT
BRANCH  11  12
HETATM   12  N8  UNL     1     -18.921  16.190 -17.843  1.00  0.00    -0.290 N 
ATOM     13  H8  UNL     1     -19.574  16.044 -17.073  1.00  0.00     0.188 HD
BRANCH  12  14
HETATM   14  N9  UNL     1     -18.798  15.156 -18.711  1.00  0.00    -0.344 N 
ATOM     15  H92 UNL     1     -19.077  15.374 -19.668  1.00  0.00     0.176 HD
ATOM     16  H91 UNL     1     -18.468  14.208 -18.531  1.00  0.00     0.176 HD
ENDBRANCH  12  14
ENDBRANCH  11  12
BRANCH   8  17
HETATM   17  C4  UNL     1     -15.552  18.904 -15.987  1.00  0.00     0.202 C 
HETATM   18  C5  UNL     1     -14.854  17.661 -15.600  1.00  0.00     0.134 C 
HETATM   19  N4  UNL     1     -14.921  17.368 -14.173  1.00  0.00    -0.354 N 
HETATM   20  C11 UNL     1     -13.431  17.693 -15.920  1.00  0.00     0.122 C 
HETATM   21  C6  UNL     1     -13.780  16.947 -13.750  1.00  0.00     0.172 C 
ATOM     22  H4  UNL     1     -15.753  17.480 -13.594  1.00  0.00     0.163 HD
HETATM   23  N6  UNL     1     -12.832  16.910 -14.828  1.00  0.00    -0.355 N 
ATOM     24  H6  UNL     1     -11.928  16.436 -14.836  1.00  0.00     0.163 HD
HETATM   25  C12 UNL     1     -12.895  19.077 -15.920  1.00  0.00     0.168 C 
HETATM   26  S1  UNL     1     -14.257  19.975 -16.631  1.00  0.00     0.159 S 
HETATM   27  O4  UNL     1     -14.175  19.888 -18.116  1.00  0.00    -0.227 OA
HETATM   28  O5  UNL     1     -14.371  21.352 -16.116  1.00  0.00    -0.227 OA
BRANCH  21  29
HETATM   29  N5  UNL     1     -13.477  16.568 -12.418  1.00  0.00    -0.359 N 
ATOM     30  H5  UNL     1     -13.528  15.587 -12.143  1.00  0.00     0.162 HD
BRANCH  29  31
HETATM   31  C7  UNL     1     -13.100  17.564 -11.455  1.00  0.00     0.165 C 
BRANCH  31  32
HETATM   32  C8  UNL     1     -13.957  17.552 -10.227  1.00  0.00     0.116 C 
BRANCH  32  33
HETATM   33  O1  UNL     1     -13.114  17.707  -9.128  1.00  0.00    -0.384 OA
ATOM     34  H1  UNL     1     -13.242  16.955  -8.562  1.00  0.00     0.210 HD
ENDBRANCH  32  33
BRANCH  32  35
HETATM   35  C9  UNL     1     -14.669  16.231 -10.043  1.00  0.00     0.205 C 
BRANCH  35  36
HETATM   36  O2  UNL     1     -15.941  16.228 -10.599  1.00  0.00    -0.398 OA
ATOM     37  H2  UNL     1     -16.566  15.737 -10.079  1.00  0.00     0.209 HD
ENDBRANCH  35  36
ENDBRANCH  32  35
BRANCH  32  38
HETATM   38  C10 UNL     1     -14.940  18.704 -10.238  1.00  0.00     0.205 C 
BRANCH  38  39
HETATM   39  O3  UNL     1     -15.550  18.812 -11.500  1.00  0.00    -0.398 OA
ATOM     40  H3  UNL     1     -16.362  19.300 -11.433  1.00  0.00     0.209 HD
ENDBRANCH  38  39
ENDBRANCH  32  38
ENDBRANCH  31  32
ENDBRANCH  29  31
ENDBRANCH  21  29
ENDBRANCH   8  17
TORSDOF 11
ENDMDL
MODEL 4
REMARK VINA RESULT: -9.292544763      1.768      2.374
REMARK  11 active torsions:
REMARK  status: ('A' for Active; 'I' for Inactive)
REMARK    1  A    between atoms: C3_8  and  C4_9 
REMARK    2  A    between atoms: C6_13  and  N5_14 
REMARK    3  A    between atoms: N5_14  and  C7_16 
REMARK    4  A    between atoms: C7_16  and  C8_17 
REMARK    5  A    between atoms: C8_17  and  O1_18 
REMARK    6  A    between atoms: C8_17  and  C9_20 
REMARK    7  A    between atoms: C8_17  and  C10_23 
REMARK    8  A    between atoms: C9_20  and  O2_21 
REMARK    9  A    between atoms: C10_23  and  O3_24 
REMARK   10  A    between atoms: C13_35  and  N8_36 
REMARK   11  A    between atoms: N8_36  and  N9_38 
ROOT
HETATM    1  N1  UNL     1     -13.422  20.777  -8.648  1.00  0.00    -0.190 NA
HETATM    2  C1  UNL     1     -13.526  20.506  -9.766  1.00  0.00     0.123 C 
HETATM    3  C2  UNL     1     -13.658  20.140 -11.148  1.00  0.00     0.174 A 
HETATM    4  N2  UNL     1     -13.876  18.835 -11.475  1.00  0.00    -0.286 N 
ATOM      5  H2  UNL     1     -13.939  18.148 -10.725  1.00  0.00     0.188 HD
HETATM    6  N3  UNL     1     -14.007  18.423 -12.724  1.00  0.00    -0.287 N 
ATOM      7  H3  UNL     1     -14.168  17.434 -12.915  1.00  0.00     0.188 HD
HETATM    8  C3  UNL     1     -13.932  19.290 -13.739  1.00  0.00     0.118 A 
HETATM    9  N7  UNL     1     -13.719  20.580 -13.448  1.00  0.00    -0.326 N 
ATOM     10  H7  UNL     1     -13.659  21.245 -14.219  1.00  0.00     0.169 HD
HETATM   11  C13 UNL     1     -13.576  21.051 -12.175  1.00  0.00     0.160 A 
ENDROOT
BRANCH  11  12
HETATM   12  N8  UNL     1     -13.375  22.298 -11.970  1.00  0.00    -0.290 N 
ATOM     13  H8  UNL     1     -14.197  22.897 -12.052  1.00  0.00     0.188 HD
BRANCH  12  14
HETATM   14  N9  UNL     1     -12.216  22.930 -11.660  1.00  0.00    -0.344 N 
ATOM     15  H92 UNL     1     -11.521  22.927 -12.406  1.00  0.00     0.176 HD
ATOM     16  H91 UNL     1     -11.958  23.398 -10.791  1.00  0.00     0.176 HD
ENDBRANCH  12  14
ENDBRANCH  11  12
BRANCH   8  17
HETATM   17  C4  UNL     1     -14.072  18.885 -15.137  1.00  0.00     0.202 C 
HETATM   18  C5  UNL     1     -14.778  19.850 -16.005  1.00  0.00     0.134 C 
HETATM   19  N4  UNL     1     -15.983  19.312 -16.625  1.00  0.00    -0.354 N 
HETATM   20  C11 UNL     1     -13.951  20.319 -17.112  1.00  0.00     0.122 C 
HETATM   21  C6  UNL     1     -16.058  19.689 -17.854  1.00  0.00     0.172 C 
ATOM     22  H4  UNL     1     -16.668  18.722 -16.153  1.00  0.00     0.163 HD
HETATM   23  N6  UNL     1     -14.930  20.511 -18.193  1.00  0.00    -0.355 N 
ATOM     24  H6  UNL     1     -14.828  21.106 -19.015  1.00  0.00     0.163 HD
HETATM   25  C12 UNL     1     -12.933  19.314 -17.506  1.00  0.00     0.168 C 
HETATM   26  S1  UNL     1     -12.469  18.651 -15.921  1.00  0.00     0.159 S 
HETATM   27  O4  UNL     1     -11.436  19.532 -15.307  1.00  0.00    -0.227 OA
HETATM   28  O5  UNL     1     -12.084  17.229 -15.981  1.00  0.00    -0.227 OA
BRANCH  21  29
HETATM   29  N5  UNL     1     -17.094  19.356 -18.762  1.00  0.00    -0.359 N 
ATOM     30  H5  UNL     1     -16.879  19.202 -19.747  1.00  0.00     0.162 HD
BRANCH  29  31
HETATM   31  C7  UNL     1     -18.447  19.235 -18.296  1.00  0.00     0.165 C 
BRANCH  31  32
HETATM   32  C8  UNL     1     -19.128  17.992 -18.780  1.00  0.00     0.116 C 
BRANCH  32  33
HETATM   33  O1  UNL     1     -19.042  17.983 -20.171  1.00  0.00    -0.384 OA
ATOM     34  H1  UNL     1     -18.568  17.199 -20.422  1.00  0.00     0.210 HD
ENDBRANCH  32  33
BRANCH  32  35
HETATM   35  C9  UNL     1     -20.601  17.981 -18.437  1.00  0.00     0.205 C 
BRANCH  35  36
HETATM   36  O2  UNL     1     -20.915  17.046 -17.461  1.00  0.00    -0.398 OA
ATOM     37  H2  UNL     1     -21.833  16.806 -17.467  1.00  0.00     0.209 HD
ENDBRANCH  35  36
ENDBRANCH  32  35
BRANCH  32  38
HETATM   38  C10 UNL     1     -18.437  16.752 -18.253  1.00  0.00     0.205 C 
BRANCH  38  39
HETATM   39  O3  UNL     1     -17.995  16.964 -16.935  1.00  0.00    -0.398 OA
ATOM     40  H3  UNL     1     -17.456  16.236 -16.647  1.00  0.00     0.209 HD
ENDBRANCH  38  39
ENDBRANCH  32  38
ENDBRANCH  31  32
ENDBRANCH  29  31
ENDBRANCH  21  29
ENDBRANCH   8  17
TORSDOF 11
ENDMDL
MODEL 5
REMARK VINA RESULT: -9.164402414      1.276      1.931
REMARK  11 active torsions:
REMARK  status: ('A' for Active; 'I' for Inactive)
REMARK    1  A    between atoms: C3_8  and  C4_9 
REMARK    2  A    between atoms: C6_13  and  N5_14 
REMARK    3  A    between atoms: N5_14  and  C7_16 
REMARK    4  A    between atoms: C7_16  and  C8_17 
REMARK    5  A    between atoms: C8_17  and  O1_18 
REMARK    6  A    between atoms: C8_17  and  C9_20 
REMARK    7  A    between atoms: C8_17  and  C10_23 
REMARK    8  A    between atoms: C9_20  and  O2_21 
REMARK    9  A    between atoms: C10_23  and  O3_24 
REMARK   10  A    between atoms: C13_35  and  N8_36 
REMARK   11  A    between atoms: N8_36  and  N9_38 
ROOT
HETATM    1  N1  UNL     1     -12.564  19.155  -8.556  1.00  0.00    -0.190 NA
HETATM    2  C1  UNL     1     -12.814  19.052  -9.679  1.00  0.00     0.123 C 
HETATM    3  C2  UNL     1     -13.103  18.906 -11.078  1.00  0.00     0.174 A 
HETATM    4  N2  UNL     1     -12.330  18.078 -11.835  1.00  0.00    -0.286 N 
ATOM      5  H2  UNL     1     -11.562  17.581 -11.386  1.00  0.00     0.188 HD
HETATM    6  N3  UNL     1     -12.534  17.893 -13.128  1.00  0.00    -0.287 N 
ATOM      7  H3  UNL     1     -11.925  17.263 -13.651  1.00  0.00     0.188 HD
HETATM    8  C3  UNL     1     -13.531  18.524 -13.757  1.00  0.00     0.118 A 
HETATM    9  N7  UNL     1     -14.307  19.344 -13.038  1.00  0.00    -0.326 N 
ATOM     10  H7  UNL     1     -15.069  19.829 -13.513  1.00  0.00     0.169 HD
HETATM   11  C13 UNL     1     -14.135  19.567 -11.703  1.00  0.00     0.160 A 
ENDROOT
BRANCH  11  12
HETATM   12  N8  UNL     1     -14.915  20.364 -11.077  1.00  0.00    -0.290 N 
ATOM     13  H8  UNL     1     -15.088  20.135 -10.098  1.00  0.00     0.188 HD
BRANCH  12  14
HETATM   14  N9  UNL     1     -15.544  21.472 -11.541  1.00  0.00    -0.344 N 
ATOM     15  H92 UNL     1     -16.545  21.355 -11.697  1.00  0.00     0.176 HD
ATOM     16  H91 UNL     1     -15.149  22.389 -11.750  1.00  0.00     0.176 HD
ENDBRANCH  12  14
ENDBRANCH  11  12
BRANCH   8  17
HETATM   17  C4  UNL     1     -13.799  18.353 -15.185  1.00  0.00     0.202 C 
HETATM   18  C5  UNL     1     -14.649  19.395 -15.795  1.00  0.00     0.134 C 
HETATM   19  N4  UNL     1     -15.882  18.880 -16.381  1.00  0.00    -0.354 N 
HETATM   20  C11 UNL     1     -13.977  20.106 -16.877  1.00  0.00     0.122 C 
HETATM   21  C6  UNL     1     -16.112  19.454 -17.511  1.00  0.00     0.172 C 
ATOM     22  H4  UNL     1     -16.476  18.168 -15.956  1.00  0.00     0.163 HD
HETATM   23  N6  UNL     1     -15.077  20.405 -17.807  1.00  0.00    -0.355 N 
ATOM     24  H6  UNL     1     -15.100  21.137 -18.516  1.00  0.00     0.163 HD
HETATM   25  C12 UNL     1     -12.952  19.263 -17.540  1.00  0.00     0.168 C 
HETATM   26  S1  UNL     1     -12.280  18.378 -16.149  1.00  0.00     0.159 S 
HETATM   27  O4  UNL     1     -11.239  19.218 -15.493  1.00  0.00    -0.227 OA
HETATM   28  O5  UNL     1     -11.823  17.020 -16.497  1.00  0.00    -0.227 OA
BRANCH  21  29
HETATM   29  N5  UNL     1     -17.220  19.203 -18.358  1.00  0.00    -0.359 N 
ATOM     30  H5  UNL     1     -17.068  18.961 -19.338  1.00  0.00     0.162 HD
BRANCH  29  31
HETATM   31  C7  UNL     1     -18.556  19.288 -17.839  1.00  0.00     0.165 C 
BRANCH  31  32
HETATM   32  C8  UNL     1     -19.350  18.035 -18.046  1.00  0.00     0.116 C 
BRANCH  32  33
HETATM   33  O1  UNL     1     -19.903  17.683 -16.815  1.00  0.00    -0.384 OA
ATOM     34  H1  UNL     1     -20.727  17.244 -16.988  1.00  0.00     0.210 HD
ENDBRANCH  32  33
BRANCH  32  35
HETATM   35  C9  UNL     1     -18.481  16.875 -18.477  1.00  0.00     0.205 C 
BRANCH  35  36
HETATM   36  O2  UNL     1     -18.101  16.960 -19.809  1.00  0.00    -0.398 OA
ATOM     37  H2  UNL     1     -17.773  16.136 -20.148  1.00  0.00     0.209 HD
ENDBRANCH  35  36
ENDBRANCH  32  35
BRANCH  32  38
HETATM   38  C10 UNL     1     -20.481  18.263 -19.026  1.00  0.00     0.205 C 
BRANCH  38  39
HETATM   39  O3  UNL     1     -20.002  18.909 -20.180  1.00  0.00    -0.398 OA
ATOM     40  H3  UNL     1     -20.276  18.438 -20.959  1.00  0.00     0.209 HD
ENDBRANCH  38  39
ENDBRANCH  32  38
ENDBRANCH  31  32
ENDBRANCH  29  31
ENDBRANCH  21  29
ENDBRANCH   8  17
TORSDOF 11
ENDMDL
