MODEL 1
REMARK VINA RESULT: -9.382219133      0.000      0.000
REMARK  9 active torsions:
REMARK  status: ('A' for Active; 'I' for Inactive)
REMARK       I    between atoms: C2_2  and  N1_4 
REMARK    1  A    between atoms: N1_4  and  C3_6 
REMARK    2  A    between atoms: C4_7  and  O2_8 
REMARK    3  A    between atoms: C6_11  and  N2_12 
REMARK    4  A    between atoms: C8_16  and  N4_17 
REMARK    5  A    between atoms: N4_17  and  O3_18 
REMARK    6  A    between atoms: N4_17  and  N5_20 
REMARK    7  A    between atoms: N5_20  and  N6_22 
REMARK    8  A    between atoms: N8_29  and  C11_30 
REMARK    9  A    between atoms: C13_36  and  O7_37 
ROOT
HETATM    1  N2  UNL     1     -15.689  19.505 -14.293  1.00  0.00    -0.321 N 
HETATM    2  C7  UNL     1     -15.997  18.186 -14.488  1.00  0.00     0.186 A 
HETATM    3  N3  UNL     1     -16.332  17.971 -15.754  1.00  0.00    -0.339 N 
ATOM      4  H3  UNL     1     -16.604  17.073 -16.155  1.00  0.00     0.167 HD
HETATM    5  C8  UNL     1     -16.255  19.135 -16.419  1.00  0.00     0.147 A 
HETATM    6  C12 UNL     1     -15.855  20.072 -15.498  1.00  0.00     0.140 A 
ENDROOT
BRANCH   1   7
HETATM    7  C6  UNL     1     -15.296  20.002 -13.021  1.00  0.00     0.296 C 
HETATM    8  C5  UNL     1     -13.988  20.731 -13.026  1.00  0.00     0.089 C 
HETATM    9  C4  UNL     1     -13.747  21.381 -11.682  1.00  0.00     0.148 C 
HETATM   10  C3  UNL     1     -13.935  20.379 -10.586  1.00  0.00     0.169 C 
HETATM   11  C13 UNL     1     -15.283  19.724 -10.725  1.00  0.00     0.346 C 
HETATM   12  N9  UNL     1     -15.294  18.975 -11.966  1.00  0.00    -0.025 N 
ATOM     13  H92 UNL     1     -16.058  18.303 -12.039  1.00  0.00     0.282 HD
ATOM     14  H91 UNL     1     -14.537  18.296 -12.048  1.00  0.00     0.282 HD
BRANCH   9  15
HETATM   15  O2  UNL     1     -12.449  21.895 -11.703  1.00  0.00    -0.393 OA
ATOM     16  H2  UNL     1     -11.868  21.370 -12.240  1.00  0.00     0.210 HD
ENDBRANCH   9  15
BRANCH  10  17
HETATM   17  N1  UNL     1     -13.749  20.948  -9.270  1.00  0.00    -0.350 N 
HETATM   18  C2  UNL     1     -13.088  20.316  -8.206  1.00  0.00     0.214 C 
HETATM   19  C1  UNL     1     -12.954  20.986  -6.897  1.00  0.00     0.117 C 
HETATM   20  O1  UNL     1     -12.607  19.175  -8.362  1.00  0.00    -0.274 OA
ATOM     21  H1  UNL     1     -14.126  21.881  -9.102  1.00  0.00     0.163 HD
ENDBRANCH  10  17
BRANCH  11  22
HETATM   22  O7  UNL     1     -15.497  18.858  -9.652  1.00  0.00    -0.368 OA
ATOM     23  H7  UNL     1     -15.925  18.068  -9.960  1.00  0.00     0.212 HD
ENDBRANCH  11  22
ENDBRANCH   1   7
BRANCH   5  24
HETATM   24  N4  UNL     1     -16.540  19.295 -17.792  1.00  0.00    -0.036 NA
BRANCH  24  25
HETATM   25  O3  UNL     1     -15.688  20.181 -18.362  1.00  0.00    -0.287 OA
ATOM     26  H3  UNL     1     -16.043  20.518 -19.176  1.00  0.00     0.239 HD
ENDBRANCH  24  25
BRANCH  24  27
HETATM   27  N5  UNL     1     -17.856  19.636 -18.046  1.00  0.00    -0.206 N 
ATOM     28  H5  UNL     1     -18.073  20.618 -18.214  1.00  0.00     0.207 HD
BRANCH  27  29
HETATM   29  N6  UNL     1     -18.904  18.714 -18.087  1.00  0.00    -0.116 N 
HETATM   30  C9  UNL     1     -18.939  17.723 -18.979  1.00  0.00     0.366 A 
HETATM   31  O4  UNL     1     -18.081  17.455 -19.892  1.00  0.00    -0.243 OA
HETATM   32  N7  UNL     1     -20.061  17.021 -18.764  1.00  0.00    -0.256 N 
HETATM   33  C10 UNL     1     -20.704  17.589 -17.740  1.00  0.00     0.353 A 
ATOM     34  H7  UNL     1     -20.368  16.201 -19.287  1.00  0.00     0.175 HD
HETATM   35  O5  UNL     1     -21.813  17.228 -17.217  1.00  0.00    -0.244 OA
HETATM   36  N8  UNL     1     -19.973  18.636 -17.332  1.00  0.00    -0.153 N 
BRANCH  36  37
HETATM   37  C11 UNL     1     -20.333  19.524 -16.244  1.00  0.00     0.383 C 
HETATM   38  O6  UNL     1     -19.508  20.173 -15.576  1.00  0.00    -0.281 OA
ENDBRANCH  36  37
ENDBRANCH  27  29
ENDBRANCH  24  27
ENDBRANCH   5  24
TORSDOF 9
ENDMDL
MODEL 2
REMARK VINA RESULT: -9.342266030      2.941      4.807
REMARK  9 active torsions:
REMARK  status: ('A' for Active; 'I' for Inactive)
REMARK       I    between atoms: C2_2  and  N1_4 
REMARK    1  A    between atoms: N1_4  and  C3_6 
REMARK    2  A    between atoms: C4_7  and  O2_8 
REMARK    3  A    between atoms: C6_11  and  N2_12 
REMARK    4  A    between atoms: C8_16  and  N4_17 
REMARK    5  A    between atoms: N4_17  and  O3_18 
REMARK    6  A    between atoms: N4_17  and  N5_20 
REMARK    7  A    between atoms: N5_20  and  N6_22 
REMARK    8  A    between atoms: N8_29  and  C11_30 
REMARK    9  A    between atoms: C13_36  and  O7_37 
ROOT
HETATM    1  N2  UNL     1     -18.106  19.370 -16.810  1.00  0.00    -0.321 N 
HETATM    2  C7  UNL     1     -17.790  19.208 -18.131  1.00  0.00     0.186 A 
HETATM    3  N3  UNL     1     -18.884  18.962 -18.842  1.00  0.00    -0.339 N 
ATOM      4  H3  UNL     1     -18.917  18.804 -19.850  1.00  0.00     0.167 HD
HETATM    5  C8  UNL     1     -19.939  18.954 -18.013  1.00  0.00     0.147 A 
HETATM    6  C12 UNL     1     -19.438  19.210 -16.759  1.00  0.00     0.140 A 
ENDROOT
BRANCH   1   7
HETATM    7  C6  UNL     1     -17.114  19.645 -15.830  1.00  0.00     0.296 C 
HETATM    8  C5  UNL     1     -17.608  20.448 -14.668  1.00  0.00     0.089 C 
HETATM    9  C4  UNL     1     -16.541  20.528 -13.597  1.00  0.00     0.148 C 
HETATM   10  C3  UNL     1     -15.244  20.970 -14.197  1.00  0.00     0.169 C 
HETATM   11  C13 UNL     1     -14.892  20.079 -15.358  1.00  0.00     0.346 C 
HETATM   12  N9  UNL     1     -15.898  20.260 -16.387  1.00  0.00    -0.025 N 
ATOM     13  H92 UNL     1     -15.628  19.896 -17.300  1.00  0.00     0.282 HD
ATOM     14  H91 UNL     1     -16.020  21.229 -16.682  1.00  0.00     0.282 HD
BRANCH   9  15
HETATM   15  O2  UNL     1     -17.001  21.420 -12.628  1.00  0.00    -0.393 OA
ATOM     16  H2  UNL     1     -17.060  21.015 -11.771  1.00  0.00     0.210 HD
ENDBRANCH   9  15
BRANCH  10  17
HETATM   17  N1  UNL     1     -14.173  21.036 -13.228  1.00  0.00    -0.350 N 
HETATM   18  C2  UNL     1     -13.757  22.201 -12.565  1.00  0.00     0.214 C 
HETATM   19  C1  UNL     1     -12.648  22.159 -11.591  1.00  0.00     0.117 C 
HETATM   20  O1  UNL     1     -14.329  23.286 -12.797  1.00  0.00    -0.274 OA
ATOM     21  H1  UNL     1     -13.682  20.169 -13.009  1.00  0.00     0.163 HD
ENDBRANCH  10  17
BRANCH  11  22
HETATM   22  O7  UNL     1     -13.639  20.433 -15.859  1.00  0.00    -0.368 OA
ATOM     23  H7  UNL     1     -13.021  19.729 -15.700  1.00  0.00     0.212 HD
ENDBRANCH  11  22
ENDBRANCH   1   7
BRANCH   5  24
HETATM   24  N4  UNL     1     -21.273  18.726 -18.412  1.00  0.00    -0.036 NA
BRANCH  24  25
HETATM   25  O3  UNL     1     -21.500  19.228 -19.650  1.00  0.00    -0.287 OA
ATOM     26  H3  UNL     1     -21.364  18.564 -20.315  1.00  0.00     0.239 HD
ENDBRANCH  24  25
BRANCH  24  27
HETATM   27  N5  UNL     1     -22.208  19.193 -17.507  1.00  0.00    -0.206 N 
ATOM     28  H5  UNL     1     -21.997  20.052 -17.000  1.00  0.00     0.207 HD
BRANCH  27  29
HETATM   29  N6  UNL     1     -23.424  18.556 -17.247  1.00  0.00    -0.116 N 
HETATM   30  C9  UNL     1     -23.509  17.501 -16.435  1.00  0.00     0.366 A 
HETATM   31  O4  UNL     1     -22.563  16.923 -15.793  1.00  0.00    -0.243 OA
HETATM   32  N7  UNL     1     -24.795  17.122 -16.394  1.00  0.00    -0.256 N 
HETATM   33  C10 UNL     1     -25.487  17.950 -17.182  1.00  0.00     0.353 A 
ATOM     34  H7  UNL     1     -25.176  16.342 -15.858  1.00  0.00     0.175 HD
HETATM   35  O5  UNL     1     -26.742  17.935 -17.421  1.00  0.00    -0.244 OA
HETATM   36  N8  UNL     1     -24.622  18.833 -17.702  1.00  0.00    -0.153 N 
BRANCH  36  37
HETATM   37  C11 UNL     1     -24.977  19.898 -18.620  1.00  0.00     0.383 C 
HETATM   38  O6  UNL     1     -24.164  20.462 -19.375  1.00  0.00    -0.281 OA
ENDBRANCH  36  37
ENDBRANCH  27  29
ENDBRANCH  24  27
ENDBRANCH   5  24
TORSDOF 9
ENDMDL
MODEL 3
REMARK VINA RESULT: -9.337146355      1.602      2.186
REMARK  9 active torsions:
REMARK  status: ('A' for Active; 'I' for Inactive)
REMARK       I    between atoms: C2_2  and  N1_4 
REMARK    1  A    between atoms: N1_4  and  C3_6 
REMARK    2  A    between atoms: C4_7  and  O2_8 
REMARK    3  A    between atoms: C6_11  and  N2_12 
REMARK    4  A    between atoms: C8_16  and  N4_17 
REMARK    5  A    between atoms: N4_17  and  O3_18 
REMARK    6  A    between atoms: N4_17  and  N5_20 
REMARK    7  A    between atoms: N5_20  and  N6_22 
REMARK    8  A    between atoms: N8_29  and  C11_30 
REMARK    9  A    between atoms: C13_36  and  O7_37 
ROOT
HETATM    1  N2  UNL     1     -16.399  20.763 -13.199  1.00  0.00    -0.321 N 
HETATM    2  C7  UNL     1     -15.757  20.369 -14.341  1.00  0.00     0.186 A 
HETATM    3  N3  UNL     1     -16.630  20.192 -15.325  1.00  0.00    -0.339 N 
ATOM      4  H3  UNL     1     -16.404  19.900 -16.276  1.00  0.00     0.167 HD
HETATM    5  C8  UNL     1     -17.859  20.462 -14.859  1.00  0.00     0.147 A 
HETATM    6  C12 UNL     1     -17.696  20.814 -13.541  1.00  0.00     0.140 A 
ENDROOT
BRANCH   1   7
HETATM    7  C6  UNL     1     -15.692  21.020 -11.993  1.00  0.00     0.296 C 
HETATM    8  C5  UNL     1     -14.373  21.701 -12.191  1.00  0.00     0.089 C 
HETATM    9  C4  UNL     1     -13.786  22.101 -10.855  1.00  0.00     0.148 C 
HETATM   10  C3  UNL     1     -13.787  20.930  -9.923  1.00  0.00     0.169 C 
HETATM   11  C13 UNL     1     -15.172  20.348  -9.842  1.00  0.00     0.346 C 
HETATM   12  N9  UNL     1     -15.519  19.826 -11.150  1.00  0.00    -0.025 N 
ATOM     13  H92 UNL     1     -16.324  19.199 -11.147  1.00  0.00     0.282 HD
ATOM     14  H91 UNL     1     -14.849  19.150 -11.518  1.00  0.00     0.282 HD
BRANCH   9  15
HETATM   15  O2  UNL     1     -12.496  22.573 -11.100  1.00  0.00    -0.393 OA
ATOM     16  H2  UNL     1     -12.452  23.092 -11.894  1.00  0.00     0.210 HD
ENDBRANCH   9  15
BRANCH  10  17
HETATM   17  N1  UNL     1     -13.265  21.256  -8.615  1.00  0.00    -0.350 N 
HETATM   18  C2  UNL     1     -12.641  20.347  -7.747  1.00  0.00     0.214 C 
HETATM   19  C1  UNL     1     -12.143  20.785  -6.427  1.00  0.00     0.117 C 
HETATM   20  O1  UNL     1     -12.501  19.156  -8.091  1.00  0.00    -0.274 OA
ATOM     21  H1  UNL     1     -13.358  22.222  -8.298  1.00  0.00     0.163 HD
ENDBRANCH  10  17
BRANCH  11  22
HETATM   22  O7  UNL     1     -15.194  19.315  -8.904  1.00  0.00    -0.368 OA
ATOM     23  H7  UNL     1     -15.464  19.657  -8.059  1.00  0.00     0.212 HD
ENDBRANCH  11  22
ENDBRANCH   1   7
BRANCH   5  24
HETATM   24  N4  UNL     1     -19.043  20.383 -15.623  1.00  0.00    -0.036 NA
BRANCH  24  25
HETATM   25  O3  UNL     1     -20.109  20.821 -14.909  1.00  0.00    -0.287 OA
ATOM     26  H3  UNL     1     -20.588  20.092 -14.534  1.00  0.00     0.239 HD
ENDBRANCH  24  25
BRANCH  24  27
HETATM   27  N5  UNL     1     -19.279  19.126 -16.147  1.00  0.00    -0.206 N 
ATOM     28  H5  UNL     1     -19.431  18.355 -15.497  1.00  0.00     0.207 HD
BRANCH  27  29
HETATM   29  N6  UNL     1     -19.320  18.849 -17.516  1.00  0.00    -0.116 N 
HETATM   30  C9  UNL     1     -18.211  18.650 -18.230  1.00  0.00     0.366 A 
HETATM   31  O4  UNL     1     -16.997  18.673 -17.821  1.00  0.00    -0.243 OA
HETATM   32  N7  UNL     1     -18.580  18.414 -19.497  1.00  0.00    -0.256 N 
HETATM   33  C10 UNL     1     -19.914  18.469 -19.548  1.00  0.00     0.353 A 
ATOM     34  H7  UNL     1     -17.955  18.225 -20.281  1.00  0.00     0.175 HD
HETATM   35  O5  UNL     1     -20.665  18.301 -20.568  1.00  0.00    -0.244 OA
HETATM   36  N8  UNL     1     -20.356  18.740 -18.311  1.00  0.00    -0.153 N 
BRANCH  36  37
HETATM   37  C11 UNL     1     -21.751  18.891 -17.945  1.00  0.00     0.383 C 
HETATM   38  O6  UNL     1     -22.150  19.623 -17.022  1.00  0.00    -0.281 OA
ENDBRANCH  36  37
ENDBRANCH  27  29
ENDBRANCH  24  27
ENDBRANCH   5  24
TORSDOF 9
ENDMDL
MODEL 4
REMARK VINA RESULT: -9.333638970      2.048      8.616
REMARK  9 active torsions:
REMARK  status: ('A' for Active; 'I' for Inactive)
REMARK       I    between atoms: C2_2  and  N1_4 
REMARK    1  A    between atoms: N1_4  and  C3_6 
REMARK    2  A    between atoms: C4_7  and  O2_8 
REMARK    3  A    between atoms: C6_11  and  N2_12 
REMARK    4  A    between atoms: C8_16  and  N4_17 
REMARK    5  A    between atoms: N4_17  and  O3_18 
REMARK    6  A    between atoms: N4_17  and  N5_20 
REMARK    7  A    between atoms: N5_20  and  N6_22 
REMARK    8  A    between atoms: N8_29  and  C11_30 
REMARK    9  A    between atoms: C13_36  and  O7_37 
ROOT
HETATM    1  N2  UNL     1     -15.456  20.639 -13.172  1.00  0.00    -0.321 N 
HETATM    2  C7  UNL     1     -14.125  20.407 -13.391  1.00  0.00     0.186 A 
HETATM    3  N3  UNL     1     -13.431  20.609 -12.278  1.00  0.00    -0.339 N 
ATOM      4  H3  UNL     1     -12.421  20.502 -12.178  1.00  0.00     0.167 HD
HETATM    5  C8  UNL     1     -14.281  20.976 -11.306  1.00  0.00     0.147 A 
HETATM    6  C12 UNL     1     -15.530  20.989 -11.878  1.00  0.00     0.140 A 
ENDROOT
BRANCH   1   7
HETATM    7  C6  UNL     1     -16.421  20.494 -14.205  1.00  0.00     0.296 C 
HETATM    8  C5  UNL     1     -17.839  20.611 -13.738  1.00  0.00     0.089 C 
HETATM    9  C4  UNL     1     -18.779  20.633 -14.923  1.00  0.00     0.148 C 
HETATM   10  C3  UNL     1     -18.481  19.486 -15.837  1.00  0.00     0.169 C 
HETATM   11  C13 UNL     1     -17.021  19.496 -16.203  1.00  0.00     0.346 C 
HETATM   12  N9  UNL     1     -16.252  19.264 -14.996  1.00  0.00    -0.025 N 
ATOM     13  H92 UNL     1     -15.279  19.010 -15.166  1.00  0.00     0.282 HD
ATOM     14  H91 UNL     1     -16.507  18.411 -14.498  1.00  0.00     0.282 HD
BRANCH   9  15
HETATM   15  O2  UNL     1     -20.078  20.574 -14.416  1.00  0.00    -0.393 OA
ATOM     16  H2  UNL     1     -20.338  19.684 -14.209  1.00  0.00     0.210 HD
ENDBRANCH   9  15
BRANCH  10  17
HETATM   17  N1  UNL     1     -19.328  19.470 -17.009  1.00  0.00    -0.350 N 
HETATM   18  C2  UNL     1     -20.513  18.730 -17.135  1.00  0.00     0.214 C 
HETATM   19  C1  UNL     1     -21.305  18.782 -18.380  1.00  0.00     0.117 C 
HETATM   20  O1  UNL     1     -20.907  18.020 -16.188  1.00  0.00    -0.274 OA
ATOM     21  H1  UNL     1     -19.041  20.040 -17.805  1.00  0.00     0.163 HD
ENDBRANCH  10  17
BRANCH  11  22
HETATM   22  O7  UNL     1     -16.762  18.483 -17.127  1.00  0.00    -0.368 OA
ATOM     23  H7  UNL     1     -17.581  18.105 -17.425  1.00  0.00     0.212 HD
ENDBRANCH  11  22
ENDBRANCH   1   7
BRANCH   5  24
HETATM   24  N4  UNL     1     -13.903  21.274  -9.979  1.00  0.00    -0.036 NA
BRANCH  24  25
HETATM   25  O3  UNL     1     -12.970  22.257  -9.951  1.00  0.00    -0.287 OA
ATOM     26  H3  UNL     1     -13.362  23.089  -9.714  1.00  0.00     0.239 HD
ENDBRANCH  24  25
BRANCH  24  27
HETATM   27  N5  UNL     1     -13.482  20.169  -9.264  1.00  0.00    -0.206 N 
ATOM     28  H5  UNL     1     -12.676  20.274  -8.647  1.00  0.00     0.207 HD
BRANCH  27  29
HETATM   29  N6  UNL     1     -14.095  18.915  -9.336  1.00  0.00    -0.116 N 
HETATM   30  C9  UNL     1     -15.347  18.716  -8.921  1.00  0.00     0.366 A 
HETATM   31  O4  UNL     1     -16.155  19.574  -8.420  1.00  0.00    -0.243 OA
HETATM   32  N7  UNL     1     -15.640  17.423  -9.118  1.00  0.00    -0.256 N 
HETATM   33  C10 UNL     1     -14.563  16.840  -9.653  1.00  0.00     0.353 A 
ATOM     34  H7  UNL     1     -16.526  16.966  -8.899  1.00  0.00     0.175 HD
HETATM   35  O5  UNL     1     -14.425  15.616  -9.994  1.00  0.00    -0.244 OA
HETATM   36  N8  UNL     1     -13.615  17.780  -9.782  1.00  0.00    -0.153 N 
BRANCH  36  37
HETATM   37  C11 UNL     1     -12.288  17.549 -10.318  1.00  0.00     0.383 C 
HETATM   38  O6  UNL     1     -11.487  18.457 -10.601  1.00  0.00    -0.281 OA
ENDBRANCH  36  37
ENDBRANCH  27  29
ENDBRANCH  24  27
ENDBRANCH   5  24
TORSDOF 9
ENDMDL
MODEL 5
REMARK VINA RESULT: -9.313759447      3.241      8.712
REMARK  9 active torsions:
REMARK  status: ('A' for Active; 'I' for Inactive)
REMARK       I    between atoms: C2_2  and  N1_4 
REMARK    1  A    between atoms: N1_4  and  C3_6 
REMARK    2  A    between atoms: C4_7  and  O2_8 
REMARK    3  A    between atoms: C6_11  and  N2_12 
REMARK    4  A    between atoms: C8_16  and  N4_17 
REMARK    5  A    between atoms: N4_17  and  O3_18 
REMARK    6  A    between atoms: N4_17  and  N5_20 
REMARK    7  A    between atoms: N5_20  and  N6_22 
REMARK    8  A    between atoms: N8_29  and  C11_30 
REMARK    9  A    between atoms: C13_36  and  O7_37 
ROOT
HETATM    1  N2  UNL     1     -19.964  18.826 -17.270  1.00  0.00    -0.321 N 
HETATM    2  C7  UNL     1     -19.667  18.799 -18.605  1.00  0.00     0.186 A 
HETATM    3  N3  UNL     1     -18.383  19.077 -18.800  1.00  0.00    -0.339 N 
ATOM      4  H3  UNL     1     -17.913  19.119 -19.704  1.00  0.00     0.167 HD
HETATM    5  C8  UNL     1     -17.808  19.293 -17.606  1.00  0.00     0.147 A 
HETATM    6  C12 UNL     1     -18.802  19.133 -16.671  1.00  0.00     0.140 A 
ENDROOT
BRANCH   1   7
HETATM    7  C6  UNL     1     -21.275  18.562 -16.789  1.00  0.00     0.296 C 
HETATM    8  C5  UNL     1     -22.366  19.107 -17.658  1.00  0.00     0.089 C 
HETATM    9  C4  UNL     1     -23.713  18.620 -17.172  1.00  0.00     0.148 C 
HETATM   10  C3  UNL     1     -23.853  18.875 -15.704  1.00  0.00     0.169 C 
HETATM   11  C13 UNL     1     -22.679  18.284 -14.972  1.00  0.00     0.346 C 
HETATM   12  N9  UNL     1     -21.483  18.987 -15.395  1.00  0.00    -0.025 N 
ATOM     13  H92 UNL     1     -20.677  18.836 -14.789  1.00  0.00     0.282 HD
ATOM     14  H91 UNL     1     -21.531  19.999 -15.271  1.00  0.00     0.282 HD
BRANCH   9  15
HETATM   15  O2  UNL     1     -24.684  19.293 -17.915  1.00  0.00    -0.393 OA
ATOM     16  H2  UNL     1     -25.192  19.889 -17.379  1.00  0.00     0.210 HD
ENDBRANCH   9  15
BRANCH  10  17
HETATM   17  N1  UNL     1     -25.111  18.402 -15.172  1.00  0.00    -0.350 N 
HETATM   18  C2  UNL     1     -25.897  19.088 -14.233  1.00  0.00     0.214 C 
HETATM   19  C1  UNL     1     -27.169  18.513 -13.751  1.00  0.00     0.117 C 
HETATM   20  O1  UNL     1     -25.522  20.196 -13.799  1.00  0.00    -0.274 OA
ATOM     21  H1  UNL     1     -25.454  17.500 -15.504  1.00  0.00     0.163 HD
ENDBRANCH  10  17
BRANCH  11  22
HETATM   22  O7  UNL     1     -22.855  18.441 -13.597  1.00  0.00    -0.368 OA
ATOM     23  H7  UNL     1     -22.691  19.345 -13.355  1.00  0.00     0.212 HD
ENDBRANCH  11  22
ENDBRANCH   1   7
BRANCH   5  24
HETATM   24  N4  UNL     1     -16.447  19.615 -17.417  1.00  0.00    -0.036 NA
BRANCH  24  25
HETATM   25  O3  UNL     1     -15.873  19.993 -18.585  1.00  0.00    -0.287 OA
ATOM     26  H3  UNL     1     -15.768  20.936 -18.622  1.00  0.00     0.239 HD
ENDBRANCH  24  25
BRANCH  24  27
HETATM   27  N5  UNL     1     -15.721  18.608 -16.809  1.00  0.00    -0.206 N 
ATOM     28  H5  UNL     1     -15.774  17.671 -17.208  1.00  0.00     0.207 HD
BRANCH  27  29
HETATM   29  N6  UNL     1     -14.921  18.799 -15.680  1.00  0.00    -0.116 N 
HETATM   30  C9  UNL     1     -15.365  18.542 -14.448  1.00  0.00     0.366 A 
HETATM   31  O4  UNL     1     -16.517  18.104 -14.102  1.00  0.00    -0.243 OA
HETATM   32  N7  UNL     1     -14.373  18.826 -13.591  1.00  0.00    -0.256 N 
HETATM   33  C10 UNL     1     -13.329  19.255 -14.307  1.00  0.00     0.353 A 
ATOM     34  H7  UNL     1     -14.409  18.731 -12.576  1.00  0.00     0.175 HD
HETATM   35  O5  UNL     1     -12.186  19.627 -13.875  1.00  0.00    -0.244 OA
HETATM   36  N8  UNL     1     -13.686  19.231 -15.599  1.00  0.00    -0.153 N 
BRANCH  36  37
HETATM   37  C11 UNL     1     -12.834  19.633 -16.700  1.00  0.00     0.383 C 
HETATM   38  O6  UNL     1     -13.016  19.285 -17.881  1.00  0.00    -0.281 OA
ENDBRANCH  36  37
ENDBRANCH  27  29
ENDBRANCH  24  27
ENDBRANCH   5  24
TORSDOF 9
ENDMDL
