MODEL 1
REMARK VINA RESULT: -9.022668507      0.000      0.000
REMARK  9 active torsions:
REMARK  status: ('A' for Active; 'I' for Inactive)
REMARK    1  A    between atoms: N1_2  and  S1_4 
REMARK    2  A    between atoms: S1_4  and  C2_7 
REMARK    3  A    between atoms: N4_15  and  N5_16 
REMARK    4  A    between atoms: C6_19  and  N6_20 
REMARK    5  A    between atoms: N7_23  and  C7_24 
REMARK    6  A    between atoms: N9_26  and  C8_27 
REMARK    7  A    between atoms: C8_27  and  C9_28 
REMARK    8  A    between atoms: C11_32  and  O5_33 
REMARK    9  A    between atoms: C12_35  and  O6_36 
ROOT
HETATM    1  C2  UNL     1     -13.278  20.535  -9.687  1.00  0.00     0.183 A 
HETATM    2  N2  UNL     1     -13.176  21.910  -9.805  1.00  0.00    -0.340 N 
ATOM      3  H2  UNL     1     -13.257  22.485  -8.966  1.00  0.00     0.167 HD
HETATM    4  C3  UNL     1     -12.979  22.501 -10.969  1.00  0.00     0.183 A 
HETATM    5  N3  UNL     1     -12.874  21.754 -12.072  1.00  0.00    -0.336 N 
ATOM      6  H3  UNL     1     -12.724  22.212 -12.971  1.00  0.00     0.168 HD
HETATM    7  C4  UNL     1     -12.963  20.410 -12.027  1.00  0.00     0.159 A 
HETATM    8  C5  UNL     1     -13.170  19.772 -10.808  1.00  0.00     0.159 A 
HETATM    9  N4  UNL     1     -13.207  18.463 -11.055  1.00  0.00    -0.086 N 
HETATM   10  C6  UNL     1     -13.026  18.307 -12.408  1.00  0.00     0.702 A 
HETATM   11  N7  UNL     1     -12.878  19.481 -12.997  1.00  0.00    -0.141 N 
ENDROOT
BRANCH  11  12
HETATM   12  C7  UNL     1     -12.665  19.762 -14.409  1.00  0.00     0.249 C 
HETATM   13  N8  UNL     1     -11.716  18.803 -14.936  1.00  0.00    -0.135 NA
HETATM   14  N9  UNL     1     -11.346  19.129 -16.223  1.00  0.00    -0.220 NA
HETATM   15  C10 UNL     1     -12.416  19.202 -17.156  1.00  0.00     0.144 C 
HETATM   16  C11 UNL     1     -13.780  19.084 -16.557  1.00  0.00     0.164 C 
HETATM   17  C12 UNL     1     -13.918  19.735 -15.213  1.00  0.00     0.189 C 
BRANCH  14  18
HETATM   18  C8  UNL     1     -10.429  20.245 -16.307  1.00  0.00     0.222 C 
BRANCH  18  19
HETATM   19  C9  UNL     1      -9.168  19.887 -16.976  1.00  0.00     0.187 C 
HETATM   20  O3  UNL     1      -8.110  19.940 -16.297  1.00  0.00    -0.647 OA
HETATM   21  O4  UNL     1      -9.108  19.501 -18.305  1.00  0.00    -0.647 OA
ENDBRANCH  18  19
ENDBRANCH  14  18
BRANCH  16  22
HETATM   22  O5  UNL     1     -14.206  17.756 -16.557  1.00  0.00    -0.392 OA
ATOM     23  H5  UNL     1     -15.152  17.707 -16.491  1.00  0.00     0.210 HD
ENDBRANCH  16  22
BRANCH  17  24
HETATM   24  O6  UNL     1     -14.382  21.060 -15.383  1.00  0.00    -0.389 OA
ATOM     25  H6  UNL     1     -14.863  21.320 -14.606  1.00  0.00     0.210 HD
ENDBRANCH  17  24
ENDBRANCH  11  12
BRANCH  10  26
HETATM   26  N6  UNL     1     -13.014  17.132 -12.957  1.00  0.00    -0.233 N 
ATOM     27  H62 UNL     1     -13.813  16.547 -13.201  1.00  0.00     0.174 HD
ATOM     28  H61 UNL     1     -12.139  16.669 -13.203  1.00  0.00     0.174 HD
ENDBRANCH  10  26
BRANCH   9  29
HETATM   29  N5  UNL     1     -13.375  17.392 -10.182  1.00  0.00    -0.324 N 
ATOM     30  H52 UNL     1     -13.846  17.476  -9.281  1.00  0.00     0.178 HD
ATOM     31  H51 UNL     1     -13.093  16.417 -10.280  1.00  0.00     0.178 HD
ENDBRANCH   9  29
BRANCH   1  32
HETATM   32  S1  UNL     1     -13.532  19.904  -8.092  1.00  0.00     0.276 S 
HETATM   33  O1  UNL     1     -12.708  18.776  -7.639  1.00  0.00    -0.199 OA
HETATM   34  O2  UNL     1     -13.261  21.091  -7.096  1.00  0.00    -0.199 OA
BRANCH  32  35
HETATM   35  N1  UNL     1     -15.197  19.508  -7.909  1.00  0.00    -0.319 N 
HETATM   36  C1  UNL     1     -15.508  18.387  -7.122  1.00  0.00     0.159 C 
ATOM     37  H1  UNL     1     -15.928  20.064  -8.353  1.00  0.00     0.171 HD
ENDBRANCH  32  35
ENDBRANCH   1  32
TORSDOF 9
ENDMDL
MODEL 2
REMARK VINA RESULT: -8.725076077      5.113      7.578
REMARK  9 active torsions:
REMARK  status: ('A' for Active; 'I' for Inactive)
REMARK    1  A    between atoms: N1_2  and  S1_4 
REMARK    2  A    between atoms: S1_4  and  C2_7 
REMARK    3  A    between atoms: N4_15  and  N5_16 
REMARK    4  A    between atoms: C6_19  and  N6_20 
REMARK    5  A    between atoms: N7_23  and  C7_24 
REMARK    6  A    between atoms: N9_26  and  C8_27 
REMARK    7  A    between atoms: C8_27  and  C9_28 
REMARK    8  A    between atoms: C11_32  and  O5_33 
REMARK    9  A    between atoms: C12_35  and  O6_36 
ROOT
HETATM    1  C2  UNL     1     -19.186  19.602 -15.837  1.00  0.00     0.183 A 
HETATM    2  N2  UNL     1     -19.726  20.502 -14.934  1.00  0.00    -0.340 N 
ATOM      3  H2  UNL     1     -20.679  20.834 -15.078  1.00  0.00     0.167 HD
HETATM    4  C3  UNL     1     -19.045  20.943 -13.893  1.00  0.00     0.183 A 
HETATM    5  N3  UNL     1     -17.794  20.513 -13.699  1.00  0.00    -0.336 N 
ATOM      6  H3  UNL     1     -17.269  20.857 -12.896  1.00  0.00     0.168 HD
HETATM    7  C4  UNL     1     -17.210  19.637 -14.540  1.00  0.00     0.159 A 
HETATM    8  C5  UNL     1     -17.914  19.162 -15.642  1.00  0.00     0.159 A 
HETATM    9  N4  UNL     1     -17.108  18.316 -16.283  1.00  0.00    -0.086 N 
HETATM   10  C6  UNL     1     -15.929  18.278 -15.581  1.00  0.00     0.702 A 
HETATM   11  N7  UNL     1     -15.987  19.076 -14.528  1.00  0.00    -0.141 N 
ENDROOT
BRANCH  11  12
HETATM   12  C7  UNL     1     -14.959  19.328 -13.529  1.00  0.00     0.249 C 
HETATM   13  N8  UNL     1     -15.397  20.413 -12.676  1.00  0.00    -0.135 NA
HETATM   14  N9  UNL     1     -14.390  20.808 -11.822  1.00  0.00    -0.220 NA
HETATM   15  C10 UNL     1     -13.892  19.789 -10.966  1.00  0.00     0.144 C 
HETATM   16  C11 UNL     1     -14.419  18.419 -11.249  1.00  0.00     0.164 C 
HETATM   17  C12 UNL     1     -14.629  18.132 -12.706  1.00  0.00     0.189 C 
BRANCH  14  18
HETATM   18  C8  UNL     1     -13.350  21.587 -12.460  1.00  0.00     0.222 C 
BRANCH  18  19
HETATM   19  C9  UNL     1     -13.564  23.036 -12.318  1.00  0.00     0.187 C 
HETATM   20  O3  UNL     1     -14.205  23.623 -13.227  1.00  0.00    -0.647 OA
HETATM   21  O4  UNL     1     -13.093  23.761 -11.236  1.00  0.00    -0.647 OA
ENDBRANCH  18  19
ENDBRANCH  14  18
BRANCH  16  22
HETATM   22  O5  UNL     1     -15.553  18.159 -10.481  1.00  0.00    -0.392 OA
ATOM     23  H5  UNL     1     -15.885  18.958 -10.090  1.00  0.00     0.210 HD
ENDBRANCH  16  22
BRANCH  17  24
HETATM   24  O6  UNL     1     -13.467  17.520 -13.231  1.00  0.00    -0.389 OA
ATOM     25  H6  UNL     1     -12.844  17.387 -12.527  1.00  0.00     0.210 HD
ENDBRANCH  17  24
ENDBRANCH  11  12
BRANCH  10  26
HETATM   26  N6  UNL     1     -14.937  17.536 -15.966  1.00  0.00    -0.233 N 
ATOM     27  H62 UNL     1     -14.919  16.862 -16.731  1.00  0.00     0.174 HD
ATOM     28  H61 UNL     1     -14.033  17.572 -15.495  1.00  0.00     0.174 HD
ENDBRANCH  10  26
BRANCH   9  29
HETATM   29  N5  UNL     1     -17.334  17.563 -17.432  1.00  0.00    -0.324 N 
ATOM     30  H52 UNL     1     -16.746  17.625 -18.263  1.00  0.00     0.178 HD
ATOM     31  H51 UNL     1     -18.055  16.869 -17.630  1.00  0.00     0.178 HD
ENDBRANCH   9  29
BRANCH   1  32
HETATM   32  S1  UNL     1     -20.204  19.110 -17.152  1.00  0.00     0.276 S 
HETATM   33  O1  UNL     1     -19.740  19.335 -18.527  1.00  0.00    -0.199 OA
HETATM   34  O2  UNL     1     -20.414  17.559 -16.994  1.00  0.00    -0.199 OA
BRANCH  32  35
HETATM   35  N1  UNL     1     -21.759  19.819 -16.948  1.00  0.00    -0.319 N 
HETATM   36  C1  UNL     1     -22.839  19.197 -17.596  1.00  0.00     0.159 C 
ATOM     37  H1  UNL     1     -21.891  20.656 -16.380  1.00  0.00     0.171 HD
ENDBRANCH  32  35
ENDBRANCH   1  32
TORSDOF 9
ENDMDL
MODEL 3
REMARK VINA RESULT: -8.708624786      4.104      7.163
REMARK  9 active torsions:
REMARK  status: ('A' for Active; 'I' for Inactive)
REMARK    1  A    between atoms: N1_2  and  S1_4 
REMARK    2  A    between atoms: S1_4  and  C2_7 
REMARK    3  A    between atoms: N4_15  and  N5_16 
REMARK    4  A    between atoms: C6_19  and  N6_20 
REMARK    5  A    between atoms: N7_23  and  C7_24 
REMARK    6  A    between atoms: N9_26  and  C8_27 
REMARK    7  A    between atoms: C8_27  and  C9_28 
REMARK    8  A    between atoms: C11_32  and  O5_33 
REMARK    9  A    between atoms: C12_35  and  O6_36 
ROOT
HETATM    1  C2  UNL     1     -17.589  19.496 -15.564  1.00  0.00     0.183 A 
HETATM    2  N2  UNL     1     -18.411  20.433 -14.965  1.00  0.00    -0.340 N 
ATOM      3  H2  UNL     1     -19.279  20.699 -15.431  1.00  0.00     0.167 HD
HETATM    4  C3  UNL     1     -18.108  20.994 -13.808  1.00  0.00     0.183 A 
HETATM    5  N3  UNL     1     -16.972  20.651 -13.194  1.00  0.00    -0.336 N 
ATOM      6  H3  UNL     1     -16.738  21.087 -12.302  1.00  0.00     0.168 HD
HETATM    7  C4  UNL     1     -16.128  19.744 -13.723  1.00  0.00     0.159 A 
HETATM    8  C5  UNL     1     -16.433  19.144 -14.940  1.00  0.00     0.159 A 
HETATM    9  N4  UNL     1     -15.442  18.295 -15.214  1.00  0.00    -0.086 N 
HETATM   10  C6  UNL     1     -14.545  18.380 -14.179  1.00  0.00     0.702 A 
HETATM   11  N7  UNL     1     -14.956  19.255 -13.276  1.00  0.00    -0.141 N 
ENDROOT
BRANCH  11  12
HETATM   12  C7  UNL     1     -14.306  19.643 -12.033  1.00  0.00     0.249 C 
HETATM   13  N8  UNL     1     -14.910  20.869 -11.556  1.00  0.00    -0.135 NA
HETATM   14  N9  UNL     1     -14.218  21.375 -10.477  1.00  0.00    -0.220 NA
HETATM   15  C10 UNL     1     -14.125  20.501  -9.359  1.00  0.00     0.144 C 
HETATM   16  C11 UNL     1     -14.641  19.119  -9.598  1.00  0.00     0.164 C 
HETATM   17  C12 UNL     1     -14.373  18.595 -10.978  1.00  0.00     0.189 C 
BRANCH  14  18
HETATM   18  C8  UNL     1     -12.962  22.004 -10.825  1.00  0.00     0.222 C 
BRANCH  18  19
HETATM   19  C9  UNL     1     -13.146  23.349 -11.392  1.00  0.00     0.187 C 
HETATM   20  O3  UNL     1     -12.743  24.329 -10.714  1.00  0.00    -0.647 OA
HETATM   21  O4  UNL     1     -13.737  23.568 -12.625  1.00  0.00    -0.647 OA
ENDBRANCH  18  19
ENDBRANCH  14  18
BRANCH  16  22
HETATM   22  O5  UNL     1     -15.985  19.025  -9.239  1.00  0.00    -0.392 OA
ATOM     23  H5  UNL     1     -16.104  18.383  -8.548  1.00  0.00     0.210 HD
ENDBRANCH  16  22
BRANCH  17  24
HETATM   24  O6  UNL     1     -13.160  17.870 -10.973  1.00  0.00    -0.389 OA
ATOM     25  H6  UNL     1     -13.310  17.016 -11.361  1.00  0.00     0.210 HD
ENDBRANCH  17  24
ENDBRANCH  11  12
BRANCH  10  26
HETATM   26  N6  UNL     1     -13.463  17.666 -14.161  1.00  0.00    -0.233 N 
ATOM     27  H62 UNL     1     -13.051  17.135 -14.928  1.00  0.00     0.174 HD
ATOM     28  H61 UNL     1     -12.900  17.574 -13.315  1.00  0.00     0.174 HD
ENDBRANCH  10  26
BRANCH   9  29
HETATM   29  N5  UNL     1     -15.271  17.442 -16.301  1.00  0.00    -0.324 N 
ATOM     30  H52 UNL     1     -16.016  16.848 -16.666  1.00  0.00     0.178 HD
ATOM     31  H51 UNL     1     -14.450  17.278 -16.882  1.00  0.00     0.178 HD
ENDBRANCH   9  29
BRANCH   1  32
HETATM   32  S1  UNL     1     -18.123  18.843 -17.080  1.00  0.00     0.276 S 
HETATM   33  O1  UNL     1     -17.313  19.089 -18.280  1.00  0.00    -0.199 OA
HETATM   34  O2  UNL     1     -18.192  17.283 -16.893  1.00  0.00    -0.199 OA
BRANCH  32  35
HETATM   35  N1  UNL     1     -19.741  19.355 -17.367  1.00  0.00    -0.319 N 
HETATM   36  C1  UNL     1     -20.766  18.439 -17.076  1.00  0.00     0.159 C 
ATOM     37  H1  UNL     1     -19.948  20.285 -17.732  1.00  0.00     0.171 HD
ENDBRANCH  32  35
ENDBRANCH   1  32
TORSDOF 9
ENDMDL
MODEL 4
REMARK VINA RESULT: -8.609354635      4.262      7.610
REMARK  9 active torsions:
REMARK  status: ('A' for Active; 'I' for Inactive)
REMARK    1  A    between atoms: N1_2  and  S1_4 
REMARK    2  A    between atoms: S1_4  and  C2_7 
REMARK    3  A    between atoms: N4_15  and  N5_16 
REMARK    4  A    between atoms: C6_19  and  N6_20 
REMARK    5  A    between atoms: N7_23  and  C7_24 
REMARK    6  A    between atoms: N9_26  and  C8_27 
REMARK    7  A    between atoms: C8_27  and  C9_28 
REMARK    8  A    between atoms: C11_32  and  O5_33 
REMARK    9  A    between atoms: C12_35  and  O6_36 
ROOT
HETATM    1  C2  UNL     1     -16.855  18.203 -16.165  1.00  0.00     0.183 A 
HETATM    2  N2  UNL     1     -15.811  17.324 -16.389  1.00  0.00    -0.340 N 
ATOM      3  H2  UNL     1     -15.839  16.725 -17.214  1.00  0.00     0.167 HD
HETATM    4  C3  UNL     1     -14.779  17.237 -15.570  1.00  0.00     0.183 A 
HETATM    5  N3  UNL     1     -14.737  18.019 -14.487  1.00  0.00    -0.336 N 
ATOM      6  H3  UNL     1     -13.941  17.949 -13.854  1.00  0.00     0.168 HD
HETATM    7  C4  UNL     1     -15.721  18.898 -14.210  1.00  0.00     0.159 A 
HETATM    8  C5  UNL     1     -16.815  19.001 -15.064  1.00  0.00     0.159 A 
HETATM    9  N4  UNL     1     -17.615  19.940 -14.558  1.00  0.00    -0.086 N 
HETATM   10  C6  UNL     1     -17.017  20.399 -13.411  1.00  0.00     0.702 A 
HETATM   11  N7  UNL     1     -15.873  19.771 -13.198  1.00  0.00    -0.141 N 
ENDROOT
BRANCH  11  12
HETATM   12  C7  UNL     1     -14.933  19.955 -12.102  1.00  0.00     0.249 C 
HETATM   13  N8  UNL     1     -15.243  21.197 -11.427  1.00  0.00    -0.135 NA
HETATM   14  N9  UNL     1     -14.279  21.507 -10.492  1.00  0.00    -0.220 NA
HETATM   15  C10 UNL     1     -14.086  20.527  -9.480  1.00  0.00     0.144 C 
HETATM   16  C11 UNL     1     -14.834  19.251  -9.692  1.00  0.00     0.164 C 
HETATM   17  C12 UNL     1     -14.934  18.829 -11.127  1.00  0.00     0.189 C 
BRANCH  14  18
HETATM   18  C8  UNL     1     -13.043  22.000 -11.061  1.00  0.00     0.222 C 
BRANCH  18  19
HETATM   19  C9  UNL     1     -13.162  23.384 -11.548  1.00  0.00     0.187 C 
HETATM   20  O3  UNL     1     -12.732  24.303 -10.806  1.00  0.00    -0.647 OA
HETATM   21  O4  UNL     1     -13.723  23.700 -12.775  1.00  0.00    -0.647 OA
ENDBRANCH  18  19
ENDBRANCH  14  18
BRANCH  16  22
HETATM   22  O5  UNL     1     -16.076  19.295  -9.058  1.00  0.00    -0.392 OA
ATOM     23  H5  UNL     1     -16.367  20.194  -8.952  1.00  0.00     0.210 HD
ENDBRANCH  16  22
BRANCH  17  24
HETATM   24  O6  UNL     1     -13.862  17.958 -11.432  1.00  0.00    -0.389 OA
ATOM     25  H6  UNL     1     -13.409  17.735 -10.627  1.00  0.00     0.210 HD
ENDBRANCH  17  24
ENDBRANCH  11  12
BRANCH  10  26
HETATM   26  N6  UNL     1     -17.564  21.326 -12.688  1.00  0.00    -0.233 N 
ATOM     27  H62 UNL     1     -17.586  22.330 -12.867  1.00  0.00     0.174 HD
ATOM     28  H61 UNL     1     -18.050  21.104 -11.819  1.00  0.00     0.174 HD
ENDBRANCH  10  26
BRANCH   9  29
HETATM   29  N5  UNL     1     -18.826  20.433 -15.034  1.00  0.00    -0.324 N 
ATOM     30  H52 UNL     1     -19.034  21.430 -15.102  1.00  0.00     0.178 HD
ATOM     31  H51 UNL     1     -19.646  19.935 -15.381  1.00  0.00     0.178 HD
ENDBRANCH   9  29
BRANCH   1  32
HETATM   32  S1  UNL     1     -18.138  18.208 -17.332  1.00  0.00     0.276 S 
HETATM   33  O1  UNL     1     -19.525  18.106 -16.859  1.00  0.00    -0.199 OA
HETATM   34  O2  UNL     1     -18.025  19.569 -18.112  1.00  0.00    -0.199 OA
BRANCH  32  35
HETATM   35  N1  UNL     1     -17.838  16.973 -18.493  1.00  0.00    -0.319 N 
HETATM   36  C1  UNL     1     -18.792  15.949 -18.604  1.00  0.00     0.159 C 
ATOM     37  H1  UNL     1     -17.001  16.984 -19.077  1.00  0.00     0.171 HD
ENDBRANCH  32  35
ENDBRANCH   1  32
TORSDOF 9
ENDMDL
MODEL 5
REMARK VINA RESULT: -8.540806560      1.248      2.489
REMARK  9 active torsions:
REMARK  status: ('A' for Active; 'I' for Inactive)
REMARK    1  A    between atoms: N1_2  and  S1_4 
REMARK    2  A    between atoms: S1_4  and  C2_7 
REMARK    3  A    between atoms: N4_15  and  N5_16 
REMARK    4  A    between atoms: C6_19  and  N6_20 
REMARK    5  A    between atoms: N7_23  and  C7_24 
REMARK    6  A    between atoms: N9_26  and  C8_27 
REMARK    7  A    between atoms: C8_27  and  C9_28 
REMARK    8  A    between atoms: C11_32  and  O5_33 
REMARK    9  A    between atoms: C12_35  and  O6_36 
ROOT
HETATM    1  C2  UNL     1     -14.345  18.323 -10.261  1.00  0.00     0.183 A 
HETATM    2  N2  UNL     1     -14.466  17.024 -10.722  1.00  0.00    -0.340 N 
ATOM      3  H2  UNL     1     -14.788  16.300 -10.078  1.00  0.00     0.167 HD
HETATM    4  C3  UNL     1     -14.179  16.692 -11.967  1.00  0.00     0.183 A 
HETATM    5  N3  UNL     1     -13.756  17.635 -12.814  1.00  0.00    -0.336 N 
ATOM      6  H3  UNL     1     -13.533  17.376 -13.774  1.00  0.00     0.168 HD
HETATM    7  C4  UNL     1     -13.617  18.919 -12.430  1.00  0.00     0.159 A 
HETATM    8  C5  UNL     1     -13.916  19.285 -11.122  1.00  0.00     0.159 A 
HETATM    9  N4  UNL     1     -13.700  20.597 -11.026  1.00  0.00    -0.086 N 
HETATM   10  C6  UNL     1     -13.274  21.022 -12.260  1.00  0.00     0.702 A 
HETATM   11  N7  UNL     1     -13.222  20.011 -13.110  1.00  0.00    -0.141 N 
ENDROOT
BRANCH  11  12
HETATM   12  C7  UNL     1     -12.825  20.028 -14.510  1.00  0.00     0.249 C 
HETATM   13  N8  UNL     1     -11.789  19.035 -14.711  1.00  0.00    -0.135 NA
HETATM   14  N9  UNL     1     -11.254  19.127 -15.978  1.00  0.00    -0.220 NA
HETATM   15  C10 UNL     1     -12.188  18.967 -17.038  1.00  0.00     0.144 C 
HETATM   16  C11 UNL     1     -13.617  18.896 -16.609  1.00  0.00     0.164 C 
HETATM   17  C12 UNL     1     -13.955  19.784 -15.449  1.00  0.00     0.189 C 
BRANCH  14  18
HETATM   18  C8  UNL     1     -10.361  20.252 -16.159  1.00  0.00     0.222 C 
BRANCH  18  19
HETATM   19  C9  UNL     1      -9.136  19.885 -16.887  1.00  0.00     0.187 C 
HETATM   20  O3  UNL     1      -8.050  19.912 -16.253  1.00  0.00    -0.647 OA
HETATM   21  O4  UNL     1      -9.139  19.518 -18.222  1.00  0.00    -0.647 OA
ENDBRANCH  18  19
ENDBRANCH  14  18
BRANCH  16  22
HETATM   22  O5  UNL     1     -14.007  17.573 -16.404  1.00  0.00    -0.392 OA
ATOM     23  H5  UNL     1     -14.855  17.535 -15.979  1.00  0.00     0.210 HD
ENDBRANCH  16  22
BRANCH  17  24
HETATM   24  O6  UNL     1     -14.423  21.027 -15.934  1.00  0.00    -0.389 OA
ATOM     25  H6  UNL     1     -13.703  21.485 -16.351  1.00  0.00     0.210 HD
ENDBRANCH  17  24
ENDBRANCH  11  12
BRANCH  10  26
HETATM   26  N6  UNL     1     -12.979  22.266 -12.482  1.00  0.00    -0.233 N 
ATOM     27  H62 UNL     1     -13.418  22.905 -13.144  1.00  0.00     0.174 HD
ATOM     28  H61 UNL     1     -12.229  22.734 -11.972  1.00  0.00     0.174 HD
ENDBRANCH  10  26
BRANCH   9  29
HETATM   29  N5  UNL     1     -13.861  21.453  -9.941  1.00  0.00    -0.324 N 
ATOM     30  H52 UNL     1     -14.772  21.777  -9.616  1.00  0.00     0.178 HD
ATOM     31  H51 UNL     1     -13.162  21.865  -9.322  1.00  0.00     0.178 HD
ENDBRANCH   9  29
BRANCH   1  32
HETATM   32  S1  UNL     1     -14.764  18.607  -8.603  1.00  0.00     0.276 S 
HETATM   33  O1  UNL     1     -13.779  19.254  -7.726  1.00  0.00    -0.199 OA
HETATM   34  O2  UNL     1     -16.035  19.534  -8.617  1.00  0.00    -0.199 OA
BRANCH  32  35
HETATM   35  N1  UNL     1     -15.272  17.122  -7.895  1.00  0.00    -0.319 N 
HETATM   36  C1  UNL     1     -15.100  16.979  -6.509  1.00  0.00     0.159 C 
ATOM     37  H1  UNL     1     -15.681  16.377  -8.459  1.00  0.00     0.171 HD
ENDBRANCH  32  35
ENDBRANCH   1  32
TORSDOF 9
ENDMDL
