MODEL 1
REMARK VINA RESULT: -4.578575590      0.000      0.000
REMARK  3 active torsions:
REMARK  status: ('A' for Active; 'I' for Inactive)
REMARK    1  A    between atoms: N1_1  and  N2_4 
REMARK    2  A    between atoms: C3_9  and  N4_10 
REMARK    3  A    between atoms: N4_10  and  C4_12 
ROOT
HETATM    1  N4  UNL     1     -42.335  17.026  -8.844  1.00  0.00    -0.019 N 
ATOM      2  H4  UNL     1     -42.902  17.341  -9.632  1.00  0.00     0.203 HD
ENDROOT
BRANCH   1   3
HETATM    3  C3  UNL     1     -41.550  17.962  -8.144  1.00  0.00     0.709 C 
HETATM    4  N2  UNL     1     -40.502  18.775  -8.688  1.00  0.00    -0.129 N 
HETATM    5  C1  UNL     1     -39.699  19.200  -7.556  1.00  0.00     0.187 C 
HETATM    6  C2  UNL     1     -40.736  19.219  -6.462  1.00  0.00     0.160 C 
HETATM    7  N3  UNL     1     -41.678  18.217  -6.890  1.00  0.00    -0.223 N 
ATOM      8  H3  UNL     1     -42.359  17.768  -6.278  1.00  0.00     0.177 HD
BRANCH   4   9
HETATM    9  N1  UNL     1     -40.353  19.052 -10.045  1.00  0.00    -0.329 N 
ATOM     10  H12 UNL     1     -39.461  19.273 -10.489  1.00  0.00     0.177 HD
ATOM     11  H11 UNL     1     -41.051  19.083 -10.788  1.00  0.00     0.177 HD
ENDBRANCH   4   9
ENDBRANCH   1   3
BRANCH   1  12
HETATM   12  C4  UNL     1     -42.357  15.791  -8.518  1.00  0.00     0.712 A 
HETATM   13  N5  UNL     1     -43.419  14.966  -8.561  1.00  0.00    -0.185 N 
HETATM   14  C5  UNL     1     -43.086  13.730  -8.146  1.00  0.00     0.215 A 
ATOM     15  H5  UNL     1     -44.352  15.242  -8.867  1.00  0.00     0.185 HD
HETATM   16  N6  UNL     1     -41.777  13.783  -7.836  1.00  0.00    -0.281 N 
HETATM   17  N7  UNL     1     -41.343  15.031  -8.063  1.00  0.00    -0.131 N 
ATOM     18  H6  UNL     1     -41.213  13.008  -7.488  1.00  0.00     0.188 HD
ATOM     19  H7  UNL     1     -40.388  15.356  -7.912  1.00  0.00     0.205 HD
ENDBRANCH   1  12
TORSDOF 3
ENDMDL
MODEL 2
REMARK VINA RESULT: -4.458308455      3.463      5.421
REMARK  3 active torsions:
REMARK  status: ('A' for Active; 'I' for Inactive)
REMARK    1  A    between atoms: N1_1  and  N2_4 
REMARK    2  A    between atoms: C3_9  and  N4_10 
REMARK    3  A    between atoms: N4_10  and  C4_12 
ROOT
HETATM    1  N4  UNL     1     -46.186  14.430  -8.067  1.00  0.00    -0.019 N 
ATOM      2  H4  UNL     1     -46.676  15.315  -8.205  1.00  0.00     0.203 HD
ENDROOT
BRANCH   1   3
HETATM    3  C3  UNL     1     -44.778  14.415  -8.093  1.00  0.00     0.709 C 
HETATM    4  N2  UNL     1     -43.907  15.537  -7.899  1.00  0.00    -0.129 N 
HETATM    5  C1  UNL     1     -42.629  15.153  -8.468  1.00  0.00     0.187 C 
HETATM    6  C2  UNL     1     -42.663  13.660  -8.266  1.00  0.00     0.160 C 
HETATM    7  N3  UNL     1     -44.072  13.360  -8.298  1.00  0.00    -0.223 N 
ATOM      8  H3  UNL     1     -44.459  12.431  -8.463  1.00  0.00     0.177 HD
BRANCH   4   9
HETATM    9  N1  UNL     1     -44.290  16.724  -7.279  1.00  0.00    -0.329 N 
ATOM     10  H12 UNL     1     -44.013  17.653  -7.600  1.00  0.00     0.177 HD
ATOM     11  H11 UNL     1     -44.871  16.875  -6.455  1.00  0.00     0.177 HD
ENDBRANCH   4   9
ENDBRANCH   1   3
BRANCH   1  12
HETATM   12  C4  UNL     1     -46.866  13.366  -7.875  1.00  0.00     0.712 A 
HETATM   13  N5  UNL     1     -47.555  12.675  -8.801  1.00  0.00    -0.185 N 
HETATM   14  C5  UNL     1     -48.156  11.603  -8.253  1.00  0.00     0.215 A 
ATOM     15  H5  UNL     1     -47.613  12.929  -9.787  1.00  0.00     0.185 HD
HETATM   16  N6  UNL     1     -47.832  11.625  -6.946  1.00  0.00    -0.281 N 
HETATM   17  N7  UNL     1     -47.053  12.692  -6.724  1.00  0.00    -0.131 N 
ATOM     18  H6  UNL     1     -48.129  10.946  -6.245  1.00  0.00     0.188 HD
ATOM     19  H7  UNL     1     -46.661  12.955  -5.820  1.00  0.00     0.205 HD
ENDBRANCH   1  12
TORSDOF 3
ENDMDL
MODEL 3
REMARK VINA RESULT: -4.449036620      4.569      6.703
REMARK  3 active torsions:
REMARK  status: ('A' for Active; 'I' for Inactive)
REMARK    1  A    between atoms: N1_1  and  N2_4 
REMARK    2  A    between atoms: C3_9  and  N4_10 
REMARK    3  A    between atoms: N4_10  and  C4_12 
ROOT
HETATM    1  N4  UNL     1     -47.183  13.194  -8.703  1.00  0.00    -0.019 N 
ATOM      2  H4  UNL     1     -47.700  13.866  -9.272  1.00  0.00     0.203 HD
ENDROOT
BRANCH   1   3
HETATM    3  C3  UNL     1     -45.818  13.421  -8.445  1.00  0.00     0.709 C 
HETATM    4  N2  UNL     1     -45.205  14.679  -8.132  1.00  0.00    -0.129 N 
HETATM    5  C1  UNL     1     -43.791  14.514  -8.414  1.00  0.00     0.187 C 
HETATM    6  C2  UNL     1     -43.617  13.039  -8.154  1.00  0.00     0.160 C 
HETATM    7  N3  UNL     1     -44.919  12.501  -8.456  1.00  0.00    -0.223 N 
ATOM      8  H3  UNL     1     -45.104  11.518  -8.653  1.00  0.00     0.177 HD
BRANCH   4   9
HETATM    9  N1  UNL     1     -45.899  15.788  -7.655  1.00  0.00    -0.329 N 
ATOM     10  H12 UNL     1     -46.505  15.775  -6.834  1.00  0.00     0.177 HD
ATOM     11  H11 UNL     1     -45.930  16.744  -8.010  1.00  0.00     0.177 HD
ENDBRANCH   4   9
ENDBRANCH   1   3
BRANCH   1  12
HETATM   12  C4  UNL     1     -47.792  12.169  -8.245  1.00  0.00     0.712 A 
HETATM   13  N5  UNL     1     -48.462  11.246  -8.959  1.00  0.00    -0.185 N 
HETATM   14  C5  UNL     1     -48.983  10.301  -8.155  1.00  0.00     0.215 A 
ATOM     15  H5  UNL     1     -48.561  11.261  -9.974  1.00  0.00     0.185 HD
HETATM   16  N6  UNL     1     -48.627  10.643  -6.902  1.00  0.00    -0.281 N 
HETATM   17  N7  UNL     1     -47.909  11.772  -6.964  1.00  0.00    -0.131 N 
ATOM     18  H6  UNL     1     -48.864  10.131  -6.053  1.00  0.00     0.188 HD
ATOM     19  H7  UNL     1     -47.511  12.258  -6.160  1.00  0.00     0.205 HD
ENDBRANCH   1  12
TORSDOF 3
ENDMDL
MODEL 4
REMARK VINA RESULT: -4.354641675      1.097      4.715
REMARK  3 active torsions:
REMARK  status: ('A' for Active; 'I' for Inactive)
REMARK    1  A    between atoms: N1_1  and  N2_4 
REMARK    2  A    between atoms: C3_9  and  N4_10 
REMARK    3  A    between atoms: N4_10  and  C4_12 
ROOT
HETATM    1  N4  UNL     1     -41.952  17.198  -7.534  1.00  0.00    -0.019 N 
ATOM      2  H4  UNL     1     -42.280  17.574  -6.644  1.00  0.00     0.203 HD
ENDROOT
BRANCH   1   3
HETATM    3  C3  UNL     1     -42.353  15.906  -7.923  1.00  0.00     0.709 C 
HETATM    4  N2  UNL     1     -43.668  15.505  -8.330  1.00  0.00    -0.129 N 
HETATM    5  C1  UNL     1     -43.713  14.064  -8.172  1.00  0.00     0.187 C 
HETATM    6  C2  UNL     1     -42.266  13.706  -8.400  1.00  0.00     0.160 C 
HETATM    7  N3  UNL     1     -41.568  14.888  -7.964  1.00  0.00    -0.223 N 
ATOM      8  H3  UNL     1     -40.578  14.915  -7.721  1.00  0.00     0.177 HD
BRANCH   4   9
HETATM    9  N1  UNL     1     -44.650  16.388  -8.775  1.00  0.00    -0.329 N 
ATOM     10  H12 UNL     1     -45.402  16.750  -8.189  1.00  0.00     0.177 HD
ATOM     11  H11 UNL     1     -44.788  16.803  -9.696  1.00  0.00     0.177 HD
ENDBRANCH   4   9
ENDBRANCH   1   3
BRANCH   1  12
HETATM   12  C4  UNL     1     -41.187  17.912  -8.267  1.00  0.00     0.712 A 
HETATM   13  N5  UNL     1     -39.958  18.361  -7.949  1.00  0.00    -0.185 N 
HETATM   14  C5  UNL     1     -39.436  19.086  -8.955  1.00  0.00     0.215 A 
ATOM     15  H5  UNL     1     -39.487  18.175  -7.064  1.00  0.00     0.185 HD
HETATM   16  N6  UNL     1     -40.364  19.090  -9.930  1.00  0.00    -0.281 N 
HETATM   17  N7  UNL     1     -41.419  18.380  -9.508  1.00  0.00    -0.131 N 
ATOM     18  H6  UNL     1     -40.280  19.554 -10.835  1.00  0.00     0.188 HD
ATOM     19  H7  UNL     1     -42.271  18.218 -10.046  1.00  0.00     0.205 HD
ENDBRANCH   1  12
TORSDOF 3
ENDMDL
MODEL 5
REMARK VINA RESULT: -4.326701283      5.716      9.276
REMARK  3 active torsions:
REMARK  status: ('A' for Active; 'I' for Inactive)
REMARK    1  A    between atoms: N1_1  and  N2_4 
REMARK    2  A    between atoms: C3_9  and  N4_10 
REMARK    3  A    between atoms: N4_10  and  C4_12 
ROOT
HETATM    1  N4  UNL     1     -47.794  12.124  -7.016  1.00  0.00    -0.019 N 
ATOM      2  H4  UNL     1     -48.079  12.163  -6.037  1.00  0.00     0.203 HD
ENDROOT
BRANCH   1   3
HETATM    3  C3  UNL     1     -48.451  11.235  -7.888  1.00  0.00     0.709 C 
HETATM    4  N2  UNL     1     -49.111  10.015  -7.526  1.00  0.00    -0.129 N 
HETATM    5  C1  UNL     1     -49.209   9.237  -8.747  1.00  0.00     0.187 C 
HETATM    6  C2  UNL     1     -49.277  10.333  -9.779  1.00  0.00     0.160 C 
HETATM    7  N3  UNL     1     -48.548  11.409  -9.158  1.00  0.00    -0.223 N 
ATOM      8  H3  UNL     1     -48.159  12.206  -9.661  1.00  0.00     0.177 HD
BRANCH   4   9
HETATM    9  N1  UNL     1     -49.542   9.713  -6.236  1.00  0.00    -0.329 N 
ATOM     10  H12 UNL     1     -48.943   9.748  -5.410  1.00  0.00     0.177 HD
ATOM     11  H11 UNL     1     -50.461   9.424  -5.902  1.00  0.00     0.177 HD
ENDBRANCH   4   9
ENDBRANCH   1   3
BRANCH   1  12
HETATM   12  C4  UNL     1     -46.849  12.884  -7.419  1.00  0.00     0.712 A 
HETATM   13  N5  UNL     1     -45.653  12.495  -7.897  1.00  0.00    -0.185 N 
HETATM   14  C5  UNL     1     -44.899  13.559  -8.229  1.00  0.00     0.215 A 
ATOM     15  H5  UNL     1     -45.358  11.523  -7.995  1.00  0.00     0.185 HD
HETATM   16  N6  UNL     1     -45.645  14.644  -7.950  1.00  0.00    -0.281 N 
HETATM   17  N7  UNL     1     -46.822  14.229  -7.461  1.00  0.00    -0.131 N 
ATOM     18  H6  UNL     1     -45.364  15.615  -8.088  1.00  0.00     0.188 HD
ATOM     19  H7  UNL     1     -47.582  14.841  -7.165  1.00  0.00     0.205 HD
ENDBRANCH   1  12
TORSDOF 3
ENDMDL
