MODEL 1
REMARK VINA RESULT: -4.936433024      0.000      0.000
REMARK  1 active torsions:
REMARK  status: ('A' for Active; 'I' for Inactive)
REMARK    1  A    between atoms: C1_4  and  C2_6 
ROOT
HETATM    1  C2  UNL     1     -44.163  14.430  -8.230  1.00  0.00     0.166 A 
HETATM    2  N3  UNL     1     -42.860  14.754  -8.322  1.00  0.00    -0.172 N 
ATOM      3  H3  UNL     1     -42.184  14.029  -8.565  1.00  0.00     0.186 HD
HETATM    4  C3  UNL     1     -42.418  16.027  -8.096  1.00  0.00     0.694 A 
HETATM    5  N4  UNL     1     -41.206  16.611  -8.119  1.00  0.00    -0.200 N 
ATOM      6  H4  UNL     1     -40.333  16.129  -8.335  1.00  0.00     0.183 HD
HETATM    7  C4  UNL     1     -41.305  17.919  -7.819  1.00  0.00     0.124 A 
HETATM    8  C5  UNL     1     -42.647  18.147  -7.602  1.00  0.00     0.137 A 
HETATM    9  N5  UNL     1     -43.314  16.984  -7.774  1.00  0.00    -0.105 N 
HETATM   10  C6  UNL     1     -44.618  16.637  -7.687  1.00  0.00     0.346 A 
HETATM   11  O1  UNL     1     -45.431  17.541  -7.387  1.00  0.00    -0.246 OA
HETATM   12  N6  UNL     1     -45.056  15.384  -7.909  1.00  0.00    -0.290 N 
ATOM     13  H6  UNL     1     -46.049  15.161  -7.833  1.00  0.00     0.172 HD
ENDROOT
BRANCH   1  14
HETATM   14  C1  UNL     1     -44.594  13.060  -8.477  1.00  0.00     0.155 C 
HETATM   15  N1  UNL     1     -45.629  12.593  -7.876  1.00  0.00    -0.385 N 
ATOM     16  H12 UNL     1     -45.930  11.634  -8.048  1.00  0.00     0.157 HD
ATOM     17  H11 UNL     1     -46.129  13.207  -7.232  1.00  0.00     0.157 HD
HETATM   18  N2  UNL     1     -43.905  12.213  -9.365  1.00  0.00    -0.079 NA
ENDBRANCH   1  14
TORSDOF 1
ENDMDL
MODEL 2
REMARK VINA RESULT: -4.926091097      2.025      4.840
REMARK  1 active torsions:
REMARK  status: ('A' for Active; 'I' for Inactive)
REMARK    1  A    between atoms: C1_4  and  C2_6 
ROOT
HETATM    1  C2  UNL     1     -42.105  16.758  -7.936  1.00  0.00     0.166 A 
HETATM    2  N3  UNL     1     -43.425  16.955  -7.762  1.00  0.00    -0.172 N 
ATOM      3  H3  UNL     1     -43.759  17.884  -7.503  1.00  0.00     0.186 HD
HETATM    4  C3  UNL     1     -44.330  15.944  -7.923  1.00  0.00     0.694 A 
HETATM    5  N4  UNL     1     -45.669  15.864  -7.815  1.00  0.00    -0.200 N 
ATOM      6  H4  UNL     1     -46.279  16.643  -7.567  1.00  0.00     0.183 HD
HETATM    7  C4  UNL     1     -46.092  14.614  -8.080  1.00  0.00     0.124 A 
HETATM    8  C5  UNL     1     -44.953  13.892  -8.365  1.00  0.00     0.137 A 
HETATM    9  N5  UNL     1     -43.886  14.716  -8.265  1.00  0.00    -0.105 N 
HETATM   10  C6  UNL     1     -42.556  14.540  -8.434  1.00  0.00     0.346 A 
HETATM   11  O1  UNL     1     -42.166  13.393  -8.753  1.00  0.00    -0.246 OA
HETATM   12  N6  UNL     1     -41.663  15.535  -8.277  1.00  0.00    -0.290 N 
ATOM     13  H6  UNL     1     -40.666  15.363  -8.414  1.00  0.00     0.172 HD
ENDROOT
BRANCH   1  14
HETATM   14  C1  UNL     1     -41.173  17.863  -7.755  1.00  0.00     0.155 C 
HETATM   15  N1  UNL     1     -40.569  18.369  -8.770  1.00  0.00    -0.385 N 
ATOM     16  H12 UNL     1     -39.916  19.142  -8.643  1.00  0.00     0.157 HD
ATOM     17  H11 UNL     1     -40.765  17.976  -9.691  1.00  0.00     0.157 HD
HETATM   18  N2  UNL     1     -40.902  18.406  -6.484  1.00  0.00    -0.079 NA
ENDBRANCH   1  14
TORSDOF 1
ENDMDL
MODEL 3
REMARK VINA RESULT: -4.862303006      1.499      2.321
REMARK  1 active torsions:
REMARK  status: ('A' for Active; 'I' for Inactive)
REMARK    1  A    between atoms: C1_4  and  C2_6 
ROOT
HETATM    1  C2  UNL     1     -44.019  14.371  -8.155  1.00  0.00     0.166 A 
HETATM    2  N3  UNL     1     -44.895  15.375  -7.965  1.00  0.00    -0.172 N 
ATOM      3  H3  UNL     1     -45.895  15.184  -8.047  1.00  0.00     0.186 HD
HETATM    4  C3  UNL     1     -44.482  16.643  -7.667  1.00  0.00     0.694 A 
HETATM    5  N4  UNL     1     -45.123  17.802  -7.433  1.00  0.00    -0.200 N 
ATOM      6  H4  UNL     1     -46.137  17.918  -7.446  1.00  0.00     0.183 HD
HETATM    7  C4  UNL     1     -44.243  18.787  -7.179  1.00  0.00     0.124 A 
HETATM    8  C5  UNL     1     -42.999  18.201  -7.261  1.00  0.00     0.137 A 
HETATM    9  N5  UNL     1     -43.160  16.892  -7.559  1.00  0.00    -0.105 N 
HETATM   10  C6  UNL     1     -42.297  15.869  -7.755  1.00  0.00     0.346 A 
HETATM   11  O1  UNL     1     -41.075  16.123  -7.650  1.00  0.00    -0.246 OA
HETATM   12  N6  UNL     1     -42.702  14.620  -8.048  1.00  0.00    -0.290 N 
ATOM     13  H6  UNL     1     -42.020  13.873  -8.189  1.00  0.00     0.172 HD
ENDROOT
BRANCH   1  14
HETATM   14  C1  UNL     1     -44.501  13.032  -8.473  1.00  0.00     0.155 C 
HETATM   15  N1  UNL     1     -45.569  12.584  -7.917  1.00  0.00    -0.385 N 
ATOM     16  H12 UNL     1     -45.906  11.647  -8.139  1.00  0.00     0.157 HD
ATOM     17  H11 UNL     1     -46.059  13.190  -7.258  1.00  0.00     0.157 HD
HETATM   18  N2  UNL     1     -43.826  12.196  -9.382  1.00  0.00    -0.079 NA
ENDBRANCH   1  14
TORSDOF 1
ENDMDL
MODEL 4
REMARK VINA RESULT: -4.768062510      1.398      4.488
REMARK  1 active torsions:
REMARK  status: ('A' for Active; 'I' for Inactive)
REMARK    1  A    between atoms: C1_4  and  C2_6 
ROOT
HETATM    1  C2  UNL     1     -41.807  17.161  -7.888  1.00  0.00     0.166 A 
HETATM    2  N3  UNL     1     -41.443  15.909  -8.217  1.00  0.00    -0.172 N 
ATOM      3  H3  UNL     1     -40.462  15.714  -8.420  1.00  0.00     0.186 HD
HETATM    4  C3  UNL     1     -42.352  14.890  -8.287  1.00  0.00     0.694 A 
HETATM    5  N4  UNL     1     -42.264  13.581  -8.582  1.00  0.00    -0.200 N 
ATOM      6  H4  UNL     1     -41.400  13.097  -8.828  1.00  0.00     0.183 HD
HETATM    7  C4  UNL     1     -43.474  12.997  -8.508  1.00  0.00     0.124 A 
HETATM    8  C5  UNL     1     -44.347  14.000  -8.149  1.00  0.00     0.137 A 
HETATM    9  N5  UNL     1     -43.649  15.150  -8.017  1.00  0.00    -0.105 N 
HETATM   10  C6  UNL     1     -43.993  16.416  -7.689  1.00  0.00     0.346 A 
HETATM   11  O1  UNL     1     -45.201  16.635  -7.443  1.00  0.00    -0.246 OA
HETATM   12  N6  UNL     1     -43.100  17.421  -7.620  1.00  0.00    -0.290 N 
ATOM     13  H6  UNL     1     -43.398  18.364  -7.368  1.00  0.00     0.172 HD
ENDROOT
BRANCH   1  14
HETATM   14  C1  UNL     1     -40.807  18.220  -7.826  1.00  0.00     0.155 C 
HETATM   15  N1  UNL     1     -40.345  18.733  -8.909  1.00  0.00    -0.385 N 
ATOM     16  H12 UNL     1     -39.645  19.473  -8.866  1.00  0.00     0.157 HD
ATOM     17  H11 UNL     1     -40.700  18.379  -9.798  1.00  0.00     0.157 HD
HETATM   18  N2  UNL     1     -40.318  18.709  -6.600  1.00  0.00    -0.079 NA
ENDBRANCH   1  14
TORSDOF 1
ENDMDL
MODEL 5
REMARK VINA RESULT: -4.755936166      1.933      4.632
REMARK  1 active torsions:
REMARK  status: ('A' for Active; 'I' for Inactive)
REMARK    1  A    between atoms: C1_4  and  C2_6 
ROOT
HETATM    1  C2  UNL     1     -42.172  17.766  -9.078  1.00  0.00     0.166 A 
HETATM    2  N3  UNL     1     -41.515  16.725  -8.534  1.00  0.00    -0.172 N 
ATOM      3  H3  UNL     1     -40.539  16.842  -8.259  1.00  0.00     0.186 HD
HETATM    4  C3  UNL     1     -42.121  15.515  -8.339  1.00  0.00     0.694 A 
HETATM    5  N4  UNL     1     -41.712  14.339  -7.830  1.00  0.00    -0.200 N 
ATOM      6  H4  UNL     1     -40.775  14.155  -7.471  1.00  0.00     0.183 HD
HETATM    7  C4  UNL     1     -42.711  13.437  -7.861  1.00  0.00     0.124 A 
HETATM    8  C5  UNL     1     -43.786  14.096  -8.416  1.00  0.00     0.137 A 
HETATM    9  N5  UNL     1     -43.412  15.363  -8.703  1.00  0.00    -0.105 N 
HETATM   10  C6  UNL     1     -44.052  16.421  -9.249  1.00  0.00     0.346 A 
HETATM   11  O1  UNL     1     -45.249  16.258  -9.579  1.00  0.00    -0.246 OA
HETATM   12  N6  UNL     1     -43.458  17.614  -9.441  1.00  0.00    -0.290 N 
ATOM     13  H6  UNL     1     -43.975  18.390  -9.856  1.00  0.00     0.172 HD
ENDROOT
BRANCH   1  14
HETATM   14  C1  UNL     1     -41.490  19.039  -9.269  1.00  0.00     0.155 C 
HETATM   15  N1  UNL     1     -40.449  19.106 -10.020  1.00  0.00    -0.385 N 
ATOM     16  H12 UNL     1     -39.972  19.997 -10.154  1.00  0.00     0.157 HD
ATOM     17  H11 UNL     1     -40.126  18.249 -10.470  1.00  0.00     0.157 HD
HETATM   18  N2  UNL     1     -41.935  20.222  -8.649  1.00  0.00    -0.079 NA
ENDBRANCH   1  14
TORSDOF 1
ENDMDL
