MODEL 1
REMARK VINA RESULT: -4.865808843      0.000      0.000
REMARK  2 active torsions:
REMARK  status: ('A' for Active; 'I' for Inactive)
REMARK    1  A    between atoms: N1_1  and  C1_4 
REMARK    2  A    between atoms: C3_10  and  N4_11 
ROOT
HETATM    1  C1  UNL     1     -47.500  12.601  -7.620  1.00  0.00     0.691 A 
HETATM    2  N2  UNL     1     -48.379  13.298  -8.367  1.00  0.00    -0.187 N 
ATOM      3  H2  UNL     1     -49.357  13.014  -8.406  1.00  0.00     0.185 HD
HETATM    4  C2  UNL     1     -47.953  14.379  -9.064  1.00  0.00     0.215 A 
HETATM    5  N3  UNL     1     -46.655  14.748  -9.005  1.00  0.00    -0.187 N 
ATOM      6  H3  UNL     1     -46.344  15.564  -9.533  1.00  0.00     0.185 HD
HETATM    7  C3  UNL     1     -45.759  14.064  -8.265  1.00  0.00     0.695 A 
HETATM    8  N6  UNL     1     -46.212  12.996  -7.584  1.00  0.00    -0.022 N 
ATOM      9  H6  UNL     1     -45.554  12.462  -7.016  1.00  0.00     0.203 HD
ENDROOT
BRANCH   7  10
HETATM   10  N4  UNL     1     -44.400  14.455  -8.205  1.00  0.00    -0.214 N 
HETATM   11  C4  UNL     1     -43.393  13.461  -8.075  1.00  0.00     0.160 C 
HETATM   12  C5  UNL     1     -41.997  13.937  -8.020  1.00  0.00     0.134 C 
HETATM   13  N5  UNL     1     -41.769  15.304  -8.336  1.00  0.00    -0.418 N 
HETATM   14  C6  UNL     1     -42.786  15.951  -9.101  1.00  0.00     0.134 C 
ATOM     15  H5  UNL     1     -40.926  15.794  -8.034  1.00  0.00     0.153 HD
HETATM   16  C7  UNL     1     -44.078  15.858  -8.280  1.00  0.00     0.160 C 
ENDBRANCH   7  10
BRANCH   1  17
HETATM   17  N1  UNL     1     -47.923  11.565  -6.957  1.00  0.00    -0.234 N 
ATOM     18  H12 UNL     1     -47.860  10.619  -7.332  1.00  0.00     0.174 HD
ATOM     19  H11 UNL     1     -48.331  11.706  -6.033  1.00  0.00     0.174 HD
ENDBRANCH   1  17
TORSDOF 2
ENDMDL
MODEL 2
REMARK VINA RESULT: -4.672090454      0.465      1.428
REMARK  2 active torsions:
REMARK  status: ('A' for Active; 'I' for Inactive)
REMARK    1  A    between atoms: N1_1  and  C1_4 
REMARK    2  A    between atoms: C3_10  and  N4_11 
ROOT
HETATM    1  C1  UNL     1     -47.486  12.669  -7.377  1.00  0.00     0.691 A 
HETATM    2  N2  UNL     1     -48.435  13.570  -7.701  1.00  0.00    -0.187 N 
ATOM      3  H2  UNL     1     -49.420  13.354  -7.551  1.00  0.00     0.185 HD
HETATM    4  C2  UNL     1     -48.072  14.765  -8.227  1.00  0.00     0.215 A 
HETATM    5  N3  UNL     1     -46.764  15.042  -8.422  1.00  0.00    -0.187 N 
ATOM      6  H3  UNL     1     -46.500  15.945  -8.817  1.00  0.00     0.185 HD
HETATM    7  C3  UNL     1     -45.798  14.156  -8.106  1.00  0.00     0.695 A 
HETATM    8  N6  UNL     1     -46.192  12.979  -7.585  1.00  0.00    -0.022 N 
ATOM      9  H6  UNL     1     -45.480  12.292  -7.338  1.00  0.00     0.203 HD
ENDROOT
BRANCH   7  10
HETATM   10  N4  UNL     1     -44.429  14.451  -8.311  1.00  0.00    -0.214 N 
HETATM   11  C4  UNL     1     -44.006  15.806  -8.342  1.00  0.00     0.160 C 
HETATM   12  C5  UNL     1     -42.565  16.044  -8.559  1.00  0.00     0.134 C 
HETATM   13  N5  UNL     1     -41.706  14.914  -8.481  1.00  0.00    -0.418 N 
HETATM   14  C6  UNL     1     -42.214  13.786  -7.770  1.00  0.00     0.134 C 
ATOM     15  H5  UNL     1     -40.780  14.911  -8.910  1.00  0.00     0.153 HD
HETATM   16  C7  UNL     1     -43.503  13.361  -8.484  1.00  0.00     0.160 C 
ENDBRANCH   7  10
BRANCH   1  17
HETATM   17  N1  UNL     1     -47.851  11.527  -6.875  1.00  0.00    -0.234 N 
ATOM     18  H12 UNL     1     -48.345  11.460  -5.984  1.00  0.00     0.174 HD
ATOM     19  H11 UNL     1     -47.635  10.672  -7.388  1.00  0.00     0.174 HD
ENDBRANCH   1  17
TORSDOF 2
ENDMDL
MODEL 3
REMARK VINA RESULT: -4.515879363      1.019      1.166
REMARK  2 active torsions:
REMARK  status: ('A' for Active; 'I' for Inactive)
REMARK    1  A    between atoms: N1_1  and  C1_4 
REMARK    2  A    between atoms: C3_10  and  N4_11 
ROOT
HETATM    1  C1  UNL     1     -47.879  13.548  -7.320  1.00  0.00     0.691 A 
HETATM    2  N2  UNL     1     -48.254  12.711  -8.308  1.00  0.00    -0.187 N 
ATOM      3  H2  UNL     1     -49.202  12.336  -8.330  1.00  0.00     0.185 HD
HETATM    4  C2  UNL     1     -47.363  12.372  -9.270  1.00  0.00     0.215 A 
HETATM    5  N3  UNL     1     -46.110  12.874  -9.232  1.00  0.00    -0.187 N 
ATOM      6  H3  UNL     1     -45.446  12.614  -9.962  1.00  0.00     0.185 HD
HETATM    7  C3  UNL     1     -45.714  13.712  -8.253  1.00  0.00     0.695 A 
HETATM    8  N6  UNL     1     -46.622  14.030  -7.312  1.00  0.00    -0.022 N 
ATOM      9  H6  UNL     1     -46.346  14.663  -6.561  1.00  0.00     0.203 HD
ENDROOT
BRANCH   7  10
HETATM   10  N4  UNL     1     -44.399  14.237  -8.218  1.00  0.00    -0.214 N 
HETATM   11  C4  UNL     1     -43.295  13.347  -8.141  1.00  0.00     0.160 C 
HETATM   12  C5  UNL     1     -41.953  13.960  -8.108  1.00  0.00     0.134 C 
HETATM   13  N5  UNL     1     -41.871  15.350  -8.393  1.00  0.00    -0.418 N 
HETATM   14  C6  UNL     1     -42.970  15.910  -9.113  1.00  0.00     0.134 C 
ATOM     15  H5  UNL     1     -41.074  15.915  -8.099  1.00  0.00     0.153 HD
HETATM   16  C7  UNL     1     -44.222  15.667  -8.262  1.00  0.00     0.160 C 
ENDBRANCH   7  10
BRANCH   1  17
HETATM   17  N1  UNL     1     -48.746  13.863  -6.403  1.00  0.00    -0.234 N 
ATOM     18  H12 UNL     1     -48.532  13.792  -5.408  1.00  0.00     0.174 HD
ATOM     19  H11 UNL     1     -49.668  14.192  -6.690  1.00  0.00     0.174 HD
ENDBRANCH   1  17
TORSDOF 2
ENDMDL
MODEL 4
REMARK VINA RESULT: -4.466939415      1.601      2.964
REMARK  2 active torsions:
REMARK  status: ('A' for Active; 'I' for Inactive)
REMARK    1  A    between atoms: N1_1  and  C1_4 
REMARK    2  A    between atoms: C3_10  and  N4_11 
ROOT
HETATM    1  C1  UNL     1     -46.063  13.860  -7.977  1.00  0.00     0.691 A 
HETATM    2  N2  UNL     1     -45.581  12.602  -8.028  1.00  0.00    -0.187 N 
ATOM      3  H2  UNL     1     -46.206  11.808  -7.890  1.00  0.00     0.185 HD
HETATM    4  C2  UNL     1     -44.263  12.400  -8.265  1.00  0.00     0.215 A 
HETATM    5  N3  UNL     1     -43.444  13.459  -8.448  1.00  0.00    -0.187 N 
ATOM      6  H3  UNL     1     -42.452  13.297  -8.627  1.00  0.00     0.185 HD
HETATM    7  C3  UNL     1     -43.904  14.726  -8.400  1.00  0.00     0.695 A 
HETATM    8  N6  UNL     1     -45.218  14.893  -8.163  1.00  0.00    -0.022 N 
ATOM      9  H6  UNL     1     -45.590  15.841  -8.122  1.00  0.00     0.203 HD
ENDROOT
BRANCH   7  10
HETATM   10  N4  UNL     1     -43.042  15.832  -8.593  1.00  0.00    -0.214 N 
HETATM   11  C4  UNL     1     -43.379  16.819  -9.556  1.00  0.00     0.160 C 
HETATM   12  C5  UNL     1     -42.438  17.946  -9.706  1.00  0.00     0.134 C 
HETATM   13  N5  UNL     1     -41.416  18.068  -8.724  1.00  0.00    -0.418 N 
HETATM   14  C6  UNL     1     -41.658  17.410  -7.481  1.00  0.00     0.134 C 
ATOM     15  H5  UNL     1     -40.560  18.595  -8.899  1.00  0.00     0.153 HD
HETATM   16  C7  UNL     1     -41.842  15.921  -7.800  1.00  0.00     0.160 C 
ENDBRANCH   7  10
BRANCH   1  17
HETATM   17  N1  UNL     1     -47.330  14.037  -7.748  1.00  0.00    -0.234 N 
ATOM     18  H12 UNL     1     -47.889  14.706  -8.278  1.00  0.00     0.174 HD
ATOM     19  H11 UNL     1     -47.778  13.489  -7.013  1.00  0.00     0.174 HD
ENDBRANCH   1  17
TORSDOF 2
ENDMDL
MODEL 5
REMARK VINA RESULT: -4.430589625      2.622      4.619
REMARK  2 active torsions:
REMARK  status: ('A' for Active; 'I' for Inactive)
REMARK    1  A    between atoms: N1_1  and  C1_4 
REMARK    2  A    between atoms: C3_10  and  N4_11 
ROOT
HETATM    1  C1  UNL     1     -44.208  14.680  -8.153  1.00  0.00     0.691 A 
HETATM    2  N2  UNL     1     -43.323  13.667  -8.073  1.00  0.00    -0.187 N 
ATOM      3  H2  UNL     1     -43.650  12.701  -8.040  1.00  0.00     0.185 HD
HETATM    4  C2  UNL     1     -41.996  13.939  -8.038  1.00  0.00     0.215 A 
HETATM    5  N3  UNL     1     -41.573  15.222  -8.083  1.00  0.00    -0.187 N 
ATOM      6  H3  UNL     1     -40.572  15.417  -8.057  1.00  0.00     0.185 HD
HETATM    7  C3  UNL     1     -42.441  16.250  -8.162  1.00  0.00     0.695 A 
HETATM    8  N6  UNL     1     -43.751  15.947  -8.195  1.00  0.00    -0.022 N 
ATOM      9  H6  UNL     1     -44.428  16.708  -8.255  1.00  0.00     0.203 HD
ENDROOT
BRANCH   7  10
HETATM   10  N4  UNL     1     -41.992  17.592  -8.209  1.00  0.00    -0.214 N 
HETATM   11  C4  UNL     1     -41.395  18.169  -7.057  1.00  0.00     0.160 C 
HETATM   12  C5  UNL     1     -40.949  19.571  -7.175  1.00  0.00     0.134 C 
HETATM   13  N5  UNL     1     -40.938  20.137  -8.479  1.00  0.00    -0.418 N 
HETATM   14  C6  UNL     1     -40.905  19.212  -9.566  1.00  0.00     0.134 C 
ATOM     15  H5  UNL     1     -40.953  21.146  -8.629  1.00  0.00     0.153 HD
HETATM   16  C7  UNL     1     -42.157  18.335  -9.434  1.00  0.00     0.160 C 
ENDBRANCH   7  10
BRANCH   1  17
HETATM   17  N1  UNL     1     -45.477  14.402  -8.185  1.00  0.00    -0.234 N 
ATOM     18  H12 UNL     1     -46.158  15.027  -8.617  1.00  0.00     0.174 HD
ATOM     19  H11 UNL     1     -45.801  13.531  -7.764  1.00  0.00     0.174 HD
ENDBRANCH   1  17
TORSDOF 2
ENDMDL
