MODEL 1
REMARK VINA RESULT: -8.429490458      0.000      0.000
REMARK  18 active torsions:
REMARK  status: ('A' for Active; 'I' for Inactive)
REMARK    1  A    between atoms: C5_5  and  C6_6 
REMARK    2  A    between atoms: C10_10  and  C11_11 
REMARK    3  A    between atoms: C12_12  and  C13_13 
REMARK    4  A    between atoms: C13_13  and  N2_17 
REMARK    5  A    between atoms: N2_17  and  C14_19 
REMARK    6  A    between atoms: C14_19  and  C15_20 
REMARK    7  A    between atoms: C15_20  and  C16_21 
REMARK    8  A    between atoms: C16_21  and  C17_22 
REMARK    9  A    between atoms: C17_22  and  C18_23 
REMARK   10  A    between atoms: C18_23  and  C19_24 
REMARK   11  A    between atoms: C19_24  and  C20_25 
REMARK   12  A    between atoms: C20_25  and  O1_26 
REMARK   13  A    between atoms: O1_26  and  C21_27 
REMARK   14  A    between atoms: C22_29  and  C23_30 
REMARK   15  A    between atoms: C23_30  and  O3_31 
REMARK   16  A    between atoms: C24_33  and  O4_34 
REMARK   17  A    between atoms: C25_36  and  O5_37 
REMARK   18  A    between atoms: C26_39  and  O6_40 
ROOT
HETATM    1  C16 UNL     1       4.981 -26.300   7.388  1.00  0.00     0.002 C 
ENDROOT
BRANCH   1   2
HETATM    2  C15 UNL     1       4.341 -26.916   6.222  1.00  0.00     0.020 C 
BRANCH   2   3
HETATM    3  C14 UNL     1       3.758 -26.053   5.159  1.00  0.00     0.121 C 
BRANCH   3   4
HETATM    4  N2  UNL     1       4.734 -25.875   4.073  1.00  0.00    -0.376 N 
ATOM      5  H2  UNL     1       4.794 -24.972   3.603  1.00  0.00     0.161 HD
BRANCH   4   6
HETATM    6  C13 UNL     1       5.589 -26.921   3.665  1.00  0.00     0.111 C 
HETATM    7  N1  UNL     1       5.103 -27.989   3.150  1.00  0.00    -0.284 N 
HETATM    8 CL1  UNL     1       3.391 -28.140   2.959  1.00  0.00     0.012 Cl
ATOM      9  H1  UNL     1       5.722 -28.745   2.856  1.00  0.00     0.182 HD
BRANCH   6  10
HETATM   10  C12 UNL     1       7.033 -26.786   3.830  1.00  0.00     0.049 C 
HETATM   11  C11 UNL     1       7.564 -25.896   4.643  1.00  0.00     0.011 C 
BRANCH  11  12
HETATM   12  C10 UNL     1       9.020 -25.772   4.799  1.00  0.00    -0.058 C 
HETATM   13  C2  UNL     1       9.605 -24.434   4.788  1.00  0.00     0.014 C 
HETATM   14  C1  UNL     1       9.335 -23.707   6.111  1.00  0.00     0.015 C 
HETATM   15  C3  UNL     1      11.070 -24.433   4.472  1.00  0.00     0.009 C 
HETATM   16  C4  UNL     1      11.828 -25.475   5.271  1.00  0.00     0.009 C 
HETATM   17  C5  UNL     1      11.233 -26.838   5.109  1.00  0.00     0.012 C 
HETATM   18  C9  UNL     1       9.773 -26.837   4.945  1.00  0.00    -0.014 C 
BRANCH  17  19
HETATM   19  C6  UNL     1      11.832 -27.507   3.863  1.00  0.00    -0.015 C 
HETATM   20  C7  UNL     1      13.303 -27.718   4.010  1.00  0.00     0.010 C 
HETATM   21  C8  UNL     1      11.081 -28.804   3.621  1.00  0.00     0.010 C 
ENDBRANCH  17  19
ENDBRANCH  11  12
ENDBRANCH   6  10
ENDBRANCH   4   6
ENDBRANCH   3   4
ENDBRANCH   2   3
ENDBRANCH   1   2
BRANCH   1  22
HETATM   22  C17 UNL     1       4.823 -24.880   7.702  1.00  0.00     0.000 C 
BRANCH  22  23
HETATM   23  C18 UNL     1       5.907 -23.913   7.467  1.00  0.00     0.002 C 
BRANCH  23  24
HETATM   24  C19 UNL     1       5.793 -23.076   6.220  1.00  0.00     0.026 C 
BRANCH  24  25
HETATM   25  C20 UNL     1       5.429 -21.646   6.631  1.00  0.00     0.171 C 
BRANCH  25  26
HETATM   26  O1  UNL     1       4.142 -21.547   7.109  1.00  0.00    -0.359 OA
BRANCH  26  27
HETATM   27  C21 UNL     1       3.538 -20.331   6.920  1.00  0.00     0.291 C 
HETATM   28  O2  UNL     1       2.244 -20.616   6.431  1.00  0.00    -0.348 OA
HETATM   29  C22 UNL     1       1.569 -19.449   6.091  1.00  0.00     0.179 C 
HETATM   30  C24 UNL     1       1.188 -18.788   7.414  1.00  0.00     0.180 C 
HETATM   31  C25 UNL     1       2.467 -18.370   8.064  1.00  0.00     0.183 C 
HETATM   32  C26 UNL     1       3.475 -19.487   8.169  1.00  0.00     0.204 C 
BRANCH  29  33
HETATM   33  C23 UNL     1       0.274 -19.860   5.421  1.00  0.00     0.198 C 
BRANCH  33  34
HETATM   34  O3  UNL     1      -0.518 -20.639   6.262  1.00  0.00    -0.398 OA
ATOM     35  H3  UNL     1      -1.068 -21.238   5.772  1.00  0.00     0.209 HD
ENDBRANCH  33  34
ENDBRANCH  29  33
BRANCH  30  36
HETATM   36  O4  UNL     1       0.429 -17.637   7.186  1.00  0.00    -0.390 OA
ATOM     37  H4  UNL     1       0.270 -17.176   8.001  1.00  0.00     0.210 HD
ENDBRANCH  30  36
BRANCH  31  38
HETATM   38  O5  UNL     1       2.305 -17.787   9.295  1.00  0.00    -0.390 OA
ATOM     39  H5  UNL     1       2.387 -16.841   9.290  1.00  0.00     0.210 HD
ENDBRANCH  31  38
BRANCH  32  40
HETATM   40  O6  UNL     1       4.713 -18.883   8.382  1.00  0.00    -0.388 OA
ATOM     41  H6  UNL     1       4.834 -18.733   9.312  1.00  0.00     0.210 HD
ENDBRANCH  32  40
ENDBRANCH  26  27
ENDBRANCH  25  26
ENDBRANCH  24  25
ENDBRANCH  23  24
ENDBRANCH  22  23
ENDBRANCH   1  22
TORSDOF 18
ENDMDL
MODEL 2
REMARK VINA RESULT: -8.329775117      1.312      2.029
REMARK  18 active torsions:
REMARK  status: ('A' for Active; 'I' for Inactive)
REMARK    1  A    between atoms: C5_5  and  C6_6 
REMARK    2  A    between atoms: C10_10  and  C11_11 
REMARK    3  A    between atoms: C12_12  and  C13_13 
REMARK    4  A    between atoms: C13_13  and  N2_17 
REMARK    5  A    between atoms: N2_17  and  C14_19 
REMARK    6  A    between atoms: C14_19  and  C15_20 
REMARK    7  A    between atoms: C15_20  and  C16_21 
REMARK    8  A    between atoms: C16_21  and  C17_22 
REMARK    9  A    between atoms: C17_22  and  C18_23 
REMARK   10  A    between atoms: C18_23  and  C19_24 
REMARK   11  A    between atoms: C19_24  and  C20_25 
REMARK   12  A    between atoms: C20_25  and  O1_26 
REMARK   13  A    between atoms: O1_26  and  C21_27 
REMARK   14  A    between atoms: C22_29  and  C23_30 
REMARK   15  A    between atoms: C23_30  and  O3_31 
REMARK   16  A    between atoms: C24_33  and  O4_34 
REMARK   17  A    between atoms: C25_36  and  O5_37 
REMARK   18  A    between atoms: C26_39  and  O6_40 
ROOT
HETATM    1  C16 UNL     1       4.664 -24.899   7.847  1.00  0.00     0.002 C 
ENDROOT
BRANCH   1   2
HETATM    2  C15 UNL     1       4.252 -26.263   7.502  1.00  0.00     0.020 C 
BRANCH   2   3
HETATM    3  C14 UNL     1       5.286 -27.300   7.233  1.00  0.00     0.121 C 
BRANCH   3   4
HETATM    4  N2  UNL     1       5.273 -27.655   5.807  1.00  0.00    -0.376 N 
ATOM      5  H2  UNL     1       4.810 -28.515   5.513  1.00  0.00     0.161 HD
BRANCH   4   6
HETATM    6  C13 UNL     1       5.884 -26.837   4.833  1.00  0.00     0.111 C 
HETATM    7  N1  UNL     1       5.167 -26.165   4.010  1.00  0.00    -0.284 N 
HETATM    8 CL1  UNL     1       3.444 -26.268   4.103  1.00  0.00     0.012 Cl
ATOM      9  H1  UNL     1       5.610 -25.574   3.306  1.00  0.00     0.182 HD
BRANCH   6  10
HETATM   10  C12 UNL     1       7.341 -26.755   4.761  1.00  0.00     0.049 C 
HETATM   11  C11 UNL     1       8.002 -25.695   5.178  1.00  0.00     0.011 C 
BRANCH  11  12
HETATM   12  C10 UNL     1       9.469 -25.627   5.100  1.00  0.00    -0.058 C 
HETATM   13  C2  UNL     1      10.092 -24.317   4.938  1.00  0.00     0.014 C 
HETATM   14  C1  UNL     1      10.060 -23.528   6.253  1.00  0.00     0.015 C 
HETATM   15  C3  UNL     1      11.489 -24.391   4.399  1.00  0.00     0.009 C 
HETATM   16  C4  UNL     1      12.324 -25.432   5.117  1.00  0.00     0.009 C 
HETATM   17  C5  UNL     1      11.663 -26.774   5.111  1.00  0.00     0.012 C 
HETATM   18  C9  UNL     1      10.196 -26.717   5.175  1.00  0.00    -0.014 C 
BRANCH  17  19
HETATM   19  C6  UNL     1      12.035 -27.516   3.819  1.00  0.00    -0.015 C 
HETATM   20  C7  UNL     1      13.438 -28.024   3.864  1.00  0.00     0.010 C 
HETATM   21  C8  UNL     1      11.022 -28.626   3.608  1.00  0.00     0.010 C 
ENDBRANCH  17  19
ENDBRANCH  11  12
ENDBRANCH   6  10
ENDBRANCH   4   6
ENDBRANCH   3   4
ENDBRANCH   2   3
ENDBRANCH   1   2
BRANCH   1  22
HETATM   22  C17 UNL     1       5.260 -23.995   6.864  1.00  0.00     0.000 C 
BRANCH  22  23
HETATM   23  C18 UNL     1       6.436 -23.170   7.188  1.00  0.00     0.002 C 
BRANCH  23  24
HETATM   24  C19 UNL     1       6.158 -21.848   7.851  1.00  0.00     0.026 C 
BRANCH  24  25
HETATM   25  C20 UNL     1       5.111 -21.101   7.017  1.00  0.00     0.171 C 
BRANCH  25  26
HETATM   26  O1  UNL     1       4.469 -20.118   7.736  1.00  0.00    -0.359 OA
BRANCH  26  27
HETATM   27  C21 UNL     1       3.100 -20.191   7.737  1.00  0.00     0.291 C 
HETATM   28  O2  UNL     1       2.666 -19.288   6.742  1.00  0.00    -0.348 OA
HETATM   29  C22 UNL     1       1.279 -19.189   6.727  1.00  0.00     0.179 C 
HETATM   30  C24 UNL     1       0.776 -20.492   6.109  1.00  0.00     0.180 C 
HETATM   31  C25 UNL     1       1.118 -21.580   7.074  1.00  0.00     0.183 C 
HETATM   32  C26 UNL     1       2.569 -21.579   7.482  1.00  0.00     0.204 C 
BRANCH  29  33
HETATM   33  C23 UNL     1       0.920 -18.080   5.759  1.00  0.00     0.198 C 
BRANCH  33  34
HETATM   34  O3  UNL     1       0.635 -18.577   4.488  1.00  0.00    -0.398 OA
ATOM     35  H3  UNL     1       0.086 -17.981   3.993  1.00  0.00     0.209 HD
ENDBRANCH  33  34
ENDBRANCH  29  33
BRANCH  30  36
HETATM   36  O4  UNL     1      -0.615 -20.463   5.971  1.00  0.00    -0.390 OA
ATOM     37  H4  UNL     1      -0.856 -20.197   5.092  1.00  0.00     0.210 HD
ENDBRANCH  30  36
BRANCH  31  38
HETATM   38  O5  UNL     1       0.765 -22.836   6.649  1.00  0.00    -0.390 OA
ATOM     39  H5  UNL     1       0.289 -23.344   7.295  1.00  0.00     0.210 HD
ENDBRANCH  31  38
BRANCH  32  40
HETATM   40  O6  UNL     1       2.650 -22.328   8.656  1.00  0.00    -0.388 OA
ATOM     41  H6  UNL     1       1.842 -22.813   8.776  1.00  0.00     0.210 HD
ENDBRANCH  32  40
ENDBRANCH  26  27
ENDBRANCH  25  26
ENDBRANCH  24  25
ENDBRANCH  23  24
ENDBRANCH  22  23
ENDBRANCH   1  22
TORSDOF 18
ENDMDL
MODEL 3
REMARK VINA RESULT: -8.117787685      3.786      6.722
REMARK  18 active torsions:
REMARK  status: ('A' for Active; 'I' for Inactive)
REMARK    1  A    between atoms: C5_5  and  C6_6 
REMARK    2  A    between atoms: C10_10  and  C11_11 
REMARK    3  A    between atoms: C12_12  and  C13_13 
REMARK    4  A    between atoms: C13_13  and  N2_17 
REMARK    5  A    between atoms: N2_17  and  C14_19 
REMARK    6  A    between atoms: C14_19  and  C15_20 
REMARK    7  A    between atoms: C15_20  and  C16_21 
REMARK    8  A    between atoms: C16_21  and  C17_22 
REMARK    9  A    between atoms: C17_22  and  C18_23 
REMARK   10  A    between atoms: C18_23  and  C19_24 
REMARK   11  A    between atoms: C19_24  and  C20_25 
REMARK   12  A    between atoms: C20_25  and  O1_26 
REMARK   13  A    between atoms: O1_26  and  C21_27 
REMARK   14  A    between atoms: C22_29  and  C23_30 
REMARK   15  A    between atoms: C23_30  and  O3_31 
REMARK   16  A    between atoms: C24_33  and  O4_34 
REMARK   17  A    between atoms: C25_36  and  O5_37 
REMARK   18  A    between atoms: C26_39  and  O6_40 
ROOT
HETATM    1  C16 UNL     1       7.804 -24.780   5.753  1.00  0.00     0.002 C 
ENDROOT
BRANCH   1   2
HETATM    2  C15 UNL     1       7.544 -25.417   4.458  1.00  0.00     0.020 C 
BRANCH   2   3
HETATM    3  C14 UNL     1       8.681 -25.936   3.649  1.00  0.00     0.121 C 
BRANCH   3   4
HETATM    4  N2  UNL     1       9.933 -25.304   4.091  1.00  0.00    -0.376 N 
ATOM      5  H2  UNL     1      10.038 -24.294   4.003  1.00  0.00     0.161 HD
BRANCH   4   6
HETATM    6  C13 UNL     1      10.994 -26.060   4.635  1.00  0.00     0.111 C 
HETATM    7  N1  UNL     1      11.683 -25.597   5.611  1.00  0.00    -0.284 N 
HETATM    8 CL1  UNL     1      11.305 -24.038   6.257  1.00  0.00     0.012 Cl
ATOM      9  H1  UNL     1      12.450 -26.144   6.003  1.00  0.00     0.182 HD
BRANCH   6  10
HETATM   10  C12 UNL     1      11.307 -27.376   4.084  1.00  0.00     0.049 C 
HETATM   11  C11 UNL     1      12.518 -27.691   3.675  1.00  0.00     0.011 C 
BRANCH  11  12
HETATM   12  C10 UNL     1      12.819 -29.020   3.123  1.00  0.00    -0.058 C 
HETATM   13  C2  UNL     1      14.140 -29.243   2.541  1.00  0.00     0.014 C 
HETATM   14  C1  UNL     1      15.204 -29.385   3.637  1.00  0.00     0.015 C 
HETATM   15  C3  UNL     1      14.182 -30.415   1.607  1.00  0.00     0.009 C 
HETATM   16  C4  UNL     1      13.506 -31.638   2.193  1.00  0.00     0.009 C 
HETATM   17  C5  UNL     1      12.108 -31.340   2.635  1.00  0.00     0.012 C 
HETATM   18  C9  UNL     1      11.923 -29.978   3.153  1.00  0.00    -0.014 C 
BRANCH  17  19
HETATM   19  C6  UNL     1      11.154 -31.510   1.444  1.00  0.00    -0.015 C 
HETATM   20  C7  UNL     1      11.533 -32.683   0.601  1.00  0.00     0.010 C 
HETATM   21  C8  UNL     1       9.741 -31.620   1.989  1.00  0.00     0.010 C 
ENDBRANCH  17  19
ENDBRANCH  11  12
ENDBRANCH   6  10
ENDBRANCH   4   6
ENDBRANCH   3   4
ENDBRANCH   2   3
ENDBRANCH   1   2
BRANCH   1  22
HETATM   22  C17 UNL     1       7.696 -23.334   5.944  1.00  0.00     0.000 C 
BRANCH  22  23
HETATM   23  C18 UNL     1       6.839 -22.757   6.992  1.00  0.00     0.002 C 
BRANCH  23  24
HETATM   24  C19 UNL     1       5.490 -22.256   6.548  1.00  0.00     0.026 C 
BRANCH  24  25
HETATM   25  C20 UNL     1       4.421 -22.888   7.445  1.00  0.00     0.171 C 
BRANCH  25  26
HETATM   26  O1  UNL     1       3.606 -23.759   6.758  1.00  0.00    -0.359 OA
BRANCH  26  27
HETATM   27  C21 UNL     1       4.185 -24.951   6.405  1.00  0.00     0.291 C 
HETATM   28  O2  UNL     1       4.149 -25.754   7.566  1.00  0.00    -0.348 OA
HETATM   29  C22 UNL     1       4.816 -26.957   7.364  1.00  0.00     0.179 C 
HETATM   30  C24 UNL     1       3.906 -27.791   6.464  1.00  0.00     0.180 C 
HETATM   31  C25 UNL     1       3.864 -27.096   5.142  1.00  0.00     0.183 C 
HETATM   32  C26 UNL     1       3.502 -25.636   5.248  1.00  0.00     0.204 C 
BRANCH  29  33
HETATM   33  C23 UNL     1       4.875 -27.667   8.701  1.00  0.00     0.198 C 
BRANCH  33  34
HETATM   34  O3  UNL     1       5.730 -28.767   8.664  1.00  0.00    -0.398 OA
ATOM     35  H3  UNL     1       5.249 -29.583   8.590  1.00  0.00     0.209 HD
ENDBRANCH  33  34
ENDBRANCH  29  33
BRANCH  30  36
HETATM   36  O4  UNL     1       4.450 -29.062   6.261  1.00  0.00    -0.390 OA
ATOM     37  H4  UNL     1       3.773 -29.674   5.996  1.00  0.00     0.210 HD
ENDBRANCH  30  36
BRANCH  31  38
HETATM   38  O5  UNL     1       3.049 -27.700   4.218  1.00  0.00    -0.390 OA
ATOM     39  H5  UNL     1       3.468 -27.865   3.382  1.00  0.00     0.210 HD
ENDBRANCH  31  38
BRANCH  32  40
HETATM   40  O6  UNL     1       3.907 -25.040   4.054  1.00  0.00    -0.388 OA
ATOM     41  H6  UNL     1       3.345 -25.337   3.348  1.00  0.00     0.210 HD
ENDBRANCH  32  40
ENDBRANCH  26  27
ENDBRANCH  25  26
ENDBRANCH  24  25
ENDBRANCH  23  24
ENDBRANCH  22  23
ENDBRANCH   1  22
TORSDOF 18
ENDMDL
MODEL 4
REMARK VINA RESULT: -8.113572599      3.788      7.189
REMARK  18 active torsions:
REMARK  status: ('A' for Active; 'I' for Inactive)
REMARK    1  A    between atoms: C5_5  and  C6_6 
REMARK    2  A    between atoms: C10_10  and  C11_11 
REMARK    3  A    between atoms: C12_12  and  C13_13 
REMARK    4  A    between atoms: C13_13  and  N2_17 
REMARK    5  A    between atoms: N2_17  and  C14_19 
REMARK    6  A    between atoms: C14_19  and  C15_20 
REMARK    7  A    between atoms: C15_20  and  C16_21 
REMARK    8  A    between atoms: C16_21  and  C17_22 
REMARK    9  A    between atoms: C17_22  and  C18_23 
REMARK   10  A    between atoms: C18_23  and  C19_24 
REMARK   11  A    between atoms: C19_24  and  C20_25 
REMARK   12  A    between atoms: C20_25  and  O1_26 
REMARK   13  A    between atoms: O1_26  and  C21_27 
REMARK   14  A    between atoms: C22_29  and  C23_30 
REMARK   15  A    between atoms: C23_30  and  O3_31 
REMARK   16  A    between atoms: C24_33  and  O4_34 
REMARK   17  A    between atoms: C25_36  and  O5_37 
REMARK   18  A    between atoms: C26_39  and  O6_40 
ROOT
HETATM    1  C16 UNL     1      10.647 -23.937   5.103  1.00  0.00     0.002 C 
ENDROOT
BRANCH   1   2
HETATM    2  C15 UNL     1      11.870 -24.582   5.590  1.00  0.00     0.020 C 
BRANCH   2   3
HETATM    3  C14 UNL     1      12.152 -25.997   5.229  1.00  0.00     0.121 C 
BRANCH   3   4
HETATM    4  N2  UNL     1      10.898 -26.765   5.219  1.00  0.00    -0.376 N 
ATOM      5  H2  UNL     1      10.285 -26.725   6.033  1.00  0.00     0.161 HD
BRANCH   4   6
HETATM    6  C13 UNL     1      10.521 -27.558   4.114  1.00  0.00     0.111 C 
HETATM    7  N1  UNL     1       9.307 -27.561   3.705  1.00  0.00    -0.284 N 
HETATM    8 CL1  UNL     1       8.132 -26.588   4.519  1.00  0.00     0.012 Cl
ATOM      9  H1  UNL     1       9.035 -28.134   2.906  1.00  0.00     0.182 HD
BRANCH   6  10
HETATM   10  C12 UNL     1      11.519 -28.377   3.432  1.00  0.00     0.049 C 
HETATM   11  C11 UNL     1      11.396 -29.684   3.324  1.00  0.00     0.011 C 
BRANCH  11  12
HETATM   12  C10 UNL     1      12.408 -30.495   2.634  1.00  0.00    -0.058 C 
HETATM   13  C2  UNL     1      12.308 -31.949   2.727  1.00  0.00     0.014 C 
HETATM   14  C1  UNL     1      11.180 -32.479   1.833  1.00  0.00     0.015 C 
HETATM   15  C3  UNL     1      13.598 -32.650   2.422  1.00  0.00     0.009 C 
HETATM   16  C4  UNL     1      14.256 -32.115   1.166  1.00  0.00     0.009 C 
HETATM   17  C5  UNL     1      14.439 -30.631   1.226  1.00  0.00     0.012 C 
HETATM   18  C9  UNL     1      13.375 -29.926   1.954  1.00  0.00    -0.014 C 
BRANCH  17  19
HETATM   19  C6  UNL     1      15.765 -30.312   1.933  1.00  0.00    -0.015 C 
HETATM   20  C7  UNL     1      16.939 -30.707   1.098  1.00  0.00     0.010 C 
HETATM   21  C8  UNL     1      15.768 -28.834   2.277  1.00  0.00     0.010 C 
ENDBRANCH  17  19
ENDBRANCH  11  12
ENDBRANCH   6  10
ENDBRANCH   4   6
ENDBRANCH   3   4
ENDBRANCH   2   3
ENDBRANCH   1   2
BRANCH   1  22
HETATM   22  C17 UNL     1       9.701 -23.282   6.007  1.00  0.00     0.000 C 
BRANCH  22  23
HETATM   23  C18 UNL     1       8.302 -23.041   5.617  1.00  0.00     0.002 C 
BRANCH  23  24
HETATM   24  C19 UNL     1       7.250 -23.640   6.512  1.00  0.00     0.026 C 
BRANCH  24  25
HETATM   25  C20 UNL     1       5.917 -22.942   6.223  1.00  0.00     0.171 C 
BRANCH  25  26
HETATM   26  O1  UNL     1       4.846 -23.804   6.295  1.00  0.00    -0.359 OA
BRANCH  26  27
HETATM   27  C21 UNL     1       5.140 -25.125   6.079  1.00  0.00     0.291 C 
HETATM   28  O2  UNL     1       4.814 -25.794   7.279  1.00  0.00    -0.348 OA
HETATM   29  C22 UNL     1       5.179 -27.134   7.220  1.00  0.00     0.179 C 
HETATM   30  C24 UNL     1       4.168 -27.800   6.290  1.00  0.00     0.180 C 
HETATM   31  C25 UNL     1       4.404 -27.231   4.929  1.00  0.00     0.183 C 
HETATM   32  C26 UNL     1       4.405 -25.723   4.905  1.00  0.00     0.204 C 
BRANCH  29  33
HETATM   33  C23 UNL     1       4.954 -27.720   8.599  1.00  0.00     0.198 C 
BRANCH  33  34
HETATM   34  O3  UNL     1       5.731 -28.858   8.810  1.00  0.00    -0.398 OA
ATOM     35  H3  UNL     1       6.069 -28.893   9.697  1.00  0.00     0.209 HD
ENDBRANCH  33  34
ENDBRANCH  29  33
BRANCH  30  36
HETATM   36  O4  UNL     1       4.396 -29.177   6.223  1.00  0.00    -0.390 OA
ATOM     37  H4  UNL     1       3.594 -29.637   6.005  1.00  0.00     0.210 HD
ENDBRANCH  30  36
BRANCH  31  38
HETATM   38  O5  UNL     1       3.543 -27.700   3.969  1.00  0.00    -0.390 OA
ATOM     39  H5  UNL     1       3.774 -27.446   3.083  1.00  0.00     0.210 HD
ENDBRANCH  31  38
BRANCH  32  40
HETATM   40  O6  UNL     1       5.039 -25.347   3.722  1.00  0.00    -0.388 OA
ATOM     41  H6  UNL     1       4.887 -26.010   3.059  1.00  0.00     0.210 HD
ENDBRANCH  32  40
ENDBRANCH  26  27
ENDBRANCH  25  26
ENDBRANCH  24  25
ENDBRANCH  23  24
ENDBRANCH  22  23
ENDBRANCH   1  22
TORSDOF 18
ENDMDL
MODEL 5
REMARK VINA RESULT: -8.088640659      4.315      7.721
REMARK  18 active torsions:
REMARK  status: ('A' for Active; 'I' for Inactive)
REMARK    1  A    between atoms: C5_5  and  C6_6 
REMARK    2  A    between atoms: C10_10  and  C11_11 
REMARK    3  A    between atoms: C12_12  and  C13_13 
REMARK    4  A    between atoms: C13_13  and  N2_17 
REMARK    5  A    between atoms: N2_17  and  C14_19 
REMARK    6  A    between atoms: C14_19  and  C15_20 
REMARK    7  A    between atoms: C15_20  and  C16_21 
REMARK    8  A    between atoms: C16_21  and  C17_22 
REMARK    9  A    between atoms: C17_22  and  C18_23 
REMARK   10  A    between atoms: C18_23  and  C19_24 
REMARK   11  A    between atoms: C19_24  and  C20_25 
REMARK   12  A    between atoms: C20_25  and  O1_26 
REMARK   13  A    between atoms: O1_26  and  C21_27 
REMARK   14  A    between atoms: C22_29  and  C23_30 
REMARK   15  A    between atoms: C23_30  and  O3_31 
REMARK   16  A    between atoms: C24_33  and  O4_34 
REMARK   17  A    between atoms: C25_36  and  O5_37 
REMARK   18  A    between atoms: C26_39  and  O6_40 
ROOT
HETATM    1  C16 UNL     1      11.146 -24.390   5.143  1.00  0.00     0.002 C 
ENDROOT
BRANCH   1   2
HETATM    2  C15 UNL     1      12.037 -25.496   5.509  1.00  0.00     0.020 C 
BRANCH   2   3
HETATM    3  C14 UNL     1      12.192 -26.653   4.587  1.00  0.00     0.121 C 
BRANCH   3   4
HETATM    4  N2  UNL     1      11.239 -27.711   4.954  1.00  0.00    -0.376 N 
ATOM      5  H2  UNL     1      10.966 -27.816   5.931  1.00  0.00     0.161 HD
BRANCH   4   6
HETATM    6  C13 UNL     1      10.693 -28.585   3.991  1.00  0.00     0.111 C 
HETATM    7  N1  UNL     1       9.518 -28.377   3.521  1.00  0.00    -0.284 N 
HETATM    8 CL1  UNL     1       8.608 -27.016   4.078  1.00  0.00     0.012 Cl
ATOM      9  H1  UNL     1       9.124 -29.009   2.824  1.00  0.00     0.182 HD
BRANCH   6  10
HETATM   10  C12 UNL     1      11.468 -29.732   3.525  1.00  0.00     0.049 C 
HETATM   11  C11 UNL     1      10.907 -30.750   2.906  1.00  0.00     0.011 C 
BRANCH  11  12
HETATM   12  C10 UNL     1      11.700 -31.897   2.443  1.00  0.00    -0.058 C 
HETATM   13  C2  UNL     1      11.569 -32.310   1.048  1.00  0.00     0.014 C 
HETATM   14  C1  UNL     1      12.308 -31.340   0.118  1.00  0.00     0.015 C 
HETATM   15  C3  UNL     1      12.016 -33.720   0.806  1.00  0.00     0.009 C 
HETATM   16  C4  UNL     1      13.353 -34.016   1.456  1.00  0.00     0.009 C 
HETATM   17  C5  UNL     1      13.343 -33.687   2.916  1.00  0.00     0.012 C 
HETATM   18  C9  UNL     1      12.504 -32.532   3.263  1.00  0.00    -0.014 C 
BRANCH  17  19
HETATM   19  C6  UNL     1      12.810 -34.893   3.703  1.00  0.00    -0.015 C 
HETATM   20  C7  UNL     1      13.733 -36.062   3.607  1.00  0.00     0.010 C 
HETATM   21  C8  UNL     1      12.580 -34.452   5.137  1.00  0.00     0.010 C 
ENDBRANCH  17  19
ENDBRANCH  11  12
ENDBRANCH   6  10
ENDBRANCH   4   6
ENDBRANCH   3   4
ENDBRANCH   2   3
ENDBRANCH   1   2
BRANCH   1  22
HETATM   22  C17 UNL     1      10.533 -23.521   6.148  1.00  0.00     0.000 C 
BRANCH  22  23
HETATM   23  C18 UNL     1       9.210 -22.912   5.936  1.00  0.00     0.002 C 
BRANCH  23  24
HETATM   24  C19 UNL     1       8.086 -23.859   5.609  1.00  0.00     0.026 C 
BRANCH  24  25
HETATM   25  C20 UNL     1       6.848 -23.431   6.403  1.00  0.00     0.171 C 
BRANCH  25  26
HETATM   26  O1  UNL     1       5.695 -24.026   5.942  1.00  0.00    -0.359 OA
BRANCH  26  27
HETATM   27  C21 UNL     1       5.751 -25.390   5.813  1.00  0.00     0.291 C 
HETATM   28  O2  UNL     1       5.365 -25.911   7.067  1.00  0.00    -0.348 OA
HETATM   29  C22 UNL     1       5.494 -27.296   7.095  1.00  0.00     0.179 C 
HETATM   30  C24 UNL     1       4.347 -27.836   6.244  1.00  0.00     0.180 C 
HETATM   31  C25 UNL     1       4.620 -27.408   4.839  1.00  0.00     0.183 C 
HETATM   32  C26 UNL     1       4.877 -25.928   4.708  1.00  0.00     0.204 C 
BRANCH  29  33
HETATM   33  C23 UNL     1       5.228 -27.742   8.518  1.00  0.00     0.198 C 
BRANCH  33  34
HETATM   34  O3  UNL     1       5.839 -28.963   8.799  1.00  0.00    -0.398 OA
ATOM     35  H3  UNL     1       6.444 -28.894   9.527  1.00  0.00     0.209 HD
ENDBRANCH  33  34
ENDBRANCH  29  33
BRANCH  30  36
HETATM   36  O4  UNL     1       4.334 -29.233   6.270  1.00  0.00    -0.390 OA
ATOM     37  H4  UNL     1       4.382 -29.583   5.388  1.00  0.00     0.210 HD
ENDBRANCH  30  36
BRANCH  31  38
HETATM   38  O5  UNL     1       3.653 -27.783   3.941  1.00  0.00    -0.390 OA
ATOM     39  H5  UNL     1       3.948 -27.799   3.038  1.00  0.00     0.210 HD
ENDBRANCH  31  38
BRANCH  32  40
HETATM   40  O6  UNL     1       5.517 -25.745   3.482  1.00  0.00    -0.388 OA
ATOM     41  H6  UNL     1       5.927 -26.561   3.217  1.00  0.00     0.210 HD
ENDBRANCH  32  40
ENDBRANCH  26  27
ENDBRANCH  25  26
ENDBRANCH  24  25
ENDBRANCH  23  24
ENDBRANCH  22  23
ENDBRANCH   1  22
TORSDOF 18
ENDMDL
