MODEL 1
REMARK VINA RESULT: -9.730281695      0.000      0.000
REMARK  11 active torsions:
REMARK  status: ('A' for Active; 'I' for Inactive)
REMARK    1  A    between atoms: C4_4  and  C5_5 
REMARK    2  A    between atoms: C5_5  and  C6_6 
REMARK    3  A    between atoms: C6_6  and  C7_7 
REMARK    4  A    between atoms: C8_8  and  C9_9 
REMARK    5  A    between atoms: C11_11  and  N1_12 
REMARK    6  A    between atoms: C16_19  and  O3_20 
REMARK    7  A    between atoms: C17_22  and  O4_23 
REMARK    8  A    between atoms: C20_27  and  C21_28 
REMARK    9  A    between atoms: C21_28  and  C22_29 
REMARK   10  A    between atoms: C22_29  and  C23_30 
REMARK   11  A    between atoms: C23_30  and  C24_31 
ROOT
HETATM    1  C5  UNL     1     -17.322 -28.064 -14.890  1.00  0.00     0.042 C 
ENDROOT
BRANCH   1   2
HETATM    2  C4  UNL     1     -16.747 -26.918 -14.171  1.00  0.00    -0.057 A 
HETATM    3  C3  UNL     1     -17.407 -25.723 -14.175  1.00  0.00     0.014 A 
HETATM    4  C2  UNL     1     -16.894 -24.628 -13.497  1.00  0.00    -0.055 A 
HETATM    5  C1  UNL     1     -17.748 -23.405 -13.533  1.00  0.00     0.049 C 
HETATM    6  C20 UNL     1     -15.728 -24.673 -12.803  1.00  0.00    -0.052 A 
HETATM    7  C19 UNL     1     -15.061 -25.910 -12.807  1.00  0.00     0.008 A 
HETATM    8  C18 UNL     1     -15.569 -26.995 -13.478  1.00  0.00     0.007 A 
BRANCH   6   9
HETATM    9  C21 UNL     1     -15.115 -23.556 -12.125  1.00  0.00     0.039 C 
BRANCH   9  10
HETATM   10  C22 UNL     1     -14.305 -22.593 -12.903  1.00  0.00     0.005 C 
BRANCH  10  11
HETATM   11  C23 UNL     1     -12.840 -22.585 -12.740  1.00  0.00     0.005 C 
BRANCH  11  12
HETATM   12  C24 UNL     1     -12.170 -21.404 -13.429  1.00  0.00    -0.014 C 
HETATM   13  C25 UNL     1     -12.128 -20.175 -12.583  1.00  0.00     0.010 C 
HETATM   14  C26 UNL     1     -11.697 -19.002 -13.434  1.00  0.00     0.079 C 
HETATM   15  C27 UNL     1     -10.917 -19.382 -14.650  1.00  0.00     0.243 C 
HETATM   16  F1  UNL     1     -11.709 -19.524 -15.775  1.00  0.00    -0.206 F 
HETATM   17  F2  UNL     1     -10.040 -18.331 -14.956  1.00  0.00    -0.206 F 
HETATM   18  C28 UNL     1     -10.069 -20.603 -14.504  1.00  0.00     0.079 C 
HETATM   19  C29 UNL     1     -10.849 -21.800 -13.982  1.00  0.00     0.010 C 
ENDBRANCH  11  12
ENDBRANCH  10  11
ENDBRANCH   9  10
ENDBRANCH   6   9
ENDBRANCH   1   2
BRANCH   1  20
HETATM   20  C6  UNL     1     -16.379 -28.583 -15.925  1.00  0.00     0.031 C 
BRANCH  20  21
HETATM   21  C7  UNL     1     -16.067 -30.003 -15.649  1.00  0.00    -0.030 C 
HETATM   22  C8  UNL     1     -14.858 -30.336 -15.234  1.00  0.00    -0.023 C 
BRANCH  22  23
HETATM   23  C9  UNL     1     -14.436 -31.725 -14.929  1.00  0.00     0.041 C 
HETATM   24  C10 UNL     1     -13.949 -32.423 -16.195  1.00  0.00     0.039 C 
HETATM   25  C11 UNL     1     -12.659 -33.006 -15.788  1.00  0.00     0.119 C 
HETATM   26  C16 UNL     1     -12.058 -32.008 -14.833  1.00  0.00     0.170 C 
HETATM   27  C17 UNL     1     -13.290 -31.764 -13.942  1.00  0.00     0.156 C 
BRANCH  25  28
HETATM   28  N1  UNL     1     -11.781 -33.504 -16.771  1.00  0.00    -0.341 N 
HETATM   29  C12 UNL     1     -11.525 -32.794 -18.043  1.00  0.00     0.152 C 
HETATM   30  C13 UNL     1     -11.756 -33.743 -19.170  1.00  0.00     0.188 C 
HETATM   31  O1  UNL     1     -11.484 -35.055 -18.939  1.00  0.00    -0.380 OA
HETATM   32  C14 UNL     1     -10.604 -35.341 -17.930  1.00  0.00     0.270 C 
HETATM   33  C15 UNL     1     -11.067 -34.721 -16.640  1.00  0.00     0.244 C 
HETATM   34  O2  UNL     1     -10.868 -35.195 -15.520  1.00  0.00    -0.271 OA
ENDBRANCH  25  28
BRANCH  26  35
HETATM   35  O3  UNL     1     -11.737 -30.791 -15.372  1.00  0.00    -0.391 OA
ATOM     36  H3  UNL     1     -11.745 -30.058 -14.767  1.00  0.00     0.210 HD
ENDBRANCH  26  35
BRANCH  27  37
HETATM   37  O4  UNL     1     -13.170 -30.642 -13.165  1.00  0.00    -0.392 OA
ATOM     38  H4  UNL     1     -12.482 -30.046 -13.436  1.00  0.00     0.210 HD
ENDBRANCH  27  37
ENDBRANCH  22  23
ENDBRANCH  20  21
ENDBRANCH   1  20
TORSDOF 11
ENDMDL
MODEL 2
REMARK VINA RESULT: -9.573123539      7.268     10.103
REMARK  11 active torsions:
REMARK  status: ('A' for Active; 'I' for Inactive)
REMARK    1  A    between atoms: C4_4  and  C5_5 
REMARK    2  A    between atoms: C5_5  and  C6_6 
REMARK    3  A    between atoms: C6_6  and  C7_7 
REMARK    4  A    between atoms: C8_8  and  C9_9 
REMARK    5  A    between atoms: C11_11  and  N1_12 
REMARK    6  A    between atoms: C16_19  and  O3_20 
REMARK    7  A    between atoms: C17_22  and  O4_23 
REMARK    8  A    between atoms: C20_27  and  C21_28 
REMARK    9  A    between atoms: C21_28  and  C22_29 
REMARK   10  A    between atoms: C22_29  and  C23_30 
REMARK   11  A    between atoms: C23_30  and  C24_31 
ROOT
HETATM    1  C5  UNL     1     -18.856 -24.161 -15.081  1.00  0.00     0.042 C 
ENDROOT
BRANCH   1   2
HETATM    2  C4  UNL     1     -17.633 -23.963 -14.291  1.00  0.00    -0.057 A 
HETATM    3  C3  UNL     1     -17.167 -24.979 -13.507  1.00  0.00     0.014 A 
HETATM    4  C2  UNL     1     -16.011 -24.824 -12.759  1.00  0.00    -0.055 A 
HETATM    5  C1  UNL     1     -15.582 -26.034 -11.998  1.00  0.00     0.049 C 
HETATM    6  C20 UNL     1     -15.285 -23.677 -12.756  1.00  0.00    -0.052 A 
HETATM    7  C19 UNL     1     -15.776 -22.640 -13.568  1.00  0.00     0.008 A 
HETATM    8  C18 UNL     1     -16.921 -22.793 -14.311  1.00  0.00     0.007 A 
BRANCH   6   9
HETATM    9  C21 UNL     1     -14.107 -23.435 -11.959  1.00  0.00     0.039 C 
BRANCH   9  10
HETATM   10  C22 UNL     1     -13.237 -22.283 -12.283  1.00  0.00     0.005 C 
BRANCH  10  11
HETATM   11  C23 UNL     1     -12.086 -22.479 -13.183  1.00  0.00     0.005 C 
BRANCH  11  12
HETATM   12  C24 UNL     1     -11.588 -21.181 -13.804  1.00  0.00    -0.014 C 
HETATM   13  C25 UNL     1     -11.791 -19.992 -12.926  1.00  0.00     0.010 C 
HETATM   14  C26 UNL     1     -11.518 -18.735 -13.722  1.00  0.00     0.079 C 
HETATM   15  C27 UNL     1     -10.628 -18.940 -14.903  1.00  0.00     0.243 C 
HETATM   16  F1  UNL     1     -11.330 -19.172 -16.073  1.00  0.00    -0.206 F 
HETATM   17  F2  UNL     1      -9.923 -17.750 -15.135  1.00  0.00    -0.206 F 
HETATM   18  C28 UNL     1      -9.599 -20.010 -14.744  1.00  0.00     0.079 C 
HETATM   19  C29 UNL     1     -10.194 -21.336 -14.295  1.00  0.00     0.010 C 
ENDBRANCH  11  12
ENDBRANCH  10  11
ENDBRANCH   9  10
ENDBRANCH   6   9
ENDBRANCH   1   2
BRANCH   1  20
HETATM   20  C6  UNL     1     -19.986 -23.344 -14.547  1.00  0.00     0.031 C 
BRANCH  20  21
HETATM   21  C7  UNL     1     -20.215 -23.679 -13.123  1.00  0.00    -0.030 C 
HETATM   22  C8  UNL     1     -19.854 -22.823 -12.185  1.00  0.00    -0.023 C 
BRANCH  22  23
HETATM   23  C9  UNL     1     -20.035 -23.055 -10.731  1.00  0.00     0.041 C 
HETATM   24  C10 UNL     1     -18.682 -23.111 -10.029  1.00  0.00     0.039 C 
HETATM   25  C11 UNL     1     -18.851 -22.196  -8.887  1.00  0.00     0.119 C 
HETATM   26  C16 UNL     1     -19.732 -21.086  -9.399  1.00  0.00     0.170 C 
HETATM   27  C17 UNL     1     -20.819 -21.940 -10.074  1.00  0.00     0.156 C 
BRANCH  25  28
HETATM   28  N1  UNL     1     -17.721 -21.781  -8.156  1.00  0.00    -0.341 N 
HETATM   29  C12 UNL     1     -17.633 -21.910  -6.685  1.00  0.00     0.152 C 
HETATM   30  C13 UNL     1     -17.273 -20.581  -6.113  1.00  0.00     0.188 C 
HETATM   31  O1  UNL     1     -16.489 -19.772  -6.874  1.00  0.00    -0.380 OA
HETATM   32  C14 UNL     1     -15.716 -20.374  -7.831  1.00  0.00     0.270 C 
HETATM   33  C15 UNL     1     -16.573 -21.202  -8.750  1.00  0.00     0.244 C 
HETATM   34  O2  UNL     1     -16.339 -21.398  -9.944  1.00  0.00    -0.271 OA
ENDBRANCH  25  28
BRANCH  26  35
HETATM   35  O3  UNL     1     -19.193 -20.310 -10.390  1.00  0.00    -0.391 OA
ATOM     36  H3  UNL     1     -18.675 -20.773 -11.039  1.00  0.00     0.210 HD
ENDBRANCH  26  35
BRANCH  27  37
HETATM   37  O4  UNL     1     -21.608 -21.218 -10.931  1.00  0.00    -0.392 OA
ATOM     38  H4  UNL     1     -22.258 -20.673 -10.504  1.00  0.00     0.210 HD
ENDBRANCH  27  37
ENDBRANCH  22  23
ENDBRANCH  20  21
ENDBRANCH   1  20
TORSDOF 11
ENDMDL
MODEL 3
REMARK VINA RESULT: -9.496089433      2.194      3.403
REMARK  11 active torsions:
REMARK  status: ('A' for Active; 'I' for Inactive)
REMARK    1  A    between atoms: C4_4  and  C5_5 
REMARK    2  A    between atoms: C5_5  and  C6_6 
REMARK    3  A    between atoms: C6_6  and  C7_7 
REMARK    4  A    between atoms: C8_8  and  C9_9 
REMARK    5  A    between atoms: C11_11  and  N1_12 
REMARK    6  A    between atoms: C16_19  and  O3_20 
REMARK    7  A    between atoms: C17_22  and  O4_23 
REMARK    8  A    between atoms: C20_27  and  C21_28 
REMARK    9  A    between atoms: C21_28  and  C22_29 
REMARK   10  A    between atoms: C22_29  and  C23_30 
REMARK   11  A    between atoms: C23_30  and  C24_31 
ROOT
HETATM    1  C5  UNL     1     -16.633 -27.779 -13.458  1.00  0.00     0.042 C 
ENDROOT
BRANCH   1   2
HETATM    2  C4  UNL     1     -16.187 -26.482 -12.933  1.00  0.00    -0.057 A 
HETATM    3  C3  UNL     1     -16.585 -25.333 -13.553  1.00  0.00     0.014 A 
HETATM    4  C2  UNL     1     -16.189 -24.095 -13.074  1.00  0.00    -0.055 A 
HETATM    5  C1  UNL     1     -16.748 -22.922 -13.809  1.00  0.00     0.049 C 
HETATM    6  C20 UNL     1     -15.394 -23.948 -11.983  1.00  0.00    -0.052 A 
HETATM    7  C19 UNL     1     -14.993 -25.139 -11.354  1.00  0.00     0.008 A 
HETATM    8  C18 UNL     1     -15.386 -26.367 -11.828  1.00  0.00     0.007 A 
BRANCH   6   9
HETATM    9  C21 UNL     1     -14.903 -22.693 -11.469  1.00  0.00     0.039 C 
BRANCH   9  10
HETATM   10  C22 UNL     1     -13.480 -22.338 -11.664  1.00  0.00     0.005 C 
BRANCH  10  11
HETATM   11  C23 UNL     1     -12.836 -22.623 -12.960  1.00  0.00     0.005 C 
BRANCH  11  12
HETATM   12  C24 UNL     1     -12.157 -21.404 -13.569  1.00  0.00    -0.014 C 
HETATM   13  C25 UNL     1     -12.130 -20.225 -12.653  1.00  0.00     0.010 C 
HETATM   14  C26 UNL     1     -11.688 -19.005 -13.429  1.00  0.00     0.079 C 
HETATM   15  C27 UNL     1     -10.888 -19.314 -14.652  1.00  0.00     0.243 C 
HETATM   16  F1  UNL     1     -11.662 -19.392 -15.796  1.00  0.00    -0.206 F 
HETATM   17  F2  UNL     1     -10.009 -18.247 -14.884  1.00  0.00    -0.206 F 
HETATM   18  C28 UNL     1     -10.041 -20.541 -14.563  1.00  0.00     0.079 C 
HETATM   19  C29 UNL     1     -10.827 -21.767 -14.123  1.00  0.00     0.010 C 
ENDBRANCH  11  12
ENDBRANCH  10  11
ENDBRANCH   9  10
ENDBRANCH   6   9
ENDBRANCH   1   2
BRANCH   1  20
HETATM   20  C6  UNL     1     -15.668 -28.319 -14.463  1.00  0.00     0.031 C 
BRANCH  20  21
HETATM   21  C7  UNL     1     -14.647 -29.146 -13.780  1.00  0.00    -0.030 C 
HETATM   22  C8  UNL     1     -13.556 -29.505 -14.432  1.00  0.00    -0.023 C 
BRANCH  22  23
HETATM   23  C9  UNL     1     -12.471 -30.331 -13.848  1.00  0.00     0.041 C 
HETATM   24  C10 UNL     1     -13.003 -31.160 -12.684  1.00  0.00     0.039 C 
HETATM   25  C11 UNL     1     -12.514 -32.518 -12.980  1.00  0.00     0.119 C 
HETATM   26  C16 UNL     1     -12.576 -32.640 -14.481  1.00  0.00     0.170 C 
HETATM   27  C17 UNL     1     -11.901 -31.308 -14.853  1.00  0.00     0.156 C 
BRANCH  25  28
HETATM   28  N1  UNL     1     -13.033 -33.614 -12.264  1.00  0.00    -0.341 N 
HETATM   29  C12 UNL     1     -14.481 -33.792 -12.018  1.00  0.00     0.152 C 
HETATM   30  C13 UNL     1     -14.691 -33.993 -10.555  1.00  0.00     0.188 C 
HETATM   31  O1  UNL     1     -13.700 -34.619  -9.868  1.00  0.00    -0.380 OA
HETATM   32  C14 UNL     1     -12.852 -35.420 -10.587  1.00  0.00     0.270 C 
HETATM   33  C15 UNL     1     -12.227 -34.642 -11.713  1.00  0.00     0.244 C 
HETATM   34  O2  UNL     1     -11.098 -34.841 -12.164  1.00  0.00    -0.271 OA
ENDBRANCH  25  28
BRANCH  26  35
HETATM   35  O3  UNL     1     -13.830 -32.593 -15.029  1.00  0.00    -0.391 OA
ATOM     36  H3  UNL     1     -13.889 -32.190 -15.887  1.00  0.00     0.210 HD
ENDBRANCH  26  35
BRANCH  27  37
HETATM   37  O4  UNL     1     -12.101 -30.958 -16.163  1.00  0.00    -0.392 OA
ATOM     38  H4  UNL     1     -12.203 -31.693 -16.756  1.00  0.00     0.210 HD
ENDBRANCH  27  37
ENDBRANCH  22  23
ENDBRANCH  20  21
ENDBRANCH   1  20
TORSDOF 11
ENDMDL
MODEL 4
REMARK VINA RESULT: -9.440894760      1.696      2.820
REMARK  11 active torsions:
REMARK  status: ('A' for Active; 'I' for Inactive)
REMARK    1  A    between atoms: C4_4  and  C5_5 
REMARK    2  A    between atoms: C5_5  and  C6_6 
REMARK    3  A    between atoms: C6_6  and  C7_7 
REMARK    4  A    between atoms: C8_8  and  C9_9 
REMARK    5  A    between atoms: C11_11  and  N1_12 
REMARK    6  A    between atoms: C16_19  and  O3_20 
REMARK    7  A    between atoms: C17_22  and  O4_23 
REMARK    8  A    between atoms: C20_27  and  C21_28 
REMARK    9  A    between atoms: C21_28  and  C22_29 
REMARK   10  A    between atoms: C22_29  and  C23_30 
REMARK   11  A    between atoms: C23_30  and  C24_31 
ROOT
HETATM    1  C5  UNL     1     -16.465 -27.367 -11.707  1.00  0.00     0.042 C 
ENDROOT
BRANCH   1   2
HETATM    2  C4  UNL     1     -15.915 -26.012 -11.567  1.00  0.00    -0.057 A 
HETATM    3  C3  UNL     1     -16.087 -25.108 -12.576  1.00  0.00     0.014 A 
HETATM    4  C2  UNL     1     -15.588 -23.820 -12.468  1.00  0.00    -0.055 A 
HETATM    5  C1  UNL     1     -15.902 -22.920 -13.616  1.00  0.00     0.049 C 
HETATM    6  C20 UNL     1     -14.909 -23.384 -11.376  1.00  0.00    -0.052 A 
HETATM    7  C19 UNL     1     -14.740 -24.324 -10.345  1.00  0.00     0.008 A 
HETATM    8  C18 UNL     1     -15.235 -25.601 -10.451  1.00  0.00     0.007 A 
BRANCH   6   9
HETATM    9  C21 UNL     1     -14.318 -22.077 -11.226  1.00  0.00     0.039 C 
BRANCH   9  10
HETATM   10  C22 UNL     1     -12.883 -21.891 -11.535  1.00  0.00     0.005 C 
BRANCH  10  11
HETATM   11  C23 UNL     1     -12.380 -22.246 -12.875  1.00  0.00     0.005 C 
BRANCH  11  12
HETATM   12  C24 UNL     1     -11.799 -21.057 -13.628  1.00  0.00    -0.014 C 
HETATM   13  C25 UNL     1     -11.850 -19.785 -12.849  1.00  0.00     0.010 C 
HETATM   14  C26 UNL     1     -11.506 -18.630 -13.762  1.00  0.00     0.079 C 
HETATM   15  C27 UNL     1     -10.698 -19.015 -14.958  1.00  0.00     0.243 C 
HETATM   16  F1  UNL     1     -11.476 -19.277 -16.073  1.00  0.00    -0.206 F 
HETATM   17  F2  UNL     1      -9.902 -17.921 -15.323  1.00  0.00    -0.206 F 
HETATM   18  C28 UNL     1      -9.763 -20.161 -14.750  1.00  0.00     0.079 C 
HETATM   19  C29 UNL     1     -10.452 -21.383 -14.162  1.00  0.00     0.010 C 
ENDBRANCH  11  12
ENDBRANCH  10  11
ENDBRANCH   9  10
ENDBRANCH   6   9
ENDBRANCH   1   2
BRANCH   1  20
HETATM   20  C6  UNL     1     -15.493 -28.399 -11.239  1.00  0.00     0.031 C 
BRANCH  20  21
HETATM   21  C7  UNL     1     -14.733 -28.930 -12.393  1.00  0.00    -0.030 C 
HETATM   22  C8  UNL     1     -15.091 -28.596 -13.620  1.00  0.00    -0.023 C 
BRANCH  22  23
HETATM   23  C9  UNL     1     -14.403 -29.069 -14.846  1.00  0.00     0.041 C 
HETATM   24  C10 UNL     1     -13.350 -30.114 -14.494  1.00  0.00     0.039 C 
HETATM   25  C11 UNL     1     -13.631 -31.213 -15.434  1.00  0.00     0.119 C 
HETATM   26  C16 UNL     1     -15.131 -31.230 -15.582  1.00  0.00     0.170 C 
HETATM   27  C17 UNL     1     -15.362 -29.726 -15.814  1.00  0.00     0.156 C 
BRANCH  25  28
HETATM   28  N1  UNL     1     -13.030 -32.470 -15.233  1.00  0.00    -0.341 N 
HETATM   29  C12 UNL     1     -12.933 -33.102 -13.899  1.00  0.00     0.152 C 
HETATM   30  C13 UNL     1     -11.511 -33.478 -13.655  1.00  0.00     0.188 C 
HETATM   31  O1  UNL     1     -10.768 -33.826 -14.740  1.00  0.00    -0.380 OA
HETATM   32  C14 UNL     1     -11.447 -34.267 -15.845  1.00  0.00     0.270 C 
HETATM   33  C15 UNL     1     -12.464 -33.244 -16.277  1.00  0.00     0.244 C 
HETATM   34  O2  UNL     1     -12.817 -33.050 -17.441  1.00  0.00    -0.271 OA
ENDBRANCH  25  28
BRANCH  26  35
HETATM   35  O3  UNL     1     -15.834 -31.550 -14.452  1.00  0.00    -0.391 OA
ATOM     36  H3  UNL     1     -16.696 -31.925 -14.595  1.00  0.00     0.210 HD
ENDBRANCH  26  35
BRANCH  27  37
HETATM   37  O4  UNL     1     -16.672 -29.359 -15.655  1.00  0.00    -0.392 OA
ATOM     38  H4  UNL     1     -17.294 -29.899 -16.129  1.00  0.00     0.210 HD
ENDBRANCH  27  37
ENDBRANCH  22  23
ENDBRANCH  20  21
ENDBRANCH   1  20
TORSDOF 11
ENDMDL
MODEL 5
REMARK VINA RESULT: -9.340626586      1.836      3.344
REMARK  11 active torsions:
REMARK  status: ('A' for Active; 'I' for Inactive)
REMARK    1  A    between atoms: C4_4  and  C5_5 
REMARK    2  A    between atoms: C5_5  and  C6_6 
REMARK    3  A    between atoms: C6_6  and  C7_7 
REMARK    4  A    between atoms: C8_8  and  C9_9 
REMARK    5  A    between atoms: C11_11  and  N1_12 
REMARK    6  A    between atoms: C16_19  and  O3_20 
REMARK    7  A    between atoms: C17_22  and  O4_23 
REMARK    8  A    between atoms: C20_27  and  C21_28 
REMARK    9  A    between atoms: C21_28  and  C22_29 
REMARK   10  A    between atoms: C22_29  and  C23_30 
REMARK   11  A    between atoms: C23_30  and  C24_31 
ROOT
HETATM    1  C5  UNL     1     -18.492 -25.178 -14.706  1.00  0.00     0.042 C 
ENDROOT
BRANCH   1   2
HETATM    2  C4  UNL     1     -17.395 -24.661 -13.876  1.00  0.00    -0.057 A 
HETATM    3  C3  UNL     1     -16.766 -25.495 -12.998  1.00  0.00     0.014 A 
HETATM    4  C2  UNL     1     -15.722 -25.038 -12.209  1.00  0.00    -0.055 A 
HETATM    5  C1  UNL     1     -15.085 -26.071 -11.341  1.00  0.00     0.049 C 
HETATM    6  C20 UNL     1     -15.270 -23.759 -12.257  1.00  0.00    -0.052 A 
HETATM    7  C19 UNL     1     -15.926 -22.912 -13.166  1.00  0.00     0.008 A 
HETATM    8  C18 UNL     1     -16.960 -23.364 -13.949  1.00  0.00     0.007 A 
BRANCH   6   9
HETATM    9  C21 UNL     1     -14.227 -23.209 -11.425  1.00  0.00     0.039 C 
BRANCH   9  10
HETATM   10  C22 UNL     1     -13.346 -22.153 -11.971  1.00  0.00     0.005 C 
BRANCH  10  11
HETATM   11  C23 UNL     1     -12.464 -22.466 -13.110  1.00  0.00     0.005 C 
BRANCH  11  12
HETATM   12  C24 UNL     1     -11.838 -21.227 -13.736  1.00  0.00    -0.014 C 
HETATM   13  C25 UNL     1     -11.904 -20.024 -12.855  1.00  0.00     0.010 C 
HETATM   14  C26 UNL     1     -11.509 -18.803 -13.654  1.00  0.00     0.079 C 
HETATM   15  C27 UNL     1     -10.659 -19.099 -14.846  1.00  0.00     0.243 C 
HETATM   16  F1  UNL     1     -11.395 -19.253 -16.008  1.00  0.00    -0.206 F 
HETATM   17  F2  UNL     1      -9.835 -17.990 -15.085  1.00  0.00    -0.206 F 
HETATM   18  C28 UNL     1      -9.747 -20.272 -14.699  1.00  0.00     0.079 C 
HETATM   19  C29 UNL     1     -10.475 -21.529 -14.244  1.00  0.00     0.010 C 
ENDBRANCH  11  12
ENDBRANCH  10  11
ENDBRANCH   9  10
ENDBRANCH   6   9
ENDBRANCH   1   2
BRANCH   1  20
HETATM   20  C6  UNL     1     -19.056 -26.438 -14.137  1.00  0.00     0.031 C 
BRANCH  20  21
HETATM   21  C7  UNL     1     -18.820 -27.559 -15.074  1.00  0.00    -0.030 C 
HETATM   22  C8  UNL     1     -17.817 -28.390 -14.858  1.00  0.00    -0.023 C 
BRANCH  22  23
HETATM   23  C9  UNL     1     -17.489 -29.544 -15.730  1.00  0.00     0.041 C 
HETATM   24  C10 UNL     1     -16.013 -29.518 -16.113  1.00  0.00     0.039 C 
HETATM   25  C11 UNL     1     -15.560 -30.890 -15.824  1.00  0.00     0.119 C 
HETATM   26  C16 UNL     1     -16.326 -31.306 -14.595  1.00  0.00     0.170 C 
HETATM   27  C17 UNL     1     -17.734 -30.866 -15.035  1.00  0.00     0.156 C 
BRANCH  25  28
HETATM   28  N1  UNL     1     -14.181 -31.176 -15.801  1.00  0.00    -0.341 N 
HETATM   29  C12 UNL     1     -13.585 -32.287 -16.574  1.00  0.00     0.152 C 
HETATM   30  C13 UNL     1     -12.777 -33.130 -15.646  1.00  0.00     0.188 C 
HETATM   31  O1  UNL     1     -12.182 -32.501 -14.598  1.00  0.00    -0.380 OA
HETATM   32  C14 UNL     1     -11.956 -31.156 -14.725  1.00  0.00     0.270 C 
HETATM   33  C15 UNL     1     -13.241 -30.437 -15.040  1.00  0.00     0.244 C 
HETATM   34  O2  UNL     1     -13.509 -29.288 -14.688  1.00  0.00    -0.271 OA
ENDBRANCH  25  28
BRANCH  26  35
HETATM   35  O3  UNL     1     -16.049 -30.599 -13.456  1.00  0.00    -0.391 OA
ATOM     36  H3  UNL     1     -16.053 -31.101 -12.649  1.00  0.00     0.210 HD
ENDBRANCH  26  35
BRANCH  27  37
HETATM   37  O4  UNL     1     -18.621 -30.804 -13.993  1.00  0.00    -0.392 OA
ATOM     38  H4  UNL     1     -18.693 -31.606 -13.488  1.00  0.00     0.210 HD
ENDBRANCH  27  37
ENDBRANCH  22  23
ENDBRANCH  20  21
ENDBRANCH   1  20
TORSDOF 11
ENDMDL
