MODEL 1
REMARK VINA RESULT: -7.424441519      0.000      0.000
REMARK  14 active torsions:
REMARK  status: ('A' for Active; 'I' for Inactive)
REMARK    1  A    between atoms: N1_1  and  N2_4 
REMARK    2  A    between atoms: N2_4  and  N3_5 
REMARK    3  A    between atoms: N3_5  and  C1_7 
REMARK    4  A    between atoms: C3_9  and  C4_10 
REMARK    5  A    between atoms: C4_10  and  O1_11 
REMARK    6  A    between atoms: C6_15  and  C7_16 
REMARK    7  A    between atoms: C7_16  and  C8_17 
REMARK    8  A    between atoms: C8_17  and  C9_18 
REMARK    9  A    between atoms: C9_18  and  C10_19 
REMARK   10  A    between atoms: C10_19  and  C11_20 
REMARK   11  A    between atoms: C11_20  and  O3_21 
REMARK   12  A    between atoms: C11_20  and  N4_23 
REMARK   13  A    between atoms: N4_23  and  C12_25 
REMARK   14  A    between atoms: C12_25  and  C13_26 
ROOT
HETATM    1  C1  UNL     1     -21.700 -24.034 -14.456  1.00  0.00     0.123 C 
HETATM    2  C2  UNL     1     -21.930 -24.830 -13.183  1.00  0.00     0.062 C 
HETATM    3  C3  UNL     1     -20.905 -24.571 -12.111  1.00  0.00     0.147 C 
HETATM    4  O2  UNL     1     -19.685 -24.125 -12.653  1.00  0.00    -0.378 OA
HETATM    5  C5  UNL     1     -19.406 -24.755 -13.834  1.00  0.00     0.132 C 
HETATM    6  C6  UNL     1     -18.060 -24.580 -14.400  1.00  0.00     0.015 C 
HETATM    7  C19 UNL     1     -18.110 -23.061 -14.807  1.00  0.00     0.007 C 
HETATM    8  C20 UNL     1     -19.580 -22.809 -15.087  1.00  0.00     0.010 C 
HETATM    9  C21 UNL     1     -20.299 -24.121 -14.923  1.00  0.00     0.040 C 
ENDROOT
BRANCH   6  10
HETATM   10  C7  UNL     1     -16.920 -24.663 -13.363  1.00  0.00     0.007 C 
BRANCH  10  11
HETATM   11  C8  UNL     1     -16.241 -23.315 -13.477  1.00  0.00     0.001 C 
BRANCH  11  12
HETATM   12  C9  UNL     1     -14.850 -23.287 -12.900  1.00  0.00     0.008 C 
BRANCH  12  13
HETATM   13  C10 UNL     1     -14.693 -22.915 -11.494  1.00  0.00     0.083 C 
BRANCH  13  14
HETATM   14  C11 UNL     1     -13.496 -22.232 -11.034  1.00  0.00     0.111 C 
BRANCH  14  15
HETATM   15  O3  UNL     1     -13.230 -22.516  -9.755  1.00  0.00    -0.350 OA
ATOM     16  H3  UNL     1     -12.607 -21.903  -9.384  1.00  0.00     0.219 HD
ENDBRANCH  14  15
BRANCH  14  17
HETATM   17  N4  UNL     1     -12.645 -21.384 -11.702  1.00  0.00    -0.370 N 
ATOM     18  H4  UNL     1     -11.677 -21.690 -11.608  1.00  0.00     0.161 HD
BRANCH  17  19
HETATM   19  C12 UNL     1     -12.729 -20.208 -12.483  1.00  0.00     0.161 C 
BRANCH  19  20
HETATM   20  C13 UNL     1     -11.529 -20.190 -13.391  1.00  0.00    -0.023 A 
HETATM   21  C14 UNL     1     -10.850 -21.243 -13.869  1.00  0.00     0.012 A 
HETATM   22  C15 UNL     1      -9.758 -21.011 -14.749  1.00  0.00     0.024 A 
HETATM   23  C16 UNL     1      -9.390 -19.746 -15.112  1.00  0.00     0.035 A 
HETATM   24 CL1  UNL     1      -7.977 -19.499 -16.122  1.00  0.00    -0.084 Cl
HETATM   25  C17 UNL     1     -10.098 -18.641 -14.617  1.00  0.00     0.043 A 
HETATM   26  C18 UNL     1     -11.133 -18.885 -13.785  1.00  0.00     0.020 A 
HETATM   27 BR1  UNL     1     -12.129 -17.384 -13.060  1.00  0.00    -0.050 Br
ENDBRANCH  19  20
ENDBRANCH  17  19
ENDBRANCH  14  17
ENDBRANCH  13  14
ENDBRANCH  12  13
ENDBRANCH  11  12
ENDBRANCH  10  11
ENDBRANCH   6  10
BRANCH   3  28
HETATM   28  C4  UNL     1     -21.486 -23.733 -11.042  1.00  0.00     0.196 C 
BRANCH  28  29
HETATM   29  O1  UNL     1     -21.388 -22.363 -11.306  1.00  0.00    -0.398 OA
ATOM     30  H1  UNL     1     -21.040 -21.866 -10.573  1.00  0.00     0.209 HD
ENDBRANCH  28  29
ENDBRANCH   3  28
BRANCH   1  31
HETATM   31  N3  UNL     1     -22.562 -24.685 -15.474  1.00  0.00    -0.247 N 
ATOM     32  H3  UNL     1     -22.772 -25.683 -15.475  1.00  0.00     0.197 HD
BRANCH  31  33
HETATM   33  N2  UNL     1     -23.007 -23.887 -16.331  1.00  0.00    -0.248 NA
BRANCH  33  34
HETATM   34  N1  UNL     1     -23.361 -23.273 -17.334  1.00  0.00    -0.261 N 
ATOM     35  H12 UNL     1     -22.623 -22.586 -17.180  1.00  0.00     0.193 HD
ATOM     36  H11 UNL     1     -23.797 -22.912 -18.182  1.00  0.00     0.193 HD
ENDBRANCH  33  34
ENDBRANCH  31  33
ENDBRANCH   1  31
TORSDOF 14
ENDMDL
MODEL 2
REMARK VINA RESULT: -7.188860696      3.214      4.035
REMARK  14 active torsions:
REMARK  status: ('A' for Active; 'I' for Inactive)
REMARK    1  A    between atoms: N1_1  and  N2_4 
REMARK    2  A    between atoms: N2_4  and  N3_5 
REMARK    3  A    between atoms: N3_5  and  C1_7 
REMARK    4  A    between atoms: C3_9  and  C4_10 
REMARK    5  A    between atoms: C4_10  and  O1_11 
REMARK    6  A    between atoms: C6_15  and  C7_16 
REMARK    7  A    between atoms: C7_16  and  C8_17 
REMARK    8  A    between atoms: C8_17  and  C9_18 
REMARK    9  A    between atoms: C9_18  and  C10_19 
REMARK   10  A    between atoms: C10_19  and  C11_20 
REMARK   11  A    between atoms: C11_20  and  O3_21 
REMARK   12  A    between atoms: C11_20  and  N4_23 
REMARK   13  A    between atoms: N4_23  and  C12_25 
REMARK   14  A    between atoms: C12_25  and  C13_26 
ROOT
HETATM    1  C1  UNL     1     -19.568 -21.248  -9.724  1.00  0.00     0.123 C 
HETATM    2  C2  UNL     1     -18.543 -21.458  -8.623  1.00  0.00     0.062 C 
HETATM    3  C3  UNL     1     -17.136 -21.645  -9.128  1.00  0.00     0.147 C 
HETATM    4  O2  UNL     1     -17.118 -22.143 -10.445  1.00  0.00    -0.378 OA
HETATM    5  C5  UNL     1     -18.125 -23.046 -10.649  1.00  0.00     0.132 C 
HETATM    6  C6  UNL     1     -18.094 -23.834 -11.890  1.00  0.00     0.015 C 
HETATM    7  C19 UNL     1     -18.396 -22.714 -12.954  1.00  0.00     0.007 C 
HETATM    8  C20 UNL     1     -19.224 -21.699 -12.188  1.00  0.00     0.010 C 
HETATM    9  C21 UNL     1     -19.439 -22.251 -10.804  1.00  0.00     0.040 C 
ENDROOT
BRANCH   6  10
HETATM   10  C7  UNL     1     -16.694 -24.361 -12.273  1.00  0.00     0.007 C 
BRANCH  10  11
HETATM   11  C8  UNL     1     -16.251 -23.419 -13.372  1.00  0.00     0.001 C 
BRANCH  11  12
HETATM   12  C9  UNL     1     -14.839 -22.921 -13.209  1.00  0.00     0.008 C 
BRANCH  12  13
HETATM   13  C10 UNL     1     -14.102 -23.315 -12.009  1.00  0.00     0.083 C 
BRANCH  13  14
HETATM   14  C11 UNL     1     -13.381 -22.330 -11.221  1.00  0.00     0.111 C 
BRANCH  14  15
HETATM   15  O3  UNL     1     -13.562 -22.523  -9.911  1.00  0.00    -0.350 OA
ATOM     16  H3  UNL     1     -13.740 -21.706  -9.460  1.00  0.00     0.219 HD
ENDBRANCH  14  15
BRANCH  14  17
HETATM   17  N4  UNL     1     -12.579 -21.288 -11.620  1.00  0.00    -0.370 N 
ATOM     18  H4  UNL     1     -11.645 -21.374 -11.221  1.00  0.00     0.161 HD
BRANCH  17  19
HETATM   19  C12 UNL     1     -12.679 -20.130 -12.427  1.00  0.00     0.161 C 
BRANCH  19  20
HETATM   20  C13 UNL     1     -11.497 -20.133 -13.358  1.00  0.00    -0.023 A 
HETATM   21  C14 UNL     1     -10.824 -21.196 -13.822  1.00  0.00     0.012 A 
HETATM   22  C15 UNL     1      -9.751 -20.984 -14.729  1.00  0.00     0.024 A 
HETATM   23  C16 UNL     1      -9.394 -19.729 -15.131  1.00  0.00     0.035 A 
HETATM   24 CL1  UNL     1      -8.001 -19.504 -16.175  1.00  0.00    -0.084 Cl
HETATM   25  C17 UNL     1     -10.095 -18.613 -14.651  1.00  0.00     0.043 A 
HETATM   26  C18 UNL     1     -11.113 -18.837 -13.793  1.00  0.00     0.020 A 
HETATM   27 BR1  UNL     1     -12.099 -17.321 -13.087  1.00  0.00    -0.050 Br
ENDBRANCH  19  20
ENDBRANCH  17  19
ENDBRANCH  14  17
ENDBRANCH  13  14
ENDBRANCH  12  13
ENDBRANCH  11  12
ENDBRANCH  10  11
ENDBRANCH   6  10
BRANCH   3  28
HETATM   28  C4  UNL     1     -16.341 -20.424  -8.885  1.00  0.00     0.196 C 
BRANCH  28  29
HETATM   29  O1  UNL     1     -15.083 -20.690  -8.334  1.00  0.00    -0.398 OA
ATOM     30  H1  UNL     1     -14.537 -19.915  -8.261  1.00  0.00     0.209 HD
ENDBRANCH  28  29
ENDBRANCH   3  28
BRANCH   1  31
HETATM   31  N3  UNL     1     -20.882 -21.451  -9.065  1.00  0.00    -0.247 N 
ATOM     32  H3  UNL     1     -21.599 -20.728  -9.009  1.00  0.00     0.197 HD
BRANCH  31  33
HETATM   33  N2  UNL     1     -21.022 -22.599  -8.584  1.00  0.00    -0.248 NA
BRANCH  33  34
HETATM   34  N1  UNL     1     -21.370 -23.632  -8.018  1.00  0.00    -0.261 N 
ATOM     35  H12 UNL     1     -21.383 -23.143  -7.123  1.00  0.00     0.193 HD
ATOM     36  H11 UNL     1     -21.650 -24.572  -7.737  1.00  0.00     0.193 HD
ENDBRANCH  33  34
ENDBRANCH  31  33
ENDBRANCH   1  31
TORSDOF 14
ENDMDL
MODEL 3
REMARK VINA RESULT: -7.068908789      4.775      6.335
REMARK  14 active torsions:
REMARK  status: ('A' for Active; 'I' for Inactive)
REMARK    1  A    between atoms: N1_1  and  N2_4 
REMARK    2  A    between atoms: N2_4  and  N3_5 
REMARK    3  A    between atoms: N3_5  and  C1_7 
REMARK    4  A    between atoms: C3_9  and  C4_10 
REMARK    5  A    between atoms: C4_10  and  O1_11 
REMARK    6  A    between atoms: C6_15  and  C7_16 
REMARK    7  A    between atoms: C7_16  and  C8_17 
REMARK    8  A    between atoms: C8_17  and  C9_18 
REMARK    9  A    between atoms: C9_18  and  C10_19 
REMARK   10  A    between atoms: C10_19  and  C11_20 
REMARK   11  A    between atoms: C11_20  and  O3_21 
REMARK   12  A    between atoms: C11_20  and  N4_23 
REMARK   13  A    between atoms: N4_23  and  C12_25 
REMARK   14  A    between atoms: C12_25  and  C13_26 
ROOT
HETATM    1  C1  UNL     1     -14.256 -30.052 -14.346  1.00  0.00     0.123 C 
HETATM    2  C2  UNL     1     -13.464 -30.101 -13.051  1.00  0.00     0.062 C 
HETATM    3  C3  UNL     1     -14.224 -29.593 -11.854  1.00  0.00     0.147 C 
HETATM    4  O2  UNL     1     -15.235 -28.687 -12.225  1.00  0.00    -0.378 OA
HETATM    5  C5  UNL     1     -14.833 -27.892 -13.263  1.00  0.00     0.132 C 
HETATM    6  C6  UNL     1     -15.678 -26.738 -13.605  1.00  0.00     0.015 C 
HETATM    7  C19 UNL     1     -16.948 -27.466 -14.182  1.00  0.00     0.007 C 
HETATM    8  C20 UNL     1     -16.399 -28.768 -14.737  1.00  0.00     0.010 C 
HETATM    9  C21 UNL     1     -14.906 -28.738 -14.552  1.00  0.00     0.040 C 
ENDROOT
BRANCH   6  10
HETATM   10  C7  UNL     1     -16.206 -25.953 -12.385  1.00  0.00     0.007 C 
BRANCH  10  11
HETATM   11  C8  UNL     1     -16.584 -24.607 -12.967  1.00  0.00     0.001 C 
BRANCH  11  12
HETATM   12  C9  UNL     1     -15.490 -23.577 -12.868  1.00  0.00     0.008 C 
BRANCH  12  13
HETATM   13  C10 UNL     1     -14.670 -23.555 -11.657  1.00  0.00     0.083 C 
BRANCH  13  14
HETATM   14  C11 UNL     1     -13.667 -22.523 -11.456  1.00  0.00     0.111 C 
BRANCH  14  15
HETATM   15  O3  UNL     1     -13.355 -22.389 -10.163  1.00  0.00    -0.350 OA
ATOM     16  H3  UNL     1     -13.994 -21.856  -9.705  1.00  0.00     0.219 HD
ENDBRANCH  14  15
BRANCH  14  17
HETATM   17  N4  UNL     1     -13.028 -21.715 -12.367  1.00  0.00    -0.370 N 
ATOM     18  H4  UNL     1     -12.696 -22.257 -13.164  1.00  0.00     0.161 HD
BRANCH  17  19
HETATM   19  C12 UNL     1     -12.701 -20.348 -12.513  1.00  0.00     0.161 C 
BRANCH  19  20
HETATM   20  C13 UNL     1     -11.502 -20.271 -13.419  1.00  0.00    -0.023 A 
HETATM   21  C14 UNL     1     -10.788 -21.292 -13.918  1.00  0.00     0.012 A 
HETATM   22  C15 UNL     1      -9.705 -21.006 -14.792  1.00  0.00     0.024 A 
HETATM   23  C16 UNL     1      -9.379 -19.723 -15.130  1.00  0.00     0.035 A 
HETATM   24 CL1  UNL     1      -7.975 -19.409 -16.134  1.00  0.00    -0.084 Cl
HETATM   25  C17 UNL     1     -10.123 -18.652 -14.614  1.00  0.00     0.043 A 
HETATM   26  C18 UNL     1     -11.150 -18.947 -13.788  1.00  0.00     0.020 A 
HETATM   27 BR1  UNL     1     -12.196 -17.494 -13.034  1.00  0.00    -0.050 Br
ENDBRANCH  19  20
ENDBRANCH  17  19
ENDBRANCH  14  17
ENDBRANCH  13  14
ENDBRANCH  12  13
ENDBRANCH  11  12
ENDBRANCH  10  11
ENDBRANCH   6  10
BRANCH   3  28
HETATM   28  C4  UNL     1     -14.647 -30.723 -11.001  1.00  0.00     0.196 C 
BRANCH  28  29
HETATM   29  O1  UNL     1     -13.660 -31.127 -10.096  1.00  0.00    -0.398 OA
ATOM     30  H1  UNL     1     -13.958 -31.122  -9.194  1.00  0.00     0.209 HD
ENDBRANCH  28  29
ENDBRANCH   3  28
BRANCH   1  31
HETATM   31  N3  UNL     1     -13.245 -30.235 -15.418  1.00  0.00    -0.247 N 
ATOM     32  H3  UNL     1     -13.140 -29.595 -16.205  1.00  0.00     0.197 HD
BRANCH  31  33
HETATM   33  N2  UNL     1     -12.533 -31.253 -15.258  1.00  0.00    -0.248 NA
BRANCH  33  34
HETATM   34  N1  UNL     1     -11.719 -32.171 -15.306  1.00  0.00    -0.261 N 
ATOM     35  H12 UNL     1     -11.008 -31.569 -14.890  1.00  0.00     0.193 HD
ATOM     36  H11 UNL     1     -11.199 -33.040 -15.428  1.00  0.00     0.193 HD
ENDBRANCH  33  34
ENDBRANCH  31  33
ENDBRANCH   1  31
TORSDOF 14
ENDMDL
MODEL 4
REMARK VINA RESULT: -6.759930637      5.980      8.191
REMARK  14 active torsions:
REMARK  status: ('A' for Active; 'I' for Inactive)
REMARK    1  A    between atoms: N1_1  and  N2_4 
REMARK    2  A    between atoms: N2_4  and  N3_5 
REMARK    3  A    between atoms: N3_5  and  C1_7 
REMARK    4  A    between atoms: C3_9  and  C4_10 
REMARK    5  A    between atoms: C4_10  and  O1_11 
REMARK    6  A    between atoms: C6_15  and  C7_16 
REMARK    7  A    between atoms: C7_16  and  C8_17 
REMARK    8  A    between atoms: C8_17  and  C9_18 
REMARK    9  A    between atoms: C9_18  and  C10_19 
REMARK   10  A    between atoms: C10_19  and  C11_20 
REMARK   11  A    between atoms: C11_20  and  O3_21 
REMARK   12  A    between atoms: C11_20  and  N4_23 
REMARK   13  A    between atoms: N4_23  and  C12_25 
REMARK   14  A    between atoms: C12_25  and  C13_26 
ROOT
HETATM    1  C1  UNL     1     -13.233 -31.067 -14.902  1.00  0.00     0.123 C 
HETATM    2  C2  UNL     1     -12.772 -30.768 -13.485  1.00  0.00     0.062 C 
HETATM    3  C3  UNL     1     -13.882 -30.337 -12.563  1.00  0.00     0.147 C 
HETATM    4  O2  UNL     1     -14.954 -29.762 -13.270  1.00  0.00    -0.378 OA
HETATM    5  C5  UNL     1     -14.509 -29.015 -14.326  1.00  0.00     0.132 C 
HETATM    6  C6  UNL     1     -15.486 -28.157 -15.014  1.00  0.00     0.015 C 
HETATM    7  C19 UNL     1     -16.394 -29.242 -15.702  1.00  0.00     0.007 C 
HETATM    8  C20 UNL     1     -15.457 -30.418 -15.914  1.00  0.00     0.010 C 
HETATM    9  C21 UNL     1     -14.092 -29.991 -15.446  1.00  0.00     0.040 C 
ENDROOT
BRANCH   6  10
HETATM   10  C7  UNL     1     -16.442 -27.398 -14.069  1.00  0.00     0.007 C 
BRANCH  10  11
HETATM   11  C8  UNL     1     -17.621 -27.060 -14.957  1.00  0.00     0.001 C 
BRANCH  11  12
HETATM   12  C9  UNL     1     -18.615 -26.130 -14.314  1.00  0.00     0.008 C 
BRANCH  12  13
HETATM   13  C10 UNL     1     -18.527 -24.703 -14.623  1.00  0.00     0.083 C 
BRANCH  13  14
HETATM   14  C11 UNL     1     -18.881 -23.703 -13.631  1.00  0.00     0.111 C 
BRANCH  14  15
HETATM   15  O3  UNL     1     -19.986 -23.036 -13.981  1.00  0.00    -0.350 OA
ATOM     16  H3  UNL     1     -19.883 -22.609 -14.823  1.00  0.00     0.219 HD
ENDBRANCH  14  15
BRANCH  14  17
HETATM   17  N4  UNL     1     -18.270 -23.372 -12.445  1.00  0.00    -0.370 N 
ATOM     18  H4  UNL     1     -18.493 -22.414 -12.175  1.00  0.00     0.161 HD
BRANCH  17  19
HETATM   19  C12 UNL     1     -17.420 -23.980 -11.492  1.00  0.00     0.161 C 
BRANCH  19  20
HETATM   20  C13 UNL     1     -16.036 -23.435 -11.717  1.00  0.00    -0.023 A 
HETATM   21  C14 UNL     1     -15.319 -23.467 -12.851  1.00  0.00     0.012 A 
HETATM   22  C15 UNL     1     -14.035 -22.858 -12.865  1.00  0.00     0.024 A 
HETATM   23  C16 UNL     1     -13.521 -22.249 -11.756  1.00  0.00     0.035 A 
HETATM   24 CL1  UNL     1     -11.893 -21.595 -11.788  1.00  0.00    -0.084 Cl
HETATM   25  C17 UNL     1     -14.267 -22.210 -10.569  1.00  0.00     0.043 A 
HETATM   26  C18 UNL     1     -15.486 -22.791 -10.578  1.00  0.00     0.020 A 
HETATM   27 BR1  UNL     1     -16.546 -22.779  -8.951  1.00  0.00    -0.050 Br
ENDBRANCH  19  20
ENDBRANCH  17  19
ENDBRANCH  14  17
ENDBRANCH  13  14
ENDBRANCH  12  13
ENDBRANCH  11  12
ENDBRANCH  10  11
ENDBRANCH   6  10
BRANCH   3  28
HETATM   28  C4  UNL     1     -14.229 -31.433 -11.635  1.00  0.00     0.196 C 
BRANCH  28  29
HETATM   29  O1  UNL     1     -13.656 -31.283 -10.369  1.00  0.00    -0.398 OA
ATOM     30  H1  UNL     1     -14.216 -30.814  -9.760  1.00  0.00     0.209 HD
ENDBRANCH  28  29
ENDBRANCH   3  28
BRANCH   1  31
HETATM   31  N3  UNL     1     -11.987 -31.108 -15.707  1.00  0.00    -0.247 N 
ATOM     32  H3  UNL     1     -11.194 -30.487 -15.546  1.00  0.00     0.197 HD
BRANCH  31  33
HETATM   33  N2  UNL     1     -12.006 -31.982 -16.604  1.00  0.00    -0.248 NA
BRANCH  33  34
HETATM   34  N1  UNL     1     -12.083 -32.992 -17.298  1.00  0.00    -0.261 N 
ATOM     35  H12 UNL     1     -12.978 -32.675 -17.670  1.00  0.00     0.193 HD
ATOM     36  H11 UNL     1     -11.965 -33.879 -17.788  1.00  0.00     0.193 HD
ENDBRANCH  33  34
ENDBRANCH  31  33
ENDBRANCH   1  31
TORSDOF 14
ENDMDL
MODEL 5
REMARK VINA RESULT: -6.644327043      5.509      7.348
REMARK  14 active torsions:
REMARK  status: ('A' for Active; 'I' for Inactive)
REMARK    1  A    between atoms: N1_1  and  N2_4 
REMARK    2  A    between atoms: N2_4  and  N3_5 
REMARK    3  A    between atoms: N3_5  and  C1_7 
REMARK    4  A    between atoms: C3_9  and  C4_10 
REMARK    5  A    between atoms: C4_10  and  O1_11 
REMARK    6  A    between atoms: C6_15  and  C7_16 
REMARK    7  A    between atoms: C7_16  and  C8_17 
REMARK    8  A    between atoms: C8_17  and  C9_18 
REMARK    9  A    between atoms: C9_18  and  C10_19 
REMARK   10  A    between atoms: C10_19  and  C11_20 
REMARK   11  A    between atoms: C11_20  and  O3_21 
REMARK   12  A    between atoms: C11_20  and  N4_23 
REMARK   13  A    between atoms: N4_23  and  C12_25 
REMARK   14  A    between atoms: C12_25  and  C13_26 
ROOT
HETATM    1  C1  UNL     1     -17.781 -23.120 -13.784  1.00  0.00     0.123 C 
HETATM    2  C2  UNL     1     -18.918 -23.066 -12.778  1.00  0.00     0.062 C 
HETATM    3  C3  UNL     1     -18.494 -22.618 -11.404  1.00  0.00     0.147 C 
HETATM    4  O2  UNL     1     -17.132 -22.881 -11.167  1.00  0.00    -0.378 OA
HETATM    5  C5  UNL     1     -16.749 -24.066 -11.732  1.00  0.00     0.132 C 
HETATM    6  C6  UNL     1     -15.427 -24.598 -11.370  1.00  0.00     0.015 C 
HETATM    7  C19 UNL     1     -14.488 -23.548 -12.072  1.00  0.00     0.007 C 
HETATM    8  C20 UNL     1     -15.311 -23.054 -13.247  1.00  0.00     0.010 C 
HETATM    9  C21 UNL     1     -16.598 -23.832 -13.250  1.00  0.00     0.040 C 
ENDROOT
BRANCH   6  10
HETATM   10  C7  UNL     1     -15.083 -24.480  -9.870  1.00  0.00     0.007 C 
BRANCH  10  11
HETATM   11  C8  UNL     1     -15.545 -25.803  -9.297  1.00  0.00     0.001 C 
BRANCH  11  12
HETATM   12  C9  UNL     1     -15.021 -27.001 -10.044  1.00  0.00     0.008 C 
BRANCH  12  13
HETATM   13  C10 UNL     1     -14.452 -28.104  -9.270  1.00  0.00     0.083 C 
BRANCH  13  14
HETATM   14  C11 UNL     1     -13.967 -29.304  -9.929  1.00  0.00     0.111 C 
BRANCH  14  15
HETATM   15  O3  UNL     1     -13.140 -29.997  -9.139  1.00  0.00    -0.350 OA
ATOM     16  H3  UNL     1     -13.605 -30.664  -8.649  1.00  0.00     0.219 HD
ENDBRANCH  14  15
BRANCH  14  17
HETATM   17  N4  UNL     1     -14.232 -29.797 -11.185  1.00  0.00    -0.370 N 
ATOM     18  H4  UNL     1     -15.200 -30.111 -11.255  1.00  0.00     0.161 HD
BRANCH  17  19
HETATM   19  C12 UNL     1     -13.547 -29.993 -12.406  1.00  0.00     0.161 C 
BRANCH  19  20
HETATM   20  C13 UNL     1     -14.417 -29.436 -13.499  1.00  0.00    -0.023 A 
HETATM   21  C14 UNL     1     -15.051 -28.254 -13.517  1.00  0.00     0.012 A 
HETATM   22  C15 UNL     1     -15.800 -27.897 -14.671  1.00  0.00     0.024 A 
HETATM   23  C16 UNL     1     -15.888 -28.728 -15.751  1.00  0.00     0.035 A 
HETATM   24 CL1  UNL     1     -16.902 -28.291 -17.115  1.00  0.00    -0.084 Cl
HETATM   25  C17 UNL     1     -15.225 -29.963 -15.740  1.00  0.00     0.043 A 
HETATM   26  C18 UNL     1     -14.516 -30.282 -14.635  1.00  0.00     0.020 A 
HETATM   27 BR1  UNL     1     -13.598 -31.992 -14.567  1.00  0.00    -0.050 Br
ENDBRANCH  19  20
ENDBRANCH  17  19
ENDBRANCH  14  17
ENDBRANCH  13  14
ENDBRANCH  12  13
ENDBRANCH  11  12
ENDBRANCH  10  11
ENDBRANCH   6  10
BRANCH   3  28
HETATM   28  C4  UNL     1     -18.940 -21.231 -11.160  1.00  0.00     0.196 C 
BRANCH  28  29
HETATM   29  O1  UNL     1     -18.220 -20.594 -10.144  1.00  0.00    -0.398 OA
ATOM     30  H1  UNL     1     -17.885 -21.198  -9.491  1.00  0.00     0.209 HD
ENDBRANCH  28  29
ENDBRANCH   3  28
BRANCH   1  31
HETATM   31  N3  UNL     1     -18.315 -23.909 -14.922  1.00  0.00    -0.247 N 
ATOM     32  H3  UNL     1     -17.748 -24.553 -15.473  1.00  0.00     0.197 HD
BRANCH  31  33
HETATM   33  N2  UNL     1     -19.532 -23.706 -15.137  1.00  0.00    -0.248 NA
BRANCH  33  34
HETATM   34  N1  UNL     1     -20.699 -23.684 -15.519  1.00  0.00    -0.261 N 
ATOM     35  H12 UNL     1     -20.435 -24.185 -16.368  1.00  0.00     0.193 HD
ATOM     36  H11 UNL     1     -21.702 -23.566 -15.659  1.00  0.00     0.193 HD
ENDBRANCH  33  34
ENDBRANCH  31  33
ENDBRANCH   1  31
TORSDOF 14
ENDMDL
