MODEL 1
REMARK VINA RESULT: -6.893736659      0.000      0.000
REMARK  9 active torsions:
REMARK  status: ('A' for Active; 'I' for Inactive)
REMARK    1  A    between atoms: C2_2  and  C3_3 
REMARK    2  A    between atoms: C5_5  and  C6_6 
REMARK    3  A    between atoms: C6_6  and  N1_7 
REMARK    4  A    between atoms: N1_7  and  C7_8 
REMARK    5  A    between atoms: N1_7  and  C9_10 
REMARK    6  A    between atoms: C9_10  and  C10_11 
REMARK    7  A    between atoms: C10_11  and  C11_12 
REMARK    8  A    between atoms: C11_12  and  N2_13 
REMARK    9  A    between atoms: N2_13  and  C12_16 
ROOT
HETATM    1  N1  UNL     1     -16.895 -21.377  -8.607  1.00  0.00    -0.389 N 
ENDROOT
BRANCH   1   2
HETATM    2  C6  UNL     1     -15.478 -21.443  -8.681  1.00  0.00     0.163 C 
BRANCH   2   3
HETATM    3  C5  UNL     1     -14.916 -22.283  -9.742  1.00  0.00    -0.003 A 
HETATM    4  C4  UNL     1     -14.296 -21.766 -10.838  1.00  0.00     0.022 A 
HETATM    5  C3  UNL     1     -13.904 -22.557 -11.901  1.00  0.00    -0.017 A 
HETATM    6  C25 UNL     1     -14.162 -23.919 -11.821  1.00  0.00     0.152 A 
HETATM    7  C24 UNL     1     -14.784 -24.450 -10.720  1.00  0.00     0.111 A 
HETATM    8  F1  UNL     1     -13.816 -24.715 -12.847  1.00  0.00    -0.203 F 
HETATM    9  C22 UNL     1     -15.170 -23.659  -9.671  1.00  0.00     0.118 A 
HETATM   10  N3  UNL     1     -15.141 -25.726 -10.382  1.00  0.00    -0.297 N 
HETATM   11  O1  UNL     1     -15.728 -24.405  -8.743  1.00  0.00    -0.258 OA
HETATM   12  C23 UNL     1     -15.707 -25.642  -9.176  1.00  0.00     0.370 A 
HETATM   13  O2  UNL     1     -16.174 -26.624  -8.519  1.00  0.00    -0.238 OA
ATOM     14  H3  UNL     1     -15.002 -26.570 -10.938  1.00  0.00     0.171 HD
BRANCH   5  15
HETATM   15  C2  UNL     1     -13.251 -22.083 -13.156  1.00  0.00     0.037 C 
HETATM   16  C1  UNL     1     -11.778 -21.753 -12.840  1.00  0.00     0.010 C 
ENDBRANCH   5  15
ENDBRANCH   2   3
ENDBRANCH   1   2
BRANCH   1  17
HETATM   17  C7  UNL     1     -17.289 -21.486  -7.212  1.00  0.00     0.118 C 
HETATM   18  C8  UNL     1     -16.991 -20.285  -6.393  1.00  0.00     0.026 C 
ENDBRANCH   1  17
BRANCH   1  19
HETATM   19  C9  UNL     1     -17.681 -20.660  -9.465  1.00  0.00     0.060 C 
BRANCH  19  20
HETATM   20  C10 UNL     1     -19.187 -20.751  -9.381  1.00  0.00     0.072 C 
BRANCH  20  21
HETATM   21  C11 UNL     1     -19.746 -21.092 -10.758  1.00  0.00     0.238 C 
BRANCH  21  22
HETATM   22  N2  UNL     1     -19.925 -22.491 -10.907  1.00  0.00    -0.066 N 
ATOM     23  H22 UNL     1     -19.592 -22.986 -10.080  1.00  0.00     0.278 HD
ATOM     24  H21 UNL     1     -20.916 -22.733 -10.864  1.00  0.00     0.278 HD
BRANCH  22  25
HETATM   25  C12 UNL     1     -19.321 -23.035 -12.102  1.00  0.00     0.128 C 
HETATM   26  C13 UNL     1     -17.952 -23.579 -11.929  1.00  0.00     0.043 C 
HETATM   27  C14 UNL     1     -17.483 -24.080 -13.287  1.00  0.00    -0.010 C 
HETATM   28  C15 UNL     1     -17.362 -22.957 -14.279  1.00  0.00     0.009 C 
HETATM   29  C19 UNL     1     -18.397 -25.115 -13.880  1.00  0.00     0.026 C 
HETATM   30  C16 UNL     1     -18.715 -22.308 -14.419  1.00  0.00    -0.010 C 
HETATM   31  C17 UNL     1     -19.702 -23.286 -14.999  1.00  0.00     0.026 C 
HETATM   32  C21 UNL     1     -19.173 -21.849 -13.054  1.00  0.00     0.043 C 
HETATM   33  C18 UNL     1     -19.748 -24.478 -14.104  1.00  0.00     0.021 C 
HETATM   34 BR1  UNL     1     -21.026 -25.797 -14.747  1.00  0.00    -0.085 Br
HETATM   35  C20 UNL     1     -20.237 -24.030 -12.727  1.00  0.00     0.060 C 
ENDBRANCH  22  25
ENDBRANCH  21  22
ENDBRANCH  20  21
ENDBRANCH  19  20
ENDBRANCH   1  19
TORSDOF 9
ENDMDL
MODEL 2
REMARK VINA RESULT: -6.674736390      3.715      5.645
REMARK  9 active torsions:
REMARK  status: ('A' for Active; 'I' for Inactive)
REMARK    1  A    between atoms: C2_2  and  C3_3 
REMARK    2  A    between atoms: C5_5  and  C6_6 
REMARK    3  A    between atoms: C6_6  and  N1_7 
REMARK    4  A    between atoms: N1_7  and  C7_8 
REMARK    5  A    between atoms: N1_7  and  C9_10 
REMARK    6  A    between atoms: C9_10  and  C10_11 
REMARK    7  A    between atoms: C10_11  and  C11_12 
REMARK    8  A    between atoms: C11_12  and  N2_13 
REMARK    9  A    between atoms: N2_13  and  C12_16 
ROOT
HETATM    1  N1  UNL     1     -17.437 -24.113 -12.884  1.00  0.00    -0.389 N 
ENDROOT
BRANCH   1   2
HETATM    2  C6  UNL     1     -16.091 -24.547 -12.753  1.00  0.00     0.163 C 
BRANCH   2   3
HETATM    3  C5  UNL     1     -15.108 -23.530 -12.371  1.00  0.00    -0.003 A 
HETATM    4  C4  UNL     1     -13.997 -23.267 -13.113  1.00  0.00     0.022 A 
HETATM    5  C3  UNL     1     -13.005 -22.415 -12.669  1.00  0.00    -0.017 A 
HETATM    6  C25 UNL     1     -13.172 -21.822 -11.424  1.00  0.00     0.152 A 
HETATM    7  C24 UNL     1     -14.288 -22.079 -10.671  1.00  0.00     0.111 A 
HETATM    8  F1  UNL     1     -12.214 -21.006 -10.951  1.00  0.00    -0.203 F 
HETATM    9  C22 UNL     1     -15.268 -22.925 -11.118  1.00  0.00     0.118 A 
HETATM   10  N3  UNL     1     -14.703 -21.633  -9.447  1.00  0.00    -0.297 N 
HETATM   11  O1  UNL     1     -16.228 -22.993 -10.223  1.00  0.00    -0.258 OA
HETATM   12  C23 UNL     1     -15.884 -22.216  -9.225  1.00  0.00     0.370 A 
HETATM   13  O2  UNL     1     -16.594 -22.053  -8.184  1.00  0.00    -0.238 OA
ATOM     14  H3  UNL     1     -14.212 -20.987  -8.830  1.00  0.00     0.171 HD
BRANCH   5  15
HETATM   15  C2  UNL     1     -11.739 -22.089 -13.389  1.00  0.00     0.037 C 
HETATM   16  C1  UNL     1     -11.859 -20.659 -13.954  1.00  0.00     0.010 C 
ENDBRANCH   5  15
ENDBRANCH   2   3
ENDBRANCH   1   2
BRANCH   1  17
HETATM   17  C7  UNL     1     -17.575 -23.421 -14.156  1.00  0.00     0.118 C 
HETATM   18  C8  UNL     1     -18.563 -24.029 -15.082  1.00  0.00     0.026 C 
ENDBRANCH   1  17
BRANCH   1  19
HETATM   19  C9  UNL     1     -18.516 -24.771 -12.366  1.00  0.00     0.060 C 
BRANCH  19  20
HETATM   20  C10 UNL     1     -18.342 -26.107 -11.682  1.00  0.00     0.072 C 
BRANCH  20  21
HETATM   21  C11 UNL     1     -18.584 -27.223 -12.691  1.00  0.00     0.238 C 
BRANCH  21  22
HETATM   22  N2  UNL     1     -17.718 -28.322 -12.460  1.00  0.00    -0.066 N 
ATOM     23  H22 UNL     1     -17.137 -28.154 -11.639  1.00  0.00     0.278 HD
ATOM     24  H21 UNL     1     -18.246 -29.132 -12.133  1.00  0.00     0.278 HD
BRANCH  22  25
HETATM   25  C12 UNL     1     -16.900 -28.674 -13.598  1.00  0.00     0.128 C 
HETATM   26  C13 UNL     1     -16.791 -27.632 -14.647  1.00  0.00     0.043 C 
HETATM   27  C14 UNL     1     -15.917 -28.191 -15.760  1.00  0.00    -0.010 C 
HETATM   28  C15 UNL     1     -16.557 -29.380 -16.421  1.00  0.00     0.009 C 
HETATM   29  C19 UNL     1     -14.556 -28.613 -15.284  1.00  0.00     0.026 C 
HETATM   30  C16 UNL     1     -16.776 -30.438 -15.370  1.00  0.00    -0.010 C 
HETATM   31  C17 UNL     1     -15.454 -30.911 -14.825  1.00  0.00     0.026 C 
HETATM   32  C21 UNL     1     -17.618 -29.849 -14.262  1.00  0.00     0.043 C 
HETATM   33  C18 UNL     1     -14.732 -29.726 -14.279  1.00  0.00     0.021 C 
HETATM   34 BR1  UNL     1     -13.015 -30.234 -13.516  1.00  0.00    -0.085 Br
HETATM   35  C20 UNL     1     -15.561 -29.138 -13.138  1.00  0.00     0.060 C 
ENDBRANCH  22  25
ENDBRANCH  21  22
ENDBRANCH  20  21
ENDBRANCH  19  20
ENDBRANCH   1  19
TORSDOF 9
ENDMDL
MODEL 3
REMARK VINA RESULT: -6.657345726      4.260      6.197
REMARK  9 active torsions:
REMARK  status: ('A' for Active; 'I' for Inactive)
REMARK    1  A    between atoms: C2_2  and  C3_3 
REMARK    2  A    between atoms: C5_5  and  C6_6 
REMARK    3  A    between atoms: C6_6  and  N1_7 
REMARK    4  A    between atoms: N1_7  and  C7_8 
REMARK    5  A    between atoms: N1_7  and  C9_10 
REMARK    6  A    between atoms: C9_10  and  C10_11 
REMARK    7  A    between atoms: C10_11  and  C11_12 
REMARK    8  A    between atoms: C11_12  and  N2_13 
REMARK    9  A    between atoms: N2_13  and  C12_16 
ROOT
HETATM    1  N1  UNL     1     -17.123 -24.446 -13.113  1.00  0.00    -0.389 N 
ENDROOT
BRANCH   1   2
HETATM    2  C6  UNL     1     -15.841 -24.795 -12.611  1.00  0.00     0.163 C 
BRANCH   2   3
HETATM    3  C5  UNL     1     -14.940 -23.685 -12.288  1.00  0.00    -0.003 A 
HETATM    4  C4  UNL     1     -13.842 -23.388 -13.036  1.00  0.00     0.022 A 
HETATM    5  C3  UNL     1     -12.920 -22.439 -12.640  1.00  0.00    -0.017 A 
HETATM    6  C25 UNL     1     -13.146 -21.781 -11.438  1.00  0.00     0.152 A 
HETATM    7  C24 UNL     1     -14.250 -22.071 -10.679  1.00  0.00     0.111 A 
HETATM    8  F1  UNL     1     -12.257 -20.868 -11.011  1.00  0.00    -0.203 F 
HETATM    9  C22 UNL     1     -15.160 -23.014 -11.078  1.00  0.00     0.118 A 
HETATM   10  N3  UNL     1     -14.713 -21.579  -9.490  1.00  0.00    -0.297 N 
HETATM   11  O1  UNL     1     -16.124 -23.095 -10.188  1.00  0.00    -0.258 OA
HETATM   12  C23 UNL     1     -15.851 -22.232  -9.240  1.00  0.00     0.370 A 
HETATM   13  O2  UNL     1     -16.584 -22.056  -8.217  1.00  0.00    -0.238 OA
ATOM     14  H3  UNL     1     -14.278 -20.860  -8.912  1.00  0.00     0.171 HD
BRANCH   5  15
HETATM   15  C2  UNL     1     -11.672 -22.067 -13.369  1.00  0.00     0.037 C 
HETATM   16  C1  UNL     1     -11.884 -20.683 -14.016  1.00  0.00     0.010 C 
ENDBRANCH   5  15
ENDBRANCH   2   3
ENDBRANCH   1   2
BRANCH   1  17
HETATM   17  C7  UNL     1     -16.983 -23.271 -13.957  1.00  0.00     0.118 C 
HETATM   18  C8  UNL     1     -18.227 -22.478 -14.119  1.00  0.00     0.026 C 
ENDBRANCH   1  17
BRANCH   1  19
HETATM   19  C9  UNL     1     -18.117 -25.343 -13.383  1.00  0.00     0.060 C 
BRANCH  19  20
HETATM   20  C10 UNL     1     -18.112 -26.126 -14.675  1.00  0.00     0.072 C 
BRANCH  20  21
HETATM   21  C11 UNL     1     -17.568 -27.526 -14.412  1.00  0.00     0.238 C 
BRANCH  21  22
HETATM   22  N2  UNL     1     -16.725 -27.956 -15.468  1.00  0.00    -0.066 N 
ATOM     23  H22 UNL     1     -17.280 -28.259 -16.268  1.00  0.00     0.278 HD
ATOM     24  H21 UNL     1     -16.239 -27.163 -15.885  1.00  0.00     0.278 HD
BRANCH  22  25
HETATM   25  C12 UNL     1     -15.783 -28.984 -15.085  1.00  0.00     0.128 C 
HETATM   26  C13 UNL     1     -14.364 -28.557 -15.033  1.00  0.00     0.043 C 
HETATM   27  C14 UNL     1     -13.534 -29.769 -14.637  1.00  0.00    -0.010 C 
HETATM   28  C15 UNL     1     -13.604 -30.850 -15.678  1.00  0.00     0.009 C 
HETATM   29  C19 UNL     1     -13.959 -30.369 -13.326  1.00  0.00     0.026 C 
HETATM   30  C16 UNL     1     -15.048 -31.256 -15.836  1.00  0.00    -0.010 C 
HETATM   31  C17 UNL     1     -15.560 -31.860 -14.555  1.00  0.00     0.026 C 
HETATM   32  C21 UNL     1     -15.855 -30.030 -16.197  1.00  0.00     0.043 C 
HETATM   33  C18 UNL     1     -15.382 -30.854 -13.469  1.00  0.00     0.021 C 
HETATM   34 BR1  UNL     1     -16.047 -31.525 -11.767  1.00  0.00    -0.085 Br
HETATM   35  C20 UNL     1     -16.217 -29.620 -13.809  1.00  0.00     0.060 C 
ENDBRANCH  22  25
ENDBRANCH  21  22
ENDBRANCH  20  21
ENDBRANCH  19  20
ENDBRANCH   1  19
TORSDOF 9
ENDMDL
MODEL 4
REMARK VINA RESULT: -6.650719334      3.566      5.315
REMARK  9 active torsions:
REMARK  status: ('A' for Active; 'I' for Inactive)
REMARK    1  A    between atoms: C2_2  and  C3_3 
REMARK    2  A    between atoms: C5_5  and  C6_6 
REMARK    3  A    between atoms: C6_6  and  N1_7 
REMARK    4  A    between atoms: N1_7  and  C7_8 
REMARK    5  A    between atoms: N1_7  and  C9_10 
REMARK    6  A    between atoms: C9_10  and  C10_11 
REMARK    7  A    between atoms: C10_11  and  C11_12 
REMARK    8  A    between atoms: C11_12  and  N2_13 
REMARK    9  A    between atoms: N2_13  and  C12_16 
ROOT
HETATM    1  N1  UNL     1     -15.308 -26.292  -9.254  1.00  0.00    -0.389 N 
ENDROOT
BRANCH   1   2
HETATM    2  C6  UNL     1     -15.474 -24.887  -9.384  1.00  0.00     0.163 C 
BRANCH   2   3
HETATM    3  C5  UNL     1     -15.408 -24.342 -10.743  1.00  0.00    -0.003 A 
HETATM    4  C4  UNL     1     -14.338 -23.635 -11.199  1.00  0.00     0.022 A 
HETATM    5  C3  UNL     1     -14.348 -23.000 -12.426  1.00  0.00    -0.017 A 
HETATM    6  C25 UNL     1     -15.498 -23.104 -13.197  1.00  0.00     0.152 A 
HETATM    7  C24 UNL     1     -16.581 -23.816 -12.747  1.00  0.00     0.111 A 
HETATM    8  F1  UNL     1     -15.552 -22.479 -14.386  1.00  0.00    -0.203 F 
HETATM    9  C22 UNL     1     -16.563 -24.442 -11.529  1.00  0.00     0.118 A 
HETATM   10  N3  UNL     1     -17.805 -24.085 -13.292  1.00  0.00    -0.297 N 
HETATM   11  O1  UNL     1     -17.707 -25.061 -11.339  1.00  0.00    -0.258 OA
HETATM   12  C23 UNL     1     -18.447 -24.843 -12.399  1.00  0.00     0.370 A 
HETATM   13  O2  UNL     1     -19.624 -25.299 -12.541  1.00  0.00    -0.238 OA
ATOM     14  H3  UNL     1     -18.157 -23.770 -14.197  1.00  0.00     0.171 HD
BRANCH   5  15
HETATM   15  C2  UNL     1     -13.244 -22.176 -12.998  1.00  0.00     0.037 C 
HETATM   16  C1  UNL     1     -12.502 -21.486 -11.836  1.00  0.00     0.010 C 
ENDBRANCH   5  15
ENDBRANCH   2   3
ENDBRANCH   1   2
BRANCH   1  17
HETATM   17  C7  UNL     1     -16.177 -26.761  -8.187  1.00  0.00     0.118 C 
HETATM   18  C8  UNL     1     -16.376 -25.790  -7.083  1.00  0.00     0.026 C 
ENDBRANCH   1  17
BRANCH   1  19
HETATM   19  C9  UNL     1     -15.013 -27.134 -10.289  1.00  0.00     0.060 C 
BRANCH  19  20
HETATM   20  C10 UNL     1     -15.700 -28.474 -10.405  1.00  0.00     0.072 C 
BRANCH  20  21
HETATM   21  C11 UNL     1     -16.717 -28.421 -11.540  1.00  0.00     0.238 C 
BRANCH  21  22
HETATM   22  N2  UNL     1     -16.206 -27.707 -12.654  1.00  0.00    -0.066 N 
ATOM     23  H22 UNL     1     -16.605 -26.769 -12.692  1.00  0.00     0.278 HD
ATOM     24  H21 UNL     1     -15.225 -27.470 -12.510  1.00  0.00     0.278 HD
BRANCH  22  25
HETATM   25  C12 UNL     1     -16.385 -28.386 -13.917  1.00  0.00     0.128 C 
HETATM   26  C13 UNL     1     -15.236 -28.301 -14.851  1.00  0.00     0.043 C 
HETATM   27  C14 UNL     1     -15.619 -29.050 -16.119  1.00  0.00    -0.010 C 
HETATM   28  C15 UNL     1     -16.774 -28.393 -16.821  1.00  0.00     0.009 C 
HETATM   29  C19 UNL     1     -15.995 -30.483 -15.865  1.00  0.00     0.026 C 
HETATM   30  C16 UNL     1     -17.947 -28.370 -15.873  1.00  0.00    -0.010 C 
HETATM   31  C17 UNL     1     -18.383 -29.776 -15.554  1.00  0.00     0.026 C 
HETATM   32  C21 UNL     1     -17.531 -27.651 -14.611  1.00  0.00     0.043 C 
HETATM   33  C18 UNL     1     -17.214 -30.499 -14.974  1.00  0.00     0.021 C 
HETATM   34 BR1  UNL     1     -17.682 -32.326 -14.492  1.00  0.00    -0.085 Br
HETATM   35  C20 UNL     1     -16.803 -29.796 -13.681  1.00  0.00     0.060 C 
ENDBRANCH  22  25
ENDBRANCH  21  22
ENDBRANCH  20  21
ENDBRANCH  19  20
ENDBRANCH   1  19
TORSDOF 9
ENDMDL
MODEL 5
REMARK VINA RESULT: -6.631055966      5.522      7.931
REMARK  9 active torsions:
REMARK  status: ('A' for Active; 'I' for Inactive)
REMARK    1  A    between atoms: C2_2  and  C3_3 
REMARK    2  A    between atoms: C5_5  and  C6_6 
REMARK    3  A    between atoms: C6_6  and  N1_7 
REMARK    4  A    between atoms: N1_7  and  C7_8 
REMARK    5  A    between atoms: N1_7  and  C9_10 
REMARK    6  A    between atoms: C9_10  and  C10_11 
REMARK    7  A    between atoms: C10_11  and  C11_12 
REMARK    8  A    between atoms: C11_12  and  N2_13 
REMARK    9  A    between atoms: N2_13  and  C12_16 
ROOT
HETATM    1  N1  UNL     1     -18.216 -27.771 -12.923  1.00  0.00    -0.389 N 
ENDROOT
BRANCH   1   2
HETATM    2  C6  UNL     1     -18.735 -26.508 -12.534  1.00  0.00     0.163 C 
BRANCH   2   3
HETATM    3  C5  UNL     1     -18.174 -25.333 -13.206  1.00  0.00    -0.003 A 
HETATM    4  C4  UNL     1     -16.923 -24.864 -12.944  1.00  0.00     0.022 A 
HETATM    5  C3  UNL     1     -16.461 -23.674 -13.471  1.00  0.00    -0.017 A 
HETATM    6  C25 UNL     1     -17.320 -22.955 -14.291  1.00  0.00     0.152 A 
HETATM    7  C24 UNL     1     -18.581 -23.420 -14.563  1.00  0.00     0.111 A 
HETATM    8  F1  UNL     1     -16.911 -21.780 -14.802  1.00  0.00    -0.203 F 
HETATM    9  C22 UNL     1     -19.032 -24.601 -14.036  1.00  0.00     0.118 A 
HETATM   10  N3  UNL     1     -19.604 -22.932 -15.329  1.00  0.00    -0.297 N 
HETATM   11  O1  UNL     1     -20.257 -24.826 -14.455  1.00  0.00    -0.258 OA
HETATM   12  C23 UNL     1     -20.594 -23.823 -15.229  1.00  0.00     0.370 A 
HETATM   13  O2  UNL     1     -21.724 -23.724 -15.801  1.00  0.00    -0.238 OA
ATOM     14  H3  UNL     1     -19.609 -22.065 -15.866  1.00  0.00     0.171 HD
BRANCH   5  15
HETATM   15  C2  UNL     1     -15.125 -23.060 -13.217  1.00  0.00     0.037 C 
HETATM   16  C1  UNL     1     -14.322 -24.009 -12.305  1.00  0.00     0.010 C 
ENDBRANCH   5  15
ENDBRANCH   2   3
ENDBRANCH   1   2
BRANCH   1  17
HETATM   17  C7  UNL     1     -17.671 -28.428 -11.746  1.00  0.00     0.118 C 
HETATM   18  C8  UNL     1     -16.225 -28.184 -11.519  1.00  0.00     0.026 C 
ENDBRANCH   1  17
BRANCH   1  19
HETATM   19  C9  UNL     1     -18.723 -28.536 -13.935  1.00  0.00     0.060 C 
BRANCH  19  20
HETATM   20  C10 UNL     1     -18.290 -28.302 -15.363  1.00  0.00     0.072 C 
BRANCH  20  21
HETATM   21  C11 UNL     1     -16.767 -28.299 -15.432  1.00  0.00     0.238 C 
BRANCH  21  22
HETATM   22  N2  UNL     1     -16.280 -29.452 -16.099  1.00  0.00    -0.066 N 
ATOM     23  H22 UNL     1     -17.050 -30.066 -16.363  1.00  0.00     0.278 HD
ATOM     24  H21 UNL     1     -15.930 -29.208 -17.026  1.00  0.00     0.278 HD
BRANCH  22  25
HETATM   25  C12 UNL     1     -15.279 -30.182 -15.355  1.00  0.00     0.128 C 
HETATM   26  C13 UNL     1     -15.739 -30.751 -14.064  1.00  0.00     0.043 C 
HETATM   27  C14 UNL     1     -14.552 -31.456 -13.425  1.00  0.00    -0.010 C 
HETATM   28  C15 UNL     1     -13.453 -30.489 -13.084  1.00  0.00     0.009 C 
HETATM   29  C19 UNL     1     -13.962 -32.526 -14.300  1.00  0.00     0.026 C 
HETATM   30  C16 UNL     1     -13.013 -29.812 -14.358  1.00  0.00    -0.010 C 
HETATM   31  C17 UNL     1     -12.418 -30.821 -15.303  1.00  0.00     0.026 C 
HETATM   32  C21 UNL     1     -14.215 -29.148 -14.989  1.00  0.00     0.043 C 
HETATM   33  C18 UNL     1     -13.444 -31.873 -15.559  1.00  0.00     0.021 C 
HETATM   34 BR1  UNL     1     -12.785 -33.217 -16.803  1.00  0.00    -0.085 Br
HETATM   35  C20 UNL     1     -14.653 -31.217 -16.224  1.00  0.00     0.060 C 
ENDBRANCH  22  25
ENDBRANCH  21  22
ENDBRANCH  20  21
ENDBRANCH  19  20
ENDBRANCH   1  19
TORSDOF 9
ENDMDL
