MODEL 1
REMARK VINA RESULT: -7.650325324      0.000      0.000
REMARK  9 active torsions:
REMARK  status: ('A' for Active; 'I' for Inactive)
REMARK    1  A    between atoms: S1_2  and  N1_4 
REMARK    2  A    between atoms: S1_2  and  C20_28 
REMARK    3  A    between atoms: N1_4  and  C1_6 
REMARK    4  A    between atoms: C1_6  and  C2_7 
REMARK    5  A    between atoms: C2_7  and  C3_8 
REMARK    6  A    between atoms: C3_8  and  C4_9 
REMARK    7  A    between atoms: C4_9  and  N2_10 
REMARK    8  A    between atoms: C7_13  and  N3_14 
REMARK    9  A    between atoms: N3_14  and  C8_16 
ROOT
HETATM    1  N2  UNL     1     -17.871 -23.474 -11.289  1.00  0.00     0.088 N 
HETATM    2  C5  UNL     1     -17.522 -23.339 -12.695  1.00  0.00     0.274 C 
HETATM    3  C6  UNL     1     -17.141 -24.686 -13.308  1.00  0.00     0.055 C 
HETATM    4  C7  UNL     1     -18.278 -25.651 -13.222  1.00  0.00     0.080 C 
HETATM    5  C18 UNL     1     -18.803 -25.592 -11.777  1.00  0.00     0.055 C 
HETATM    6  C19 UNL     1     -17.746 -24.886 -10.942  1.00  0.00     0.274 C 
ENDROOT
BRANCH   1   7
HETATM    7  C4  UNL     1     -17.096 -22.594 -10.440  1.00  0.00     0.272 C 
BRANCH   7   8
HETATM    8  C3  UNL     1     -16.137 -23.479  -9.681  1.00  0.00     0.032 C 
BRANCH   8   9
HETATM    9  C2  UNL     1     -14.698 -23.194  -9.860  1.00  0.00     0.022 C 
BRANCH   9  10
HETATM   10  C1  UNL     1     -14.355 -21.841 -10.375  1.00  0.00     0.132 C 
BRANCH  10  11
HETATM   11  N1  UNL     1     -13.001 -21.859 -10.954  1.00  0.00    -0.315 N 
ATOM     12  H1  UNL     1     -12.141 -21.710 -10.426  1.00  0.00     0.172 HD
BRANCH  11  13
HETATM   13  S1  UNL     1     -13.072 -22.166 -12.633  1.00  0.00     0.258 S 
HETATM   14  O1  UNL     1     -12.806 -23.630 -12.939  1.00  0.00    -0.201 OA
HETATM   15  O2  UNL     1     -14.411 -21.855 -13.156  1.00  0.00    -0.201 OA
BRANCH  13  16
HETATM   16  C20 UNL     1     -11.846 -21.227 -13.468  1.00  0.00     0.079 A 
HETATM   17  C21 UNL     1     -11.970 -19.883 -13.623  1.00  0.00     0.027 A 
HETATM   18  C22 UNL     1     -11.051 -19.107 -14.307  1.00  0.00     0.025 A 
HETATM   19  C23 UNL     1      -9.932 -19.700 -14.877  1.00  0.00     0.034 A 
HETATM   20 CL1  UNL     1      -8.748 -18.767 -15.762  1.00  0.00    -0.084 Cl
HETATM   21  C24 UNL     1      -9.823 -21.071 -14.706  1.00  0.00     0.025 A 
HETATM   22  C25 UNL     1     -10.732 -21.828 -14.030  1.00  0.00     0.027 A 
ENDBRANCH  13  16
ENDBRANCH  11  13
ENDBRANCH  10  11
ENDBRANCH   9  10
ENDBRANCH   8   9
ENDBRANCH   7   8
ENDBRANCH   1   7
BRANCH   4  23
HETATM   23  N3  UNL     1     -17.958 -26.968 -13.593  1.00  0.00    -0.412 N 
ATOM     24  H3  UNL     1     -18.294 -27.741 -13.020  1.00  0.00     0.154 HD
BRANCH  23  25
HETATM   25  C8  UNL     1     -17.180 -27.248 -14.746  1.00  0.00     0.085 C 
HETATM   26  C9  UNL     1     -17.853 -28.101 -15.754  1.00  0.00     0.009 C 
HETATM   27  C10 UNL     1     -18.481 -29.368 -15.219  1.00  0.00     0.011 C 
HETATM   28  C14 UNL     1     -16.830 -28.581 -16.806  1.00  0.00     0.011 C 
HETATM   29  C11 UNL     1     -17.420 -30.149 -14.499  1.00  0.00    -0.013 C 
HETATM   30  C12 UNL     1     -16.434 -30.671 -15.506  1.00  0.00     0.009 C 
HETATM   31  C17 UNL     1     -16.773 -29.262 -13.470  1.00  0.00     0.011 C 
HETATM   32  C13 UNL     1     -15.805 -29.471 -16.170  1.00  0.00    -0.013 C 
HETATM   33  C15 UNL     1     -15.076 -28.620 -15.140  1.00  0.00     0.011 C 
HETATM   34  C16 UNL     1     -16.036 -28.106 -14.148  1.00  0.00     0.009 C 
ENDBRANCH  23  25
ENDBRANCH   4  23
TORSDOF 9
ENDMDL
MODEL 2
REMARK VINA RESULT: -7.617348097      1.059      1.783
REMARK  9 active torsions:
REMARK  status: ('A' for Active; 'I' for Inactive)
REMARK    1  A    between atoms: S1_2  and  N1_4 
REMARK    2  A    between atoms: S1_2  and  C20_28 
REMARK    3  A    between atoms: N1_4  and  C1_6 
REMARK    4  A    between atoms: C1_6  and  C2_7 
REMARK    5  A    between atoms: C2_7  and  C3_8 
REMARK    6  A    between atoms: C3_8  and  C4_9 
REMARK    7  A    between atoms: C4_9  and  N2_10 
REMARK    8  A    between atoms: C7_13  and  N3_14 
REMARK    9  A    between atoms: N3_14  and  C8_16 
ROOT
HETATM    1  N2  UNL     1     -17.397 -24.174 -11.311  1.00  0.00     0.088 N 
HETATM    2  C5  UNL     1     -16.953 -24.001 -12.686  1.00  0.00     0.274 C 
HETATM    3  C6  UNL     1     -16.039 -25.143 -13.127  1.00  0.00     0.055 C 
HETATM    4  C7  UNL     1     -16.751 -26.454 -13.051  1.00  0.00     0.080 C 
HETATM    5  C18 UNL     1     -17.431 -26.511 -11.671  1.00  0.00     0.055 C 
HETATM    6  C19 UNL     1     -16.811 -25.417 -10.818  1.00  0.00     0.274 C 
ENDROOT
BRANCH   1   7
HETATM    7  C4  UNL     1     -17.102 -23.022 -10.486  1.00  0.00     0.272 C 
BRANCH   7   8
HETATM    8  C3  UNL     1     -16.124 -23.495  -9.437  1.00  0.00     0.032 C 
BRANCH   8   9
HETATM    9  C2  UNL     1     -14.754 -22.947  -9.523  1.00  0.00     0.022 C 
BRANCH   9  10
HETATM   10  C1  UNL     1     -14.555 -21.820 -10.472  1.00  0.00     0.132 C 
BRANCH  10  11
HETATM   11  N1  UNL     1     -13.175 -21.842 -10.985  1.00  0.00    -0.315 N 
ATOM     12  H1  UNL     1     -12.342 -21.667 -10.422  1.00  0.00     0.172 HD
BRANCH  11  13
HETATM   13  S1  UNL     1     -13.162 -22.202 -12.654  1.00  0.00     0.258 S 
HETATM   14  O1  UNL     1     -12.863 -23.672 -12.900  1.00  0.00    -0.201 OA
HETATM   15  O2  UNL     1     -14.478 -21.928 -13.250  1.00  0.00    -0.201 OA
BRANCH  13  16
HETATM   16  C20 UNL     1     -11.910 -21.273 -13.461  1.00  0.00     0.079 A 
HETATM   17  C21 UNL     1     -12.027 -19.930 -13.632  1.00  0.00     0.027 A 
HETATM   18  C22 UNL     1     -11.086 -19.161 -14.294  1.00  0.00     0.025 A 
HETATM   19  C23 UNL     1      -9.952 -19.761 -14.826  1.00  0.00     0.034 A 
HETATM   20 CL1  UNL     1      -8.742 -18.837 -15.683  1.00  0.00    -0.084 Cl
HETATM   21  C24 UNL     1      -9.851 -21.131 -14.640  1.00  0.00     0.025 A 
HETATM   22  C25 UNL     1     -10.781 -21.880 -13.985  1.00  0.00     0.027 A 
ENDBRANCH  13  16
ENDBRANCH  11  13
ENDBRANCH  10  11
ENDBRANCH   9  10
ENDBRANCH   8   9
ENDBRANCH   7   8
ENDBRANCH   1   7
BRANCH   4  23
HETATM   23  N3  UNL     1     -15.934 -27.577 -13.260  1.00  0.00    -0.412 N 
ATOM     24  H3  UNL     1     -14.970 -27.561 -12.926  1.00  0.00     0.154 HD
BRANCH  23  25
HETATM   25  C8  UNL     1     -16.416 -28.735 -13.925  1.00  0.00     0.085 C 
HETATM   26  C9  UNL     1     -15.852 -30.013 -13.429  1.00  0.00     0.009 C 
HETATM   27  C10 UNL     1     -14.344 -30.057 -13.316  1.00  0.00     0.011 C 
HETATM   28  C14 UNL     1     -16.208 -31.159 -14.401  1.00  0.00     0.011 C 
HETATM   29  C11 UNL     1     -13.763 -29.715 -14.657  1.00  0.00    -0.013 C 
HETATM   30  C12 UNL     1     -14.054 -30.838 -15.613  1.00  0.00     0.009 C 
HETATM   31  C17 UNL     1     -14.339 -28.404 -15.120  1.00  0.00     0.011 C 
HETATM   32  C13 UNL     1     -15.554 -30.937 -15.732  1.00  0.00    -0.013 C 
HETATM   33  C15 UNL     1     -16.128 -29.640 -16.283  1.00  0.00     0.011 C 
HETATM   34  C16 UNL     1     -15.845 -28.535 -15.352  1.00  0.00     0.009 C 
ENDBRANCH  23  25
ENDBRANCH   4  23
TORSDOF 9
ENDMDL
MODEL 3
REMARK VINA RESULT: -7.517457974      2.356      3.493
REMARK  9 active torsions:
REMARK  status: ('A' for Active; 'I' for Inactive)
REMARK    1  A    between atoms: S1_2  and  N1_4 
REMARK    2  A    between atoms: S1_2  and  C20_28 
REMARK    3  A    between atoms: N1_4  and  C1_6 
REMARK    4  A    between atoms: C1_6  and  C2_7 
REMARK    5  A    between atoms: C2_7  and  C3_8 
REMARK    6  A    between atoms: C3_8  and  C4_9 
REMARK    7  A    between atoms: C4_9  and  N2_10 
REMARK    8  A    between atoms: C7_13  and  N3_14 
REMARK    9  A    between atoms: N3_14  and  C8_16 
ROOT
HETATM    1  N2  UNL     1     -18.312 -25.167 -13.746  1.00  0.00     0.088 N 
HETATM    2  C5  UNL     1     -19.257 -26.086 -14.362  1.00  0.00     0.274 C 
HETATM    3  C6  UNL     1     -18.600 -27.426 -14.690  1.00  0.00     0.055 C 
HETATM    4  C7  UNL     1     -18.083 -28.083 -13.452  1.00  0.00     0.080 C 
HETATM    5  C18 UNL     1     -17.289 -27.014 -12.681  1.00  0.00     0.055 C 
HETATM    6  C19 UNL     1     -17.033 -25.863 -13.640  1.00  0.00     0.274 C 
ENDROOT
BRANCH   1   7
HETATM    7  C4  UNL     1     -18.231 -23.904 -14.448  1.00  0.00     0.272 C 
BRANCH   7   8
HETATM    8  C3  UNL     1     -17.620 -22.921 -13.479  1.00  0.00     0.032 C 
BRANCH   8   9
HETATM    9  C2  UNL     1     -18.459 -22.523 -12.330  1.00  0.00     0.022 C 
BRANCH   9  10
HETATM   10  C1  UNL     1     -17.788 -22.498 -11.003  1.00  0.00     0.132 C 
BRANCH  10  11
HETATM   11  N1  UNL     1     -16.907 -23.671 -10.871  1.00  0.00    -0.315 N 
ATOM     12  H1  UNL     1     -17.113 -24.597 -11.244  1.00  0.00     0.172 HD
BRANCH  11  13
HETATM   13  S1  UNL     1     -15.493 -23.262 -10.005  1.00  0.00     0.258 S 
HETATM   14  O1  UNL     1     -15.731 -22.076  -9.086  1.00  0.00    -0.201 OA
HETATM   15  O2  UNL     1     -15.068 -24.385  -9.154  1.00  0.00    -0.201 OA
BRANCH  13  16
HETATM   16  C20 UNL     1     -14.214 -22.810 -11.120  1.00  0.00     0.079 A 
HETATM   17  C21 UNL     1     -13.335 -21.819 -10.820  1.00  0.00     0.027 A 
HETATM   18  C22 UNL     1     -12.335 -21.401 -11.680  1.00  0.00     0.025 A 
HETATM   19  C23 UNL     1     -12.196 -22.003 -12.924  1.00  0.00     0.034 A 
HETATM   20 CL1  UNL     1     -10.959 -21.503 -14.053  1.00  0.00    -0.084 Cl
HETATM   21  C24 UNL     1     -13.101 -23.013 -13.210  1.00  0.00     0.025 A 
HETATM   22  C25 UNL     1     -14.081 -23.420 -12.356  1.00  0.00     0.027 A 
ENDBRANCH  13  16
ENDBRANCH  11  13
ENDBRANCH  10  11
ENDBRANCH   9  10
ENDBRANCH   8   9
ENDBRANCH   7   8
ENDBRANCH   1   7
BRANCH   4  23
HETATM   23  N3  UNL     1     -17.303 -29.229 -13.679  1.00  0.00    -0.412 N 
ATOM     24  H3  UNL     1     -17.765 -30.129 -13.804  1.00  0.00     0.154 HD
BRANCH  23  25
HETATM   25  C8  UNL     1     -15.886 -29.164 -13.739  1.00  0.00     0.085 C 
HETATM   26  C9  UNL     1     -15.336 -28.908 -15.092  1.00  0.00     0.009 C 
HETATM   27  C10 UNL     1     -15.872 -29.798 -16.191  1.00  0.00     0.011 C 
HETATM   28  C14 UNL     1     -13.811 -29.153 -15.095  1.00  0.00     0.011 C 
HETATM   29  C11 UNL     1     -15.638 -31.226 -15.794  1.00  0.00    -0.013 C 
HETATM   30  C12 UNL     1     -14.162 -31.507 -15.835  1.00  0.00     0.009 C 
HETATM   31  C17 UNL     1     -16.228 -31.457 -14.429  1.00  0.00     0.011 C 
HETATM   32  C13 UNL     1     -13.513 -30.596 -14.823  1.00  0.00    -0.013 C 
HETATM   33  C15 UNL     1     -14.046 -30.891 -13.429  1.00  0.00     0.011 C 
HETATM   34  C16 UNL     1     -15.493 -30.620 -13.381  1.00  0.00     0.009 C 
ENDBRANCH  23  25
ENDBRANCH   4  23
TORSDOF 9
ENDMDL
MODEL 4
REMARK VINA RESULT: -7.494035070      3.412      6.005
REMARK  9 active torsions:
REMARK  status: ('A' for Active; 'I' for Inactive)
REMARK    1  A    between atoms: S1_2  and  N1_4 
REMARK    2  A    between atoms: S1_2  and  C20_28 
REMARK    3  A    between atoms: N1_4  and  C1_6 
REMARK    4  A    between atoms: C1_6  and  C2_7 
REMARK    5  A    between atoms: C2_7  and  C3_8 
REMARK    6  A    between atoms: C3_8  and  C4_9 
REMARK    7  A    between atoms: C4_9  and  N2_10 
REMARK    8  A    between atoms: C7_13  and  N3_14 
REMARK    9  A    between atoms: N3_14  and  C8_16 
ROOT
HETATM    1  N2  UNL     1     -15.750 -29.602 -12.790  1.00  0.00     0.088 N 
HETATM    2  C5  UNL     1     -17.147 -29.353 -12.467  1.00  0.00     0.274 C 
HETATM    3  C6  UNL     1     -17.465 -27.859 -12.474  1.00  0.00     0.055 C 
HETATM    4  C7  UNL     1     -17.208 -27.266 -13.820  1.00  0.00     0.080 C 
HETATM    5  C18 UNL     1     -15.815 -27.751 -14.260  1.00  0.00     0.055 C 
HETATM    6  C19 UNL     1     -15.121 -28.306 -13.027  1.00  0.00     0.274 C 
ENDROOT
BRANCH   1   7
HETATM    7  C4  UNL     1     -15.082 -30.398 -11.782  1.00  0.00     0.272 C 
BRANCH   7   8
HETATM    8  C3  UNL     1     -14.356 -29.422 -10.887  1.00  0.00     0.032 C 
BRANCH   8   9
HETATM    9  C2  UNL     1     -14.818 -29.349  -9.485  1.00  0.00     0.022 C 
BRANCH   9  10
HETATM   10  C1  UNL     1     -15.711 -28.210  -9.146  1.00  0.00     0.132 C 
BRANCH  10  11
HETATM   11  N1  UNL     1     -14.903 -27.012  -8.862  1.00  0.00    -0.315 N 
ATOM     12  H1  UNL     1     -13.917 -27.025  -8.598  1.00  0.00     0.172 HD
BRANCH  11  13
HETATM   13  S1  UNL     1     -15.845 -25.599  -9.035  1.00  0.00     0.258 S 
HETATM   14  O1  UNL     1     -17.234 -25.922  -9.560  1.00  0.00    -0.201 OA
HETATM   15  O2  UNL     1     -16.023 -24.937  -7.734  1.00  0.00    -0.201 OA
BRANCH  13  16
HETATM   16  C20 UNL     1     -15.091 -24.510 -10.187  1.00  0.00     0.079 A 
HETATM   17  C21 UNL     1     -14.675 -24.948 -11.404  1.00  0.00     0.027 A 
HETATM   18  C22 UNL     1     -14.042 -24.138 -12.330  1.00  0.00     0.025 A 
HETATM   19  C23 UNL     1     -13.802 -22.803 -12.033  1.00  0.00     0.034 A 
HETATM   20 CL1  UNL     1     -12.994 -21.742 -13.162  1.00  0.00    -0.084 Cl
HETATM   21  C24 UNL     1     -14.236 -22.375 -10.788  1.00  0.00     0.025 A 
HETATM   22  C25 UNL     1     -14.860 -23.179  -9.883  1.00  0.00     0.027 A 
ENDBRANCH  13  16
ENDBRANCH  11  13
ENDBRANCH  10  11
ENDBRANCH   9  10
ENDBRANCH   8   9
ENDBRANCH   7   8
ENDBRANCH   1   7
BRANCH   4  23
HETATM   23  N3  UNL     1     -17.297 -25.865 -13.871  1.00  0.00    -0.412 N 
ATOM     24  H3  UNL     1     -16.606 -25.342 -14.409  1.00  0.00     0.154 HD
BRANCH  23  25
HETATM   25  C8  UNL     1     -18.323 -25.160 -13.191  1.00  0.00     0.085 C 
HETATM   26  C9  UNL     1     -19.396 -24.633 -14.068  1.00  0.00     0.009 C 
HETATM   27  C10 UNL     1     -18.925 -23.850 -15.272  1.00  0.00     0.011 C 
HETATM   28  C14 UNL     1     -20.285 -23.646 -13.279  1.00  0.00     0.011 C 
HETATM   29  C11 UNL     1     -18.048 -22.731 -14.791  1.00  0.00    -0.013 C 
HETATM   30  C12 UNL     1     -18.896 -21.729 -14.059  1.00  0.00     0.009 C 
HETATM   31  C17 UNL     1     -16.958 -23.303 -13.924  1.00  0.00     0.011 C 
HETATM   32  C13 UNL     1     -19.492 -22.441 -12.870  1.00  0.00    -0.013 C 
HETATM   33  C15 UNL     1     -18.390 -22.943 -11.948  1.00  0.00     0.011 C 
HETATM   34  C16 UNL     1     -17.553 -23.924 -12.660  1.00  0.00     0.009 C 
ENDBRANCH  23  25
ENDBRANCH   4  23
TORSDOF 9
ENDMDL
MODEL 5
REMARK VINA RESULT: -7.470141198      2.940      4.875
REMARK  9 active torsions:
REMARK  status: ('A' for Active; 'I' for Inactive)
REMARK    1  A    between atoms: S1_2  and  N1_4 
REMARK    2  A    between atoms: S1_2  and  C20_28 
REMARK    3  A    between atoms: N1_4  and  C1_6 
REMARK    4  A    between atoms: C1_6  and  C2_7 
REMARK    5  A    between atoms: C2_7  and  C3_8 
REMARK    6  A    between atoms: C3_8  and  C4_9 
REMARK    7  A    between atoms: C4_9  and  N2_10 
REMARK    8  A    between atoms: C7_13  and  N3_14 
REMARK    9  A    between atoms: N3_14  and  C8_16 
ROOT
HETATM    1  N2  UNL     1     -17.723 -27.259 -14.518  1.00  0.00     0.088 N 
HETATM    2  C5  UNL     1     -17.834 -27.950 -15.794  1.00  0.00     0.274 C 
HETATM    3  C6  UNL     1     -16.532 -28.661 -16.160  1.00  0.00     0.055 C 
HETATM    4  C7  UNL     1     -16.175 -29.683 -15.131  1.00  0.00     0.080 C 
HETATM    5  C18 UNL     1     -16.310 -28.997 -13.759  1.00  0.00     0.055 C 
HETATM    6  C19 UNL     1     -16.376 -27.499 -14.009  1.00  0.00     0.274 C 
ENDROOT
BRANCH   1   7
HETATM    7  C4  UNL     1     -18.067 -25.857 -14.617  1.00  0.00     0.272 C 
BRANCH   7   8
HETATM    8  C3  UNL     1     -17.184 -25.135 -13.627  1.00  0.00     0.032 C 
BRANCH   8   9
HETATM    9  C2  UNL     1     -17.424 -23.686 -13.467  1.00  0.00     0.022 C 
BRANCH   9  10
HETATM   10  C1  UNL     1     -17.357 -23.158 -12.079  1.00  0.00     0.132 C 
BRANCH  10  11
HETATM   11  N1  UNL     1     -16.702 -24.145 -11.204  1.00  0.00    -0.315 N 
ATOM     12  H1  UNL     1     -16.934 -25.138 -11.171  1.00  0.00     0.172 HD
BRANCH  11  13
HETATM   13  S1  UNL     1     -15.498 -23.395 -10.252  1.00  0.00     0.258 S 
HETATM   14  O1  UNL     1     -16.056 -22.199  -9.498  1.00  0.00    -0.201 OA
HETATM   15  O2  UNL     1     -14.981 -24.333  -9.244  1.00  0.00    -0.201 OA
BRANCH  13  16
HETATM   16  C20 UNL     1     -14.200 -22.807 -11.277  1.00  0.00     0.079 A 
HETATM   17  C21 UNL     1     -13.871 -23.441 -12.432  1.00  0.00     0.027 A 
HETATM   18  C22 UNL     1     -12.832 -23.039 -13.253  1.00  0.00     0.025 A 
HETATM   19  C23 UNL     1     -12.064 -21.934 -12.907  1.00  0.00     0.034 A 
HETATM   20 CL1  UNL     1     -10.733 -21.394 -13.902  1.00  0.00    -0.084 Cl
HETATM   21  C24 UNL     1     -12.417 -21.300 -11.727  1.00  0.00     0.025 A 
HETATM   22  C25 UNL     1     -13.443 -21.702 -10.925  1.00  0.00     0.027 A 
ENDBRANCH  13  16
ENDBRANCH  11  13
ENDBRANCH  10  11
ENDBRANCH   9  10
ENDBRANCH   8   9
ENDBRANCH   7   8
ENDBRANCH   1   7
BRANCH   4  23
HETATM   23  N3  UNL     1     -14.902 -30.255 -15.289  1.00  0.00    -0.412 N 
ATOM     24  H3  UNL     1     -14.303 -29.934 -16.050  1.00  0.00     0.154 HD
BRANCH  23  25
HETATM   25  C8  UNL     1     -14.428 -31.268 -14.415  1.00  0.00     0.085 C 
HETATM   26  C9  UNL     1     -13.010 -31.120 -14.010  1.00  0.00     0.009 C 
HETATM   27  C10 UNL     1     -12.030 -30.895 -15.140  1.00  0.00     0.011 C 
HETATM   28  C14 UNL     1     -12.522 -32.412 -13.317  1.00  0.00     0.011 C 
HETATM   29  C11 UNL     1     -12.178 -32.022 -16.120  1.00  0.00    -0.013 C 
HETATM   30  C12 UNL     1     -11.666 -33.286 -15.489  1.00  0.00     0.009 C 
HETATM   31  C17 UNL     1     -13.624 -32.129 -16.527  1.00  0.00     0.011 C 
HETATM   32  C13 UNL     1     -12.531 -33.558 -14.283  1.00  0.00    -0.013 C 
HETATM   33  C15 UNL     1     -13.980 -33.753 -14.707  1.00  0.00     0.011 C 
HETATM   34  C16 UNL     1     -14.488 -32.519 -15.328  1.00  0.00     0.009 C 
ENDBRANCH  23  25
ENDBRANCH   4  23
TORSDOF 9
ENDMDL
