MODEL 1
REMARK VINA RESULT: -6.902339027      0.000      0.000
REMARK  12 active torsions:
REMARK  status: ('A' for Active; 'I' for Inactive)
REMARK    1  A    between atoms: C2_2  and  C3_3 
REMARK    2  A    between atoms: C3_3  and  C4_4 
REMARK    3  A    between atoms: C9_9  and  C10_10 
REMARK    4  A    between atoms: C10_10  and  C11_11 
REMARK       I    between atoms: C11_11  and  N1_13 
REMARK    5  A    between atoms: N1_13  and  C12_15 
REMARK    6  A    between atoms: C12_15  and  C13_16 
REMARK    7  A    between atoms: C12_15  and  C18_21 
REMARK    8  A    between atoms: C13_16  and  C14_17 
REMARK       I    between atoms: C18_21  and  N2_23 
REMARK    9  A    between atoms: C22_27  and  C23_28 
REMARK   10  A    between atoms: N3_36  and  C28_37 
REMARK   11  A    between atoms: C28_37  and  C30_39 
REMARK   12  A    between atoms: C30_39  and  O4_40 
ROOT
HETATM    1  C10 UNL     1     -20.854 -24.732 -14.263  1.00  0.00     0.108 C 
ENDROOT
BRANCH   1   2
HETATM    2  C9  UNL     1     -19.501 -25.302 -14.450  1.00  0.00     0.003 C 
HETATM    3  C8  UNL     1     -18.476 -24.496 -13.625  1.00  0.00     0.005 C 
HETATM    4  C7  UNL     1     -18.205 -23.131 -14.084  1.00  0.00     0.000 C 
HETATM    5  C6  UNL     1     -16.746 -22.799 -13.724  1.00  0.00     0.000 C 
HETATM    6  C5  UNL     1     -16.323 -23.348 -12.397  1.00  0.00     0.005 C 
HETATM    7  C4  UNL     1     -15.249 -24.425 -12.489  1.00  0.00    -0.011 C 
HETATM    8  C33 UNL     1     -15.574 -25.566 -11.539  1.00  0.00    -0.013 C 
HETATM    9  C32 UNL     1     -15.440 -26.929 -12.232  1.00  0.00     0.024 C 
HETATM   10  C34 UNL     1     -14.834 -25.587 -10.266  1.00  0.00     0.010 C 
HETATM   11  C31 UNL     1     -16.746 -27.691 -12.256  1.00  0.00     0.127 C 
HETATM   12  N3  UNL     1     -17.170 -28.092 -13.578  1.00  0.00    -0.346 N 
HETATM   13  C27 UNL     1     -18.185 -27.398 -14.302  1.00  0.00     0.220 C 
HETATM   14  C26 UNL     1     -19.356 -26.680 -13.756  1.00  0.00     0.108 C 
HETATM   15  O3  UNL     1     -18.075 -27.392 -15.571  1.00  0.00    -0.273 OA
BRANCH   7  16
HETATM   16  C3  UNL     1     -13.924 -23.787 -12.298  1.00  0.00     0.004 C 
BRANCH  16  17
HETATM   17  C2  UNL     1     -13.748 -22.458 -12.979  1.00  0.00    -0.004 C 
HETATM   18  C1  UNL     1     -12.775 -21.656 -12.133  1.00  0.00     0.005 C 
ENDBRANCH  16  17
ENDBRANCH   7  16
BRANCH  12  19
HETATM   19  C28 UNL     1     -16.549 -29.241 -14.215  1.00  0.00     0.106 C 
HETATM   20  C29 UNL     1     -15.275 -28.906 -14.953  1.00  0.00     0.034 C 
BRANCH  19  21
HETATM   21  C30 UNL     1     -16.344 -30.425 -13.339  1.00  0.00     0.189 C 
BRANCH  21  22
HETATM   22  O4  UNL     1     -15.098 -30.975 -13.298  1.00  0.00    -0.399 OA
ATOM     23  H4  UNL     1     -14.916 -31.606 -12.613  1.00  0.00     0.209 HD
ENDBRANCH  21  22
ENDBRANCH  19  21
ENDBRANCH  12  19
ENDBRANCH   1   2
BRANCH   1  24
HETATM   24  C11 UNL     1     -21.146 -24.606 -12.818  1.00  0.00     0.218 C 
HETATM   25  O1  UNL     1     -21.355 -25.578 -12.042  1.00  0.00    -0.274 OA
HETATM   26  N1  UNL     1     -21.195 -23.301 -12.267  1.00  0.00    -0.348 N 
ATOM     27  H1  UNL     1     -21.041 -22.486 -12.860  1.00  0.00     0.163 HD
BRANCH  26  28
HETATM   28  C12 UNL     1     -21.477 -23.131 -10.786  1.00  0.00     0.177 C 
BRANCH  28  29
HETATM   29  C13 UNL     1     -22.891 -22.642 -10.753  1.00  0.00     0.043 C 
BRANCH  29  30
HETATM   30  C14 UNL     1     -23.990 -23.595 -10.512  1.00  0.00    -0.049 C 
HETATM   31  C15 UNL     1     -25.081 -22.750  -9.770  1.00  0.00     0.014 C 
HETATM   32  C16 UNL     1     -24.714 -24.076 -11.754  1.00  0.00     0.014 C 
HETATM   33  C17 UNL     1     -23.700 -24.716  -9.560  1.00  0.00     0.014 C 
ENDBRANCH  29  30
ENDBRANCH  28  29
BRANCH  28  34
HETATM   34  C18 UNL     1     -20.460 -22.230 -10.257  1.00  0.00     0.243 C 
HETATM   35  O2  UNL     1     -20.769 -20.985 -10.248  1.00  0.00    -0.271 OA
HETATM   36  N2  UNL     1     -19.172 -22.550  -9.759  1.00  0.00    -0.345 N 
HETATM   37  C19 UNL     1     -18.752 -23.936  -9.782  1.00  0.00     0.126 C 
HETATM   38  C24 UNL     1     -18.259 -21.561  -9.263  1.00  0.00     0.092 C 
HETATM   39  C20 UNL     1     -18.015 -24.364  -8.544  1.00  0.00     0.020 C 
HETATM   40  C21 UNL     1     -16.787 -23.470  -8.473  1.00  0.00     0.014 C 
HETATM   41  C22 UNL     1     -17.139 -22.029  -8.418  1.00  0.00     0.073 C 
HETATM   42  C25 UNL     1     -18.941 -20.425  -8.502  1.00  0.00     0.033 C 
BRANCH  41  43
HETATM   43  C23 UNL     1     -15.872 -21.263  -8.844  1.00  0.00     0.359 C 
HETATM   44  F1  UNL     1     -14.987 -22.257  -9.284  1.00  0.00    -0.214 F 
HETATM   45  F2  UNL     1     -15.355 -20.536  -7.811  1.00  0.00    -0.214 F 
ENDBRANCH  41  43
ENDBRANCH  28  34
ENDBRANCH  26  28
ENDBRANCH   1  24
TORSDOF 12
ENDMDL
MODEL 2
REMARK VINA RESULT: -6.626765523      3.765      7.139
REMARK  12 active torsions:
REMARK  status: ('A' for Active; 'I' for Inactive)
REMARK    1  A    between atoms: C2_2  and  C3_3 
REMARK    2  A    between atoms: C3_3  and  C4_4 
REMARK    3  A    between atoms: C9_9  and  C10_10 
REMARK    4  A    between atoms: C10_10  and  C11_11 
REMARK       I    between atoms: C11_11  and  N1_13 
REMARK    5  A    between atoms: N1_13  and  C12_15 
REMARK    6  A    between atoms: C12_15  and  C13_16 
REMARK    7  A    between atoms: C12_15  and  C18_21 
REMARK    8  A    between atoms: C13_16  and  C14_17 
REMARK       I    between atoms: C18_21  and  N2_23 
REMARK    9  A    between atoms: C22_27  and  C23_28 
REMARK   10  A    between atoms: N3_36  and  C28_37 
REMARK   11  A    between atoms: C28_37  and  C30_39 
REMARK   12  A    between atoms: C30_39  and  O4_40 
ROOT
HETATM    1  C10 UNL     1     -20.881 -25.579 -12.053  1.00  0.00     0.108 C 
ENDROOT
BRANCH   1   2
HETATM    2  C9  UNL     1     -19.583 -25.931 -11.437  1.00  0.00     0.003 C 
HETATM    3  C8  UNL     1     -18.501 -24.928 -11.890  1.00  0.00     0.005 C 
HETATM    4  C7  UNL     1     -18.102 -24.997 -13.298  1.00  0.00     0.000 C 
HETATM    5  C6  UNL     1     -16.624 -24.576 -13.386  1.00  0.00     0.000 C 
HETATM    6  C5  UNL     1     -16.270 -23.457 -12.458  1.00  0.00     0.005 C 
HETATM    7  C4  UNL     1     -15.296 -23.853 -11.356  1.00  0.00    -0.011 C 
HETATM    8  C33 UNL     1     -15.735 -23.250 -10.031  1.00  0.00    -0.013 C 
HETATM    9  C32 UNL     1     -15.714 -24.293  -8.906  1.00  0.00     0.024 C 
HETATM   10  C34 UNL     1     -15.017 -22.041  -9.595  1.00  0.00     0.010 C 
HETATM   11  C31 UNL     1     -17.083 -24.510  -8.300  1.00  0.00     0.127 C 
HETATM   12  N3  UNL     1     -17.523 -25.886  -8.317  1.00  0.00    -0.346 N 
HETATM   13  C27 UNL     1     -18.462 -26.379  -9.272  1.00  0.00     0.220 C 
HETATM   14  C26 UNL     1     -19.571 -25.644  -9.914  1.00  0.00     0.108 C 
HETATM   15  O3  UNL     1     -18.333 -27.600  -9.617  1.00  0.00    -0.273 OA
BRANCH   7  16
HETATM   16  C3  UNL     1     -13.922 -23.510 -11.794  1.00  0.00     0.004 C 
BRANCH  16  17
HETATM   17  C2  UNL     1     -13.840 -22.582 -12.976  1.00  0.00    -0.004 C 
HETATM   18  C1  UNL     1     -12.438 -21.996 -12.977  1.00  0.00     0.005 C 
ENDBRANCH  16  17
ENDBRANCH   7  16
BRANCH  12  19
HETATM   19  C28 UNL     1     -16.998 -26.822  -7.337  1.00  0.00     0.106 C 
HETATM   20  C29 UNL     1     -15.782 -27.577  -7.814  1.00  0.00     0.034 C 
BRANCH  19  21
HETATM   21  C30 UNL     1     -16.761 -26.260  -5.980  1.00  0.00     0.189 C 
BRANCH  21  22
HETATM   22  O4  UNL     1     -15.470 -26.165  -5.552  1.00  0.00    -0.399 OA
ATOM     23  H4  UNL     1     -15.131 -25.299  -5.360  1.00  0.00     0.209 HD
ENDBRANCH  21  22
ENDBRANCH  19  21
ENDBRANCH  12  19
ENDBRANCH   1   2
BRANCH   1  24
HETATM   24  C11 UNL     1     -20.960 -26.157 -13.413  1.00  0.00     0.218 C 
HETATM   25  O1  UNL     1     -21.142 -25.487 -14.466  1.00  0.00    -0.274 OA
HETATM   26  N1  UNL     1     -20.822 -27.562 -13.541  1.00  0.00    -0.348 N 
ATOM     27  H1  UNL     1     -20.683 -28.143 -12.715  1.00  0.00     0.163 HD
BRANCH  26  28
HETATM   28  C12 UNL     1     -20.883 -28.190 -14.920  1.00  0.00     0.177 C 
BRANCH  28  29
HETATM   29  C13 UNL     1     -22.340 -28.470 -15.113  1.00  0.00     0.043 C 
BRANCH  29  30
HETATM   30  C14 UNL     1     -22.954 -28.279 -16.440  1.00  0.00    -0.049 C 
HETATM   31  C15 UNL     1     -24.227 -29.192 -16.416  1.00  0.00     0.014 C 
HETATM   32  C16 UNL     1     -23.526 -26.898 -16.697  1.00  0.00     0.014 C 
HETATM   33  C17 UNL     1     -22.172 -28.791 -17.613  1.00  0.00     0.014 C 
ENDBRANCH  29  30
ENDBRANCH  28  29
BRANCH  28  34
HETATM   34  C18 UNL     1     -19.992 -29.344 -14.905  1.00  0.00     0.243 C 
HETATM   35  O2  UNL     1     -20.516 -30.449 -14.519  1.00  0.00    -0.271 OA
HETATM   36  N2  UNL     1     -18.619 -29.402 -15.254  1.00  0.00    -0.345 N 
HETATM   37  C19 UNL     1     -17.962 -28.176 -15.659  1.00  0.00     0.126 C 
HETATM   38  C24 UNL     1     -17.848 -30.610 -15.195  1.00  0.00     0.092 C 
HETATM   39  C20 UNL     1     -17.023 -28.349 -16.820  1.00  0.00     0.020 C 
HETATM   40  C21 UNL     1     -15.977 -29.346 -16.351  1.00  0.00     0.014 C 
HETATM   41  C22 UNL     1     -16.573 -30.643 -15.944  1.00  0.00     0.073 C 
HETATM   42  C25 UNL     1     -18.632 -31.857 -15.602  1.00  0.00     0.033 C 
BRANCH  41  43
HETATM   43  C23 UNL     1     -15.522 -31.339 -15.059  1.00  0.00     0.359 C 
HETATM   44  F1  UNL     1     -15.300 -30.446 -14.001  1.00  0.00    -0.214 F 
HETATM   45  F2  UNL     1     -14.378 -31.606 -15.753  1.00  0.00    -0.214 F 
ENDBRANCH  41  43
ENDBRANCH  28  34
ENDBRANCH  26  28
ENDBRANCH   1  24
TORSDOF 12
ENDMDL
MODEL 3
REMARK VINA RESULT: -6.567978825      4.370      8.875
REMARK  12 active torsions:
REMARK  status: ('A' for Active; 'I' for Inactive)
REMARK    1  A    between atoms: C2_2  and  C3_3 
REMARK    2  A    between atoms: C3_3  and  C4_4 
REMARK    3  A    between atoms: C9_9  and  C10_10 
REMARK    4  A    between atoms: C10_10  and  C11_11 
REMARK       I    between atoms: C11_11  and  N1_13 
REMARK    5  A    between atoms: N1_13  and  C12_15 
REMARK    6  A    between atoms: C12_15  and  C13_16 
REMARK    7  A    between atoms: C12_15  and  C18_21 
REMARK    8  A    between atoms: C13_16  and  C14_17 
REMARK       I    between atoms: C18_21  and  N2_23 
REMARK    9  A    between atoms: C22_27  and  C23_28 
REMARK   10  A    between atoms: N3_36  and  C28_37 
REMARK   11  A    between atoms: C28_37  and  C30_39 
REMARK   12  A    between atoms: C30_39  and  O4_40 
ROOT
HETATM    1  C10 UNL     1     -18.378 -29.062 -10.730  1.00  0.00     0.108 C 
ENDROOT
BRANCH   1   2
HETATM    2  C9  UNL     1     -18.509 -27.589 -10.762  1.00  0.00     0.003 C 
HETATM    3  C8  UNL     1     -17.145 -26.936 -10.451  1.00  0.00     0.005 C 
HETATM    4  C7  UNL     1     -16.654 -27.084  -9.079  1.00  0.00     0.000 C 
HETATM    5  C6  UNL     1     -15.815 -25.838  -8.746  1.00  0.00     0.000 C 
HETATM    6  C5  UNL     1     -14.988 -25.356  -9.897  1.00  0.00     0.005 C 
HETATM    7  C4  UNL     1     -15.404 -23.991 -10.428  1.00  0.00    -0.011 C 
HETATM    8  C33 UNL     1     -15.398 -24.000 -11.949  1.00  0.00    -0.013 C 
HETATM    9  C32 UNL     1     -16.685 -23.388 -12.518  1.00  0.00     0.024 C 
HETATM   10  C34 UNL     1     -14.230 -23.384 -12.600  1.00  0.00     0.010 C 
HETATM   11  C31 UNL     1     -17.469 -24.377 -13.353  1.00  0.00     0.127 C 
HETATM   12  N3  UNL     1     -18.837 -24.556 -12.923  1.00  0.00    -0.346 N 
HETATM   13  C27 UNL     1     -19.260 -25.686 -12.161  1.00  0.00     0.220 C 
HETATM   14  C26 UNL     1     -18.719 -27.060 -12.203  1.00  0.00     0.108 C 
HETATM   15  O3  UNL     1     -20.220 -25.493 -11.345  1.00  0.00    -0.273 OA
BRANCH   7  16
HETATM   16  C3  UNL     1     -14.556 -22.956  -9.789  1.00  0.00     0.004 C 
BRANCH  16  17
HETATM   17  C2  UNL     1     -15.298 -21.764  -9.248  1.00  0.00    -0.004 C 
HETATM   18  C1  UNL     1     -16.702 -22.235  -8.912  1.00  0.00     0.005 C 
ENDBRANCH  16  17
ENDBRANCH   7  16
BRANCH  12  19
HETATM   19  C28 UNL     1     -19.835 -23.556 -13.265  1.00  0.00     0.106 C 
HETATM   20  C29 UNL     1     -19.816 -22.350 -12.357  1.00  0.00     0.034 C 
BRANCH  19  21
HETATM   21  C30 UNL     1     -19.853 -23.132 -14.690  1.00  0.00     0.189 C 
BRANCH  21  22
HETATM   22  O4  UNL     1     -20.993 -23.356 -15.403  1.00  0.00    -0.399 OA
ATOM     23  H4  UNL     1     -20.958 -23.224 -16.343  1.00  0.00     0.209 HD
ENDBRANCH  21  22
ENDBRANCH  19  21
ENDBRANCH  12  19
ENDBRANCH   1   2
BRANCH   1  24
HETATM   24  C11 UNL     1     -17.724 -29.531 -11.972  1.00  0.00     0.218 C 
HETATM   25  O1  UNL     1     -16.476 -29.624 -12.132  1.00  0.00    -0.274 OA
HETATM   26  N1  UNL     1     -18.557 -29.900 -13.057  1.00  0.00    -0.348 N 
ATOM     27  H1  UNL     1     -19.572 -29.832 -12.974  1.00  0.00     0.163 HD
BRANCH  26  28
HETATM   28  C12 UNL     1     -17.924 -30.400 -14.342  1.00  0.00     0.177 C 
BRANCH  28  29
HETATM   29  C13 UNL     1     -17.411 -29.152 -14.988  1.00  0.00     0.043 C 
BRANCH  29  30
HETATM   30  C14 UNL     1     -16.160 -29.190 -15.766  1.00  0.00    -0.049 C 
HETATM   31  C15 UNL     1     -16.481 -28.369 -17.061  1.00  0.00     0.014 C 
HETATM   32  C16 UNL     1     -14.995 -28.432 -15.159  1.00  0.00     0.014 C 
HETATM   33  C17 UNL     1     -15.746 -30.533 -16.290  1.00  0.00     0.014 C 
ENDBRANCH  29  30
ENDBRANCH  28  29
BRANCH  28  34
HETATM   34  C18 UNL     1     -18.952 -31.138 -15.067  1.00  0.00     0.243 C 
HETATM   35  O2  UNL     1     -18.880 -32.415 -14.991  1.00  0.00    -0.271 OA
HETATM   36  N2  UNL     1     -20.015 -30.625 -15.853  1.00  0.00    -0.345 N 
HETATM   37  C19 UNL     1     -20.121 -29.190 -16.010  1.00  0.00     0.126 C 
HETATM   38  C24 UNL     1     -20.966 -31.465 -16.522  1.00  0.00     0.092 C 
HETATM   39  C20 UNL     1     -21.533 -28.678 -15.935  1.00  0.00     0.020 C 
HETATM   40  C21 UNL     1     -22.274 -29.362 -17.073  1.00  0.00     0.014 C 
HETATM   41  C22 UNL     1     -22.232 -30.842 -16.966  1.00  0.00     0.073 C 
HETATM   42  C25 UNL     1     -21.344 -32.714 -15.728  1.00  0.00     0.033 C 
BRANCH  41  43
HETATM   43  C23 UNL     1     -22.559 -31.382 -18.371  1.00  0.00     0.359 C 
HETATM   44  F1  UNL     1     -21.376 -31.207 -19.102  1.00  0.00    -0.214 F 
HETATM   45  F2  UNL     1     -23.611 -30.719 -18.931  1.00  0.00    -0.214 F 
ENDBRANCH  41  43
ENDBRANCH  28  34
ENDBRANCH  26  28
ENDBRANCH   1  24
TORSDOF 12
ENDMDL
MODEL 4
REMARK VINA RESULT: -6.558771278      3.525      7.322
REMARK  12 active torsions:
REMARK  status: ('A' for Active; 'I' for Inactive)
REMARK    1  A    between atoms: C2_2  and  C3_3 
REMARK    2  A    between atoms: C3_3  and  C4_4 
REMARK    3  A    between atoms: C9_9  and  C10_10 
REMARK    4  A    between atoms: C10_10  and  C11_11 
REMARK       I    between atoms: C11_11  and  N1_13 
REMARK    5  A    between atoms: N1_13  and  C12_15 
REMARK    6  A    between atoms: C12_15  and  C13_16 
REMARK    7  A    between atoms: C12_15  and  C18_21 
REMARK    8  A    between atoms: C13_16  and  C14_17 
REMARK       I    between atoms: C18_21  and  N2_23 
REMARK    9  A    between atoms: C22_27  and  C23_28 
REMARK   10  A    between atoms: N3_36  and  C28_37 
REMARK   11  A    between atoms: C28_37  and  C30_39 
REMARK   12  A    between atoms: C30_39  and  O4_40 
ROOT
HETATM    1  C10 UNL     1     -18.742 -28.893 -12.251  1.00  0.00     0.108 C 
ENDROOT
BRANCH   1   2
HETATM    2  C9  UNL     1     -19.426 -28.110 -13.303  1.00  0.00     0.003 C 
HETATM    3  C8  UNL     1     -19.709 -29.010 -14.525  1.00  0.00     0.005 C 
HETATM    4  C7  UNL     1     -18.540 -29.441 -15.297  1.00  0.00     0.000 C 
HETATM    5  C6  UNL     1     -18.982 -29.603 -16.762  1.00  0.00     0.000 C 
HETATM    6  C5  UNL     1     -20.354 -30.182 -16.906  1.00  0.00     0.005 C 
HETATM    7  C4  UNL     1     -21.370 -29.220 -17.509  1.00  0.00    -0.011 C 
HETATM    8  C33 UNL     1     -22.686 -29.311 -16.753  1.00  0.00    -0.013 C 
HETATM    9  C32 UNL     1     -23.226 -27.919 -16.399  1.00  0.00     0.024 C 
HETATM   10  C34 UNL     1     -23.749 -30.105 -17.389  1.00  0.00     0.010 C 
HETATM   11  C31 UNL     1     -23.349 -27.715 -14.905  1.00  0.00     0.127 C 
HETATM   12  N3  UNL     1     -22.643 -26.557 -14.408  1.00  0.00    -0.346 N 
HETATM   13  C27 UNL     1     -21.382 -26.652 -13.747  1.00  0.00     0.220 C 
HETATM   14  C26 UNL     1     -20.882 -27.760 -12.906  1.00  0.00     0.108 C 
HETATM   15  O3  UNL     1     -20.586 -25.668 -13.896  1.00  0.00    -0.273 OA
BRANCH   7  16
HETATM   16  C3  UNL     1     -21.448 -29.470 -18.968  1.00  0.00     0.004 C 
BRANCH  16  17
HETATM   17  C2  UNL     1     -21.254 -30.903 -19.384  1.00  0.00    -0.004 C 
HETATM   18  C1  UNL     1     -22.130 -31.129 -20.603  1.00  0.00     0.005 C 
ENDBRANCH  16  17
ENDBRANCH   7  16
BRANCH  12  19
HETATM   19  C28 UNL     1     -23.218 -25.234 -14.583  1.00  0.00     0.106 C 
HETATM   20  C29 UNL     1     -23.242 -24.414 -13.316  1.00  0.00     0.034 C 
BRANCH  19  21
HETATM   21  C30 UNL     1     -22.656 -24.436 -15.705  1.00  0.00     0.189 C 
BRANCH  21  22
HETATM   22  O4  UNL     1     -21.639 -23.573 -15.422  1.00  0.00    -0.399 OA
ATOM     23  H4  UNL     1     -21.083 -23.295 -16.140  1.00  0.00     0.209 HD
ENDBRANCH  21  22
ENDBRANCH  19  21
ENDBRANCH  12  19
ENDBRANCH   1   2
BRANCH   1  24
HETATM   24  C11 UNL     1     -17.860 -28.004 -11.463  1.00  0.00     0.218 C 
HETATM   25  O1  UNL     1     -16.927 -28.403 -10.713  1.00  0.00    -0.274 OA
HETATM   26  N1  UNL     1     -18.079 -26.607 -11.555  1.00  0.00    -0.348 N 
ATOM     27  H1  UNL     1     -18.829 -26.241 -12.142  1.00  0.00     0.163 HD
BRANCH  26  28
HETATM   28  C12 UNL     1     -17.186 -25.663 -10.773  1.00  0.00     0.177 C 
BRANCH  28  29
HETATM   29  C13 UNL     1     -18.146 -24.907  -9.910  1.00  0.00     0.043 C 
BRANCH  29  30
HETATM   30  C14 UNL     1     -18.005 -24.951  -8.443  1.00  0.00    -0.049 C 
HETATM   31  C15 UNL     1     -19.363 -25.548  -7.940  1.00  0.00     0.014 C 
HETATM   32  C16 UNL     1     -16.981 -25.939  -7.920  1.00  0.00     0.014 C 
HETATM   33  C17 UNL     1     -17.919 -23.627  -7.745  1.00  0.00     0.014 C 
ENDBRANCH  29  30
ENDBRANCH  28  29
BRANCH  28  34
HETATM   34  C18 UNL     1     -16.428 -24.885 -11.746  1.00  0.00     0.243 C 
HETATM   35  O2  UNL     1     -16.834 -24.963 -12.960  1.00  0.00    -0.271 OA
HETATM   36  N2  UNL     1     -15.297 -24.059 -11.526  1.00  0.00    -0.345 N 
HETATM   37  C19 UNL     1     -14.769 -23.964 -10.181  1.00  0.00     0.126 C 
HETATM   38  C24 UNL     1     -14.638 -23.341 -12.578  1.00  0.00     0.092 C 
HETATM   39  C20 UNL     1     -14.354 -22.572  -9.792  1.00  0.00     0.020 C 
HETATM   40  C21 UNL     1     -13.271 -22.179 -10.784  1.00  0.00     0.014 C 
HETATM   41  C22 UNL     1     -13.747 -22.226 -12.189  1.00  0.00     0.073 C 
HETATM   42  C25 UNL     1     -15.593 -22.794 -13.638  1.00  0.00     0.033 C 
BRANCH  41  43
HETATM   43  C23 UNL     1     -12.484 -22.300 -13.068  1.00  0.00     0.359 C 
HETATM   44  F1  UNL     1     -11.419 -22.124 -12.173  1.00  0.00    -0.214 F 
HETATM   45  F2  UNL     1     -12.495 -21.349 -14.045  1.00  0.00    -0.214 F 
ENDBRANCH  41  43
ENDBRANCH  28  34
ENDBRANCH  26  28
ENDBRANCH   1  24
TORSDOF 12
ENDMDL
MODEL 5
REMARK VINA RESULT: -6.542598816      3.883      8.813
REMARK  12 active torsions:
REMARK  status: ('A' for Active; 'I' for Inactive)
REMARK    1  A    between atoms: C2_2  and  C3_3 
REMARK    2  A    between atoms: C3_3  and  C4_4 
REMARK    3  A    between atoms: C9_9  and  C10_10 
REMARK    4  A    between atoms: C10_10  and  C11_11 
REMARK       I    between atoms: C11_11  and  N1_13 
REMARK    5  A    between atoms: N1_13  and  C12_15 
REMARK    6  A    between atoms: C12_15  and  C13_16 
REMARK    7  A    between atoms: C12_15  and  C18_21 
REMARK    8  A    between atoms: C13_16  and  C14_17 
REMARK       I    between atoms: C18_21  and  N2_23 
REMARK    9  A    between atoms: C22_27  and  C23_28 
REMARK   10  A    between atoms: N3_36  and  C28_37 
REMARK   11  A    between atoms: C28_37  and  C30_39 
REMARK   12  A    between atoms: C30_39  and  O4_40 
ROOT
HETATM    1  C10 UNL     1     -17.557 -29.170 -11.067  1.00  0.00     0.108 C 
ENDROOT
BRANCH   1   2
HETATM    2  C9  UNL     1     -17.927 -27.739 -11.017  1.00  0.00     0.003 C 
HETATM    3  C8  UNL     1     -16.668 -26.883 -10.760  1.00  0.00     0.005 C 
HETATM    4  C7  UNL     1     -16.066 -27.001  -9.429  1.00  0.00     0.000 C 
HETATM    5  C6  UNL     1     -15.419 -25.647  -9.087  1.00  0.00     0.000 C 
HETATM    6  C5  UNL     1     -14.762 -24.991 -10.261  1.00  0.00     0.005 C 
HETATM    7  C4  UNL     1     -15.430 -23.694 -10.697  1.00  0.00    -0.011 C 
HETATM    8  C33 UNL     1     -15.526 -23.642 -12.214  1.00  0.00    -0.013 C 
HETATM    9  C32 UNL     1     -16.931 -23.230 -12.672  1.00  0.00     0.024 C 
HETATM   10  C34 UNL     1     -14.521 -22.818 -12.904  1.00  0.00     0.010 C 
HETATM   11  C31 UNL     1     -17.601 -24.301 -13.505  1.00  0.00     0.127 C 
HETATM   12  N3  UNL     1     -18.889 -24.719 -13.001  1.00  0.00    -0.346 N 
HETATM   13  C27 UNL     1     -19.070 -25.932 -12.272  1.00  0.00     0.220 C 
HETATM   14  C26 UNL     1     -18.318 -27.196 -12.415  1.00  0.00     0.108 C 
HETATM   15  O3  UNL     1     -19.990 -25.932 -11.389  1.00  0.00    -0.273 OA
BRANCH   7  16
HETATM   16  C3  UNL     1     -14.718 -22.560 -10.060  1.00  0.00     0.004 C 
BRANCH  16  17
HETATM   17  C2  UNL     1     -15.551 -21.723  -9.129  1.00  0.00    -0.004 C 
HETATM   18  C1  UNL     1     -16.932 -22.353  -9.088  1.00  0.00     0.005 C 
ENDBRANCH  16  17
ENDBRANCH   7  16
BRANCH  12  19
HETATM   19  C28 UNL     1     -20.057 -23.885 -13.231  1.00  0.00     0.106 C 
HETATM   20  C29 UNL     1     -20.008 -22.565 -12.500  1.00  0.00     0.034 C 
BRANCH  19  21
HETATM   21  C30 UNL     1     -20.422 -23.675 -14.657  1.00  0.00     0.189 C 
BRANCH  21  22
HETATM   22  O4  UNL     1     -19.987 -22.532 -15.260  1.00  0.00    -0.399 OA
ATOM     23  H4  UNL     1     -20.405 -22.276 -16.073  1.00  0.00     0.209 HD
ENDBRANCH  21  22
ENDBRANCH  19  21
ENDBRANCH  12  19
ENDBRANCH   1   2
BRANCH   1  24
HETATM   24  C11 UNL     1     -16.893 -29.469 -12.356  1.00  0.00     0.218 C 
HETATM   25  O1  UNL     1     -15.836 -28.914 -12.762  1.00  0.00    -0.274 OA
HETATM   26  N1  UNL     1     -17.486 -30.447 -13.191  1.00  0.00    -0.348 N 
ATOM     27  H1  UNL     1     -18.347 -30.915 -12.907  1.00  0.00     0.163 HD
BRANCH  26  28
HETATM   28  C12 UNL     1     -16.827 -30.792 -14.514  1.00  0.00     0.177 C 
BRANCH  28  29
HETATM   29  C13 UNL     1     -17.979 -30.887 -15.465  1.00  0.00     0.043 C 
BRANCH  29  30
HETATM   30  C14 UNL     1     -18.671 -29.661 -15.902  1.00  0.00    -0.049 C 
HETATM   31  C15 UNL     1     -19.586 -30.131 -17.084  1.00  0.00     0.014 C 
HETATM   32  C16 UNL     1     -19.661 -29.086 -14.909  1.00  0.00     0.014 C 
HETATM   33  C17 UNL     1     -17.812 -28.599 -16.520  1.00  0.00     0.014 C 
ENDBRANCH  29  30
ENDBRANCH  28  29
BRANCH  28  34
HETATM   34  C18 UNL     1     -16.051 -32.008 -14.302  1.00  0.00     0.243 C 
HETATM   35  O2  UNL     1     -16.731 -33.088 -14.177  1.00  0.00    -0.271 OA
HETATM   36  N2  UNL     1     -14.644 -32.150 -14.207  1.00  0.00    -0.345 N 
HETATM   37  C19 UNL     1     -13.827 -30.959 -14.300  1.00  0.00     0.126 C 
HETATM   38  C24 UNL     1     -14.000 -33.414 -13.995  1.00  0.00     0.092 C 
HETATM   39  C20 UNL     1     -12.579 -31.144 -15.119  1.00  0.00     0.020 C 
HETATM   40  C21 UNL     1     -11.791 -32.238 -14.417  1.00  0.00     0.014 C 
HETATM   41  C22 UNL     1     -12.557 -33.505 -14.309  1.00  0.00     0.073 C 
HETATM   42  C25 UNL     1     -14.682 -34.578 -14.713  1.00  0.00     0.033 C 
BRANCH  41  43
HETATM   43  C23 UNL     1     -11.880 -34.321 -13.190  1.00  0.00     0.359 C 
HETATM   44  F1  UNL     1     -12.795 -34.296 -12.129  1.00  0.00    -0.214 F 
HETATM   45  F2  UNL     1     -10.674 -33.787 -12.841  1.00  0.00    -0.214 F 
ENDBRANCH  41  43
ENDBRANCH  28  34
ENDBRANCH  26  28
ENDBRANCH   1  24
TORSDOF 12
ENDMDL
