MODEL 1
REMARK VINA RESULT: -7.233226118      0.000      0.000
REMARK  11 active torsions:
REMARK  status: ('A' for Active; 'I' for Inactive)
REMARK    1  A    between atoms: C2_2  and  O1_3 
REMARK    2  A    between atoms: O1_3  and  C3_4 
REMARK    3  A    between atoms: C6_7  and  C7_8 
REMARK    4  A    between atoms: C9_10  and  C10_11 
REMARK       I    between atoms: C10_11  and  N1_13 
REMARK    5  A    between atoms: N1_13  and  C12_15 
REMARK    6  A    between atoms: C14_17  and  N2_18 
REMARK       I    between atoms: N2_18  and  C15_20 
REMARK    7  A    between atoms: C15_20  and  C16_22 
REMARK    8  A    between atoms: C16_22  and  C17_23 
REMARK       I    between atoms: C17_23  and  N3_25 
REMARK    9  A    between atoms: N3_25  and  C18_27 
REMARK   10  A    between atoms: C25_34  and  C26_35 
REMARK   11  A    between atoms: C31_40  and  C32_41 
ROOT
HETATM    1  C12 UNL     1     -15.175 -28.957 -14.038  1.00  0.00     0.090 C 
HETATM    2  C13 UNL     1     -15.884 -27.748 -14.558  1.00  0.00     0.050 C 
HETATM    3  C14 UNL     1     -16.896 -27.852 -13.436  1.00  0.00     0.088 C 
HETATM    4  C30 UNL     1     -16.382 -29.225 -13.155  1.00  0.00     0.050 C 
ENDROOT
BRANCH   1   5
HETATM    5  N1  UNL     1     -14.850 -29.995 -14.963  1.00  0.00    -0.351 N 
HETATM    6  C10 UNL     1     -13.666 -30.770 -14.917  1.00  0.00     0.224 C 
HETATM    7  O2  UNL     1     -12.845 -30.541 -13.996  1.00  0.00    -0.273 OA
HETATM    8  C11 UNL     1     -15.798 -30.291 -16.047  1.00  0.00     0.153 C 
BRANCH   6   9
HETATM    9  C9  UNL     1     -13.362 -31.818 -15.891  1.00  0.00     0.087 A 
HETATM   10  C7  UNL     1     -12.469 -32.950 -15.675  1.00  0.00     0.033 A 
HETATM   11  C8  UNL     1     -13.948 -33.178 -15.487  1.00  0.00     0.025 A 
BRANCH  10  12
HETATM   12  C6  UNL     1     -11.830 -33.649 -16.806  1.00  0.00    -0.037 A 
HETATM   13  C5  UNL     1     -12.081 -33.290 -18.121  1.00  0.00     0.011 A 
HETATM   14  C4  UNL     1     -11.509 -33.922 -19.209  1.00  0.00     0.038 A 
HETATM   15  C3  UNL     1     -10.647 -34.957 -19.010  1.00  0.00     0.075 A 
HETATM   16  C33 UNL     1     -10.357 -35.361 -17.699  1.00  0.00    -0.013 A 
HETATM   17  C31 UNL     1     -10.938 -34.718 -16.608  1.00  0.00     0.063 A 
HETATM   18  C34 UNL     1      -9.422 -36.481 -17.537  1.00  0.00     0.052 C 
BRANCH  15  19
HETATM   19  O1  UNL     1     -10.059 -35.609 -20.085  1.00  0.00    -0.351 OA
BRANCH  19  20
HETATM   20  C2  UNL     1      -9.797 -35.009 -21.314  1.00  0.00     0.171 C 
HETATM   21  C1  UNL     1      -9.422 -36.086 -22.331  1.00  0.00     0.034 C 
ENDBRANCH  19  20
ENDBRANCH  15  19
BRANCH  17  22
HETATM   22  C32 UNL     1     -10.670 -35.104 -15.208  1.00  0.00     0.418 C 
HETATM   23  F1  UNL     1      -9.463 -35.751 -15.076  1.00  0.00    -0.166 F 
HETATM   24  F2  UNL     1     -11.617 -35.988 -14.698  1.00  0.00    -0.166 F 
HETATM   25  F3  UNL     1     -10.547 -33.976 -14.378  1.00  0.00    -0.166 F 
ENDBRANCH  17  22
ENDBRANCH  10  12
ENDBRANCH   6   9
ENDBRANCH   1   5
BRANCH   3  26
HETATM   26  N2  UNL     1     -16.613 -26.939 -12.321  1.00  0.00    -0.355 N 
HETATM   27  C15 UNL     1     -17.155 -25.662 -12.202  1.00  0.00     0.236 C 
HETATM   28  O3  UNL     1     -17.936 -25.271 -13.099  1.00  0.00    -0.272 OA
ATOM     29  H2  UNL     1     -15.980 -27.260 -11.589  1.00  0.00     0.162 HD
BRANCH  27  30
HETATM   30  C16 UNL     1     -16.834 -24.792 -11.083  1.00  0.00     0.126 C 
HETATM   31  C22 UNL     1     -16.214 -25.517  -9.897  1.00  0.00     0.029 C 
HETATM   32  C23 UNL     1     -15.422 -24.502  -9.131  1.00  0.00     0.002 C 
HETATM   33  C24 UNL     1     -15.631 -23.226  -9.864  1.00  0.00     0.007 C 
HETATM   34  C25 UNL     1     -16.065 -23.568 -11.296  1.00  0.00     0.020 C 
BRANCH  30  35
HETATM   35  C17 UNL     1     -18.196 -24.346 -10.562  1.00  0.00     0.236 C 
HETATM   36  O4  UNL     1     -18.716 -24.964  -9.619  1.00  0.00    -0.272 OA
HETATM   37  N3  UNL     1     -18.857 -23.238 -11.149  1.00  0.00    -0.351 N 
ATOM     38  H3  UNL     1     -18.404 -22.749 -11.922  1.00  0.00     0.163 HD
BRANCH  37  39
HETATM   39  C18 UNL     1     -20.147 -22.775 -10.694  1.00  0.00     0.029 A 
HETATM   40  C19 UNL     1     -21.289 -23.654 -11.196  1.00  0.00     0.038 C 
HETATM   41  C20 UNL     1     -20.317 -22.054  -9.418  1.00  0.00     0.033 A 
HETATM   42  C21 UNL     1     -20.399 -21.291 -10.725  1.00  0.00     0.033 A 
ENDBRANCH  37  39
ENDBRANCH  30  35
BRANCH  34  43
HETATM   43  C26 UNL     1     -14.972 -23.452 -12.263  1.00  0.00    -0.046 C 
HETATM   44  C27 UNL     1     -14.155 -24.632 -12.602  1.00  0.00     0.015 C 
HETATM   45  C28 UNL     1     -15.422 -22.790 -13.566  1.00  0.00     0.015 C 
HETATM   46  C29 UNL     1     -13.982 -22.422 -11.651  1.00  0.00     0.015 C 
ENDBRANCH  34  43
ENDBRANCH  27  30
ENDBRANCH   3  26
TORSDOF 11
ENDMDL
MODEL 2
REMARK VINA RESULT: -7.023490671      1.759      3.384
REMARK  11 active torsions:
REMARK  status: ('A' for Active; 'I' for Inactive)
REMARK    1  A    between atoms: C2_2  and  O1_3 
REMARK    2  A    between atoms: O1_3  and  C3_4 
REMARK    3  A    between atoms: C6_7  and  C7_8 
REMARK    4  A    between atoms: C9_10  and  C10_11 
REMARK       I    between atoms: C10_11  and  N1_13 
REMARK    5  A    between atoms: N1_13  and  C12_15 
REMARK    6  A    between atoms: C14_17  and  N2_18 
REMARK       I    between atoms: N2_18  and  C15_20 
REMARK    7  A    between atoms: C15_20  and  C16_22 
REMARK    8  A    between atoms: C16_22  and  C17_23 
REMARK       I    between atoms: C17_23  and  N3_25 
REMARK    9  A    between atoms: N3_25  and  C18_27 
REMARK   10  A    between atoms: C25_34  and  C26_35 
REMARK   11  A    between atoms: C31_40  and  C32_41 
ROOT
HETATM    1  C12 UNL     1     -14.891 -29.643 -14.053  1.00  0.00     0.090 C 
HETATM    2  C13 UNL     1     -15.504 -28.349 -14.483  1.00  0.00     0.050 C 
HETATM    3  C14 UNL     1     -16.636 -28.551 -13.497  1.00  0.00     0.088 C 
HETATM    4  C30 UNL     1     -16.196 -29.969 -13.345  1.00  0.00     0.050 C 
ENDROOT
BRANCH   1   5
HETATM    5  N1  UNL     1     -14.496 -30.569 -15.066  1.00  0.00    -0.351 N 
HETATM    6  C10 UNL     1     -13.293 -31.314 -15.047  1.00  0.00     0.224 C 
HETATM    7  O2  UNL     1     -12.520 -31.164 -14.071  1.00  0.00    -0.273 OA
HETATM    8  C11 UNL     1     -15.388 -30.771 -16.217  1.00  0.00     0.153 C 
BRANCH   6   9
HETATM    9  C9  UNL     1     -12.917 -32.245 -16.111  1.00  0.00     0.087 A 
HETATM   10  C7  UNL     1     -12.008 -33.376 -15.972  1.00  0.00     0.033 A 
HETATM   11  C8  UNL     1     -13.488 -33.651 -15.885  1.00  0.00     0.025 A 
BRANCH  10  12
HETATM   12  C6  UNL     1     -11.298 -33.936 -17.138  1.00  0.00    -0.037 A 
HETATM   13  C5  UNL     1     -11.300 -33.299 -18.369  1.00  0.00     0.011 A 
HETATM   14  C4  UNL     1     -10.654 -33.793 -19.487  1.00  0.00     0.038 A 
HETATM   15  C3  UNL     1      -9.968 -34.966 -19.405  1.00  0.00     0.075 A 
HETATM   16  C33 UNL     1      -9.933 -35.652 -18.183  1.00  0.00    -0.013 A 
HETATM   17  C31 UNL     1     -10.587 -35.147 -17.061  1.00  0.00     0.063 A 
HETATM   18  C34 UNL     1      -9.181 -36.912 -18.146  1.00  0.00     0.052 C 
BRANCH  15  19
HETATM   19  O1  UNL     1      -9.311 -35.483 -20.512  1.00  0.00    -0.351 OA
BRANCH  19  20
HETATM   20  C2  UNL     1      -9.890 -35.617 -21.772  1.00  0.00     0.171 C 
HETATM   21  C1  UNL     1     -10.901 -36.762 -21.743  1.00  0.00     0.034 C 
ENDBRANCH  19  20
ENDBRANCH  15  19
BRANCH  17  22
HETATM   22  C32 UNL     1     -10.584 -35.829 -15.751  1.00  0.00     0.418 C 
HETATM   23  F1  UNL     1      -9.603 -36.792 -15.676  1.00  0.00    -0.166 F 
HETATM   24  F2  UNL     1     -11.776 -36.498 -15.485  1.00  0.00    -0.166 F 
HETATM   25  F3  UNL     1     -10.271 -34.939 -14.708  1.00  0.00    -0.166 F 
ENDBRANCH  17  22
ENDBRANCH  10  12
ENDBRANCH   6   9
ENDBRANCH   1   5
BRANCH   3  26
HETATM   26  N2  UNL     1     -16.452 -27.799 -12.249  1.00  0.00    -0.355 N 
HETATM   27  C15 UNL     1     -17.483 -27.167 -11.559  1.00  0.00     0.236 C 
HETATM   28  O3  UNL     1     -18.640 -27.250 -12.031  1.00  0.00    -0.272 OA
ATOM     29  H2  UNL     1     -15.509 -27.735 -11.864  1.00  0.00     0.162 HD
BRANCH  27  30
HETATM   30  C16 UNL     1     -17.245 -26.425 -10.332  1.00  0.00     0.126 C 
HETATM   31  C22 UNL     1     -18.314 -25.389 -10.021  1.00  0.00     0.029 C 
HETATM   32  C23 UNL     1     -18.281 -25.160  -8.540  1.00  0.00     0.002 C 
HETATM   33  C24 UNL     1     -17.184 -26.030  -8.046  1.00  0.00     0.007 C 
HETATM   34  C25 UNL     1     -16.947 -27.133  -9.088  1.00  0.00     0.020 C 
BRANCH  30  35
HETATM   35  C17 UNL     1     -16.009 -25.588 -10.643  1.00  0.00     0.236 C 
HETATM   36  O4  UNL     1     -14.887 -26.033 -10.351  1.00  0.00    -0.272 OA
HETATM   37  N3  UNL     1     -16.143 -24.319 -11.260  1.00  0.00    -0.351 N 
ATOM     38  H3  UNL     1     -17.078 -23.980 -11.489  1.00  0.00     0.163 HD
BRANCH  37  39
HETATM   39  C18 UNL     1     -15.006 -23.486 -11.575  1.00  0.00     0.029 A 
HETATM   40  C19 UNL     1     -14.568 -22.629 -10.391  1.00  0.00     0.038 C 
HETATM   41  C20 UNL     1     -13.994 -23.885 -12.573  1.00  0.00     0.033 A 
HETATM   42  C21 UNL     1     -15.000 -22.803 -12.917  1.00  0.00     0.033 A 
ENDBRANCH  37  39
ENDBRANCH  30  35
BRANCH  34  43
HETATM   43  C26 UNL     1     -17.558 -28.409  -8.713  1.00  0.00    -0.046 C 
HETATM   44  C27 UNL     1     -18.988 -28.652  -8.976  1.00  0.00     0.015 C 
HETATM   45  C28 UNL     1     -16.764 -29.605  -9.240  1.00  0.00     0.015 C 
HETATM   46  C29 UNL     1     -17.394 -28.511  -7.171  1.00  0.00     0.015 C 
ENDBRANCH  34  43
ENDBRANCH  27  30
ENDBRANCH   3  26
TORSDOF 11
ENDMDL
MODEL 3
REMARK VINA RESULT: -6.961037949      6.110     14.386
REMARK  11 active torsions:
REMARK  status: ('A' for Active; 'I' for Inactive)
REMARK    1  A    between atoms: C2_2  and  O1_3 
REMARK    2  A    between atoms: O1_3  and  C3_4 
REMARK    3  A    between atoms: C6_7  and  C7_8 
REMARK    4  A    between atoms: C9_10  and  C10_11 
REMARK       I    between atoms: C10_11  and  N1_13 
REMARK    5  A    between atoms: N1_13  and  C12_15 
REMARK    6  A    between atoms: C14_17  and  N2_18 
REMARK       I    between atoms: N2_18  and  C15_20 
REMARK    7  A    between atoms: C15_20  and  C16_22 
REMARK    8  A    between atoms: C16_22  and  C17_23 
REMARK       I    between atoms: C17_23  and  N3_25 
REMARK    9  A    between atoms: N3_25  and  C18_27 
REMARK   10  A    between atoms: C25_34  and  C26_35 
REMARK   11  A    between atoms: C31_40  and  C32_41 
ROOT
HETATM    1  C12 UNL     1     -16.383 -25.548 -10.535  1.00  0.00     0.090 C 
HETATM    2  C13 UNL     1     -16.432 -25.295 -12.007  1.00  0.00     0.050 C 
HETATM    3  C14 UNL     1     -15.448 -26.422 -12.240  1.00  0.00     0.088 C 
HETATM    4  C30 UNL     1     -15.161 -26.419 -10.775  1.00  0.00     0.050 C 
ENDROOT
BRANCH   1   5
HETATM    5  N1  UNL     1     -16.178 -24.431  -9.667  1.00  0.00    -0.351 N 
HETATM    6  C10 UNL     1     -17.166 -23.889  -8.810  1.00  0.00     0.224 C 
HETATM    7  O2  UNL     1     -18.299 -24.427  -8.799  1.00  0.00    -0.273 OA
HETATM    8  C11 UNL     1     -14.857 -23.787  -9.654  1.00  0.00     0.153 C 
BRANCH   6   9
HETATM    9  C9  UNL     1     -16.922 -22.735  -7.945  1.00  0.00     0.087 A 
HETATM   10  C7  UNL     1     -17.941 -21.843  -7.408  1.00  0.00     0.033 A 
HETATM   11  C8  UNL     1     -17.445 -22.955  -6.519  1.00  0.00     0.025 A 
BRANCH  10  12
HETATM   12  C6  UNL     1     -17.611 -20.466  -6.992  1.00  0.00    -0.037 A 
HETATM   13  C5  UNL     1     -16.329 -19.953  -7.115  1.00  0.00     0.011 A 
HETATM   14  C4  UNL     1     -15.977 -18.673  -6.732  1.00  0.00     0.038 A 
HETATM   15  C3  UNL     1     -16.919 -17.846  -6.201  1.00  0.00     0.075 A 
HETATM   16  C33 UNL     1     -18.233 -18.313  -6.054  1.00  0.00    -0.013 A 
HETATM   17  C31 UNL     1     -18.579 -19.605  -6.444  1.00  0.00     0.063 A 
HETATM   18  C34 UNL     1     -19.212 -17.384  -5.477  1.00  0.00     0.052 C 
BRANCH  15  19
HETATM   19  O1  UNL     1     -16.592 -16.556  -5.808  1.00  0.00    -0.351 OA
BRANCH  19  20
HETATM   20  C2  UNL     1     -15.696 -16.254  -4.785  1.00  0.00     0.171 C 
HETATM   21  C1  UNL     1     -14.995 -14.934  -5.102  1.00  0.00     0.034 C 
ENDBRANCH  19  20
ENDBRANCH  15  19
BRANCH  17  22
HETATM   22  C32 UNL     1     -19.946 -20.149  -6.308  1.00  0.00     0.418 C 
HETATM   23  F1  UNL     1     -20.856 -19.173  -5.973  1.00  0.00    -0.166 F 
HETATM   24  F2  UNL     1     -20.051 -21.108  -5.305  1.00  0.00    -0.166 F 
HETATM   25  F3  UNL     1     -20.421 -20.656  -7.531  1.00  0.00    -0.166 F 
ENDBRANCH  17  22
ENDBRANCH  10  12
ENDBRANCH   6   9
ENDBRANCH   1   5
BRANCH   3  26
HETATM   26  N2  UNL     1     -16.096 -27.674 -12.653  1.00  0.00    -0.355 N 
HETATM   27  C15 UNL     1     -15.643 -28.481 -13.693  1.00  0.00     0.236 C 
HETATM   28  O3  UNL     1     -14.615 -28.118 -14.310  1.00  0.00    -0.272 OA
ATOM     29  H2  UNL     1     -16.930 -27.970 -12.146  1.00  0.00     0.162 HD
BRANCH  27  30
HETATM   30  C16 UNL     1     -16.327 -29.706 -14.069  1.00  0.00     0.126 C 
HETATM   31  C22 UNL     1     -17.284 -30.228 -13.008  1.00  0.00     0.029 C 
HETATM   32  C23 UNL     1     -18.303 -31.070 -13.715  1.00  0.00     0.002 C 
HETATM   33  C24 UNL     1     -17.892 -31.042 -15.143  1.00  0.00     0.007 C 
HETATM   34  C25 UNL     1     -17.009 -29.805 -15.358  1.00  0.00     0.020 C 
BRANCH  30  35
HETATM   35  C17 UNL     1     -15.218 -30.751 -14.101  1.00  0.00     0.236 C 
HETATM   36  O4  UNL     1     -15.047 -31.483 -13.112  1.00  0.00    -0.272 OA
HETATM   37  N3  UNL     1     -14.395 -30.884 -15.247  1.00  0.00    -0.351 N 
ATOM     38  H3  UNL     1     -14.560 -30.270 -16.045  1.00  0.00     0.163 HD
BRANCH  37  39
HETATM   39  C18 UNL     1     -13.331 -31.858 -15.329  1.00  0.00     0.029 A 
HETATM   40  C19 UNL     1     -12.047 -31.371 -14.662  1.00  0.00     0.038 C 
HETATM   41  C20 UNL     1     -13.596 -33.308 -15.380  1.00  0.00     0.033 A 
HETATM   42  C21 UNL     1     -13.156 -32.583 -16.637  1.00  0.00     0.033 A 
ENDBRANCH  37  39
ENDBRANCH  30  35
BRANCH  34  43
HETATM   43  C26 UNL     1     -17.730 -28.695 -15.983  1.00  0.00    -0.046 C 
HETATM   44  C27 UNL     1     -18.313 -27.627 -15.150  1.00  0.00     0.015 C 
HETATM   45  C28 UNL     1     -16.922 -28.040 -17.104  1.00  0.00     0.015 C 
HETATM   46  C29 UNL     1     -18.930 -29.345 -16.728  1.00  0.00     0.015 C 
ENDBRANCH  34  43
ENDBRANCH  27  30
ENDBRANCH   3  26
TORSDOF 11
ENDMDL
MODEL 4
REMARK VINA RESULT: -6.959825092      2.313      3.424
REMARK  11 active torsions:
REMARK  status: ('A' for Active; 'I' for Inactive)
REMARK    1  A    between atoms: C2_2  and  O1_3 
REMARK    2  A    between atoms: O1_3  and  C3_4 
REMARK    3  A    between atoms: C6_7  and  C7_8 
REMARK    4  A    between atoms: C9_10  and  C10_11 
REMARK       I    between atoms: C10_11  and  N1_13 
REMARK    5  A    between atoms: N1_13  and  C12_15 
REMARK    6  A    between atoms: C14_17  and  N2_18 
REMARK       I    between atoms: N2_18  and  C15_20 
REMARK    7  A    between atoms: C15_20  and  C16_22 
REMARK    8  A    between atoms: C16_22  and  C17_23 
REMARK       I    between atoms: C17_23  and  N3_25 
REMARK    9  A    between atoms: N3_25  and  C18_27 
REMARK   10  A    between atoms: C25_34  and  C26_35 
REMARK   11  A    between atoms: C31_40  and  C32_41 
ROOT
HETATM    1  C12 UNL     1     -14.520 -29.469 -14.755  1.00  0.00     0.090 C 
HETATM    2  C13 UNL     1     -15.408 -28.507 -15.478  1.00  0.00     0.050 C 
HETATM    3  C14 UNL     1     -16.257 -28.347 -14.234  1.00  0.00     0.088 C 
HETATM    4  C30 UNL     1     -15.575 -29.546 -13.664  1.00  0.00     0.050 C 
ENDROOT
BRANCH   1   5
HETATM    5  N1  UNL     1     -14.209 -30.707 -15.395  1.00  0.00    -0.351 N 
HETATM    6  C10 UNL     1     -12.917 -31.286 -15.438  1.00  0.00     0.224 C 
HETATM    7  O2  UNL     1     -11.979 -30.680 -14.868  1.00  0.00    -0.273 OA
HETATM    8  C11 UNL     1     -15.292 -31.443 -16.063  1.00  0.00     0.153 C 
BRANCH   6   9
HETATM    9  C9  UNL     1     -12.635 -32.552 -16.115  1.00  0.00     0.087 A 
HETATM   10  C7  UNL     1     -11.580 -32.776 -17.095  1.00  0.00     0.033 A 
HETATM   11  C8  UNL     1     -11.303 -33.169 -15.666  1.00  0.00     0.025 A 
BRANCH  10  12
HETATM   12  C6  UNL     1     -11.669 -33.874 -18.077  1.00  0.00    -0.037 A 
HETATM   13  C5  UNL     1     -12.514 -34.956 -17.889  1.00  0.00     0.011 A 
HETATM   14  C4  UNL     1     -12.622 -36.007 -18.780  1.00  0.00     0.038 A 
HETATM   15  C3  UNL     1     -11.870 -36.007 -19.915  1.00  0.00     0.075 A 
HETATM   16  C33 UNL     1     -10.998 -34.936 -20.156  1.00  0.00    -0.013 A 
HETATM   17  C31 UNL     1     -10.896 -33.880 -19.252  1.00  0.00     0.063 A 
HETATM   18  C34 UNL     1     -10.209 -34.983 -21.393  1.00  0.00     0.052 C 
BRANCH  15  19
HETATM   19  O1  UNL     1     -11.959 -37.050 -20.826  1.00  0.00    -0.351 OA
BRANCH  19  20
HETATM   20  C2  UNL     1     -11.033 -38.087 -20.920  1.00  0.00     0.171 C 
HETATM   21  C1  UNL     1     -10.231 -38.165 -19.621  1.00  0.00     0.034 C 
ENDBRANCH  19  20
ENDBRANCH  15  19
BRANCH  17  22
HETATM   22  C32 UNL     1      -9.992 -32.730 -19.455  1.00  0.00     0.418 C 
HETATM   23  F1  UNL     1     -10.212 -31.735 -18.531  1.00  0.00    -0.166 F 
HETATM   24  F2  UNL     1     -10.159 -32.121 -20.696  1.00  0.00    -0.166 F 
HETATM   25  F3  UNL     1      -8.648 -33.091 -19.257  1.00  0.00    -0.166 F 
ENDBRANCH  17  22
ENDBRANCH  10  12
ENDBRANCH   6   9
ENDBRANCH   1   5
BRANCH   3  26
HETATM   26  N2  UNL     1     -15.932 -27.136 -13.470  1.00  0.00    -0.355 N 
HETATM   27  C15 UNL     1     -16.743 -26.602 -12.472  1.00  0.00     0.236 C 
HETATM   28  O3  UNL     1     -17.813 -27.196 -12.207  1.00  0.00    -0.272 OA
ATOM     29  H2  UNL     1     -15.058 -26.655 -13.684  1.00  0.00     0.162 HD
BRANCH  27  30
HETATM   30  C16 UNL     1     -16.380 -25.393 -11.752  1.00  0.00     0.126 C 
HETATM   31  C22 UNL     1     -15.035 -24.813 -12.160  1.00  0.00     0.029 C 
HETATM   32  C23 UNL     1     -15.070 -23.353 -11.823  1.00  0.00     0.002 C 
HETATM   33  C24 UNL     1     -16.403 -23.138 -11.204  1.00  0.00     0.007 C 
HETATM   34  C25 UNL     1     -17.324 -24.281 -11.653  1.00  0.00     0.020 C 
BRANCH  30  35
HETATM   35  C17 UNL     1     -16.149 -25.873 -10.323  1.00  0.00     0.236 C 
HETATM   36  O4  UNL     1     -14.997 -26.163  -9.961  1.00  0.00    -0.272 OA
HETATM   37  N3  UNL     1     -17.237 -25.982  -9.421  1.00  0.00    -0.351 N 
ATOM     38  H3  UNL     1     -18.171 -25.735  -9.747  1.00  0.00     0.163 HD
BRANCH  37  39
HETATM   39  C18 UNL     1     -17.072 -26.431  -8.058  1.00  0.00     0.029 A 
HETATM   40  C19 UNL     1     -17.169 -27.949  -7.931  1.00  0.00     0.038 C 
HETATM   41  C20 UNL     1     -16.250 -25.690  -7.082  1.00  0.00     0.033 A 
HETATM   42  C21 UNL     1     -17.763 -25.637  -6.981  1.00  0.00     0.033 A 
ENDBRANCH  37  39
ENDBRANCH  30  35
BRANCH  34  43
HETATM   43  C26 UNL     1     -18.231 -23.887 -12.733  1.00  0.00    -0.046 C 
HETATM   44  C27 UNL     1     -17.817 -24.035 -14.140  1.00  0.00     0.015 C 
HETATM   45  C28 UNL     1     -19.620 -24.509 -12.574  1.00  0.00     0.015 C 
HETATM   46  C29 UNL     1     -18.485 -22.368 -12.530  1.00  0.00     0.015 C 
ENDBRANCH  34  43
ENDBRANCH  27  30
ENDBRANCH   3  26
TORSDOF 11
ENDMDL
MODEL 5
REMARK VINA RESULT: -6.849184573      1.504      3.520
REMARK  11 active torsions:
REMARK  status: ('A' for Active; 'I' for Inactive)
REMARK    1  A    between atoms: C2_2  and  O1_3 
REMARK    2  A    between atoms: O1_3  and  C3_4 
REMARK    3  A    between atoms: C6_7  and  C7_8 
REMARK    4  A    between atoms: C9_10  and  C10_11 
REMARK       I    between atoms: C10_11  and  N1_13 
REMARK    5  A    between atoms: N1_13  and  C12_15 
REMARK    6  A    between atoms: C14_17  and  N2_18 
REMARK       I    between atoms: N2_18  and  C15_20 
REMARK    7  A    between atoms: C15_20  and  C16_22 
REMARK    8  A    between atoms: C16_22  and  C17_23 
REMARK       I    between atoms: C17_23  and  N3_25 
REMARK    9  A    between atoms: N3_25  and  C18_27 
REMARK   10  A    between atoms: C25_34  and  C26_35 
REMARK   11  A    between atoms: C31_40  and  C32_41 
ROOT
HETATM    1  C12 UNL     1     -16.440 -28.612 -14.409  1.00  0.00     0.090 C 
HETATM    2  C13 UNL     1     -16.841 -27.462 -15.276  1.00  0.00     0.050 C 
HETATM    3  C14 UNL     1     -18.159 -27.358 -14.538  1.00  0.00     0.088 C 
HETATM    4  C30 UNL     1     -17.882 -28.697 -13.938  1.00  0.00     0.050 C 
ENDROOT
BRANCH   1   5
HETATM    5  N1  UNL     1     -15.933 -29.787 -15.044  1.00  0.00    -0.351 N 
HETATM    6  C10 UNL     1     -14.635 -30.314 -14.838  1.00  0.00     0.224 C 
HETATM    7  O2  UNL     1     -13.875 -29.718 -14.037  1.00  0.00    -0.273 OA
HETATM    8  C11 UNL     1     -16.805 -30.510 -15.981  1.00  0.00     0.153 C 
BRANCH   6   9
HETATM    9  C9  UNL     1     -14.146 -31.514 -15.517  1.00  0.00     0.087 A 
HETATM   10  C7  UNL     1     -13.037 -32.350 -15.077  1.00  0.00     0.033 A 
HETATM   11  C8  UNL     1     -14.433 -32.793 -14.719  1.00  0.00     0.025 A 
BRANCH  10  12
HETATM   12  C6  UNL     1     -12.295 -33.202 -16.026  1.00  0.00    -0.037 A 
HETATM   13  C5  UNL     1     -12.443 -33.066 -17.398  1.00  0.00     0.011 A 
HETATM   14  C4  UNL     1     -11.773 -33.847 -18.320  1.00  0.00     0.038 A 
HETATM   15  C3  UNL     1     -10.913 -34.810 -17.889  1.00  0.00     0.075 A 
HETATM   16  C33 UNL     1     -10.725 -34.991 -16.512  1.00  0.00    -0.013 A 
HETATM   17  C31 UNL     1     -11.405 -34.198 -15.588  1.00  0.00     0.063 A 
HETATM   18  C34 UNL     1      -9.788 -36.042 -16.097  1.00  0.00     0.052 C 
BRANCH  15  19
HETATM   19  O1  UNL     1     -10.228 -35.608 -18.795  1.00  0.00    -0.351 OA
BRANCH  19  20
HETATM   20  C2  UNL     1      -9.787 -35.172 -20.043  1.00  0.00     0.171 C 
HETATM   21  C1  UNL     1      -9.388 -36.382 -20.886  1.00  0.00     0.034 C 
ENDBRANCH  19  20
ENDBRANCH  15  19
BRANCH  17  22
HETATM   22  C32 UNL     1     -11.247 -34.348 -14.127  1.00  0.00     0.418 C 
HETATM   23  F1  UNL     1     -10.168 -35.139 -13.806  1.00  0.00    -0.166 F 
HETATM   24  F2  UNL     1     -12.342 -34.958 -13.523  1.00  0.00    -0.166 F 
HETATM   25  F3  UNL     1     -10.963 -33.115 -13.512  1.00  0.00    -0.166 F 
ENDBRANCH  17  22
ENDBRANCH  10  12
ENDBRANCH   6   9
ENDBRANCH   1   5
BRANCH   3  26
HETATM   26  N2  UNL     1     -18.162 -26.306 -13.513  1.00  0.00    -0.355 N 
HETATM   27  C15 UNL     1     -18.599 -25.003 -13.734  1.00  0.00     0.236 C 
HETATM   28  O3  UNL     1     -19.021 -24.713 -14.877  1.00  0.00    -0.272 OA
ATOM     29  H2  UNL     1     -17.823 -26.545 -12.582  1.00  0.00     0.162 HD
BRANCH  27  30
HETATM   30  C16 UNL     1     -18.572 -23.995 -12.687  1.00  0.00     0.126 C 
HETATM   31  C22 UNL     1     -18.686 -22.568 -13.202  1.00  0.00     0.029 C 
HETATM   32  C23 UNL     1     -19.233 -21.742 -12.078  1.00  0.00     0.002 C 
HETATM   33  C24 UNL     1     -19.383 -22.693 -10.947  1.00  0.00     0.007 C 
HETATM   34  C25 UNL     1     -19.452 -24.112 -11.527  1.00  0.00     0.020 C 
BRANCH  30  35
HETATM   35  C17 UNL     1     -17.149 -24.070 -12.143  1.00  0.00     0.236 C 
HETATM   36  O4  UNL     1     -16.838 -25.008 -11.390  1.00  0.00    -0.272 OA
HETATM   37  N3  UNL     1     -16.196 -23.082 -12.495  1.00  0.00    -0.351 N 
ATOM     38  H3  UNL     1     -16.481 -22.325 -13.116  1.00  0.00     0.163 HD
BRANCH  37  39
HETATM   39  C18 UNL     1     -14.837 -23.107 -12.007  1.00  0.00     0.029 A 
HETATM   40  C19 UNL     1     -14.750 -22.788 -10.517  1.00  0.00     0.038 C 
HETATM   41  C20 UNL     1     -13.804 -23.972 -12.608  1.00  0.00     0.033 A 
HETATM   42  C21 UNL     1     -13.779 -22.479 -12.875  1.00  0.00     0.033 A 
ENDBRANCH  37  39
ENDBRANCH  30  35
BRANCH  34  43
HETATM   43  C26 UNL     1     -20.819 -24.633 -11.592  1.00  0.00    -0.046 C 
HETATM   44  C27 UNL     1     -21.666 -24.344 -12.764  1.00  0.00     0.015 C 
HETATM   45  C28 UNL     1     -20.877 -26.136 -11.318  1.00  0.00     0.015 C 
HETATM   46  C29 UNL     1     -21.561 -24.010 -10.377  1.00  0.00     0.015 C 
ENDBRANCH  34  43
ENDBRANCH  27  30
ENDBRANCH   3  26
TORSDOF 11
ENDMDL
