MODEL 1
REMARK VINA RESULT: -8.687717829      0.000      0.000
REMARK  11 active torsions:
REMARK  status: ('A' for Active; 'I' for Inactive)
REMARK    1  A    between atoms: C2_2  and  C5_5 
REMARK    2  A    between atoms: C6_8  and  C7_9 
REMARK    3  A    between atoms: C9_14  and  C10_15 
REMARK       I    between atoms: C10_15  and  N2_17 
REMARK    4  A    between atoms: N2_17  and  C11_19 
REMARK    5  A    between atoms: C11_19  and  C12_20 
REMARK    6  A    between atoms: C12_20  and  C13_21 
REMARK    7  A    between atoms: C13_21  and  N3_22 
REMARK    8  A    between atoms: N4_25  and  C16_26 
REMARK    9  A    between atoms: C16_26  and  C17_27 
REMARK   10  A    between atoms: C17_27  and  N5_28 
REMARK   11  A    between atoms: C25_36  and  C26_37 
ROOT
HETATM    1  N3  UNL     1     -16.501 -29.601  -8.933  1.00  0.00     0.091 N 
HETATM    2  C14 UNL     1     -17.153 -30.751  -8.285  1.00  0.00     0.302 C 
HETATM    3  C15 UNL     1     -17.614 -31.650  -9.415  1.00  0.00     0.302 C 
HETATM    4  N4  UNL     1     -18.883 -31.124  -9.890  1.00  0.00     0.093 N 
HETATM    5  C34 UNL     1     -18.762 -29.665  -9.858  1.00  0.00     0.302 C 
HETATM    6  C35 UNL     1     -17.331 -29.235 -10.101  1.00  0.00     0.302 C 
ENDROOT
BRANCH   1   7
HETATM    7  C13 UNL     1     -16.435 -28.470  -8.026  1.00  0.00     0.274 C 
BRANCH   7   8
HETATM    8  C12 UNL     1     -15.340 -27.544  -8.482  1.00  0.00     0.050 C 
BRANCH   8   9
HETATM    9  C11 UNL     1     -15.833 -26.106  -8.536  1.00  0.00     0.124 C 
BRANCH   9  10
HETATM   10  N2  UNL     1     -15.277 -25.404  -9.677  1.00  0.00    -0.357 N 
HETATM   11  C10 UNL     1     -15.280 -24.000  -9.787  1.00  0.00     0.253 C 
HETATM   12  O1  UNL     1     -15.793 -23.312  -8.889  1.00  0.00    -0.268 OA
ATOM     13  H2  UNL     1     -14.866 -25.951 -10.433  1.00  0.00     0.162 HD
BRANCH  11  14
HETATM   14  C9  UNL     1     -14.693 -23.365 -10.947  1.00  0.00     0.057 A 
HETATM   15  C5  UNL     1     -15.259 -23.120 -12.161  1.00  0.00     0.033 A 
HETATM   16  N1  UNL     1     -14.373 -22.416 -12.916  1.00  0.00    -0.354 N 
HETATM   17  C6  UNL     1     -13.252 -22.207 -12.217  1.00  0.00     0.117 A 
ATOM     18  H1  UNL     1     -14.538 -22.098 -13.870  1.00  0.00     0.166 HD
HETATM   19  C8  UNL     1     -13.409 -22.785 -10.980  1.00  0.00     0.053 A 
BRANCH  15  20
HETATM   20  C2  UNL     1     -16.565 -23.573 -12.673  1.00  0.00    -0.008 C 
HETATM   21  C1  UNL     1     -17.747 -23.262 -11.829  1.00  0.00     0.021 C 
HETATM   22  C3  UNL     1     -16.818 -22.855 -14.017  1.00  0.00     0.021 C 
HETATM   23  C4  UNL     1     -16.520 -25.054 -13.034  1.00  0.00     0.021 C 
ENDBRANCH  15  20
BRANCH  17  24
HETATM   24  C7  UNL     1     -12.013 -21.468 -12.654  1.00  0.00     0.432 C 
HETATM   25  F1  UNL     1     -10.923 -22.019 -12.043  1.00  0.00    -0.165 F 
HETATM   26  F2  UNL     1     -12.237 -20.147 -12.294  1.00  0.00    -0.165 F 
HETATM   27  F3  UNL     1     -11.948 -21.617 -14.034  1.00  0.00    -0.165 F 
ENDBRANCH  17  24
ENDBRANCH  11  14
ENDBRANCH   9  10
ENDBRANCH   8   9
ENDBRANCH   7   8
ENDBRANCH   1   7
BRANCH   4  28
HETATM   28  C16 UNL     1     -19.152 -31.556 -11.272  1.00  0.00     0.302 C 
BRANCH  28  29
HETATM   29  C17 UNL     1     -18.278 -32.733 -11.548  1.00  0.00     0.302 C 
BRANCH  29  30
HETATM   30  N5  UNL     1     -17.790 -32.760 -12.913  1.00  0.00     0.090 N 
HETATM   31  C18 UNL     1     -18.639 -32.013 -13.817  1.00  0.00     0.273 C 
HETATM   32  C19 UNL     1     -17.844 -31.775 -15.084  1.00  0.00     0.040 C 
HETATM   33  C20 UNL     1     -16.978 -30.536 -14.813  1.00  0.00    -0.029 C 
HETATM   34  C21 UNL     1     -17.988 -29.379 -14.976  1.00  0.00     0.010 C 
HETATM   35  C25 UNL     1     -15.944 -30.330 -15.840  1.00  0.00     0.027 C 
HETATM   36  C32 UNL     1     -16.561 -30.660 -13.390  1.00  0.00     0.040 C 
HETATM   37  C22 UNL     1     -18.216 -29.071 -16.440  1.00  0.00     0.001 C 
HETATM   38  C23 UNL     1     -17.003 -28.319 -16.925  1.00  0.00     0.001 C 
HETATM   39  C24 UNL     1     -15.826 -28.867 -16.180  1.00  0.00     0.010 C 
HETATM   40  C33 UNL     1     -16.479 -32.122 -12.920  1.00  0.00     0.273 C 
BRANCH  35  41
HETATM   41  C26 UNL     1     -14.591 -30.866 -15.619  1.00  0.00    -0.053 A 
HETATM   42  C27 UNL     1     -13.618 -30.156 -14.958  1.00  0.00     0.007 A 
HETATM   43  C28 UNL     1     -12.395 -30.718 -14.745  1.00  0.00     0.001 A 
HETATM   44  C29 UNL     1     -12.063 -31.993 -15.165  1.00  0.00     0.000 A 
HETATM   45  C30 UNL     1     -13.053 -32.679 -15.823  1.00  0.00     0.001 A 
HETATM   46  C31 UNL     1     -14.287 -32.136 -16.048  1.00  0.00     0.007 A 
ENDBRANCH  35  41
ENDBRANCH  29  30
ENDBRANCH  28  29
ENDBRANCH   4  28
TORSDOF 11
ENDMDL
MODEL 2
REMARK VINA RESULT: -8.502490882      1.398      1.916
REMARK  11 active torsions:
REMARK  status: ('A' for Active; 'I' for Inactive)
REMARK    1  A    between atoms: C2_2  and  C5_5 
REMARK    2  A    between atoms: C6_8  and  C7_9 
REMARK    3  A    between atoms: C9_14  and  C10_15 
REMARK       I    between atoms: C10_15  and  N2_17 
REMARK    4  A    between atoms: N2_17  and  C11_19 
REMARK    5  A    between atoms: C11_19  and  C12_20 
REMARK    6  A    between atoms: C12_20  and  C13_21 
REMARK    7  A    between atoms: C13_21  and  N3_22 
REMARK    8  A    between atoms: N4_25  and  C16_26 
REMARK    9  A    between atoms: C16_26  and  C17_27 
REMARK   10  A    between atoms: C17_27  and  N5_28 
REMARK   11  A    between atoms: C25_36  and  C26_37 
ROOT
HETATM    1  N3  UNL     1     -16.781 -31.095  -8.818  1.00  0.00     0.091 N 
HETATM    2  C14 UNL     1     -17.606 -32.218  -8.347  1.00  0.00     0.302 C 
HETATM    3  C15 UNL     1     -18.018 -32.975  -9.594  1.00  0.00     0.302 C 
HETATM    4  N4  UNL     1     -19.170 -32.287 -10.152  1.00  0.00     0.093 N 
HETATM    5  C34 UNL     1     -18.919 -30.855  -9.978  1.00  0.00     0.302 C 
HETATM    6  C35 UNL     1     -17.435 -30.556 -10.030  1.00  0.00     0.302 C 
ENDROOT
BRANCH   1   7
HETATM    7  C13 UNL     1     -16.714 -30.051  -7.812  1.00  0.00     0.274 C 
BRANCH   7   8
HETATM    8  C12 UNL     1     -15.348 -29.421  -7.855  1.00  0.00     0.050 C 
BRANCH   8   9
HETATM    9  C11 UNL     1     -15.440 -27.911  -7.695  1.00  0.00     0.124 C 
BRANCH   9  10
HETATM   10  N2  UNL     1     -15.183 -27.235  -8.952  1.00  0.00    -0.357 N 
HETATM   11  C10 UNL     1     -15.798 -26.016  -9.303  1.00  0.00     0.253 C 
HETATM   12  O1  UNL     1     -16.613 -25.490  -8.527  1.00  0.00    -0.268 OA
ATOM     13  H2  UNL     1     -14.530 -27.659  -9.610  1.00  0.00     0.162 HD
BRANCH  11  14
HETATM   14  C9  UNL     1     -15.483 -25.388 -10.567  1.00  0.00     0.057 A 
HETATM   15  C5  UNL     1     -16.001 -25.648 -11.800  1.00  0.00     0.033 A 
HETATM   16  N1  UNL     1     -15.487 -24.751 -12.683  1.00  0.00    -0.354 N 
HETATM   17  C6  UNL     1     -14.650 -23.923 -12.048  1.00  0.00     0.117 A 
ATOM     18  H1  UNL     1     -15.706 -24.715 -13.678  1.00  0.00     0.166 HD
HETATM   19  C8  UNL     1     -14.617 -24.287 -10.723  1.00  0.00     0.053 A 
BRANCH  15  20
HETATM   20  C2  UNL     1     -16.903 -26.742 -12.204  1.00  0.00    -0.008 C 
HETATM   21  C1  UNL     1     -18.089 -26.970 -11.339  1.00  0.00     0.021 C 
HETATM   22  C3  UNL     1     -17.471 -26.393 -13.597  1.00  0.00     0.021 C 
HETATM   23  C4  UNL     1     -16.124 -28.034 -12.422  1.00  0.00     0.021 C 
ENDBRANCH  15  20
BRANCH  17  24
HETATM   24  C7  UNL     1     -13.865 -22.775 -12.629  1.00  0.00     0.432 C 
HETATM   25  F1  UNL     1     -12.636 -23.224 -13.020  1.00  0.00    -0.165 F 
HETATM   26  F2  UNL     1     -13.809 -21.829 -11.616  1.00  0.00    -0.165 F 
HETATM   27  F3  UNL     1     -14.604 -22.319 -13.714  1.00  0.00    -0.165 F 
ENDBRANCH  17  24
ENDBRANCH  11  14
ENDBRANCH   9  10
ENDBRANCH   8   9
ENDBRANCH   7   8
ENDBRANCH   1   7
BRANCH   4  28
HETATM   28  C16 UNL     1     -19.319 -32.580 -11.587  1.00  0.00     0.302 C 
BRANCH  28  29
HETATM   29  C17 UNL     1     -18.303 -33.616 -11.937  1.00  0.00     0.302 C 
BRANCH  29  30
HETATM   30  N5  UNL     1     -17.772 -33.448 -13.276  1.00  0.00     0.090 N 
HETATM   31  C18 UNL     1     -18.644 -32.660 -14.121  1.00  0.00     0.273 C 
HETATM   32  C19 UNL     1     -17.829 -32.220 -15.319  1.00  0.00     0.040 C 
HETATM   33  C20 UNL     1     -17.065 -30.964 -14.873  1.00  0.00    -0.029 C 
HETATM   34  C21 UNL     1     -18.152 -29.869 -14.942  1.00  0.00     0.010 C 
HETATM   35  C25 UNL     1     -16.017 -30.568 -15.826  1.00  0.00     0.027 C 
HETATM   36  C32 UNL     1     -16.686 -31.226 -13.458  1.00  0.00     0.040 C 
HETATM   37  C22 UNL     1     -18.355 -29.408 -16.369  1.00  0.00     0.001 C 
HETATM   38  C23 UNL     1     -17.186 -28.522 -16.715  1.00  0.00     0.001 C 
HETATM   39  C24 UNL     1     -15.996 -29.070 -15.991  1.00  0.00     0.010 C 
HETATM   40  C33 UNL     1     -16.511 -32.725 -13.157  1.00  0.00     0.273 C 
BRANCH  35  41
HETATM   41  C26 UNL     1     -14.636 -31.031 -15.615  1.00  0.00    -0.053 A 
HETATM   42  C27 UNL     1     -14.167 -32.210 -16.143  1.00  0.00     0.007 A 
HETATM   43  C28 UNL     1     -12.867 -32.570 -15.952  1.00  0.00     0.001 A 
HETATM   44  C29 UNL     1     -11.965 -31.801 -15.238  1.00  0.00     0.000 A 
HETATM   45  C30 UNL     1     -12.460 -30.631 -14.721  1.00  0.00     0.001 A 
HETATM   46  C31 UNL     1     -13.760 -30.248 -14.900  1.00  0.00     0.007 A 
ENDBRANCH  35  41
ENDBRANCH  29  30
ENDBRANCH  28  29
ENDBRANCH   4  28
TORSDOF 11
ENDMDL
MODEL 3
REMARK VINA RESULT: -8.409525331      1.313      1.833
REMARK  11 active torsions:
REMARK  status: ('A' for Active; 'I' for Inactive)
REMARK    1  A    between atoms: C2_2  and  C5_5 
REMARK    2  A    between atoms: C6_8  and  C7_9 
REMARK    3  A    between atoms: C9_14  and  C10_15 
REMARK       I    between atoms: C10_15  and  N2_17 
REMARK    4  A    between atoms: N2_17  and  C11_19 
REMARK    5  A    between atoms: C11_19  and  C12_20 
REMARK    6  A    between atoms: C12_20  and  C13_21 
REMARK    7  A    between atoms: C13_21  and  N3_22 
REMARK    8  A    between atoms: N4_25  and  C16_26 
REMARK    9  A    between atoms: C16_26  and  C17_27 
REMARK   10  A    between atoms: C17_27  and  N5_28 
REMARK   11  A    between atoms: C25_36  and  C26_37 
ROOT
HETATM    1  N3  UNL     1     -17.081 -29.578 -10.092  1.00  0.00     0.091 N 
HETATM    2  C14 UNL     1     -17.281 -30.654  -9.108  1.00  0.00     0.302 C 
HETATM    3  C15 UNL     1     -17.538 -31.908  -9.920  1.00  0.00     0.302 C 
HETATM    4  N4  UNL     1     -18.945 -31.901 -10.286  1.00  0.00     0.093 N 
HETATM    5  C34 UNL     1     -19.282 -30.511 -10.598  1.00  0.00     0.302 C 
HETATM    6  C35 UNL     1     -18.084 -29.777 -11.161  1.00  0.00     0.302 C 
ENDROOT
BRANCH   1   7
HETATM    7  C13 UNL     1     -17.291 -28.279  -9.481  1.00  0.00     0.274 C 
BRANCH   7   8
HETATM    8  C12 UNL     1     -17.323 -27.232 -10.562  1.00  0.00     0.050 C 
BRANCH   8   9
HETATM    9  C11 UNL     1     -16.039 -27.254 -11.378  1.00  0.00     0.124 C 
BRANCH   9  10
HETATM   10  N2  UNL     1     -15.284 -26.029 -11.199  1.00  0.00    -0.357 N 
HETATM   11  C10 UNL     1     -15.428 -24.912 -12.046  1.00  0.00     0.253 C 
HETATM   12  O1  UNL     1     -16.215 -24.963 -13.005  1.00  0.00    -0.268 OA
ATOM     13  H2  UNL     1     -14.620 -25.973 -10.428  1.00  0.00     0.162 HD
BRANCH  11  14
HETATM   14  C9  UNL     1     -14.654 -23.716 -11.800  1.00  0.00     0.057 A 
HETATM   15  C5  UNL     1     -14.759 -22.828 -10.772  1.00  0.00     0.033 A 
HETATM   16  N1  UNL     1     -13.765 -21.909 -10.892  1.00  0.00    -0.354 N 
HETATM   17  C6  UNL     1     -13.025 -22.182 -11.971  1.00  0.00     0.117 A 
ATOM     18  H1  UNL     1     -13.607 -21.129 -10.254  1.00  0.00     0.166 HD
HETATM   19  C8  UNL     1     -13.547 -23.304 -12.570  1.00  0.00     0.053 A 
BRANCH  15  20
HETATM   20  C2  UNL     1     -15.791 -22.761  -9.721  1.00  0.00    -0.008 C 
HETATM   21  C1  UNL     1     -17.199 -22.913 -10.170  1.00  0.00     0.021 C 
HETATM   22  C3  UNL     1     -15.542 -23.931  -8.744  1.00  0.00     0.021 C 
HETATM   23  C4  UNL     1     -15.616 -21.509  -8.869  1.00  0.00     0.021 C 
ENDBRANCH  15  20
BRANCH  17  24
HETATM   24  C7  UNL     1     -11.819 -21.435 -12.481  1.00  0.00     0.432 C 
HETATM   25  F1  UNL     1     -10.687 -22.095 -12.097  1.00  0.00    -0.165 F 
HETATM   26  F2  UNL     1     -11.928 -20.164 -11.937  1.00  0.00    -0.165 F 
HETATM   27  F3  UNL     1     -11.944 -21.410 -13.865  1.00  0.00    -0.165 F 
ENDBRANCH  17  24
ENDBRANCH  11  14
ENDBRANCH   9  10
ENDBRANCH   8   9
ENDBRANCH   7   8
ENDBRANCH   1   7
BRANCH   4  28
HETATM   28  C16 UNL     1     -19.187 -32.735 -11.475  1.00  0.00     0.302 C 
BRANCH  28  29
HETATM   29  C17 UNL     1     -17.939 -33.510 -11.736  1.00  0.00     0.302 C 
BRANCH  29  30
HETATM   30  N5  UNL     1     -17.491 -33.402 -13.112  1.00  0.00     0.090 N 
HETATM   31  C18 UNL     1     -18.398 -32.623 -13.928  1.00  0.00     0.273 C 
HETATM   32  C19 UNL     1     -17.653 -32.245 -15.190  1.00  0.00     0.040 C 
HETATM   33  C20 UNL     1     -16.835 -30.993 -14.839  1.00  0.00    -0.029 C 
HETATM   34  C21 UNL     1     -17.899 -29.875 -14.878  1.00  0.00     0.010 C 
HETATM   35  C25 UNL     1     -15.842 -30.655 -15.871  1.00  0.00     0.027 C 
HETATM   36  C32 UNL     1     -16.371 -31.215 -13.443  1.00  0.00     0.040 C 
HETATM   37  C22 UNL     1     -18.184 -29.458 -16.305  1.00  0.00     0.001 C 
HETATM   38  C23 UNL     1     -17.020 -28.613 -16.756  1.00  0.00     0.001 C 
HETATM   39  C24 UNL     1     -15.798 -29.165 -16.090  1.00  0.00     0.010 C 
HETATM   40  C33 UNL     1     -16.210 -32.705 -13.099  1.00  0.00     0.273 C 
BRANCH  35  41
HETATM   41  C26 UNL     1     -14.461 -31.144 -15.731  1.00  0.00    -0.053 A 
HETATM   42  C27 UNL     1     -13.489 -30.427 -15.074  1.00  0.00     0.007 A 
HETATM   43  C28 UNL     1     -12.237 -30.947 -14.938  1.00  0.00     0.001 A 
HETATM   44  C29 UNL     1     -11.873 -32.185 -15.434  1.00  0.00     0.000 A 
HETATM   45  C30 UNL     1     -12.861 -32.879 -16.086  1.00  0.00     0.001 A 
HETATM   46  C31 UNL     1     -14.124 -32.379 -16.235  1.00  0.00     0.007 A 
ENDBRANCH  35  41
ENDBRANCH  29  30
ENDBRANCH  28  29
ENDBRANCH   4  28
TORSDOF 11
ENDMDL
MODEL 4
REMARK VINA RESULT: -8.258827262      1.330      1.589
REMARK  11 active torsions:
REMARK  status: ('A' for Active; 'I' for Inactive)
REMARK    1  A    between atoms: C2_2  and  C5_5 
REMARK    2  A    between atoms: C6_8  and  C7_9 
REMARK    3  A    between atoms: C9_14  and  C10_15 
REMARK       I    between atoms: C10_15  and  N2_17 
REMARK    4  A    between atoms: N2_17  and  C11_19 
REMARK    5  A    between atoms: C11_19  and  C12_20 
REMARK    6  A    between atoms: C12_20  and  C13_21 
REMARK    7  A    between atoms: C13_21  and  N3_22 
REMARK    8  A    between atoms: N4_25  and  C16_26 
REMARK    9  A    between atoms: C16_26  and  C17_27 
REMARK   10  A    between atoms: C17_27  and  N5_28 
REMARK   11  A    between atoms: C25_36  and  C26_37 
ROOT
HETATM    1  N3  UNL     1     -18.064 -28.618  -9.646  1.00  0.00     0.091 N 
HETATM    2  C14 UNL     1     -18.518 -29.727  -8.793  1.00  0.00     0.302 C 
HETATM    3  C15 UNL     1     -18.628 -30.929  -9.709  1.00  0.00     0.302 C 
HETATM    4  N4  UNL     1     -19.915 -30.841 -10.380  1.00  0.00     0.093 N 
HETATM    5  C34 UNL     1     -20.125 -29.424 -10.682  1.00  0.00     0.302 C 
HETATM    6  C35 UNL     1     -18.806 -28.720 -10.921  1.00  0.00     0.302 C 
ENDROOT
BRANCH   1   7
HETATM    7  C13 UNL     1     -18.362 -27.339  -9.026  1.00  0.00     0.274 C 
BRANCH   7   8
HETATM    8  C12 UNL     1     -17.264 -27.003  -8.053  1.00  0.00     0.050 C 
BRANCH   8   9
HETATM    9  C11 UNL     1     -15.899 -27.102  -8.717  1.00  0.00     0.124 C 
BRANCH   9  10
HETATM   10  N2  UNL     1     -15.658 -25.970  -9.591  1.00  0.00    -0.357 N 
HETATM   11  C10 UNL     1     -15.444 -26.106 -10.977  1.00  0.00     0.253 C 
HETATM   12  O1  UNL     1     -15.437 -27.236 -11.492  1.00  0.00    -0.268 OA
ATOM     13  H2  UNL     1     -15.643 -25.035  -9.184  1.00  0.00     0.162 HD
BRANCH  11  14
HETATM   14  C9  UNL     1     -15.225 -24.931 -11.791  1.00  0.00     0.057 A 
HETATM   15  C5  UNL     1     -16.116 -24.254 -12.567  1.00  0.00     0.033 A 
HETATM   16  N1  UNL     1     -15.497 -23.155 -13.076  1.00  0.00    -0.354 N 
HETATM   17  C6  UNL     1     -14.231 -23.111 -12.648  1.00  0.00     0.117 A 
ATOM     18  H1  UNL     1     -15.933 -22.468 -13.691  1.00  0.00     0.166 HD
HETATM   19  C8  UNL     1     -14.018 -24.205 -11.842  1.00  0.00     0.053 A 
BRANCH  15  20
HETATM   20  C2  UNL     1     -17.500 -24.625 -12.910  1.00  0.00    -0.008 C 
HETATM   21  C1  UNL     1     -18.457 -24.717 -11.777  1.00  0.00     0.021 C 
HETATM   22  C3  UNL     1     -18.065 -23.526 -13.837  1.00  0.00     0.021 C 
HETATM   23  C4  UNL     1     -17.527 -25.891 -13.760  1.00  0.00     0.021 C 
ENDBRANCH  15  20
BRANCH  17  24
HETATM   24  C7  UNL     1     -13.185 -22.070 -12.954  1.00  0.00     0.432 C 
HETATM   25  F1  UNL     1     -11.971 -22.680 -13.091  1.00  0.00    -0.165 F 
HETATM   26  F2  UNL     1     -13.239 -21.183 -11.889  1.00  0.00    -0.165 F 
HETATM   27  F3  UNL     1     -13.584 -21.467 -14.142  1.00  0.00    -0.165 F 
ENDBRANCH  17  24
ENDBRANCH  11  14
ENDBRANCH   9  10
ENDBRANCH   8   9
ENDBRANCH   7   8
ENDBRANCH   1   7
BRANCH   4  28
HETATM   28  C16 UNL     1     -19.911 -31.607 -11.637  1.00  0.00     0.302 C 
BRANCH  28  29
HETATM   29  C17 UNL     1     -18.667 -32.431 -11.652  1.00  0.00     0.302 C 
BRANCH  29  30
HETATM   30  N5  UNL     1     -18.065 -32.513 -12.969  1.00  0.00     0.090 N 
HETATM   31  C18 UNL     1     -18.835 -31.807 -13.971  1.00  0.00     0.273 C 
HETATM   32  C19 UNL     1     -17.937 -31.618 -15.176  1.00  0.00     0.040 C 
HETATM   33  C20 UNL     1     -17.096 -30.366 -14.884  1.00  0.00    -0.029 C 
HETATM   34  C21 UNL     1     -18.089 -29.220 -15.179  1.00  0.00     0.010 C 
HETATM   35  C25 UNL     1     -15.979 -30.199 -15.827  1.00  0.00     0.027 C 
HETATM   36  C32 UNL     1     -16.801 -30.430 -13.427  1.00  0.00     0.040 C 
HETATM   37  C22 UNL     1     -18.192 -28.974 -16.669  1.00  0.00     0.001 C 
HETATM   38  C23 UNL     1     -16.943 -28.238 -17.081  1.00  0.00     0.001 C 
HETATM   39  C24 UNL     1     -15.832 -28.751 -16.217  1.00  0.00     0.010 C 
HETATM   40  C33 UNL     1     -16.758 -31.871 -12.892  1.00  0.00     0.273 C 
BRANCH  35  41
HETATM   41  C26 UNL     1     -14.650 -30.721 -15.472  1.00  0.00    -0.053 A 
HETATM   42  C27 UNL     1     -14.223 -31.969 -15.856  1.00  0.00     0.007 A 
HETATM   43  C28 UNL     1     -12.966 -32.385 -15.536  1.00  0.00     0.001 A 
HETATM   44  C29 UNL     1     -12.068 -31.608 -14.827  1.00  0.00     0.000 A 
HETATM   45  C30 UNL     1     -12.520 -30.367 -14.455  1.00  0.00     0.001 A 
HETATM   46  C31 UNL     1     -13.776 -29.927 -14.765  1.00  0.00     0.007 A 
ENDBRANCH  35  41
ENDBRANCH  29  30
ENDBRANCH  28  29
ENDBRANCH   4  28
TORSDOF 11
ENDMDL
MODEL 5
REMARK VINA RESULT: -8.245029246      2.959      4.775
REMARK  11 active torsions:
REMARK  status: ('A' for Active; 'I' for Inactive)
REMARK    1  A    between atoms: C2_2  and  C5_5 
REMARK    2  A    between atoms: C6_8  and  C7_9 
REMARK    3  A    between atoms: C9_14  and  C10_15 
REMARK       I    between atoms: C10_15  and  N2_17 
REMARK    4  A    between atoms: N2_17  and  C11_19 
REMARK    5  A    between atoms: C11_19  and  C12_20 
REMARK    6  A    between atoms: C12_20  and  C13_21 
REMARK    7  A    between atoms: C13_21  and  N3_22 
REMARK    8  A    between atoms: N4_25  and  C16_26 
REMARK    9  A    between atoms: C16_26  and  C17_27 
REMARK   10  A    between atoms: C17_27  and  N5_28 
REMARK   11  A    between atoms: C25_36  and  C26_37 
ROOT
HETATM    1  N3  UNL     1     -20.244 -24.538 -13.024  1.00  0.00     0.091 N 
HETATM    2  C14 UNL     1     -20.528 -24.634 -11.584  1.00  0.00     0.302 C 
HETATM    3  C15 UNL     1     -20.919 -26.078 -11.339  1.00  0.00     0.302 C 
HETATM    4  N4  UNL     1     -22.326 -26.205 -11.684  1.00  0.00     0.093 N 
HETATM    5  C34 UNL     1     -22.535 -25.378 -12.874  1.00  0.00     0.302 C 
HETATM    6  C35 UNL     1     -21.282 -25.326 -13.723  1.00  0.00     0.302 C 
ENDROOT
BRANCH   1   7
HETATM    7  C13 UNL     1     -20.317 -23.158 -13.470  1.00  0.00     0.274 C 
BRANCH   7   8
HETATM    8  C12 UNL     1     -19.301 -22.946 -14.560  1.00  0.00     0.050 C 
BRANCH   8   9
HETATM    9  C11 UNL     1     -18.102 -23.863 -14.372  1.00  0.00     0.124 C 
BRANCH   9  10
HETATM   10  N2  UNL     1     -17.008 -23.168 -13.722  1.00  0.00    -0.357 N 
HETATM   11  C10 UNL     1     -16.051 -23.827 -12.924  1.00  0.00     0.253 C 
HETATM   12  O1  UNL     1     -16.140 -25.052 -12.739  1.00  0.00    -0.268 OA
ATOM     13  H2  UNL     1     -16.927 -22.160 -13.848  1.00  0.00     0.162 HD
BRANCH  11  14
HETATM   14  C9  UNL     1     -14.976 -23.073 -12.319  1.00  0.00     0.057 A 
HETATM   15  C5  UNL     1     -14.800 -22.740 -11.010  1.00  0.00     0.033 A 
HETATM   16  N1  UNL     1     -13.601 -22.112 -10.881  1.00  0.00    -0.354 N 
HETATM   17  C6  UNL     1     -13.004 -22.030 -12.075  1.00  0.00     0.117 A 
ATOM     18  H1  UNL     1     -13.216 -21.757 -10.006  1.00  0.00     0.166 HD
HETATM   19  C8  UNL     1     -13.830 -22.618 -13.003  1.00  0.00     0.053 A 
BRANCH  15  20
HETATM   20  C2  UNL     1     -15.734 -22.923  -9.884  1.00  0.00    -0.008 C 
HETATM   21  C1  UNL     1     -17.178 -22.981 -10.229  1.00  0.00     0.021 C 
HETATM   22  C3  UNL     1     -15.414 -24.282  -9.224  1.00  0.00     0.021 C 
HETATM   23  C4  UNL     1     -15.470 -21.896  -8.789  1.00  0.00     0.021 C 
ENDBRANCH  15  20
BRANCH  17  24
HETATM   24  C7  UNL     1     -11.663 -21.423 -12.400  1.00  0.00     0.432 C 
HETATM   25  F1  UNL     1     -10.679 -22.183 -11.837  1.00  0.00    -0.165 F 
HETATM   26  F2  UNL     1     -11.722 -20.133 -11.894  1.00  0.00    -0.165 F 
HETATM   27  F3  UNL     1     -11.571 -21.424 -13.787  1.00  0.00    -0.165 F 
ENDBRANCH  17  24
ENDBRANCH  11  14
ENDBRANCH   9  10
ENDBRANCH   8   9
ENDBRANCH   7   8
ENDBRANCH   1   7
BRANCH   4  28
HETATM   28  C16 UNL     1     -22.670 -27.601 -12.000  1.00  0.00     0.302 C 
BRANCH  28  29
HETATM   29  C17 UNL     1     -21.520 -28.450 -11.571  1.00  0.00     0.302 C 
BRANCH  29  30
HETATM   30  N5  UNL     1     -21.173 -29.459 -12.554  1.00  0.00     0.090 N 
HETATM   31  C18 UNL     1     -22.222 -29.663 -13.530  1.00  0.00     0.273 C 
HETATM   32  C19 UNL     1     -21.611 -30.409 -14.697  1.00  0.00     0.040 C 
HETATM   33  C20 UNL     1     -20.945 -29.341 -15.579  1.00  0.00    -0.029 C 
HETATM   34  C21 UNL     1     -22.148 -28.727 -16.327  1.00  0.00     0.010 C 
HETATM   35  C25 UNL     1     -20.069 -29.920 -16.609  1.00  0.00     0.027 C 
HETATM   36  C32 UNL     1     -20.374 -28.354 -14.624  1.00  0.00     0.040 C 
HETATM   37  C22 UNL     1     -22.570 -29.614 -17.478  1.00  0.00     0.001 C 
HETATM   38  C23 UNL     1     -21.558 -29.419 -18.578  1.00  0.00     0.001 C 
HETATM   39  C24 UNL     1     -20.236 -29.185 -17.914  1.00  0.00     0.010 C 
HETATM   40  C33 UNL     1     -19.997 -28.983 -13.272  1.00  0.00     0.273 C 
BRANCH  35  41
HETATM   41  C26 UNL     1     -18.629 -30.061 -16.337  1.00  0.00    -0.053 A 
HETATM   42  C27 UNL     1     -17.712 -29.112 -16.721  1.00  0.00     0.007 A 
HETATM   43  C28 UNL     1     -16.396 -29.274 -16.406  1.00  0.00     0.001 A 
HETATM   44  C29 UNL     1     -15.913 -30.363 -15.704  1.00  0.00     0.000 A 
HETATM   45  C30 UNL     1     -16.850 -31.294 -15.333  1.00  0.00     0.001 A 
HETATM   46  C31 UNL     1     -18.175 -31.154 -15.638  1.00  0.00     0.007 A 
ENDBRANCH  35  41
ENDBRANCH  29  30
ENDBRANCH  28  29
ENDBRANCH   4  28
TORSDOF 11
ENDMDL
