MODEL 1
REMARK VINA RESULT: -9.183250931      0.000      0.000
REMARK  3 active torsions:
REMARK  status: ('A' for Active; 'I' for Inactive)
REMARK    1  A    between atoms: C4_4  and  O1_5 
REMARK    2  A    between atoms: O1_5  and  C5_6 
REMARK    3  A    between atoms: C9_10  and  C10_11 
ROOT
HETATM    1  C5  UNL     1     -18.530  33.727 -30.059  1.00  0.00     0.077 A 
HETATM    2  C6  UNL     1     -18.276  34.450 -31.217  1.00  0.00     0.037 A 
HETATM    3  C7  UNL     1     -18.974  35.599 -31.531  1.00  0.00     0.004 A 
HETATM    4  C8  UNL     1     -19.960  36.048 -30.663  1.00  0.00     0.015 A 
HETATM    5  C9  UNL     1     -20.236  35.354 -29.507  1.00  0.00     0.013 A 
HETATM    6  C11 UNL     1     -19.520  34.213 -29.228  1.00  0.00     0.052 A 
ENDROOT
BRANCH   5   7
HETATM    7  C10 UNL     1     -21.275  35.834 -28.603  1.00  0.00     0.147 A 
HETATM    8  N1  UNL     1     -21.575  37.126 -28.401  1.00  0.00    -0.268 N 
HETATM    9  N2  UNL     1     -22.553  37.186 -27.528  1.00  0.00    -0.227 N 
ATOM     10  H1  UNL     1     -21.121  37.923 -28.848  1.00  0.00     0.190 HD
HETATM   11  N3  UNL     1     -22.881  35.960 -27.171  1.00  0.00    -0.227 N 
ATOM     12  H2  UNL     1     -22.989  38.041 -27.184  1.00  0.00     0.210 HD
HETATM   13  N4  UNL     1     -22.103  35.115 -27.824  1.00  0.00    -0.268 N 
ATOM     14  H3  UNL     1     -23.610  35.707 -26.505  1.00  0.00     0.210 HD
ATOM     15  H4  UNL     1     -22.126  34.098 -27.751  1.00  0.00     0.190 HD
ENDBRANCH   5   7
BRANCH   1  16
HETATM   16  O1  UNL     1     -17.793  32.601 -29.827  1.00  0.00    -0.311 OA
BRANCH  16  17
HETATM   17  C4  UNL     1     -16.537  32.546 -29.292  1.00  0.00     0.076 A 
HETATM   18  C3  UNL     1     -15.737  33.654 -29.271  1.00  0.00     0.037 A 
HETATM   19  C2  UNL     1     -14.452  33.609 -28.726  1.00  0.00     0.003 A 
HETATM   20  C1  UNL     1     -13.995  32.421 -28.206  1.00  0.00     0.000 A 
HETATM   21  C13 UNL     1     -14.780  31.287 -28.212  1.00  0.00     0.003 A 
HETATM   22  C12 UNL     1     -16.060  31.373 -28.766  1.00  0.00     0.037 A 
ENDBRANCH  16  17
ENDBRANCH   1  16
TORSDOF 3
ENDMDL
MODEL 2
REMARK VINA RESULT: -9.182171931      0.033      1.122
REMARK  3 active torsions:
REMARK  status: ('A' for Active; 'I' for Inactive)
REMARK    1  A    between atoms: C4_4  and  O1_5 
REMARK    2  A    between atoms: O1_5  and  C5_6 
REMARK    3  A    between atoms: C9_10  and  C10_11 
ROOT
HETATM    1  C5  UNL     1     -18.549  33.719 -30.061  1.00  0.00     0.077 A 
HETATM    2  C6  UNL     1     -18.296  34.452 -31.213  1.00  0.00     0.037 A 
HETATM    3  C7  UNL     1     -18.993  35.603 -31.517  1.00  0.00     0.004 A 
HETATM    4  C8  UNL     1     -19.979  36.046 -30.645  1.00  0.00     0.015 A 
HETATM    5  C9  UNL     1     -20.254  35.342 -29.494  1.00  0.00     0.013 A 
HETATM    6  C11 UNL     1     -19.538  34.198 -29.225  1.00  0.00     0.052 A 
ENDROOT
BRANCH   5   7
HETATM    7  C10 UNL     1     -21.293  35.815 -28.586  1.00  0.00     0.147 A 
HETATM    8  N1  UNL     1     -21.593  37.105 -28.374  1.00  0.00    -0.268 N 
HETATM    9  N2  UNL     1     -22.571  37.158 -27.500  1.00  0.00    -0.227 N 
ATOM     10  H1  UNL     1     -21.141  37.906 -28.816  1.00  0.00     0.190 HD
HETATM   11  N3  UNL     1     -22.897  35.929 -27.151  1.00  0.00    -0.227 N 
ATOM     12  H2  UNL     1     -23.006  38.010 -27.149  1.00  0.00     0.210 HD
HETATM   13  N4  UNL     1     -22.120  35.090 -27.812  1.00  0.00    -0.268 N 
ATOM     14  H3  UNL     1     -23.626  35.671 -26.486  1.00  0.00     0.210 HD
ATOM     15  H4  UNL     1     -22.142  34.072 -27.746  1.00  0.00     0.190 HD
ENDBRANCH   5   7
BRANCH   1  16
HETATM   16  O1  UNL     1     -17.812  32.591 -29.838  1.00  0.00    -0.311 OA
BRANCH  16  17
HETATM   17  C4  UNL     1     -16.554  32.532 -29.310  1.00  0.00     0.076 A 
HETATM   18  C3  UNL     1     -16.060  31.359 -28.810  1.00  0.00     0.037 A 
HETATM   19  C2  UNL     1     -14.775  31.287 -28.268  1.00  0.00     0.003 A 
HETATM   20  C1  UNL     1     -14.002  32.424 -28.243  1.00  0.00     0.000 A 
HETATM   21  C13 UNL     1     -14.473  33.621 -28.740  1.00  0.00     0.003 A 
HETATM   22  C12 UNL     1     -15.764  33.652 -29.274  1.00  0.00     0.037 A 
ENDBRANCH  16  17
ENDBRANCH   1  16
TORSDOF 3
ENDMDL
MODEL 3
REMARK VINA RESULT: -9.140744383      3.063      3.685
REMARK  3 active torsions:
REMARK  status: ('A' for Active; 'I' for Inactive)
REMARK    1  A    between atoms: C4_4  and  O1_5 
REMARK    2  A    between atoms: O1_5  and  C5_6 
REMARK    3  A    between atoms: C9_10  and  C10_11 
ROOT
HETATM    1  C5  UNL     1     -17.681  33.353 -29.378  1.00  0.00     0.077 A 
HETATM    2  C6  UNL     1     -18.659  32.529 -29.919  1.00  0.00     0.037 A 
HETATM    3  C7  UNL     1     -19.413  32.908 -31.011  1.00  0.00     0.004 A 
HETATM    4  C8  UNL     1     -19.189  34.150 -31.589  1.00  0.00     0.015 A 
HETATM    5  C9  UNL     1     -18.227  34.990 -31.076  1.00  0.00     0.013 A 
HETATM    6  C11 UNL     1     -17.495  34.578 -29.986  1.00  0.00     0.052 A 
ENDROOT
BRANCH   5   7
HETATM    7  C10 UNL     1     -18.001  36.294 -31.690  1.00  0.00     0.147 A 
HETATM    8  N1  UNL     1     -16.805  36.755 -32.086  1.00  0.00    -0.268 N 
HETATM    9  N2  UNL     1     -16.976  37.955 -32.589  1.00  0.00    -0.227 N 
ATOM     10  H1  UNL     1     -15.916  36.259 -32.009  1.00  0.00     0.190 HD
HETATM   11  N3  UNL     1     -18.255  38.266 -32.521  1.00  0.00    -0.227 N 
ATOM     12  H2  UNL     1     -16.240  38.549 -32.970  1.00  0.00     0.210 HD
HETATM   13  N4  UNL     1     -18.900  37.253 -31.970  1.00  0.00    -0.268 N 
ATOM     14  H3  UNL     1     -18.675  39.139 -32.840  1.00  0.00     0.210 HD
ATOM     15  H4  UNL     1     -19.903  37.207 -31.789  1.00  0.00     0.190 HD
ENDBRANCH   5   7
BRANCH   1  16
HETATM   16  O1  UNL     1     -16.981  32.900 -28.297  1.00  0.00    -0.311 OA
BRANCH  16  17
HETATM   17  C4  UNL     1     -15.658  32.563 -28.266  1.00  0.00     0.076 A 
HETATM   18  C3  UNL     1     -14.702  33.448 -28.681  1.00  0.00     0.037 A 
HETATM   19  C2  UNL     1     -13.346  33.114 -28.653  1.00  0.00     0.003 A 
HETATM   20  C1  UNL     1     -12.979  31.870 -28.197  1.00  0.00     0.000 A 
HETATM   21  C13 UNL     1     -13.921  30.957 -27.771  1.00  0.00     0.003 A 
HETATM   22  C12 UNL     1     -15.267  31.329 -27.815  1.00  0.00     0.037 A 
ENDBRANCH  16  17
ENDBRANCH   1  16
TORSDOF 3
ENDMDL
MODEL 4
REMARK VINA RESULT: -9.140324369      3.065      3.849
REMARK  3 active torsions:
REMARK  status: ('A' for Active; 'I' for Inactive)
REMARK    1  A    between atoms: C4_4  and  O1_5 
REMARK    2  A    between atoms: O1_5  and  C5_6 
REMARK    3  A    between atoms: C9_10  and  C10_11 
ROOT
HETATM    1  C5  UNL     1     -17.690  33.359 -29.378  1.00  0.00     0.077 A 
HETATM    2  C6  UNL     1     -18.667  32.535 -29.923  1.00  0.00     0.037 A 
HETATM    3  C7  UNL     1     -19.417  32.913 -31.017  1.00  0.00     0.004 A 
HETATM    4  C8  UNL     1     -19.190  34.154 -31.595  1.00  0.00     0.015 A 
HETATM    5  C9  UNL     1     -18.230  34.995 -31.079  1.00  0.00     0.013 A 
HETATM    6  C11 UNL     1     -17.501  34.583 -29.987  1.00  0.00     0.052 A 
ENDROOT
BRANCH   5   7
HETATM    7  C10 UNL     1     -18.000  36.298 -31.694  1.00  0.00     0.147 A 
HETATM    8  N1  UNL     1     -16.803  36.758 -32.086  1.00  0.00    -0.268 N 
HETATM    9  N2  UNL     1     -16.972  37.958 -32.590  1.00  0.00    -0.227 N 
ATOM     10  H1  UNL     1     -15.915  36.262 -32.005  1.00  0.00     0.190 HD
HETATM   11  N3  UNL     1     -18.251  38.270 -32.527  1.00  0.00    -0.227 N 
ATOM     12  H2  UNL     1     -16.235  38.551 -32.970  1.00  0.00     0.210 HD
HETATM   13  N4  UNL     1     -18.899  37.258 -31.977  1.00  0.00    -0.268 N 
ATOM     14  H3  UNL     1     -18.670  39.143 -32.848  1.00  0.00     0.210 HD
ATOM     15  H4  UNL     1     -19.903  37.212 -31.800  1.00  0.00     0.190 HD
ENDBRANCH   5   7
BRANCH   1  16
HETATM   16  O1  UNL     1     -16.994  32.906 -28.295  1.00  0.00    -0.311 OA
BRANCH  16  17
HETATM   17  C4  UNL     1     -15.673  32.563 -28.260  1.00  0.00     0.076 A 
HETATM   18  C3  UNL     1     -15.282  31.329 -27.821  1.00  0.00     0.037 A 
HETATM   19  C2  UNL     1     -13.933  30.967 -27.782  1.00  0.00     0.003 A 
HETATM   20  C1  UNL     1     -12.991  31.880 -28.196  1.00  0.00     0.000 A 
HETATM   21  C13 UNL     1     -13.355  33.132 -28.644  1.00  0.00     0.003 A 
HETATM   22  C12 UNL     1     -14.715  33.455 -28.668  1.00  0.00     0.037 A 
ENDBRANCH  16  17
ENDBRANCH   1  16
TORSDOF 3
ENDMDL
MODEL 5
REMARK VINA RESULT: -9.026698579      0.735      1.209
REMARK  3 active torsions:
REMARK  status: ('A' for Active; 'I' for Inactive)
REMARK    1  A    between atoms: C4_4  and  O1_5 
REMARK    2  A    between atoms: O1_5  and  C5_6 
REMARK    3  A    between atoms: C9_10  and  C10_11 
ROOT
HETATM    1  C5  UNL     1     -18.700  33.669 -30.078  1.00  0.00     0.077 A 
HETATM    2  C6  UNL     1     -18.746  33.854 -31.454  1.00  0.00     0.037 A 
HETATM    3  C7  UNL     1     -19.406  34.922 -32.028  1.00  0.00     0.004 A 
HETATM    4  C8  UNL     1     -20.042  35.843 -31.206  1.00  0.00     0.015 A 
HETATM    5  C9  UNL     1     -20.015  35.688 -29.839  1.00  0.00     0.013 A 
HETATM    6  C11 UNL     1     -19.348  34.610 -29.303  1.00  0.00     0.052 A 
ENDROOT
BRANCH   5   7
HETATM    7  C10 UNL     1     -20.688  36.660 -28.985  1.00  0.00     0.147 A 
HETATM    8  N1  UNL     1     -21.824  36.428 -28.310  1.00  0.00    -0.268 N 
HETATM    9  N2  UNL     1     -22.138  37.519 -27.653  1.00  0.00    -0.227 N 
ATOM     10  H1  UNL     1     -22.351  35.554 -28.308  1.00  0.00     0.190 HD
HETATM   11  N3  UNL     1     -21.228  38.440 -27.897  1.00  0.00    -0.227 N 
ATOM     12  H2  UNL     1     -22.954  37.636 -27.052  1.00  0.00     0.210 HD
HETATM   13  N4  UNL     1     -20.327  37.927 -28.716  1.00  0.00    -0.268 N 
ATOM     14  H3  UNL     1     -21.220  39.387 -27.517  1.00  0.00     0.210 HD
ATOM     15  H4  UNL     1     -19.503  38.407 -29.079  1.00  0.00     0.190 HD
ENDBRANCH   5   7
BRANCH   1  16
HETATM   16  O1  UNL     1     -18.026  32.585 -29.596  1.00  0.00    -0.311 OA
BRANCH  16  17
HETATM   17  C4  UNL     1     -16.698  32.525 -29.281  1.00  0.00     0.076 A 
HETATM   18  C3  UNL     1     -15.929  33.654 -29.276  1.00  0.00     0.037 A 
HETATM   19  C2  UNL     1     -14.571  33.605 -28.956  1.00  0.00     0.003 A 
HETATM   20  C1  UNL     1     -14.009  32.390 -28.642  1.00  0.00     0.000 A 
HETATM   21  C13 UNL     1     -14.759  31.233 -28.637  1.00  0.00     0.003 A 
HETATM   22  C12 UNL     1     -16.115  31.325 -28.963  1.00  0.00     0.037 A 
ENDBRANCH  16  17
ENDBRANCH   1  16
TORSDOF 3
ENDMDL
