MODEL 1
REMARK VINA RESULT: -9.493715524      0.000      0.000
REMARK  6 active torsions:
REMARK  status: ('A' for Active; 'I' for Inactive)
REMARK    1  A    between atoms: O1_2  and  C2_3 
REMARK    2  A    between atoms: C5_6  and  N1_7 
REMARK    3  A    between atoms: C7_12  and  C8_13 
REMARK    4  A    between atoms: C7_12  and  C15_25 
REMARK    5  A    between atoms: C11_16  and  N3_17 
REMARK    6  A    between atoms: N3_17  and  S1_19 
ROOT
HETATM    1  N1  UNL     1     -16.099 -14.025  10.230  1.00  0.00    -0.344 N 
ATOM      2  H1  UNL     1     -16.608 -13.361   9.647  1.00  0.00     0.167 HD
HETATM    3  C6  UNL     1     -15.078 -13.483  10.649  1.00  0.00     0.115 C 
HETATM    4  N2  UNL     1     -14.717 -12.117  10.325  1.00  0.00    -0.334 N 
ATOM      5  H2  UNL     1     -15.049 -11.565   9.534  1.00  0.00     0.164 HD
HETATM    6  C7  UNL     1     -13.789 -11.697  11.354  1.00  0.00     0.265 C 
HETATM    7  O4  UNL     1     -13.401 -12.796  12.071  1.00  0.00    -0.331 OA
HETATM    8  C16 UNL     1     -13.997 -13.933  11.516  1.00  0.00     0.115 C 
HETATM    9  C17 UNL     1     -14.495 -14.761  12.683  1.00  0.00     0.054 C 
HETATM   10  C18 UNL     1     -12.909 -14.629  10.732  1.00  0.00     0.054 C 
ENDROOT
BRANCH   6  11
HETATM   11  C8  UNL     1     -14.524 -10.731  12.247  1.00  0.00     0.006 A 
HETATM   12  C9  UNL     1     -14.002 -10.377  13.483  1.00  0.00     0.014 A 
HETATM   13  C10 UNL     1     -14.606  -9.522  14.331  1.00  0.00     0.031 A 
HETATM   14  C11 UNL     1     -15.843  -8.944  13.947  1.00  0.00     0.042 A 
HETATM   15  C13 UNL     1     -16.392  -9.263  12.742  1.00  0.00     0.031 A 
HETATM   16  C14 UNL     1     -15.710 -10.158  11.916  1.00  0.00     0.014 A 
BRANCH  14  17
HETATM   17  N3  UNL     1     -16.419  -8.042  14.870  1.00  0.00    -0.285 N 
ATOM     18  H3  UNL     1     -16.716  -8.451  15.755  1.00  0.00     0.178 HD
BRANCH  17  19
HETATM   19  S1  UNL     1     -16.689  -6.374  14.712  1.00  0.00     0.227 S 
HETATM   20  C12 UNL     1     -16.059  -5.630  13.260  1.00  0.00     0.186 C 
HETATM   21  O2  UNL     1     -16.191  -5.616  15.927  1.00  0.00    -0.206 OA
HETATM   22  O3  UNL     1     -18.200  -6.095  14.706  1.00  0.00    -0.206 OA
ENDBRANCH  17  19
ENDBRANCH  14  17
ENDBRANCH   6  11
BRANCH   6  23
HETATM   23  C15 UNL     1     -12.657 -10.939  10.687  1.00  0.00     0.443 C 
HETATM   24  F1  UNL     1     -12.091 -11.587   9.635  1.00  0.00    -0.166 F 
HETATM   25  F2  UNL     1     -11.718 -10.722  11.708  1.00  0.00    -0.166 F 
HETATM   26  F3  UNL     1     -13.080  -9.694  10.233  1.00  0.00    -0.166 F 
ENDBRANCH   6  23
BRANCH   1  27
HETATM   27  C5  UNL     1     -16.793 -15.197  10.269  1.00  0.00     0.033 A 
HETATM   28  C4  UNL     1     -16.264 -16.420   9.895  1.00  0.00     0.032 A 
HETATM   29  C3  UNL     1     -17.015 -17.564   9.943  1.00  0.00     0.039 A 
HETATM   30  C2  UNL     1     -18.326 -17.575  10.358  1.00  0.00     0.068 A 
HETATM   31  C20 UNL     1     -18.875 -16.351  10.739  1.00  0.00     0.039 A 
HETATM   32  C19 UNL     1     -18.134 -15.208  10.696  1.00  0.00     0.032 A 
BRANCH  30  33
HETATM   33  O1  UNL     1     -19.079 -18.729  10.403  1.00  0.00    -0.356 OA
HETATM   34  C1  UNL     1     -20.493 -18.726  10.379  1.00  0.00     0.210 C 
ENDBRANCH  30  33
ENDBRANCH   1  27
TORSDOF 6
ENDMDL
MODEL 2
REMARK VINA RESULT: -9.361022484      0.684      1.142
REMARK  6 active torsions:
REMARK  status: ('A' for Active; 'I' for Inactive)
REMARK    1  A    between atoms: O1_2  and  C2_3 
REMARK    2  A    between atoms: C5_6  and  N1_7 
REMARK    3  A    between atoms: C7_12  and  C8_13 
REMARK    4  A    between atoms: C7_12  and  C15_25 
REMARK    5  A    between atoms: C11_16  and  N3_17 
REMARK    6  A    between atoms: N3_17  and  S1_19 
ROOT
HETATM    1  N1  UNL     1     -16.093 -14.043  10.215  1.00  0.00    -0.344 N 
ATOM      2  H1  UNL     1     -16.600 -13.374   9.635  1.00  0.00     0.167 HD
HETATM    3  C6  UNL     1     -15.061 -13.513  10.623  1.00  0.00     0.115 C 
HETATM    4  N2  UNL     1     -14.688 -12.151  10.295  1.00  0.00    -0.334 N 
ATOM      5  H2  UNL     1     -15.021 -11.596   9.507  1.00  0.00     0.164 HD
HETATM    6  C7  UNL     1     -13.745 -11.741  11.315  1.00  0.00     0.265 C 
HETATM    7  O4  UNL     1     -13.364 -12.844  12.029  1.00  0.00    -0.331 OA
HETATM    8  C16 UNL     1     -13.978 -13.974  11.481  1.00  0.00     0.115 C 
HETATM    9  C17 UNL     1     -14.474 -14.796  12.653  1.00  0.00     0.054 C 
HETATM   10  C18 UNL     1     -12.905 -14.683  10.687  1.00  0.00     0.054 C 
ENDROOT
BRANCH   6  11
HETATM   11  C8  UNL     1     -14.461 -10.767  12.214  1.00  0.00     0.006 A 
HETATM   12  C9  UNL     1     -15.632 -10.151  11.795  1.00  0.00     0.014 A 
HETATM   13  C10 UNL     1     -16.322  -9.270  12.545  1.00  0.00     0.031 A 
HETATM   14  C11 UNL     1     -15.835  -8.950  13.837  1.00  0.00     0.042 A 
HETATM   15  C13 UNL     1     -14.689  -9.531  14.290  1.00  0.00     0.031 A 
HETATM   16  C14 UNL     1     -14.027 -10.434  13.456  1.00  0.00     0.014 A 
BRANCH  14  17
HETATM   17  N3  UNL     1     -16.610  -8.033  14.584  1.00  0.00    -0.285 N 
ATOM     18  H3  UNL     1     -17.076  -8.421  15.404  1.00  0.00     0.178 HD
BRANCH  17  19
HETATM   19  S1  UNL     1     -16.877  -6.380  14.308  1.00  0.00     0.227 S 
HETATM   20  C12 UNL     1     -18.518  -5.926  13.910  1.00  0.00     0.186 C 
HETATM   21  O2  UNL     1     -15.930  -5.835  13.258  1.00  0.00    -0.206 OA
HETATM   22  O3  UNL     1     -16.515  -5.583  15.571  1.00  0.00    -0.206 OA
ENDBRANCH  17  19
ENDBRANCH  14  17
ENDBRANCH   6  11
BRANCH   6  23
HETATM   23  C15 UNL     1     -12.611 -10.997  10.637  1.00  0.00     0.443 C 
HETATM   24  F1  UNL     1     -12.069 -11.648   9.574  1.00  0.00    -0.166 F 
HETATM   25  F2  UNL     1     -11.655 -10.800  11.646  1.00  0.00    -0.166 F 
HETATM   26  F3  UNL     1     -13.021  -9.743  10.195  1.00  0.00    -0.166 F 
ENDBRANCH   6  23
BRANCH   1  27
HETATM   27  C5  UNL     1     -16.799 -15.207  10.261  1.00  0.00     0.033 A 
HETATM   28  C4  UNL     1     -16.278 -16.441   9.912  1.00  0.00     0.032 A 
HETATM   29  C3  UNL     1     -17.043 -17.576   9.966  1.00  0.00     0.039 A 
HETATM   30  C2  UNL     1     -18.359 -17.568  10.363  1.00  0.00     0.068 A 
HETATM   31  C20 UNL     1     -18.900 -16.332  10.718  1.00  0.00     0.039 A 
HETATM   32  C19 UNL     1     -18.146 -15.197  10.668  1.00  0.00     0.032 A 
BRANCH  30  33
HETATM   33  O1  UNL     1     -19.125 -18.712  10.414  1.00  0.00    -0.356 OA
HETATM   34  C1  UNL     1     -20.538 -18.695  10.365  1.00  0.00     0.210 C 
ENDBRANCH  30  33
ENDBRANCH   1  27
TORSDOF 6
ENDMDL
MODEL 3
REMARK VINA RESULT: -9.327739172      1.289      1.771
REMARK  6 active torsions:
REMARK  status: ('A' for Active; 'I' for Inactive)
REMARK    1  A    between atoms: O1_2  and  C2_3 
REMARK    2  A    between atoms: C5_6  and  N1_7 
REMARK    3  A    between atoms: C7_12  and  C8_13 
REMARK    4  A    between atoms: C7_12  and  C15_25 
REMARK    5  A    between atoms: C11_16  and  N3_17 
REMARK    6  A    between atoms: N3_17  and  S1_19 
ROOT
HETATM    1  N1  UNL     1     -16.024 -14.077  10.023  1.00  0.00    -0.344 N 
ATOM      2  H1  UNL     1     -16.232 -13.645   9.123  1.00  0.00     0.167 HD
HETATM    3  C6  UNL     1     -15.215 -13.371  10.624  1.00  0.00     0.115 C 
HETATM    4  N2  UNL     1     -14.685 -12.136  10.080  1.00  0.00    -0.334 N 
ATOM      5  H2  UNL     1     -14.657 -11.860   9.099  1.00  0.00     0.164 HD
HETATM    6  C7  UNL     1     -14.205 -11.376  11.215  1.00  0.00     0.265 C 
HETATM    7  O4  UNL     1     -14.183 -12.193  12.312  1.00  0.00    -0.331 OA
HETATM    8  C16 UNL     1     -14.579 -13.478  11.929  1.00  0.00     0.115 C 
HETATM    9  C17 UNL     1     -15.532 -13.964  13.002  1.00  0.00     0.054 C 
HETATM   10  C18 UNL     1     -13.311 -14.298  11.863  1.00  0.00     0.054 C 
ENDROOT
BRANCH   6  11
HETATM   11  C8  UNL     1     -15.175 -10.244  11.433  1.00  0.00     0.006 A 
HETATM   12  C9  UNL     1     -15.047  -9.408  12.532  1.00  0.00     0.014 A 
HETATM   13  C10 UNL     1     -15.878  -8.379  12.789  1.00  0.00     0.031 A 
HETATM   14  C11 UNL     1     -16.945  -8.127  11.890  1.00  0.00     0.042 A 
HETATM   15  C13 UNL     1     -17.108  -8.923  10.797  1.00  0.00     0.031 A 
HETATM   16  C14 UNL     1     -16.209  -9.971  10.596  1.00  0.00     0.014 A 
BRANCH  14  17
HETATM   17  N3  UNL     1     -17.772  -7.024  12.203  1.00  0.00    -0.285 N 
ATOM     18  H3  UNL     1     -17.750  -6.257  11.531  1.00  0.00     0.178 HD
BRANCH  17  19
HETATM   19  S1  UNL     1     -18.796  -6.795  13.536  1.00  0.00     0.227 S 
HETATM   20  C12 UNL     1     -19.602  -8.226  14.137  1.00  0.00     0.186 C 
HETATM   21  O2  UNL     1     -19.820  -5.710  13.267  1.00  0.00    -0.206 OA
HETATM   22  O3  UNL     1     -17.985  -6.241  14.718  1.00  0.00    -0.206 OA
ENDBRANCH  17  19
ENDBRANCH  14  17
ENDBRANCH   6  11
BRANCH   6  23
HETATM   23  C15 UNL     1     -12.865 -10.771  10.844  1.00  0.00     0.443 C 
HETATM   24  F1  UNL     1     -12.948  -9.642  10.092  1.00  0.00    -0.166 F 
HETATM   25  F2  UNL     1     -12.190 -11.788  10.150  1.00  0.00    -0.166 F 
HETATM   26  F3  UNL     1     -12.117 -10.465  11.976  1.00  0.00    -0.166 F 
ENDBRANCH   6  23
BRANCH   1  27
HETATM   27  C5  UNL     1     -16.740 -15.230  10.133  1.00  0.00     0.033 A 
HETATM   28  C4  UNL     1     -16.223 -16.488   9.876  1.00  0.00     0.032 A 
HETATM   29  C3  UNL     1     -16.997 -17.612   9.991  1.00  0.00     0.039 A 
HETATM   30  C2  UNL     1     -18.320 -17.568  10.362  1.00  0.00     0.068 A 
HETATM   31  C20 UNL     1     -18.858 -16.308  10.625  1.00  0.00     0.039 A 
HETATM   32  C19 UNL     1     -18.094 -15.184  10.514  1.00  0.00     0.032 A 
BRANCH  30  33
HETATM   33  O1  UNL     1     -19.096 -18.702  10.474  1.00  0.00    -0.356 OA
HETATM   34  C1  UNL     1     -20.507 -18.681  10.382  1.00  0.00     0.210 C 
ENDBRANCH  30  33
ENDBRANCH   1  27
TORSDOF 6
ENDMDL
MODEL 4
REMARK VINA RESULT: -8.877224363      1.531      1.862
REMARK  6 active torsions:
REMARK  status: ('A' for Active; 'I' for Inactive)
REMARK    1  A    between atoms: O1_2  and  C2_3 
REMARK    2  A    between atoms: C5_6  and  N1_7 
REMARK    3  A    between atoms: C7_12  and  C8_13 
REMARK    4  A    between atoms: C7_12  and  C15_25 
REMARK    5  A    between atoms: C11_16  and  N3_17 
REMARK    6  A    between atoms: N3_17  and  S1_19 
ROOT
HETATM    1  N1  UNL     1     -16.784 -14.080   9.888  1.00  0.00    -0.344 N 
ATOM      2  H1  UNL     1     -16.932 -13.409   9.135  1.00  0.00     0.167 HD
HETATM    3  C6  UNL     1     -15.672 -13.888  10.378  1.00  0.00     0.115 C 
HETATM    4  N2  UNL     1     -14.768 -12.856   9.909  1.00  0.00    -0.334 N 
ATOM      5  H2  UNL     1     -14.781 -12.395   9.000  1.00  0.00     0.164 HD
HETATM    6  C7  UNL     1     -13.844 -12.614  10.998  1.00  0.00     0.265 C 
HETATM    7  O4  UNL     1     -13.992 -13.605  11.928  1.00  0.00    -0.331 OA
HETATM    8  C16 UNL     1     -14.941 -14.523  11.467  1.00  0.00     0.115 C 
HETATM    9  C17 UNL     1     -15.829 -14.844  12.652  1.00  0.00     0.054 C 
HETATM   10  C18 UNL     1     -14.157 -15.721  10.986  1.00  0.00     0.054 C 
ENDROOT
BRANCH   6  11
HETATM   11  C8  UNL     1     -14.208 -11.281  11.600  1.00  0.00     0.006 A 
HETATM   12  C9  UNL     1     -14.065 -11.062  12.962  1.00  0.00     0.014 A 
HETATM   13  C10 UNL     1     -14.372  -9.898  13.567  1.00  0.00     0.031 A 
HETATM   14  C11 UNL     1     -14.866  -8.830  12.775  1.00  0.00     0.042 A 
HETATM   15  C13 UNL     1     -15.021  -9.001  11.433  1.00  0.00     0.031 A 
HETATM   16  C14 UNL     1     -14.684 -10.236  10.876  1.00  0.00     0.014 A 
BRANCH  14  17
HETATM   17  N3  UNL     1     -15.153  -7.629  13.463  1.00  0.00    -0.285 N 
ATOM     18  H3  UNL     1     -14.557  -6.836  13.226  1.00  0.00     0.178 HD
BRANCH  17  19
HETATM   19  S1  UNL     1     -16.350  -7.318  14.625  1.00  0.00     0.227 S 
HETATM   20  C12 UNL     1     -17.174  -5.782  14.484  1.00  0.00     0.186 C 
HETATM   21  O2  UNL     1     -15.808  -7.477  16.032  1.00  0.00    -0.206 OA
HETATM   22  O3  UNL     1     -17.445  -8.393  14.536  1.00  0.00    -0.206 OA
ENDBRANCH  17  19
ENDBRANCH  14  17
ENDBRANCH   6  11
BRANCH   6  23
HETATM   23  C15 UNL     1     -12.450 -12.491  10.413  1.00  0.00     0.443 C 
HETATM   24  F1  UNL     1     -11.663 -11.568  11.027  1.00  0.00    -0.166 F 
HETATM   25  F2  UNL     1     -12.652 -12.160   9.064  1.00  0.00    -0.166 F 
HETATM   26  F3  UNL     1     -11.776 -13.707  10.451  1.00  0.00    -0.166 F 
ENDBRANCH   6  23
BRANCH   1  27
HETATM   27  C5  UNL     1     -17.888 -14.870   9.996  1.00  0.00     0.033 A 
HETATM   28  C4  UNL     1     -17.867 -16.162  10.492  1.00  0.00     0.032 A 
HETATM   29  C3  UNL     1     -19.010 -16.915  10.562  1.00  0.00     0.039 A 
HETATM   30  C2  UNL     1     -20.235 -16.446  10.150  1.00  0.00     0.068 A 
HETATM   31  C20 UNL     1     -20.273 -15.145   9.647  1.00  0.00     0.039 A 
HETATM   32  C19 UNL     1     -19.142 -14.389   9.574  1.00  0.00     0.032 A 
BRANCH  30  33
HETATM   33  O1  UNL     1     -21.381 -17.208  10.221  1.00  0.00    -0.356 OA
HETATM   34  C1  UNL     1     -22.572 -16.871   9.537  1.00  0.00     0.210 C 
ENDBRANCH  30  33
ENDBRANCH   1  27
TORSDOF 6
ENDMDL
MODEL 5
REMARK VINA RESULT: -8.865792568      1.170      1.709
REMARK  6 active torsions:
REMARK  status: ('A' for Active; 'I' for Inactive)
REMARK    1  A    between atoms: O1_2  and  C2_3 
REMARK    2  A    between atoms: C5_6  and  N1_7 
REMARK    3  A    between atoms: C7_12  and  C8_13 
REMARK    4  A    between atoms: C7_12  and  C15_25 
REMARK    5  A    between atoms: C11_16  and  N3_17 
REMARK    6  A    between atoms: N3_17  and  S1_19 
ROOT
HETATM    1  N1  UNL     1     -15.967 -14.557   9.936  1.00  0.00    -0.344 N 
ATOM      2  H1  UNL     1     -16.247 -13.958   9.160  1.00  0.00     0.167 HD
HETATM    3  C6  UNL     1     -14.924 -14.119  10.419  1.00  0.00     0.115 C 
HETATM    4  N2  UNL     1     -14.255 -12.936   9.916  1.00  0.00    -0.334 N 
ATOM      5  H2  UNL     1     -14.357 -12.519   8.991  1.00  0.00     0.164 HD
HETATM    6  C7  UNL     1     -13.411 -12.468  10.996  1.00  0.00     0.265 C 
HETATM    7  O4  UNL     1     -13.354 -13.437  11.960  1.00  0.00    -0.331 OA
HETATM    8  C16 UNL     1     -14.086 -14.548  11.530  1.00  0.00     0.115 C 
HETATM    9  C17 UNL     1     -14.895 -15.009  12.725  1.00  0.00     0.054 C 
HETATM   10  C18 UNL     1     -13.063 -15.571  11.091  1.00  0.00     0.054 C 
ENDROOT
BRANCH   6  11
HETATM   11  C8  UNL     1     -14.052 -11.223  11.551  1.00  0.00     0.006 A 
HETATM   12  C9  UNL     1     -14.008 -10.955  12.912  1.00  0.00     0.014 A 
HETATM   13  C10 UNL     1     -14.560  -9.864  13.477  1.00  0.00     0.031 A 
HETATM   14  C11 UNL     1     -15.222  -8.928  12.641  1.00  0.00     0.042 A 
HETATM   15  C13 UNL     1     -15.288  -9.150  11.299  1.00  0.00     0.031 A 
HETATM   16  C14 UNL     1     -14.694 -10.305  10.786  1.00  0.00     0.014 A 
BRANCH  14  17
HETATM   17  N3  UNL     1     -15.765  -7.795  13.288  1.00  0.00    -0.285 N 
ATOM     18  H3  UNL     1     -15.495  -6.894  12.893  1.00  0.00     0.178 HD
BRANCH  17  19
HETATM   19  S1  UNL     1     -16.804  -7.719  14.627  1.00  0.00     0.227 S 
HETATM   20  C12 UNL     1     -17.914  -9.058  14.812  1.00  0.00     0.186 C 
HETATM   21  O2  UNL     1     -17.574  -6.414  14.657  1.00  0.00    -0.206 OA
HETATM   22  O3  UNL     1     -15.974  -7.679  15.920  1.00  0.00    -0.206 OA
ENDBRANCH  17  19
ENDBRANCH  14  17
ENDBRANCH   6  11
BRANCH   6  23
HETATM   23  C15 UNL     1     -12.069 -12.075  10.408  1.00  0.00     0.443 C 
HETATM   24  F1  UNL     1     -12.141 -11.504   9.177  1.00  0.00    -0.166 F 
HETATM   25  F2  UNL     1     -11.330 -13.267  10.367  1.00  0.00    -0.166 F 
HETATM   26  F3  UNL     1     -11.392 -11.189  11.241  1.00  0.00    -0.166 F 
ENDBRANCH   6  23
BRANCH   1  27
HETATM   27  C5  UNL     1     -16.881 -15.558  10.070  1.00  0.00     0.033 A 
HETATM   28  C4  UNL     1     -18.205 -15.353  10.417  1.00  0.00     0.032 A 
HETATM   29  C3  UNL     1     -19.076 -16.403  10.550  1.00  0.00     0.039 A 
HETATM   30  C2  UNL     1     -18.698 -17.711  10.353  1.00  0.00     0.068 A 
HETATM   31  C20 UNL     1     -17.367 -17.934  10.003  1.00  0.00     0.039 A 
HETATM   32  C19 UNL     1     -16.495 -16.896   9.867  1.00  0.00     0.032 A 
BRANCH  30  33
HETATM   33  O1  UNL     1     -19.577 -18.764  10.490  1.00  0.00    -0.356 OA
HETATM   34  C1  UNL     1     -20.973 -18.629  10.311  1.00  0.00     0.210 C 
ENDBRANCH  30  33
ENDBRANCH   1  27
TORSDOF 6
ENDMDL
