MODEL 1
REMARK VINA RESULT: -9.758933385      0.000      0.000
REMARK  8 active torsions:
REMARK  status: ('A' for Active; 'I' for Inactive)
REMARK    1  A    between atoms: C4_5  and  S1_6 
REMARK    2  A    between atoms: S1_6  and  N2_7 
REMARK    3  A    between atoms: S1_6  and  C5_11 
REMARK    4  A    between atoms: C8_14  and  C9_15 
REMARK    5  A    between atoms: C9_15  and  C10_16 
REMARK    6  A    between atoms: C10_16  and  C11_17 
REMARK       I    between atoms: C11_17  and  N3_19 
REMARK    7  A    between atoms: N3_19  and  C12_21 
REMARK    8  A    between atoms: C19_31  and  C20_32 
ROOT
HETATM    1  N1  UNL     1     -19.897 -15.808  10.029  1.00  0.00    -0.191 NA
HETATM    2  C1  UNL     1     -18.821 -15.839  10.441  1.00  0.00     0.100 C 
HETATM    3  C2  UNL     1     -17.482 -15.879  10.937  1.00  0.00     0.061 A 
HETATM    4  C3  UNL     1     -16.882 -14.746  11.441  1.00  0.00     0.045 A 
HETATM    5  C4  UNL     1     -15.583 -14.788  11.922  1.00  0.00     0.044 A 
HETATM    6  C17 UNL     1     -14.921 -15.991  11.881  1.00  0.00     0.023 A 
HETATM    7  C18 UNL     1     -15.535 -17.127  11.372  1.00  0.00     0.019 A 
HETATM    8  C19 UNL     1     -16.824 -17.098  10.890  1.00  0.00     0.068 A 
ENDROOT
BRANCH   8   9
HETATM    9  C20 UNL     1     -17.442 -18.302  10.364  1.00  0.00     0.418 C 
HETATM   10  F1  UNL     1     -18.751 -18.493  10.708  1.00  0.00    -0.166 F 
HETATM   11  F2  UNL     1     -16.736 -19.401  10.814  1.00  0.00    -0.166 F 
HETATM   12  F3  UNL     1     -17.276 -18.291   8.979  1.00  0.00    -0.166 F 
ENDBRANCH   8   9
BRANCH   5  13
HETATM   13  S1  UNL     1     -14.802 -13.356  12.566  1.00  0.00     0.082 S 
HETATM   14  O1  UNL     1     -13.624 -12.997  11.710  1.00  0.00    -0.240 OA
BRANCH  13  15
HETATM   15  N2  UNL     1     -14.262 -13.730  13.985  1.00  0.00    -0.353 N 
ATOM     16  H22 UNL     1     -14.281 -14.660  14.403  1.00  0.00     0.166 HD
ATOM     17  H21 UNL     1     -13.895 -12.873  14.399  1.00  0.00     0.166 HD
ENDBRANCH  13  15
BRANCH  13  18
HETATM   18  C5  UNL     1     -15.976 -12.087  12.668  1.00  0.00     0.043 A 
HETATM   19  C6  UNL     1     -16.970 -12.144  13.613  1.00  0.00     0.023 A 
HETATM   20  C7  UNL     1     -17.919 -11.126  13.701  1.00  0.00     0.008 A 
HETATM   21  C8  UNL     1     -17.870 -10.051  12.840  1.00  0.00    -0.058 A 
HETATM   22  C15 UNL     1     -16.852 -10.022  11.897  1.00  0.00     0.008 A 
HETATM   23  C16 UNL     1     -15.916 -11.031  11.814  1.00  0.00     0.023 A 
BRANCH  21  24
HETATM   24  C9  UNL     1     -18.877  -8.965  12.930  1.00  0.00     0.048 C 
BRANCH  24  25
HETATM   25  C10 UNL     1     -18.692  -8.131  14.157  1.00  0.00     0.108 C 
BRANCH  25  26
HETATM   26  C11 UNL     1     -17.259  -7.843  14.345  1.00  0.00     0.223 C 
HETATM   27  O2  UNL     1     -16.698  -7.033  13.571  1.00  0.00    -0.273 OA
HETATM   28  N3  UNL     1     -16.470  -8.438  15.368  1.00  0.00    -0.312 N 
ATOM     29  H3  UNL     1     -16.854  -8.484  16.312  1.00  0.00     0.170 HD
BRANCH  28  30
HETATM   30  C12 UNL     1     -15.302  -8.921  15.163  1.00  0.00     0.130 A 
HETATM   31  C13 UNL     1     -14.833 -10.097  15.696  1.00  0.00     0.077 A 
HETATM   32  C14 UNL     1     -13.530 -10.269  15.239  1.00  0.00     0.171 A 
HETATM   33  O3  UNL     1     -13.276  -9.247  14.487  1.00  0.00    -0.248 OA
HETATM   34  N4  UNL     1     -14.296  -8.429  14.417  1.00  0.00    -0.245 N 
ATOM     35  H4  UNL     1     -14.323  -7.561  13.883  1.00  0.00     0.196 HD
ENDBRANCH  28  30
ENDBRANCH  25  26
ENDBRANCH  24  25
ENDBRANCH  21  24
ENDBRANCH  13  18
ENDBRANCH   5  13
TORSDOF 8
ENDMDL
MODEL 2
REMARK VINA RESULT: -9.703565582      2.054      2.820
REMARK  8 active torsions:
REMARK  status: ('A' for Active; 'I' for Inactive)
REMARK    1  A    between atoms: C4_5  and  S1_6 
REMARK    2  A    between atoms: S1_6  and  N2_7 
REMARK    3  A    between atoms: S1_6  and  C5_11 
REMARK    4  A    between atoms: C8_14  and  C9_15 
REMARK    5  A    between atoms: C9_15  and  C10_16 
REMARK    6  A    between atoms: C10_16  and  C11_17 
REMARK       I    between atoms: C11_17  and  N3_19 
REMARK    7  A    between atoms: N3_19  and  C12_21 
REMARK    8  A    between atoms: C19_31  and  C20_32 
ROOT
HETATM    1  N1  UNL     1     -20.958 -17.112  10.392  1.00  0.00    -0.191 NA
HETATM    2  C1  UNL     1     -19.922 -16.609  10.383  1.00  0.00     0.100 C 
HETATM    3  C2  UNL     1     -18.635 -15.989  10.358  1.00  0.00     0.061 A 
HETATM    4  C3  UNL     1     -18.512 -14.617  10.384  1.00  0.00     0.045 A 
HETATM    5  C4  UNL     1     -17.261 -14.019  10.360  1.00  0.00     0.044 A 
HETATM    6  C17 UNL     1     -16.159 -14.837  10.312  1.00  0.00     0.023 A 
HETATM    7  C18 UNL     1     -16.294 -16.218  10.287  1.00  0.00     0.019 A 
HETATM    8  C19 UNL     1     -17.530 -16.824  10.309  1.00  0.00     0.068 A 
ENDROOT
BRANCH   8   9
HETATM    9  C20 UNL     1     -17.641 -18.271  10.282  1.00  0.00     0.418 C 
HETATM   10  F1  UNL     1     -18.813 -18.782  10.765  1.00  0.00    -0.166 F 
HETATM   11  F2  UNL     1     -16.618 -18.813  11.036  1.00  0.00    -0.166 F 
HETATM   12  F3  UNL     1     -17.405 -18.688   8.972  1.00  0.00    -0.166 F 
ENDBRANCH   8   9
BRANCH   5  13
HETATM   13  S1  UNL     1     -17.084 -12.275  10.392  1.00  0.00     0.082 S 
HETATM   14  O1  UNL     1     -18.233 -11.638   9.668  1.00  0.00    -0.240 OA
BRANCH  13  15
HETATM   15  N2  UNL     1     -15.777 -11.934   9.605  1.00  0.00    -0.353 N 
ATOM     16  H22 UNL     1     -15.492 -12.348   8.717  1.00  0.00     0.166 HD
ATOM     17  H21 UNL     1     -15.278 -11.229  10.147  1.00  0.00     0.166 HD
ENDBRANCH  13  15
BRANCH  13  18
HETATM   18  C5  UNL     1     -16.959 -11.764  12.043  1.00  0.00     0.043 A 
HETATM   19  C6  UNL     1     -15.879 -12.143  12.800  1.00  0.00     0.023 A 
HETATM   20  C7  UNL     1     -15.772 -11.736  14.130  1.00  0.00     0.008 A 
HETATM   21  C8  UNL     1     -16.750 -10.948  14.699  1.00  0.00    -0.058 A 
HETATM   22  C15 UNL     1     -17.828 -10.581  13.907  1.00  0.00     0.008 A 
HETATM   23  C16 UNL     1     -17.930 -10.987  12.592  1.00  0.00     0.023 A 
BRANCH  21  24
HETATM   24  C9  UNL     1     -16.640 -10.512  16.113  1.00  0.00     0.048 C 
BRANCH  24  25
HETATM   25  C10 UNL     1     -15.341  -9.825  16.387  1.00  0.00     0.108 C 
BRANCH  25  26
HETATM   26  C11 UNL     1     -15.309  -8.533  15.679  1.00  0.00     0.223 C 
HETATM   27  O2  UNL     1     -15.872  -7.543  16.201  1.00  0.00    -0.273 OA
HETATM   28  N3  UNL     1     -14.667  -8.345  14.423  1.00  0.00    -0.312 N 
ATOM     29  H3  UNL     1     -13.735  -8.739  14.292  1.00  0.00     0.170 HD
BRANCH  28  30
HETATM   30  C12 UNL     1     -15.200  -7.707  13.449  1.00  0.00     0.130 A 
HETATM   31  C13 UNL     1     -15.573  -8.270  12.253  1.00  0.00     0.077 A 
HETATM   32  C14 UNL     1     -16.108  -7.254  11.467  1.00  0.00     0.171 A 
HETATM   33  O3  UNL     1     -16.042  -6.177  12.180  1.00  0.00    -0.248 OA
HETATM   34  N4  UNL     1     -15.513  -6.402  13.355  1.00  0.00    -0.245 N 
ATOM     35  H4  UNL     1     -15.363  -5.703  14.082  1.00  0.00     0.196 HD
ENDBRANCH  28  30
ENDBRANCH  25  26
ENDBRANCH  24  25
ENDBRANCH  21  24
ENDBRANCH  13  18
ENDBRANCH   5  13
TORSDOF 8
ENDMDL
MODEL 3
REMARK VINA RESULT: -9.667971014      1.696      2.535
REMARK  8 active torsions:
REMARK  status: ('A' for Active; 'I' for Inactive)
REMARK    1  A    between atoms: C4_5  and  S1_6 
REMARK    2  A    between atoms: S1_6  and  N2_7 
REMARK    3  A    between atoms: S1_6  and  C5_11 
REMARK    4  A    between atoms: C8_14  and  C9_15 
REMARK    5  A    between atoms: C9_15  and  C10_16 
REMARK    6  A    between atoms: C10_16  and  C11_17 
REMARK       I    between atoms: C11_17  and  N3_19 
REMARK    7  A    between atoms: N3_19  and  C12_21 
REMARK    8  A    between atoms: C19_31  and  C20_32 
ROOT
HETATM    1  N1  UNL     1     -19.695 -15.323   9.636  1.00  0.00    -0.191 NA
HETATM    2  C1  UNL     1     -18.609 -15.462   9.996  1.00  0.00     0.100 C 
HETATM    3  C2  UNL     1     -17.260 -15.640  10.429  1.00  0.00     0.061 A 
HETATM    4  C3  UNL     1     -16.434 -14.556  10.631  1.00  0.00     0.045 A 
HETATM    5  C4  UNL     1     -15.126 -14.732  11.052  1.00  0.00     0.044 A 
HETATM    6  C17 UNL     1     -14.685 -16.017  11.261  1.00  0.00     0.023 A 
HETATM    7  C18 UNL     1     -15.526 -17.102  11.055  1.00  0.00     0.019 A 
HETATM    8  C19 UNL     1     -16.827 -16.941  10.636  1.00  0.00     0.068 A 
ENDROOT
BRANCH   8   9
HETATM    9  C20 UNL     1     -17.683 -18.094  10.430  1.00  0.00     0.418 C 
HETATM   10  F1  UNL     1     -19.006 -17.908  10.720  1.00  0.00    -0.166 F 
HETATM   11  F2  UNL     1     -17.233 -19.133  11.221  1.00  0.00    -0.166 F 
HETATM   12  F3  UNL     1     -17.506 -18.521   9.113  1.00  0.00    -0.166 F 
ENDBRANCH   8   9
BRANCH   5  13
HETATM   13  S1  UNL     1     -14.059 -13.365  11.314  1.00  0.00     0.082 S 
HETATM   14  O1  UNL     1     -13.990 -12.534  10.066  1.00  0.00    -0.240 OA
BRANCH  13  15
HETATM   15  N2  UNL     1     -12.632 -13.943  11.581  1.00  0.00    -0.353 N 
ATOM     16  H22 UNL     1     -11.752 -13.456  11.415  1.00  0.00     0.166 HD
ATOM     17  H21 UNL     1     -12.757 -14.887  11.946  1.00  0.00     0.166 HD
ENDBRANCH  13  15
BRANCH  13  18
HETATM   18  C5  UNL     1     -14.631 -12.475  12.686  1.00  0.00     0.043 A 
HETATM   19  C6  UNL     1     -15.977 -12.266  12.857  1.00  0.00     0.023 A 
HETATM   20  C7  UNL     1     -16.445 -11.551  13.960  1.00  0.00     0.008 A 
HETATM   21  C8  UNL     1     -15.561 -11.047  14.890  1.00  0.00    -0.058 A 
HETATM   22  C15 UNL     1     -14.207 -11.276  14.688  1.00  0.00     0.008 A 
HETATM   23  C16 UNL     1     -13.750 -11.984  13.597  1.00  0.00     0.023 A 
BRANCH  21  24
HETATM   24  C9  UNL     1     -16.054 -10.286  16.064  1.00  0.00     0.048 C 
BRANCH  24  25
HETATM   25  C10 UNL     1     -15.348  -8.978  16.221  1.00  0.00     0.108 C 
BRANCH  25  26
HETATM   26  C11 UNL     1     -15.790  -8.050  15.165  1.00  0.00     0.223 C 
HETATM   27  O2  UNL     1     -16.897  -7.477  15.288  1.00  0.00    -0.273 OA
HETATM   28  N3  UNL     1     -15.021  -7.766  14.002  1.00  0.00    -0.312 N 
ATOM     29  H3  UNL     1     -14.024  -7.580  14.115  1.00  0.00     0.170 HD
BRANCH  28  30
HETATM   30  C12 UNL     1     -15.517  -7.733  12.822  1.00  0.00     0.130 A 
HETATM   31  C13 UNL     1     -15.303  -8.685  11.854  1.00  0.00     0.077 A 
HETATM   32  C14 UNL     1     -16.009  -8.288  10.722  1.00  0.00     0.171 A 
HETATM   33  O3  UNL     1     -16.590  -7.175  11.033  1.00  0.00    -0.248 OA
HETATM   34  N4  UNL     1     -16.325  -6.815  12.263  1.00  0.00    -0.245 N 
ATOM     35  H4  UNL     1     -16.674  -5.974  12.723  1.00  0.00     0.196 HD
ENDBRANCH  28  30
ENDBRANCH  25  26
ENDBRANCH  24  25
ENDBRANCH  21  24
ENDBRANCH  13  18
ENDBRANCH   5  13
TORSDOF 8
ENDMDL
MODEL 4
REMARK VINA RESULT: -9.626817984      1.940      2.719
REMARK  8 active torsions:
REMARK  status: ('A' for Active; 'I' for Inactive)
REMARK    1  A    between atoms: C4_5  and  S1_6 
REMARK    2  A    between atoms: S1_6  and  N2_7 
REMARK    3  A    between atoms: S1_6  and  C5_11 
REMARK    4  A    between atoms: C8_14  and  C9_15 
REMARK    5  A    between atoms: C9_15  and  C10_16 
REMARK    6  A    between atoms: C10_16  and  C11_17 
REMARK       I    between atoms: C11_17  and  N3_19 
REMARK    7  A    between atoms: N3_19  and  C12_21 
REMARK    8  A    between atoms: C19_31  and  C20_32 
ROOT
HETATM    1  N1  UNL     1     -19.055 -14.904   9.600  1.00  0.00    -0.191 NA
HETATM    2  C1  UNL     1     -18.051 -15.278  10.023  1.00  0.00     0.100 C 
HETATM    3  C2  UNL     1     -16.802 -15.748  10.535  1.00  0.00     0.061 A 
HETATM    4  C3  UNL     1     -15.781 -14.870  10.820  1.00  0.00     0.045 A 
HETATM    5  C4  UNL     1     -14.572 -15.330  11.318  1.00  0.00     0.044 A 
HETATM    6  C17 UNL     1     -14.430 -16.682  11.515  1.00  0.00     0.023 A 
HETATM    7  C18 UNL     1     -15.466 -17.558  11.224  1.00  0.00     0.019 A 
HETATM    8  C19 UNL     1     -16.672 -17.115  10.729  1.00  0.00     0.068 A 
ENDROOT
BRANCH   8   9
HETATM    9  C20 UNL     1     -17.738 -18.054  10.435  1.00  0.00     0.418 C 
HETATM   10  F1  UNL     1     -19.005 -17.608  10.687  1.00  0.00    -0.166 F 
HETATM   11  F2  UNL     1     -17.550 -19.196  11.189  1.00  0.00    -0.166 F 
HETATM   12  F3  UNL     1     -17.594 -18.453   9.106  1.00  0.00    -0.166 F 
ENDBRANCH   8   9
BRANCH   5  13
HETATM   13  S1  UNL     1     -13.259 -14.227  11.687  1.00  0.00     0.082 S 
HETATM   14  O1  UNL     1     -12.115 -14.474  10.748  1.00  0.00    -0.240 OA
BRANCH  13  15
HETATM   15  N2  UNL     1     -12.770 -14.567  13.132  1.00  0.00    -0.353 N 
ATOM     16  H22 UNL     1     -13.033 -14.069  13.982  1.00  0.00     0.166 HD
ATOM     17  H21 UNL     1     -12.147 -15.370  13.054  1.00  0.00     0.166 HD
ENDBRANCH  13  15
BRANCH  13  18
HETATM   18  C5  UNL     1     -13.862 -12.605  11.605  1.00  0.00     0.043 A 
HETATM   19  C6  UNL     1     -14.182 -12.051  10.390  1.00  0.00     0.023 A 
HETATM   20  C7  UNL     1     -14.668 -10.746  10.317  1.00  0.00     0.008 A 
HETATM   21  C8  UNL     1     -14.834  -9.998  11.463  1.00  0.00    -0.058 A 
HETATM   22  C15 UNL     1     -14.503 -10.587  12.675  1.00  0.00     0.008 A 
HETATM   23  C16 UNL     1     -14.022 -11.878  12.743  1.00  0.00     0.023 A 
BRANCH  21  24
HETATM   24  C9  UNL     1     -15.352  -8.609  11.390  1.00  0.00     0.048 C 
BRANCH  24  25
HETATM   25  C10 UNL     1     -16.842  -8.573  11.277  1.00  0.00     0.108 C 
BRANCH  25  26
HETATM   26  C11 UNL     1     -17.442  -8.844  12.595  1.00  0.00     0.223 C 
HETATM   27  O2  UNL     1     -17.313  -7.992  13.505  1.00  0.00    -0.273 OA
HETATM   28  N3  UNL     1     -18.168 -10.030  12.894  1.00  0.00    -0.312 N 
ATOM     29  H3  UNL     1     -18.859 -10.358  12.219  1.00  0.00     0.170 HD
BRANCH  28  30
HETATM   30  C12 UNL     1     -17.997 -10.706  13.969  1.00  0.00     0.130 A 
HETATM   31  C13 UNL     1     -17.590 -12.017  14.014  1.00  0.00     0.077 A 
HETATM   32  C14 UNL     1     -17.527 -12.384  15.355  1.00  0.00     0.171 A 
HETATM   33  O3  UNL     1     -17.878 -11.338  16.030  1.00  0.00    -0.248 OA
HETATM   34  N4  UNL     1     -18.163 -10.328  15.249  1.00  0.00    -0.245 N 
ATOM     35  H4  UNL     1     -18.462  -9.403  15.560  1.00  0.00     0.196 HD
ENDBRANCH  28  30
ENDBRANCH  25  26
ENDBRANCH  24  25
ENDBRANCH  21  24
ENDBRANCH  13  18
ENDBRANCH   5  13
TORSDOF 8
ENDMDL
MODEL 5
REMARK VINA RESULT: -9.574772244      2.129      2.782
REMARK  8 active torsions:
REMARK  status: ('A' for Active; 'I' for Inactive)
REMARK    1  A    between atoms: C4_5  and  S1_6 
REMARK    2  A    between atoms: S1_6  and  N2_7 
REMARK    3  A    between atoms: S1_6  and  C5_11 
REMARK    4  A    between atoms: C8_14  and  C9_15 
REMARK    5  A    between atoms: C9_15  and  C10_16 
REMARK    6  A    between atoms: C10_16  and  C11_17 
REMARK       I    between atoms: C11_17  and  N3_19 
REMARK    7  A    between atoms: N3_19  and  C12_21 
REMARK    8  A    between atoms: C19_31  and  C20_32 
ROOT
HETATM    1  N1  UNL     1     -20.846 -17.426  10.431  1.00  0.00    -0.191 NA
HETATM    2  C1  UNL     1     -19.865 -16.822  10.421  1.00  0.00     0.100 C 
HETATM    3  C2  UNL     1     -18.647 -16.076  10.395  1.00  0.00     0.061 A 
HETATM    4  C3  UNL     1     -18.662 -14.699  10.431  1.00  0.00     0.045 A 
HETATM    5  C4  UNL     1     -17.478 -13.979  10.406  1.00  0.00     0.044 A 
HETATM    6  C17 UNL     1     -16.299 -14.681  10.347  1.00  0.00     0.023 A 
HETATM    7  C18 UNL     1     -16.295 -16.069  10.312  1.00  0.00     0.019 A 
HETATM    8  C19 UNL     1     -17.464 -16.796  10.335  1.00  0.00     0.068 A 
ENDROOT
BRANCH   8   9
HETATM    9  C20 UNL     1     -17.430 -18.246  10.299  1.00  0.00     0.418 C 
HETATM   10  F1  UNL     1     -18.352 -18.879  11.084  1.00  0.00    -0.166 F 
HETATM   11  F2  UNL     1     -16.182 -18.676  10.706  1.00  0.00    -0.166 F 
HETATM   12  F3  UNL     1     -17.545 -18.637   8.964  1.00  0.00    -0.166 F 
ENDBRANCH   8   9
BRANCH   5  13
HETATM   13  S1  UNL     1     -17.476 -12.225  10.450  1.00  0.00     0.082 S 
HETATM   14  O1  UNL     1     -18.712 -11.703   9.780  1.00  0.00    -0.240 OA
BRANCH  13  15
HETATM   15  N2  UNL     1     -16.244 -11.749   9.614  1.00  0.00    -0.353 N 
ATOM     16  H22 UNL     1     -15.940 -10.782   9.499  1.00  0.00     0.166 HD
ATOM     17  H21 UNL     1     -15.815 -12.583   9.214  1.00  0.00     0.166 HD
ENDBRANCH  13  15
BRANCH  13  18
HETATM   18  C5  UNL     1     -17.335 -11.716  12.100  1.00  0.00     0.043 A 
HETATM   19  C6  UNL     1     -17.795 -10.479  12.479  1.00  0.00     0.023 A 
HETATM   20  C7  UNL     1     -17.685 -10.063  13.806  1.00  0.00     0.008 A 
HETATM   21  C8  UNL     1     -17.112 -10.887  14.751  1.00  0.00    -0.058 A 
HETATM   22  C15 UNL     1     -16.658 -12.131  14.335  1.00  0.00     0.008 A 
HETATM   23  C16 UNL     1     -16.769 -12.538  13.022  1.00  0.00     0.023 A 
BRANCH  21  24
HETATM   24  C9  UNL     1     -16.994 -10.448  16.163  1.00  0.00     0.048 C 
BRANCH  24  25
HETATM   25  C10 UNL     1     -15.573 -10.198  16.554  1.00  0.00     0.108 C 
BRANCH  25  26
HETATM   26  C11 UNL     1     -14.890  -9.456  15.479  1.00  0.00     0.223 C 
HETATM   27  O2  UNL     1     -15.215  -8.265  15.264  1.00  0.00    -0.273 OA
HETATM   28  N3  UNL     1     -13.872 -10.024  14.663  1.00  0.00    -0.312 N 
ATOM     29  H3  UNL     1     -13.136 -10.567  15.115  1.00  0.00     0.170 HD
BRANCH  28  30
HETATM   30  C12 UNL     1     -13.833  -9.887  13.391  1.00  0.00     0.130 A 
HETATM   31  C13 UNL     1     -13.092 -10.670  12.539  1.00  0.00     0.077 A 
HETATM   32  C14 UNL     1     -13.318 -10.205  11.247  1.00  0.00     0.171 A 
HETATM   33  O3  UNL     1     -14.142  -9.214  11.362  1.00  0.00    -0.248 OA
HETATM   34  N4  UNL     1     -14.469  -8.995  12.610  1.00  0.00    -0.245 N 
ATOM     35  H4  UNL     1     -15.104  -8.267  12.937  1.00  0.00     0.196 HD
ENDBRANCH  28  30
ENDBRANCH  25  26
ENDBRANCH  24  25
ENDBRANCH  21  24
ENDBRANCH  13  18
ENDBRANCH   5  13
TORSDOF 8
ENDMDL
