MODEL 1
REMARK VINA RESULT: -9.254670436      0.000      0.000
REMARK  7 active torsions:
REMARK  status: ('A' for Active; 'I' for Inactive)
REMARK       I    between atoms: C1_2  and  N1_3 
REMARK    1  A    between atoms: C1_2  and  C11_23 
REMARK    2  A    between atoms: N1_3  and  C2_5 
REMARK    3  A    between atoms: C2_5  and  C8_14 
REMARK    4  A    between atoms: N2_6  and  C3_8 
REMARK    5  A    between atoms: C3_8  and  C4_9 
REMARK    6  A    between atoms: C8_14  and  C9_19 
REMARK    7  A    between atoms: N3_15  and  O3_17 
ROOT
HETATM    1  C2  UNL     1     -14.744 -10.768  13.175  1.00  0.00     0.135 C 
HETATM    2  N2  UNL     1     -14.114 -10.061  12.282  1.00  0.00    -0.368 N 
ATOM      3  H2  UNL     1     -13.688  -9.191  12.600  1.00  0.00     0.161 HD
ENDROOT
BRANCH   1   4
HETATM    4  N1  UNL     1     -15.324 -11.970  12.717  1.00  0.00    -0.307 N 
HETATM    5  C1  UNL     1     -16.566 -12.472  12.459  1.00  0.00     0.257 C 
HETATM    6  O1  UNL     1     -17.656 -11.902  12.587  1.00  0.00    -0.267 OA
ATOM      7  H1  UNL     1     -14.604 -12.668  12.524  1.00  0.00     0.170 HD
BRANCH   5   8
HETATM    8  C11 UNL     1     -16.713 -13.888  11.952  1.00  0.00     0.032 A 
HETATM    9  C12 UNL     1     -17.882 -14.278  11.384  1.00  0.00     0.018 A 
HETATM   10  C13 UNL     1     -18.098 -15.547  10.892  1.00  0.00     0.020 A 
HETATM   11  C14 UNL     1     -17.079 -16.470  10.977  1.00  0.00     0.011 A 
HETATM   12 BR1  UNL     1     -17.336 -18.246  10.303  1.00  0.00    -0.051 Br
HETATM   13  C15 UNL     1     -15.889 -16.082  11.552  1.00  0.00     0.020 A 
HETATM   14  C16 UNL     1     -15.683 -14.788  12.049  1.00  0.00     0.018 A 
ENDBRANCH   5   8
ENDBRANCH   1   4
BRANCH   1  15
HETATM   15  C8  UNL     1     -14.770 -10.231  14.529  1.00  0.00     0.120 C 
HETATM   16  N3  UNL     1     -13.580 -10.251  15.091  1.00  0.00    -0.264 N 
ATOM     17  H3  UNL     1     -12.811 -10.625  14.535  1.00  0.00     0.194 HD
BRANCH  16  18
HETATM   18  O3  UNL     1     -13.293  -9.835  16.299  1.00  0.00    -0.289 OA
ATOM     19  H3  UNL     1     -13.666  -9.075  16.729  1.00  0.00     0.244 HD
ENDBRANCH  16  18
BRANCH  15  20
HETATM   20  C9  UNL     1     -15.824  -9.716  15.294  1.00  0.00     0.077 C 
HETATM   21 CL1  UNL     1     -15.694  -7.879  15.618  1.00  0.00    -0.081 Cl
HETATM   22  C10 UNL     1     -16.871 -10.173  15.844  1.00  0.00     0.111 C 
HETATM   23 CL2  UNL     1     -17.606 -11.704  15.963  1.00  0.00    -0.095 Cl
ENDBRANCH  15  20
ENDBRANCH   1  15
BRANCH   2  24
HETATM   24  C3  UNL     1     -13.960 -10.391  10.891  1.00  0.00     0.186 C 
BRANCH  24  25
HETATM   25  C4  UNL     1     -13.461 -11.742  10.614  1.00  0.00     0.070 A 
HETATM   26  C5  UNL     1     -13.916 -12.501   9.555  1.00  0.00     0.036 A 
HETATM   27  C6  UNL     1     -13.264 -13.695   9.572  1.00  0.00     0.027 A 
HETATM   28  C7  UNL     1     -12.409 -13.640  10.658  1.00  0.00     0.142 A 
HETATM   29  O2  UNL     1     -12.569 -12.473  11.231  1.00  0.00    -0.325 OA
ENDBRANCH  24  25
ENDBRANCH   2  24
TORSDOF 7
ENDMDL
MODEL 2
REMARK VINA RESULT: -9.251394346      1.032      1.419
REMARK  7 active torsions:
REMARK  status: ('A' for Active; 'I' for Inactive)
REMARK       I    between atoms: C1_2  and  N1_3 
REMARK    1  A    between atoms: C1_2  and  C11_23 
REMARK    2  A    between atoms: N1_3  and  C2_5 
REMARK    3  A    between atoms: C2_5  and  C8_14 
REMARK    4  A    between atoms: N2_6  and  C3_8 
REMARK    5  A    between atoms: C3_8  and  C4_9 
REMARK    6  A    between atoms: C8_14  and  C9_19 
REMARK    7  A    between atoms: N3_15  and  O3_17 
ROOT
HETATM    1  C2  UNL     1     -14.776 -10.720  13.235  1.00  0.00     0.135 C 
HETATM    2  N2  UNL     1     -14.388  -9.903  12.299  1.00  0.00    -0.368 N 
ATOM      3  H2  UNL     1     -14.123  -8.962  12.588  1.00  0.00     0.161 HD
ENDROOT
BRANCH   1   4
HETATM    4  N1  UNL     1     -15.135 -12.017  12.816  1.00  0.00    -0.307 N 
HETATM    5  C1  UNL     1     -14.879 -13.312  13.164  1.00  0.00     0.257 C 
HETATM    6  O1  UNL     1     -14.151 -13.722  14.075  1.00  0.00    -0.267 OA
ATOM      7  H1  UNL     1     -15.773 -11.977  12.020  1.00  0.00     0.170 HD
BRANCH   5   8
HETATM    8  C11 UNL     1     -15.524 -14.439  12.391  1.00  0.00     0.032 A 
HETATM    9  C12 UNL     1     -14.800 -15.547  12.093  1.00  0.00     0.018 A 
HETATM   10  C13 UNL     1     -15.312 -16.621  11.398  1.00  0.00     0.020 A 
HETATM   11  C14 UNL     1     -16.624 -16.574  10.983  1.00  0.00     0.011 A 
HETATM   12 BR1  UNL     1     -17.377 -18.047  10.014  1.00  0.00    -0.051 Br
HETATM   13  C15 UNL     1     -17.367 -15.452  11.281  1.00  0.00     0.020 A 
HETATM   14  C16 UNL     1     -16.833 -14.366  11.989  1.00  0.00     0.018 A 
ENDBRANCH   5   8
ENDBRANCH   1   4
BRANCH   1  15
HETATM   15  C8  UNL     1     -14.789 -10.192  14.593  1.00  0.00     0.120 C 
HETATM   16  N3  UNL     1     -13.594 -10.218  15.144  1.00  0.00    -0.264 N 
ATOM     17  H3  UNL     1     -12.831 -10.590  14.579  1.00  0.00     0.194 HD
BRANCH  16  18
HETATM   18  O3  UNL     1     -13.296  -9.811  16.352  1.00  0.00    -0.289 OA
ATOM     19  H3  UNL     1     -12.690  -9.113  16.572  1.00  0.00     0.244 HD
ENDBRANCH  16  18
BRANCH  15  20
HETATM   20  C9  UNL     1     -15.836  -9.680  15.371  1.00  0.00     0.077 C 
HETATM   21 CL1  UNL     1     -15.662  -7.861  15.765  1.00  0.00    -0.081 Cl
HETATM   22  C10 UNL     1     -16.898 -10.132  15.896  1.00  0.00     0.111 C 
HETATM   23 CL2  UNL     1     -17.671 -11.647  15.952  1.00  0.00    -0.095 Cl
ENDBRANCH  15  20
ENDBRANCH   1  15
BRANCH   2  24
HETATM   24  C3  UNL     1     -14.296 -10.202  10.896  1.00  0.00     0.186 C 
BRANCH  24  25
HETATM   25  C4  UNL     1     -13.603 -11.451  10.560  1.00  0.00     0.070 A 
HETATM   26  C5  UNL     1     -14.065 -12.321   9.594  1.00  0.00     0.036 A 
HETATM   27  C6  UNL     1     -13.207 -13.376   9.522  1.00  0.00     0.027 A 
HETATM   28  C7  UNL     1     -12.224 -13.123  10.462  1.00  0.00     0.142 A 
HETATM   29  O2  UNL     1     -12.508 -11.983  11.038  1.00  0.00    -0.325 OA
ENDBRANCH  24  25
ENDBRANCH   2  24
TORSDOF 7
ENDMDL
MODEL 3
REMARK VINA RESULT: -9.077500893      0.980      1.770
REMARK  7 active torsions:
REMARK  status: ('A' for Active; 'I' for Inactive)
REMARK       I    between atoms: C1_2  and  N1_3 
REMARK    1  A    between atoms: C1_2  and  C11_23 
REMARK    2  A    between atoms: N1_3  and  C2_5 
REMARK    3  A    between atoms: C2_5  and  C8_14 
REMARK    4  A    between atoms: N2_6  and  C3_8 
REMARK    5  A    between atoms: C3_8  and  C4_9 
REMARK    6  A    between atoms: C8_14  and  C9_19 
REMARK    7  A    between atoms: N3_15  and  O3_17 
ROOT
HETATM    1  C2  UNL     1     -14.589 -10.663  13.019  1.00  0.00     0.135 C 
HETATM    2  N2  UNL     1     -14.055  -9.967  12.058  1.00  0.00    -0.368 N 
ATOM      3  H2  UNL     1     -13.681  -9.050  12.304  1.00  0.00     0.161 HD
ENDROOT
BRANCH   1   4
HETATM    4  N1  UNL     1     -15.098 -11.928  12.659  1.00  0.00    -0.307 N 
HETATM    5  C1  UNL     1     -15.572 -13.051  13.273  1.00  0.00     0.257 C 
HETATM    6  O1  UNL     1     -15.684 -13.263  14.486  1.00  0.00    -0.267 OA
ATOM      7  H1  UNL     1     -15.118 -12.034  11.645  1.00  0.00     0.170 HD
BRANCH   5   8
HETATM    8  C11 UNL     1     -16.037 -14.223  12.438  1.00  0.00     0.032 A 
HETATM    9  C12 UNL     1     -15.191 -15.258  12.208  1.00  0.00     0.018 A 
HETATM   10  C13 UNL     1     -15.535 -16.366  11.465  1.00  0.00     0.020 A 
HETATM   11  C14 UNL     1     -16.801 -16.431  10.926  1.00  0.00     0.011 A 
HETATM   12 BR1  UNL     1     -17.322 -17.954   9.885  1.00  0.00    -0.051 Br
HETATM   13  C15 UNL     1     -17.667 -15.384  11.154  1.00  0.00     0.020 A 
HETATM   14  C16 UNL     1     -17.303 -14.262  11.913  1.00  0.00     0.018 A 
ENDBRANCH   5   8
ENDBRANCH   1   4
BRANCH   1  15
HETATM   15  C8  UNL     1     -14.592 -10.050  14.341  1.00  0.00     0.120 C 
HETATM   16  N3  UNL     1     -13.416 -10.133  14.926  1.00  0.00    -0.264 N 
ATOM     17  H3  UNL     1     -12.671 -10.598  14.407  1.00  0.00     0.194 HD
BRANCH  16  18
HETATM   18  O3  UNL     1     -13.115  -9.673  16.114  1.00  0.00    -0.289 OA
ATOM     19  H3  UNL     1     -12.243  -9.624  16.489  1.00  0.00     0.244 HD
ENDBRANCH  16  18
BRANCH  15  20
HETATM   20  C9  UNL     1     -15.613  -9.410  15.056  1.00  0.00     0.077 C 
HETATM   21 CL1  UNL     1     -16.366 -10.466  16.403  1.00  0.00    -0.081 Cl
HETATM   22  C10 UNL     1     -16.181  -8.277  15.034  1.00  0.00     0.111 C 
HETATM   23 CL2  UNL     1     -16.019  -6.860  14.105  1.00  0.00    -0.095 Cl
ENDBRANCH  15  20
ENDBRANCH   1  15
BRANCH   2  24
HETATM   24  C3  UNL     1     -13.942 -10.366  10.682  1.00  0.00     0.186 C 
BRANCH  24  25
HETATM   25  C4  UNL     1     -13.438 -11.726  10.458  1.00  0.00     0.070 A 
HETATM   26  C5  UNL     1     -13.962 -12.564   9.496  1.00  0.00     0.036 A 
HETATM   27  C6  UNL     1     -13.284 -13.744   9.540  1.00  0.00     0.027 A 
HETATM   28  C7  UNL     1     -12.346 -13.598  10.546  1.00  0.00     0.142 A 
HETATM   29  O2  UNL     1     -12.483 -12.397  11.048  1.00  0.00    -0.325 OA
ENDBRANCH  24  25
ENDBRANCH   2  24
TORSDOF 7
ENDMDL
MODEL 4
REMARK VINA RESULT: -8.942030941      1.423      1.735
REMARK  7 active torsions:
REMARK  status: ('A' for Active; 'I' for Inactive)
REMARK       I    between atoms: C1_2  and  N1_3 
REMARK    1  A    between atoms: C1_2  and  C11_23 
REMARK    2  A    between atoms: N1_3  and  C2_5 
REMARK    3  A    between atoms: C2_5  and  C8_14 
REMARK    4  A    between atoms: N2_6  and  C3_8 
REMARK    5  A    between atoms: C3_8  and  C4_9 
REMARK    6  A    between atoms: C8_14  and  C9_19 
REMARK    7  A    between atoms: N3_15  and  O3_17 
ROOT
HETATM    1  C2  UNL     1     -15.344 -10.495  12.533  1.00  0.00     0.135 C 
HETATM    2  N2  UNL     1     -14.708  -9.878  11.580  1.00  0.00    -0.368 N 
ATOM      3  H2  UNL     1     -14.447  -8.907  11.753  1.00  0.00     0.161 HD
ENDROOT
BRANCH   1   4
HETATM    4  N1  UNL     1     -15.695 -11.837  12.276  1.00  0.00    -0.307 N 
HETATM    5  C1  UNL     1     -15.741 -13.027  12.943  1.00  0.00     0.257 C 
HETATM    6  O1  UNL     1     -15.435 -13.249  14.120  1.00  0.00    -0.267 OA
ATOM      7  H1  UNL     1     -16.004 -11.951  11.310  1.00  0.00     0.170 HD
BRANCH   5   8
HETATM    8  C11 UNL     1     -16.212 -14.271  12.226  1.00  0.00     0.032 A 
HETATM    9  C12 UNL     1     -15.359 -15.313  12.061  1.00  0.00     0.018 A 
HETATM   10  C13 UNL     1     -15.708 -16.484  11.426  1.00  0.00     0.020 A 
HETATM   11  C14 UNL     1     -16.987 -16.610  10.930  1.00  0.00     0.011 A 
HETATM   12 BR1  UNL     1     -17.516 -18.223  10.039  1.00  0.00    -0.051 Br
HETATM   13  C15 UNL     1     -17.861 -15.557  11.092  1.00  0.00     0.020 A 
HETATM   14  C16 UNL     1     -17.491 -14.370  11.741  1.00  0.00     0.018 A 
ENDBRANCH   5   8
ENDBRANCH   1   4
BRANCH   1  15
HETATM   15  C8  UNL     1     -15.613  -9.725  13.741  1.00  0.00     0.120 C 
HETATM   16  N3  UNL     1     -14.742  -8.752  13.909  1.00  0.00    -0.264 N 
ATOM     17  H3  UNL     1     -14.011  -8.657  13.204  1.00  0.00     0.194 HD
BRANCH  16  18
HETATM   18  O3  UNL     1     -14.728  -7.897  14.900  1.00  0.00    -0.289 OA
ATOM     19  H3  UNL     1     -14.045  -7.815  15.556  1.00  0.00     0.244 HD
ENDBRANCH  16  18
BRANCH  15  20
HETATM   20  C9  UNL     1     -16.616  -9.854  14.710  1.00  0.00     0.077 C 
HETATM   21 CL1  UNL     1     -15.985 -10.421  16.376  1.00  0.00    -0.081 Cl
HETATM   22  C10 UNL     1     -17.871  -9.687  14.763  1.00  0.00     0.111 C 
HETATM   23 CL2  UNL     1     -19.074  -9.198  13.663  1.00  0.00    -0.095 Cl
ENDBRANCH  15  20
ENDBRANCH   1  15
BRANCH   2  24
HETATM   24  C3  UNL     1     -14.339 -10.433  10.307  1.00  0.00     0.186 C 
BRANCH  24  25
HETATM   25  C4  UNL     1     -13.645 -11.724  10.360  1.00  0.00     0.070 A 
HETATM   26  C5  UNL     1     -13.901 -12.744   9.466  1.00  0.00     0.036 A 
HETATM   27  C6  UNL     1     -13.101 -13.800   9.779  1.00  0.00     0.027 A 
HETATM   28  C7  UNL     1     -12.362 -13.397  10.876  1.00  0.00     0.142 A 
HETATM   29  O2  UNL     1     -12.722 -12.173  11.171  1.00  0.00    -0.325 OA
ENDBRANCH  24  25
ENDBRANCH   2  24
TORSDOF 7
ENDMDL
MODEL 5
REMARK VINA RESULT: -8.763791801      1.411      1.667
REMARK  7 active torsions:
REMARK  status: ('A' for Active; 'I' for Inactive)
REMARK       I    between atoms: C1_2  and  N1_3 
REMARK    1  A    between atoms: C1_2  and  C11_23 
REMARK    2  A    between atoms: N1_3  and  C2_5 
REMARK    3  A    between atoms: C2_5  and  C8_14 
REMARK    4  A    between atoms: N2_6  and  C3_8 
REMARK    5  A    between atoms: C3_8  and  C4_9 
REMARK    6  A    between atoms: C8_14  and  C9_19 
REMARK    7  A    between atoms: N3_15  and  O3_17 
ROOT
HETATM    1  C2  UNL     1     -13.625 -11.355  12.714  1.00  0.00     0.135 C 
HETATM    2  N2  UNL     1     -12.607 -11.094  11.946  1.00  0.00    -0.368 N 
ATOM      3  H2  UNL     1     -12.086 -10.241  12.147  1.00  0.00     0.161 HD
ENDROOT
BRANCH   1   4
HETATM    4  N1  UNL     1     -14.333 -12.540  12.422  1.00  0.00    -0.307 N 
HETATM    5  C1  UNL     1     -15.228 -13.373  13.030  1.00  0.00     0.257 C 
HETATM    6  O1  UNL     1     -15.708 -13.271  14.165  1.00  0.00    -0.267 OA
ATOM      7  H1  UNL     1     -14.111 -12.872  11.483  1.00  0.00     0.170 HD
BRANCH   5   8
HETATM    8  C11 UNL     1     -15.744 -14.587  12.293  1.00  0.00     0.032 A 
HETATM    9  C12 UNL     1     -17.019 -14.597  11.829  1.00  0.00     0.018 A 
HETATM   10  C13 UNL     1     -17.566 -15.659  11.143  1.00  0.00     0.020 A 
HETATM   11  C14 UNL     1     -16.785 -16.769  10.913  1.00  0.00     0.011 A 
HETATM   12 BR1  UNL     1     -17.506 -18.269   9.962  1.00  0.00    -0.051 Br
HETATM   13  C15 UNL     1     -15.489 -16.768  11.381  1.00  0.00     0.020 A 
HETATM   14  C16 UNL     1     -14.945 -15.680  12.078  1.00  0.00     0.018 A 
ENDBRANCH   5   8
ENDBRANCH   1   4
BRANCH   1  15
HETATM   15  C8  UNL     1     -13.905 -10.395  13.774  1.00  0.00     0.120 C 
HETATM   16  N3  UNL     1     -12.898 -10.283  14.615  1.00  0.00    -0.264 N 
ATOM     17  H3  UNL     1     -12.076 -10.859  14.434  1.00  0.00     0.194 HD
BRANCH  16  18
HETATM   18  O3  UNL     1     -12.858  -9.501  15.664  1.00  0.00    -0.289 OA
ATOM     19  H3  UNL     1     -13.430  -8.761  15.829  1.00  0.00     0.244 HD
ENDBRANCH  16  18
BRANCH  15  20
HETATM   20  C9  UNL     1     -15.033  -9.603  14.024  1.00  0.00     0.077 C 
HETATM   21 CL1  UNL     1     -15.272  -8.220  12.790  1.00  0.00    -0.081 Cl
HETATM   22  C10 UNL     1     -15.960  -9.570  14.888  1.00  0.00     0.111 C 
HETATM   23 CL2  UNL     1     -16.369 -10.490  16.260  1.00  0.00    -0.095 Cl
ENDBRANCH  15  20
ENDBRANCH   1  15
BRANCH   2  24
HETATM   24  C3  UNL     1     -12.148 -11.892  10.843  1.00  0.00     0.186 C 
BRANCH  24  25
HETATM   25  C4  UNL     1     -13.199 -12.430   9.973  1.00  0.00     0.070 A 
HETATM   26  C5  UNL     1     -13.284 -13.768   9.647  1.00  0.00     0.036 A 
HETATM   27  C6  UNL     1     -14.359 -13.944   8.830  1.00  0.00     0.027 A 
HETATM   28  C7  UNL     1     -14.917 -12.688   8.672  1.00  0.00     0.142 A 
HETATM   29  O2  UNL     1     -14.196 -11.842   9.363  1.00  0.00    -0.325 OA
ENDBRANCH  24  25
ENDBRANCH   2  24
TORSDOF 7
ENDMDL
