MODEL 1
REMARK VINA RESULT: -4.456890851      0.000      0.000
REMARK  3 active torsions:
REMARK  status: ('A' for Active; 'I' for Inactive)
REMARK    1  A    between atoms: C2_3  and  N2_4 
REMARK    2  A    between atoms: N2_4  and  O1_5 
REMARK    3  A    between atoms: N2_4  and  C3_7 
ROOT
HETATM    1  N1  UNL     1      28.024  20.620   9.671  1.00  0.00    -0.194 NA
HETATM    2  C1  UNL     1      27.259  20.087   8.986  1.00  0.00     0.093 C 
HETATM    3  C2  UNL     1      26.297  19.407   8.093  1.00  0.00     0.149 A 
HETATM    4  C4  UNL     1      26.284  19.857   6.630  1.00  0.00     0.053 A 
HETATM    5  C5  UNL     1      25.209  20.277   7.558  1.00  0.00     0.053 A 
ENDROOT
BRANCH   3   6
HETATM    6  N2  UNL     1      26.109  18.005   8.299  1.00  0.00    -0.215 N 
BRANCH   6   7
HETATM    7  O1  UNL     1      24.896  17.416   8.053  1.00  0.00    -0.284 OA
ATOM      8  H1  UNL     1      24.554  16.746   8.634  1.00  0.00     0.245 HD
ENDBRANCH   6   7
BRANCH   6   9
HETATM    9  C3  UNL     1      27.170  17.180   8.764  1.00  0.00     0.196 C 
HETATM   10  S1  UNL     1      27.999  16.268   7.693  1.00  0.00    -0.045 SA
HETATM   11 CL1  UNL     1      27.633  17.094  10.437  1.00  0.00    -0.050 Cl
ENDBRANCH   6   9
ENDBRANCH   3   6
TORSDOF 3
ENDMDL
MODEL 2
REMARK VINA RESULT: -4.455380175      2.277      3.837
REMARK  3 active torsions:
REMARK  status: ('A' for Active; 'I' for Inactive)
REMARK    1  A    between atoms: C2_3  and  N2_4 
REMARK    2  A    between atoms: N2_4  and  O1_5 
REMARK    3  A    between atoms: N2_4  and  C3_7 
ROOT
HETATM    1  N1  UNL     1      28.858  15.740   6.904  1.00  0.00    -0.194 NA
HETATM    2  C1  UNL     1      27.994  15.929   7.650  1.00  0.00     0.093 C 
HETATM    3  C2  UNL     1      26.906  16.177   8.619  1.00  0.00     0.149 A 
HETATM    4  C4  UNL     1      27.206  15.851  10.084  1.00  0.00     0.053 A 
HETATM    5  C5  UNL     1      26.352  14.955   9.271  1.00  0.00     0.053 A 
ENDROOT
BRANCH   3   6
HETATM    6  N2  UNL     1      26.111  17.346   8.407  1.00  0.00    -0.215 N 
BRANCH   6   7
HETATM    7  O1  UNL     1      24.773  17.243   8.127  1.00  0.00    -0.284 OA
ATOM      8  H1  UNL     1      24.229  18.019   8.059  1.00  0.00     0.245 HD
ENDBRANCH   6   7
BRANCH   6   9
HETATM    9  C3  UNL     1      26.680  18.647   8.480  1.00  0.00     0.196 C 
HETATM   10  S1  UNL     1      26.250  19.768   7.373  1.00  0.00    -0.045 SA
HETATM   11 CL1  UNL     1      27.825  19.108   9.703  1.00  0.00    -0.050 Cl
ENDBRANCH   6   9
ENDBRANCH   3   6
TORSDOF 3
ENDMDL
MODEL 3
REMARK VINA RESULT: -4.452097801      5.968      6.476
REMARK  3 active torsions:
REMARK  status: ('A' for Active; 'I' for Inactive)
REMARK    1  A    between atoms: C2_3  and  N2_4 
REMARK    2  A    between atoms: N2_4  and  O1_5 
REMARK    3  A    between atoms: N2_4  and  C3_7 
ROOT
HETATM    1  N1  UNL     1      25.043  23.245   7.312  1.00  0.00    -0.194 NA
HETATM    2  C1  UNL     1      23.914  23.381   7.100  1.00  0.00     0.093 C 
HETATM    3  C2  UNL     1      22.475  23.548   6.807  1.00  0.00     0.149 A 
HETATM    4  C4  UNL     1      22.116  24.091   5.422  1.00  0.00     0.053 A 
HETATM    5  C5  UNL     1      22.029  24.960   6.618  1.00  0.00     0.053 A 
ENDROOT
BRANCH   3   6
HETATM    6  N2  UNL     1      21.595  22.540   7.312  1.00  0.00    -0.215 N 
BRANCH   6   7
HETATM    7  O1  UNL     1      20.686  22.832   8.296  1.00  0.00    -0.284 OA
ATOM      8  H1  UNL     1      20.974  23.142   9.147  1.00  0.00     0.245 HD
ENDBRANCH   6   7
BRANCH   6   9
HETATM    9  C3  UNL     1      21.635  21.210   6.811  1.00  0.00     0.196 C 
HETATM   10  S1  UNL     1      22.651  20.131   7.496  1.00  0.00    -0.045 SA
HETATM   11 CL1  UNL     1      20.644  20.671   5.490  1.00  0.00    -0.050 Cl
ENDBRANCH   6   9
ENDBRANCH   3   6
TORSDOF 3
ENDMDL
MODEL 4
REMARK VINA RESULT: -4.448410133      6.255      6.776
REMARK  3 active torsions:
REMARK  status: ('A' for Active; 'I' for Inactive)
REMARK    1  A    between atoms: C2_3  and  N2_4 
REMARK    2  A    between atoms: N2_4  and  O1_5 
REMARK    3  A    between atoms: N2_4  and  C3_7 
ROOT
HETATM    1  N1  UNL     1      24.827  23.278   7.318  1.00  0.00    -0.194 NA
HETATM    2  C1  UNL     1      23.895  22.595   7.359  1.00  0.00     0.093 C 
HETATM    3  C2  UNL     1      22.705  21.721   7.436  1.00  0.00     0.149 A 
HETATM    4  C4  UNL     1      22.681  20.693   8.569  1.00  0.00     0.053 A 
HETATM    5  C5  UNL     1      22.965  20.275   7.178  1.00  0.00     0.053 A 
ENDROOT
BRANCH   3   6
HETATM    6  N2  UNL     1      21.444  22.326   7.138  1.00  0.00    -0.215 N 
BRANCH   6   7
HETATM    7  O1  UNL     1      20.685  22.891   8.131  1.00  0.00    -0.284 OA
ATOM      8  H1  UNL     1      20.895  22.745   9.046  1.00  0.00     0.245 HD
ENDBRANCH   6   7
BRANCH   6   9
HETATM    9  C3  UNL     1      20.940  22.360   5.809  1.00  0.00     0.196 C 
HETATM   10  S1  UNL     1      21.126  23.718   4.921  1.00  0.00    -0.045 SA
HETATM   11 CL1  UNL     1      20.125  21.013   5.075  1.00  0.00    -0.050 Cl
ENDBRANCH   6   9
ENDBRANCH   3   6
TORSDOF 3
ENDMDL
MODEL 5
REMARK VINA RESULT: -4.437981275      6.510      7.145
REMARK  3 active torsions:
REMARK  status: ('A' for Active; 'I' for Inactive)
REMARK    1  A    between atoms: C2_3  and  N2_4 
REMARK    2  A    between atoms: N2_4  and  O1_5 
REMARK    3  A    between atoms: N2_4  and  C3_7 
ROOT
HETATM    1  N1  UNL     1      22.959  26.234   7.231  1.00  0.00    -0.194 NA
HETATM    2  C1  UNL     1      22.326  25.367   6.799  1.00  0.00     0.093 C 
HETATM    3  C2  UNL     1      21.534  24.256   6.231  1.00  0.00     0.149 A 
HETATM    4  C4  UNL     1      21.574  24.095   4.709  1.00  0.00     0.053 A 
HETATM    5  C5  UNL     1      20.385  24.674   5.375  1.00  0.00     0.053 A 
ENDROOT
BRANCH   3   6
HETATM    6  N2  UNL     1      21.518  23.034   6.972  1.00  0.00    -0.215 N 
BRANCH   6   7
HETATM    7  O1  UNL     1      20.344  22.536   7.478  1.00  0.00    -0.284 OA
ATOM      8  H1  UNL     1      20.331  22.070   8.306  1.00  0.00     0.245 HD
ENDBRANCH   6   7
BRANCH   6   9
HETATM    9  C3  UNL     1      22.712  22.299   7.206  1.00  0.00     0.196 C 
HETATM   10  S1  UNL     1      22.615  20.699   7.518  1.00  0.00    -0.045 SA
HETATM   11 CL1  UNL     1      24.289  23.029   7.178  1.00  0.00    -0.050 Cl
ENDBRANCH   6   9
ENDBRANCH   3   6
TORSDOF 3
ENDMDL
