MODEL 1
REMARK VINA RESULT: -4.880506378      0.000      0.000
REMARK  2 active torsions:
REMARK  status: ('A' for Active; 'I' for Inactive)
REMARK    1  A    between atoms: C5_6  and  N1_8 
REMARK    2  A    between atoms: N2_11  and  O3_12 
ROOT
HETATM    1  C1  UNL     1      26.248  17.773   8.124  1.00  0.00     0.037 C 
HETATM    2  C2  UNL     1      27.204  17.078   9.053  1.00  0.00     0.069 A 
HETATM    3  C3  UNL     1      27.912  18.028   9.955  1.00  0.00     0.037 C 
HETATM    4  C4  UNL     1      28.210  16.157   8.370  1.00  0.00     0.245 A 
HETATM    5  F1  UNL     1      29.506  16.486   8.592  1.00  0.00    -0.243 F 
HETATM    6  C5  UNL     1      27.610  15.014   9.132  1.00  0.00     0.202 A 
HETATM    7  C6  UNL     1      27.047  13.997   8.134  1.00  0.00     0.069 C 
HETATM    8  N2  UNL     1      26.617  15.920   9.641  1.00  0.00    -0.150 NA
ENDROOT
BRANCH   6   9
HETATM    9  N1  UNL     1      28.476  14.397  10.067  1.00  0.00    -0.125 N 
HETATM   10  O1  UNL     1      28.883  13.241   9.886  1.00  0.00    -0.535 OA
HETATM   11  O2  UNL     1      28.916  15.026  11.210  1.00  0.00    -0.535 OA
ENDBRANCH   6   9
BRANCH   8  12
HETATM   12  O3  UNL     1      26.382  15.916  10.941  1.00  0.00    -0.309 OA
ATOM     13  H3  UNL     1      25.484  15.852  11.243  1.00  0.00     0.237 HD
ENDBRANCH   8  12
TORSDOF 2
ENDMDL
MODEL 2
REMARK VINA RESULT: -4.752886435      2.156      3.546
REMARK  2 active torsions:
REMARK  status: ('A' for Active; 'I' for Inactive)
REMARK    1  A    between atoms: C5_6  and  N1_8 
REMARK    2  A    between atoms: N2_11  and  O3_12 
ROOT
HETATM    1  C1  UNL     1      27.744  13.515   9.919  1.00  0.00     0.037 C 
HETATM    2  C2  UNL     1      27.523  14.775   9.130  1.00  0.00     0.069 A 
HETATM    3  C3  UNL     1      27.316  14.508   7.679  1.00  0.00     0.037 C 
HETATM    4  C4  UNL     1      28.591  15.847   9.317  1.00  0.00     0.245 A 
HETATM    5  F1  UNL     1      29.225  16.208   8.175  1.00  0.00    -0.243 F 
HETATM    6  C5  UNL     1      27.527  16.745   9.871  1.00  0.00     0.202 A 
HETATM    7  C6  UNL     1      27.891  17.110  11.315  1.00  0.00     0.069 C 
HETATM    8  N2  UNL     1      26.603  15.647   9.780  1.00  0.00    -0.150 NA
ENDROOT
BRANCH   6   9
HETATM    9  N1  UNL     1      27.254  17.899   9.098  1.00  0.00    -0.125 N 
HETATM   10  O1  UNL     1      27.527  19.028   9.528  1.00  0.00    -0.535 OA
HETATM   11  O2  UNL     1      26.683  17.844   7.846  1.00  0.00    -0.535 OA
ENDBRANCH   6   9
BRANCH   8  12
HETATM   12  O3  UNL     1      25.430  15.870   9.215  1.00  0.00    -0.309 OA
ATOM     13  H3  UNL     1      25.012  16.713   9.345  1.00  0.00     0.237 HD
ENDBRANCH   8  12
TORSDOF 2
ENDMDL
MODEL 3
REMARK VINA RESULT: -4.604932577      2.366      3.023
REMARK  2 active torsions:
REMARK  status: ('A' for Active; 'I' for Inactive)
REMARK    1  A    between atoms: C5_6  and  N1_8 
REMARK    2  A    between atoms: N2_11  and  O3_12 
ROOT
HETATM    1  C1  UNL     1      28.406  16.575  11.067  1.00  0.00     0.037 C 
HETATM    2  C2  UNL     1      27.913  16.044   9.750  1.00  0.00     0.069 A 
HETATM    3  C3  UNL     1      27.533  17.131   8.806  1.00  0.00     0.037 C 
HETATM    4  C4  UNL     1      26.786  15.021   9.850  1.00  0.00     0.245 A 
HETATM    5  F1  UNL     1      25.649  15.380   9.208  1.00  0.00    -0.243 F 
HETATM    6  C5  UNL     1      27.700  14.022   9.206  1.00  0.00     0.202 A 
HETATM    7  C6  UNL     1      27.915  12.853  10.173  1.00  0.00     0.069 C 
HETATM    8  N2  UNL     1      28.751  15.002   9.257  1.00  0.00    -0.150 NA
ENDROOT
BRANCH   6   9
HETATM    9  N1  UNL     1      27.287  13.569   7.930  1.00  0.00    -0.125 N 
HETATM   10  O1  UNL     1      26.933  12.394   7.759  1.00  0.00    -0.535 OA
HETATM   11  O2  UNL     1      27.250  14.385   6.821  1.00  0.00    -0.535 OA
ENDBRANCH   6   9
BRANCH   8  12
HETATM   12  O3  UNL     1      29.453  15.216   8.160  1.00  0.00    -0.309 OA
ATOM     13  H3  UNL     1      29.197  14.774   7.359  1.00  0.00     0.237 HD
ENDBRANCH   8  12
TORSDOF 2
ENDMDL
MODEL 4
REMARK VINA RESULT: -4.390995458      2.105      3.503
REMARK  2 active torsions:
REMARK  status: ('A' for Active; 'I' for Inactive)
REMARK    1  A    between atoms: C5_6  and  N1_8 
REMARK    2  A    between atoms: N2_11  and  O3_12 
ROOT
HETATM    1  C1  UNL     1      30.506  15.384   7.097  1.00  0.00     0.037 C 
HETATM    2  C2  UNL     1      29.265  14.745   7.653  1.00  0.00     0.069 A 
HETATM    3  C3  UNL     1      29.344  13.257   7.656  1.00  0.00     0.037 C 
HETATM    4  C4  UNL     1      27.961  15.197   7.003  1.00  0.00     0.245 A 
HETATM    5  F1  UNL     1      27.244  14.196   6.437  1.00  0.00    -0.243 F 
HETATM    6  C5  UNL     1      27.536  15.731   8.337  1.00  0.00     0.202 A 
HETATM    7  C6  UNL     1      27.314  17.243   8.216  1.00  0.00     0.069 C 
HETATM    8  N2  UNL     1      28.834  15.387   8.850  1.00  0.00    -0.150 NA
ENDROOT
BRANCH   6   9
HETATM    9  N1  UNL     1      26.412  15.087   8.909  1.00  0.00    -0.125 N 
HETATM   10  O1  UNL     1      25.337  15.689   9.041  1.00  0.00    -0.535 OA
HETATM   11  O2  UNL     1      26.438  13.782   9.345  1.00  0.00    -0.535 OA
ENDBRANCH   6   9
BRANCH   8  12
HETATM   12  O3  UNL     1      28.894  14.719   9.988  1.00  0.00    -0.309 OA
ATOM     13  H3  UNL     1      28.088  14.544  10.458  1.00  0.00     0.237 HD
ENDBRANCH   8  12
TORSDOF 2
ENDMDL
MODEL 5
REMARK VINA RESULT: -4.257340345      2.589      3.636
REMARK  2 active torsions:
REMARK  status: ('A' for Active; 'I' for Inactive)
REMARK    1  A    between atoms: C5_6  and  N1_8 
REMARK    2  A    between atoms: N2_11  and  O3_12 
ROOT
HETATM    1  C1  UNL     1      29.300  13.222   8.392  1.00  0.00     0.037 C 
HETATM    2  C2  UNL     1      28.806  14.598   8.046  1.00  0.00     0.069 A 
HETATM    3  C3  UNL     1      29.780  15.358   7.213  1.00  0.00     0.037 C 
HETATM    4  C4  UNL     1      28.368  15.444   9.238  1.00  0.00     0.245 A 
HETATM    5  F1  UNL     1      29.049  16.606   9.378  1.00  0.00    -0.243 F 
HETATM    6  C5  UNL     1      26.990  15.476   8.648  1.00  0.00     0.202 A 
HETATM    7  C6  UNL     1      26.015  14.823   9.634  1.00  0.00     0.069 C 
HETATM    8  N2  UNL     1      27.446  14.578   7.622  1.00  0.00    -0.150 NA
ENDROOT
BRANCH   6   9
HETATM    9  N1  UNL     1      26.541  16.757   8.246  1.00  0.00    -0.125 N 
HETATM   10  O1  UNL     1      25.385  17.129   8.493  1.00  0.00    -0.535 OA
HETATM   11  O2  UNL     1      27.339  17.654   7.573  1.00  0.00    -0.535 OA
ENDBRANCH   6   9
BRANCH   8  12
HETATM   12  O3  UNL     1      27.167  14.878   6.366  1.00  0.00    -0.309 OA
ATOM     13  H3  UNL     1      26.895  15.763   6.157  1.00  0.00     0.237 HD
ENDBRANCH   8  12
TORSDOF 2
ENDMDL
