MODEL 1
REMARK VINA RESULT: -5.108076113      0.000      0.000
REMARK  2 active torsions:
REMARK  status: ('A' for Active; 'I' for Inactive)
REMARK    1  A    between atoms: C2_2  and  N1_4 
REMARK    2  A    between atoms: N2_11  and  O2_12 
ROOT
HETATM    1  N1  UNL     1      22.231  22.924   7.412  1.00  0.00    -0.163 NA
HETATM    2  C3  UNL     1      23.059  23.713   6.549  1.00  0.00     0.214 C 
HETATM    3  C4  UNL     1      23.627  24.869   7.376  1.00  0.00     0.058 C 
HETATM    4  O1  UNL     1      22.242  24.314   5.595  1.00  0.00    -0.342 OA
HETATM    5  C5  UNL     1      20.996  23.743   5.681  1.00  0.00     0.149 C 
HETATM    6  C6  UNL     1      19.874  24.757   5.747  1.00  0.00     0.067 C 
HETATM    7  C7  UNL     1      20.777  22.944   4.400  1.00  0.00     0.067 C 
HETATM    8  N2  UNL     1      20.949  22.915   6.855  1.00  0.00    -0.087 NA
ENDROOT
BRANCH   1   9
HETATM    9  C2  UNL     1      22.651  21.550   7.535  1.00  0.00     0.260 C 
HETATM   10  C1  UNL     1      24.143  21.376   7.395  1.00  0.00     0.064 C 
HETATM   11  F1  UNL     1      22.318  21.155   8.832  1.00  0.00    -0.232 F 
ENDBRANCH   1   9
BRANCH   8  12
HETATM   12  O2  UNL     1      20.553  21.681   6.463  1.00  0.00    -0.295 OA
ATOM     13  H2  UNL     1      19.796  21.700   5.889  1.00  0.00     0.238 HD
ENDBRANCH   8  12
TORSDOF 2
ENDMDL
MODEL 2
REMARK VINA RESULT: -4.990681890      2.562      4.574
REMARK  2 active torsions:
REMARK  status: ('A' for Active; 'I' for Inactive)
REMARK    1  A    between atoms: C2_2  and  N1_4 
REMARK    2  A    between atoms: N2_11  and  O2_12 
ROOT
HETATM    1  N1  UNL     1      23.044  21.362   8.073  1.00  0.00    -0.163 NA
HETATM    2  C3  UNL     1      23.249  20.183   7.285  1.00  0.00     0.214 C 
HETATM    3  C4  UNL     1      22.751  18.986   8.099  1.00  0.00     0.058 C 
HETATM    4  O1  UNL     1      24.620  19.986   7.149  1.00  0.00    -0.342 OA
HETATM    5  C5  UNL     1      25.260  21.112   7.604  1.00  0.00     0.149 C 
HETATM    6  C6  UNL     1      26.381  20.815   8.578  1.00  0.00     0.067 C 
HETATM    7  C7  UNL     1      25.907  21.782   6.397  1.00  0.00     0.067 C 
HETATM    8  N2  UNL     1      24.294  21.961   8.247  1.00  0.00    -0.087 NA
ENDROOT
BRANCH   1   9
HETATM    9  C2  UNL     1      22.185  22.341   7.453  1.00  0.00     0.260 C 
HETATM   10  C1  UNL     1      21.521  21.831   6.197  1.00  0.00     0.064 C 
HETATM   11  F1  UNL     1      21.166  22.603   8.371  1.00  0.00    -0.232 F 
ENDBRANCH   1   9
BRANCH   8  12
HETATM   12  O2  UNL     1      24.380  23.182   7.665  1.00  0.00    -0.295 OA
ATOM     13  H2  UNL     1      25.075  23.717   8.029  1.00  0.00     0.238 HD
ENDBRANCH   8  12
TORSDOF 2
ENDMDL
MODEL 3
REMARK VINA RESULT: -4.960902950      7.041      8.802
REMARK  2 active torsions:
REMARK  status: ('A' for Active; 'I' for Inactive)
REMARK    1  A    between atoms: C2_2  and  N1_4 
REMARK    2  A    between atoms: N2_11  and  O2_12 
ROOT
HETATM    1  N1  UNL     1      27.091  18.194   9.742  1.00  0.00    -0.163 NA
HETATM    2  C3  UNL     1      26.999  18.195   8.312  1.00  0.00     0.214 C 
HETATM    3  C4  UNL     1      25.611  18.717   7.935  1.00  0.00     0.058 C 
HETATM    4  O1  UNL     1      27.022  16.873   7.876  1.00  0.00    -0.342 OA
HETATM    5  C5  UNL     1      27.368  16.078   8.941  1.00  0.00     0.149 C 
HETATM    6  C6  UNL     1      26.445  14.892   9.131  1.00  0.00     0.067 C 
HETATM    7  C7  UNL     1      28.749  15.504   8.647  1.00  0.00     0.067 C 
HETATM    8  N2  UNL     1      27.353  16.878  10.136  1.00  0.00    -0.087 NA
ENDROOT
BRANCH   1   9
HETATM    9  C2  UNL     1      28.157  19.014  10.262  1.00  0.00     0.260 C 
HETATM   10  C1  UNL     1      28.161  20.409   9.687  1.00  0.00     0.064 C 
HETATM   11  F1  UNL     1      27.919  19.142  11.632  1.00  0.00    -0.232 F 
ENDBRANCH   1   9
BRANCH   8  12
HETATM   12  O2  UNL     1      28.561  16.736  10.731  1.00  0.00    -0.295 OA
ATOM     13  H2  UNL     1      28.578  17.074  11.619  1.00  0.00     0.238 HD
ENDBRANCH   8  12
TORSDOF 2
ENDMDL
MODEL 4
REMARK VINA RESULT: -4.840821323      1.660      1.726
REMARK  2 active torsions:
REMARK  status: ('A' for Active; 'I' for Inactive)
REMARK    1  A    between atoms: C2_2  and  N1_4 
REMARK    2  A    between atoms: N2_11  and  O2_12 
ROOT
HETATM    1  N1  UNL     1      21.406  24.213   6.599  1.00  0.00    -0.163 NA
HETATM    2  C3  UNL     1      22.529  24.889   6.020  1.00  0.00     0.214 C 
HETATM    3  C4  UNL     1      22.874  26.077   6.922  1.00  0.00     0.058 C 
HETATM    4  O1  UNL     1      22.120  25.454   4.815  1.00  0.00    -0.342 OA
HETATM    5  C5  UNL     1      20.877  24.954   4.511  1.00  0.00     0.149 C 
HETATM    6  C6  UNL     1      19.874  26.026   4.139  1.00  0.00     0.067 C 
HETATM    7  C7  UNL     1      21.036  24.070   3.279  1.00  0.00     0.067 C 
HETATM    8  N2  UNL     1      20.384  24.225   5.646  1.00  0.00    -0.087 NA
ENDROOT
BRANCH   1   9
HETATM    9  C2  UNL     1      21.661  22.833   6.934  1.00  0.00     0.260 C 
HETATM   10  C1  UNL     1      23.106  22.567   7.274  1.00  0.00     0.064 C 
HETATM   11  F1  UNL     1      20.918  22.568   8.087  1.00  0.00    -0.232 F 
ENDBRANCH   1   9
BRANCH   8  12
HETATM   12  O2  UNL     1      20.050  22.984   5.215  1.00  0.00    -0.295 OA
ATOM     13  H2  UNL     1      19.173  22.942   4.853  1.00  0.00     0.238 HD
ENDBRANCH   8  12
TORSDOF 2
ENDMDL
MODEL 5
REMARK VINA RESULT: -4.728165562      2.824      3.900
REMARK  2 active torsions:
REMARK  status: ('A' for Active; 'I' for Inactive)
REMARK    1  A    between atoms: C2_2  and  N1_4 
REMARK    2  A    between atoms: N2_11  and  O2_12 
ROOT
HETATM    1  N1  UNL     1      21.962  24.716   5.025  1.00  0.00    -0.163 NA
HETATM    2  C3  UNL     1      21.658  25.287   6.304  1.00  0.00     0.214 C 
HETATM    3  C4  UNL     1      22.923  25.975   6.821  1.00  0.00     0.058 C 
HETATM    4  O1  UNL     1      21.418  24.246   7.196  1.00  0.00    -0.342 OA
HETATM    5  C5  UNL     1      21.322  23.081   6.476  1.00  0.00     0.149 C 
HETATM    6  C6  UNL     1      22.171  21.958   7.034  1.00  0.00     0.067 C 
HETATM    7  C7  UNL     1      19.874  22.611   6.571  1.00  0.00     0.067 C 
HETATM    8  N2  UNL     1      21.723  23.343   5.121  1.00  0.00    -0.087 NA
ENDROOT
BRANCH   1   9
HETATM    9  C2  UNL     1      21.143  25.217   3.949  1.00  0.00     0.260 C 
HETATM   10  C1  UNL     1      20.526  26.559   4.253  1.00  0.00     0.064 C 
HETATM   11  F1  UNL     1      21.999  25.403   2.861  1.00  0.00    -0.232 F 
ENDBRANCH   1   9
BRANCH   8  12
HETATM   12  O2  UNL     1      20.718  22.924   4.315  1.00  0.00    -0.295 OA
ATOM     13  H2  UNL     1      20.993  22.801   3.415  1.00  0.00     0.238 HD
ENDBRANCH   8  12
TORSDOF 2
ENDMDL
