MODEL 1
REMARK VINA RESULT: -8.288655774      0.000      0.000
REMARK  7 active torsions:
REMARK  status: ('A' for Active; 'I' for Inactive)
REMARK    1  A    between atoms: C2_2  and  C4_4 
REMARK    2  A    between atoms: C4_4  and  O2_6 
REMARK    3  A    between atoms: O2_6  and  N1_7 
REMARK       I    between atoms: N1_7  and  C5_8 
REMARK    4  A    between atoms: C5_8  and  C6_10 
REMARK    5  A    between atoms: C7_11  and  O4_12 
REMARK    6  A    between atoms: O4_12  and  C8_13 
REMARK    7  A    between atoms: C11_21  and  O5_22 
ROOT
HETATM    1  C6  UNL     1      28.093  18.798  10.425  1.00  0.00     0.135 A 
HETATM    2  C7  UNL     1      27.412  18.460   9.228  1.00  0.00     0.114 A 
HETATM    3  C10 UNL     1      27.140  17.057   9.313  1.00  0.00     0.128 A 
HETATM    4  N2  UNL     1      27.619  16.630  10.458  1.00  0.00    -0.343 N 
ATOM      5  H2  UNL     1      27.569  15.668  10.790  1.00  0.00     0.167 HD
HETATM    6  C11 UNL     1      28.199  17.672  11.145  1.00  0.00     0.160 A 
ENDROOT
BRANCH   1   7
HETATM    7  C5  UNL     1      28.534  20.193  10.748  1.00  0.00     0.361 C 
HETATM    8  N1  UNL     1      28.770  20.574  12.027  1.00  0.00    -0.227 NA
HETATM    9  O3  UNL     1      28.648  20.916   9.722  1.00  0.00    -0.248 OA
BRANCH   8  10
HETATM   10  O2  UNL     1      28.995  20.937  13.247  1.00  0.00    -0.118 OA
BRANCH  10  11
HETATM   11  C4  UNL     1      29.215  20.202  14.375  1.00  0.00     0.324 C 
HETATM   12  O1  UNL     1      29.982  19.213  14.282  1.00  0.00    -0.256 OA
BRANCH  11  13
HETATM   13  C2  UNL     1      28.602  20.518  15.669  1.00  0.00     0.007 C 
HETATM   14  C1  UNL     1      29.046  21.539  16.359  1.00  0.00     0.025 C 
HETATM   15  C3  UNL     1      27.481  19.711  16.209  1.00  0.00     0.054 C 
ENDBRANCH  11  13
ENDBRANCH  10  11
ENDBRANCH   8  10
ENDBRANCH   1   7
BRANCH   2  16
HETATM   16  O4  UNL     1      27.107  19.258   8.253  1.00  0.00    -0.291 OA
BRANCH  16  17
HETATM   17  C8  UNL     1      26.807  20.043   7.296  1.00  0.00     0.214 C 
HETATM   18 CL1  UNL     1      27.253  19.744   5.568  1.00  0.00    -0.051 Cl
HETATM   19  C9  UNL     1      26.126  21.184   7.460  1.00  0.00     0.312 C 
HETATM   20  F1  UNL     1      25.714  21.579   8.640  1.00  0.00    -0.169 F 
HETATM   21  F2  UNL     1      25.821  21.914   6.351  1.00  0.00    -0.169 F 
ENDBRANCH  16  17
ENDBRANCH   2  16
BRANCH   6  22
HETATM   22  O5  UNL     1      28.814  17.490  12.416  1.00  0.00    -0.345 OA
ATOM     23  H5  UNL     1      28.579  16.876  13.102  1.00  0.00     0.219 HD
ENDBRANCH   6  22
TORSDOF 7
ENDMDL
MODEL 2
REMARK VINA RESULT: -8.163901715      1.149      1.503
REMARK  7 active torsions:
REMARK  status: ('A' for Active; 'I' for Inactive)
REMARK    1  A    between atoms: C2_2  and  C4_4 
REMARK    2  A    between atoms: C4_4  and  O2_6 
REMARK    3  A    between atoms: O2_6  and  N1_7 
REMARK       I    between atoms: N1_7  and  C5_8 
REMARK    4  A    between atoms: C5_8  and  C6_10 
REMARK    5  A    between atoms: C7_11  and  O4_12 
REMARK    6  A    between atoms: O4_12  and  C8_13 
REMARK    7  A    between atoms: C11_21  and  O5_22 
ROOT
HETATM    1  C6  UNL     1      28.162  18.839  10.576  1.00  0.00     0.135 A 
HETATM    2  C7  UNL     1      27.434  18.558   9.391  1.00  0.00     0.114 A 
HETATM    3  C10 UNL     1      27.268  17.137   9.359  1.00  0.00     0.128 A 
HETATM    4  N2  UNL     1      27.846  16.647  10.431  1.00  0.00    -0.343 N 
ATOM      5  H2  UNL     1      27.884  15.658  10.674  1.00  0.00     0.167 HD
HETATM    6  C11 UNL     1      28.391  17.664  11.180  1.00  0.00     0.160 A 
ENDROOT
BRANCH   1   7
HETATM    7  C5  UNL     1      28.522  20.229  11.002  1.00  0.00     0.361 C 
HETATM    8  N1  UNL     1      28.897  20.494  12.278  1.00  0.00    -0.227 NA
HETATM    9  O3  UNL     1      28.433  21.064  10.064  1.00  0.00    -0.248 OA
BRANCH   8  10
HETATM   10  O2  UNL     1      29.255  20.747  13.494  1.00  0.00    -0.118 OA
BRANCH  10  11
HETATM   11  C4  UNL     1      29.179  19.990  14.627  1.00  0.00     0.324 C 
HETATM   12  O1  UNL     1      29.755  18.875  14.619  1.00  0.00    -0.256 OA
BRANCH  11  13
HETATM   13  C2  UNL     1      28.462  20.421  15.831  1.00  0.00     0.007 C 
HETATM   14  C1  UNL     1      27.430  19.730  16.247  1.00  0.00     0.025 C 
HETATM   15  C3  UNL     1      28.888  21.619  16.595  1.00  0.00     0.054 C 
ENDBRANCH  11  13
ENDBRANCH  10  11
ENDBRANCH   8  10
ENDBRANCH   1   7
BRANCH   2  16
HETATM   16  O4  UNL     1      27.013  19.415   8.514  1.00  0.00    -0.291 OA
BRANCH  16  17
HETATM   17  C8  UNL     1      26.600  20.256   7.652  1.00  0.00     0.214 C 
HETATM   18 CL1  UNL     1      25.619  21.722   8.061  1.00  0.00    -0.051 Cl
HETATM   19  C9  UNL     1      26.842  20.151   6.340  1.00  0.00     0.312 C 
HETATM   20  F1  UNL     1      27.536  19.157   5.843  1.00  0.00    -0.169 F 
HETATM   21  F2  UNL     1      26.390  21.144   5.522  1.00  0.00    -0.169 F 
ENDBRANCH  16  17
ENDBRANCH   2  16
BRANCH   6  22
HETATM   22  O5  UNL     1      29.094  17.417  12.393  1.00  0.00    -0.345 OA
ATOM     23  H5  UNL     1      29.970  17.066  12.506  1.00  0.00     0.219 HD
ENDBRANCH   6  22
TORSDOF 7
ENDMDL
MODEL 3
REMARK VINA RESULT: -8.084306540      0.836      1.119
REMARK  7 active torsions:
REMARK  status: ('A' for Active; 'I' for Inactive)
REMARK    1  A    between atoms: C2_2  and  C4_4 
REMARK    2  A    between atoms: C4_4  and  O2_6 
REMARK    3  A    between atoms: O2_6  and  N1_7 
REMARK       I    between atoms: N1_7  and  C5_8 
REMARK    4  A    between atoms: C5_8  and  C6_10 
REMARK    5  A    between atoms: C7_11  and  O4_12 
REMARK    6  A    between atoms: O4_12  and  C8_13 
REMARK    7  A    between atoms: C11_21  and  O5_22 
ROOT
HETATM    1  C6  UNL     1      28.146  18.992  10.525  1.00  0.00     0.135 A 
HETATM    2  C7  UNL     1      27.477  18.830   9.285  1.00  0.00     0.114 A 
HETATM    3  C10 UNL     1      27.230  17.427   9.151  1.00  0.00     0.128 A 
HETATM    4  N2  UNL     1      27.712  16.837  10.220  1.00  0.00    -0.343 N 
ATOM      5  H2  UNL     1      27.678  15.834  10.400  1.00  0.00     0.167 HD
HETATM    6  C11 UNL     1      28.269  17.770  11.063  1.00  0.00     0.160 A 
ENDROOT
BRANCH   1   7
HETATM    7  C5  UNL     1      28.560  20.328  11.061  1.00  0.00     0.361 C 
HETATM    8  N1  UNL     1      29.010  20.462  12.333  1.00  0.00    -0.227 NA
HETATM    9  O3  UNL     1      28.438  21.251  10.213  1.00  0.00    -0.248 OA
BRANCH   8  10
HETATM   10  O2  UNL     1      29.440  20.590  13.546  1.00  0.00    -0.118 OA
BRANCH  10  11
HETATM   11  C4  UNL     1      29.204  19.845  14.664  1.00  0.00     0.324 C 
HETATM   12  O1  UNL     1      29.638  18.667  14.677  1.00  0.00    -0.256 OA
BRANCH  11  13
HETATM   13  C2  UNL     1      28.476  20.358  15.829  1.00  0.00     0.007 C 
HETATM   14  C1  UNL     1      27.411  19.724  16.251  1.00  0.00     0.025 C 
HETATM   15  C3  UNL     1      28.927  21.574  16.546  1.00  0.00     0.054 C 
ENDBRANCH  11  13
ENDBRANCH  10  11
ENDBRANCH   8  10
ENDBRANCH   1   7
BRANCH   2  16
HETATM   16  O4  UNL     1      27.162  19.764   8.442  1.00  0.00    -0.291 OA
BRANCH  16  17
HETATM   17  C8  UNL     1      26.852  20.681   7.615  1.00  0.00     0.214 C 
HETATM   18 CL1  UNL     1      28.050  21.812   6.865  1.00  0.00    -0.051 Cl
HETATM   19  C9  UNL     1      25.599  20.916   7.206  1.00  0.00     0.312 C 
HETATM   20  F1  UNL     1      24.587  20.204   7.636  1.00  0.00    -0.169 F 
HETATM   21  F2  UNL     1      25.400  21.894   6.278  1.00  0.00    -0.169 F 
ENDBRANCH  16  17
ENDBRANCH   2  16
BRANCH   6  22
HETATM   22  O5  UNL     1      28.881  17.405  12.296  1.00  0.00    -0.345 OA
ATOM     23  H5  UNL     1      29.073  16.534  12.624  1.00  0.00     0.219 HD
ENDBRANCH   6  22
TORSDOF 7
ENDMDL
MODEL 4
REMARK VINA RESULT: -7.806593457      3.491      6.431
REMARK  7 active torsions:
REMARK  status: ('A' for Active; 'I' for Inactive)
REMARK    1  A    between atoms: C2_2  and  C4_4 
REMARK    2  A    between atoms: C4_4  and  O2_6 
REMARK    3  A    between atoms: O2_6  and  N1_7 
REMARK       I    between atoms: N1_7  and  C5_8 
REMARK    4  A    between atoms: C5_8  and  C6_10 
REMARK    5  A    between atoms: C7_11  and  O4_12 
REMARK    6  A    between atoms: O4_12  and  C8_13 
REMARK    7  A    between atoms: C11_21  and  O5_22 
ROOT
HETATM    1  C6  UNL     1      27.637  18.656   9.223  1.00  0.00     0.135 A 
HETATM    2  C7  UNL     1      28.099  18.435  10.546  1.00  0.00     0.114 A 
HETATM    3  C10 UNL     1      28.179  17.014  10.702  1.00  0.00     0.128 A 
HETATM    4  N2  UNL     1      27.800  16.470   9.569  1.00  0.00    -0.343 N 
ATOM      5  H2  UNL     1      27.757  15.468   9.388  1.00  0.00     0.167 HD
HETATM    6  C11 UNL     1      27.470  17.450   8.662  1.00  0.00     0.160 A 
ENDROOT
BRANCH   1   7
HETATM    7  C5  UNL     1      27.445  20.024   8.643  1.00  0.00     0.361 C 
HETATM    8  N1  UNL     1      26.339  20.328   7.920  1.00  0.00    -0.227 NA
HETATM    9  O3  UNL     1      28.398  20.803   8.909  1.00  0.00    -0.248 OA
BRANCH   8  10
HETATM   10  O2  UNL     1      25.285  20.619   7.231  1.00  0.00    -0.118 OA
BRANCH  10  11
HETATM   11  C4  UNL     1      24.171  21.336   7.556  1.00  0.00     0.324 C 
HETATM   12  O1  UNL     1      24.329  22.539   7.876  1.00  0.00    -0.256 OA
BRANCH  11  13
HETATM   13  C2  UNL     1      22.820  20.765   7.546  1.00  0.00     0.007 C 
HETATM   14  C1  UNL     1      21.804  21.523   7.218  1.00  0.00     0.025 C 
HETATM   15  C3  UNL     1      22.581  19.343   7.891  1.00  0.00     0.054 C 
ENDBRANCH  11  13
ENDBRANCH  10  11
ENDBRANCH   8  10
ENDBRANCH   1   7
BRANCH   2  16
HETATM   16  O4  UNL     1      28.382  19.337  11.433  1.00  0.00    -0.291 OA
BRANCH  16  17
HETATM   17  C8  UNL     1      28.660  20.223  12.304  1.00  0.00     0.214 C 
HETATM   18 CL1  UNL     1      28.798  21.990  11.939  1.00  0.00    -0.051 Cl
HETATM   19  C9  UNL     1      28.887  19.946  13.594  1.00  0.00     0.312 C 
HETATM   20  F1  UNL     1      28.836  18.722  14.058  1.00  0.00    -0.169 F 
HETATM   21  F2  UNL     1      29.126  20.987  14.441  1.00  0.00    -0.169 F 
ENDBRANCH  16  17
ENDBRANCH   2  16
BRANCH   6  22
HETATM   22  O5  UNL     1      27.010  17.141   7.350  1.00  0.00    -0.345 OA
ATOM     23  H5  UNL     1      26.468  16.413   7.071  1.00  0.00     0.219 HD
ENDBRANCH   6  22
TORSDOF 7
ENDMDL
MODEL 5
REMARK VINA RESULT: -7.767730021      3.573      6.531
REMARK  7 active torsions:
REMARK  status: ('A' for Active; 'I' for Inactive)
REMARK    1  A    between atoms: C2_2  and  C4_4 
REMARK    2  A    between atoms: C4_4  and  O2_6 
REMARK    3  A    between atoms: O2_6  and  N1_7 
REMARK       I    between atoms: N1_7  and  C5_8 
REMARK    4  A    between atoms: C5_8  and  C6_10 
REMARK    5  A    between atoms: C7_11  and  O4_12 
REMARK    6  A    between atoms: O4_12  and  C8_13 
REMARK    7  A    between atoms: C11_21  and  O5_22 
ROOT
HETATM    1  C6  UNL     1      28.141  19.282  10.628  1.00  0.00     0.135 A 
HETATM    2  C7  UNL     1      28.489  18.877  11.942  1.00  0.00     0.114 A 
HETATM    3  C10 UNL     1      28.293  17.460  11.983  1.00  0.00     0.128 A 
HETATM    4  N2  UNL     1      27.872  17.086  10.797  1.00  0.00    -0.343 N 
ATOM      5  H2  UNL     1      27.650  16.126  10.532  1.00  0.00     0.167 HD
HETATM    6  C11 UNL     1      27.776  18.176   9.964  1.00  0.00     0.160 A 
ENDROOT
BRANCH   1   7
HETATM    7  C5  UNL     1      28.237  20.701  10.158  1.00  0.00     0.361 C 
HETATM    8  N1  UNL     1      28.082  21.016   8.848  1.00  0.00    -0.227 NA
HETATM    9  O3  UNL     1      28.467  21.510  11.096  1.00  0.00    -0.248 OA
BRANCH   8  10
HETATM   10  O2  UNL     1      27.935  21.317   7.600  1.00  0.00    -0.118 OA
BRANCH  10  11
HETATM   11  C4  UNL     1      26.885  21.125   6.750  1.00  0.00     0.324 C 
HETATM   12  O1  UNL     1      27.149  20.786   5.570  1.00  0.00    -0.256 OA
BRANCH  11  13
HETATM   13  C2  UNL     1      25.486  21.295   7.155  1.00  0.00     0.007 C 
HETATM   14  C1  UNL     1      24.753  20.237   7.395  1.00  0.00     0.025 C 
HETATM   15  C3  UNL     1      24.886  22.642   7.308  1.00  0.00     0.054 C 
ENDBRANCH  11  13
ENDBRANCH  10  11
ENDBRANCH   8  10
ENDBRANCH   1   7
BRANCH   2  16
HETATM   16  O4  UNL     1      28.895  19.639  12.910  1.00  0.00    -0.291 OA
BRANCH  16  17
HETATM   17  C8  UNL     1      29.294  20.387  13.860  1.00  0.00     0.214 C 
HETATM   18 CL1  UNL     1      30.554  21.673  13.672  1.00  0.00    -0.051 Cl
HETATM   19  C9  UNL     1      28.827  20.306  15.111  1.00  0.00     0.312 C 
HETATM   20  F1  UNL     1      27.909  19.435  15.451  1.00  0.00    -0.169 F 
HETATM   21  F2  UNL     1      29.295  21.197  16.031  1.00  0.00    -0.169 F 
ENDBRANCH  16  17
ENDBRANCH   2  16
BRANCH   6  22
HETATM   22  O5  UNL     1      27.328  18.061   8.618  1.00  0.00    -0.345 OA
ATOM     23  H5  UNL     1      27.194  17.271   8.106  1.00  0.00     0.219 HD
ENDBRANCH   6  22
TORSDOF 7
ENDMDL
