MODEL 1
REMARK VINA RESULT: -9.039801490      0.000      0.000
REMARK  5 active torsions:
REMARK  status: ('A' for Active; 'I' for Inactive)
REMARK    1  A    between atoms: C3_3  and  C4_4 
REMARK    2  A    between atoms: N1_5  and  N2_7 
REMARK       I    between atoms: N2_7  and  C5_9 
REMARK       I    between atoms: C5_9  and  N3_11 
REMARK    3  A    between atoms: N3_11  and  C6_13 
REMARK    4  A    between atoms: C8_17  and  N4_18 
REMARK    5  A    between atoms: C9_21  and  O4_22 
ROOT
HETATM    1  C1  UNL     1      28.338  18.333  11.913  1.00  0.00     0.051 C 
HETATM    2  C2  UNL     1      28.009  18.842  10.556  1.00  0.00    -0.026 A 
HETATM    3  C3  UNL     1      28.106  20.201  10.343  1.00  0.00    -0.009 A 
HETATM    4  C7  UNL     1      27.800  20.656   9.090  1.00  0.00     0.052 A 
HETATM    5  C8  UNL     1      27.399  19.791   8.048  1.00  0.00     0.138 A 
HETATM    6  C9  UNL     1      27.324  18.452   8.325  1.00  0.00     0.121 A 
HETATM    7  C10 UNL     1      27.630  17.957   9.598  1.00  0.00     0.076 A 
HETATM    8 CL1  UNL     1      27.514  16.242   9.889  1.00  0.00    -0.081 Cl
ENDROOT
BRANCH   3   9
HETATM    9  C4  UNL     1      28.514  21.124  11.393  1.00  0.00     0.119 C 
HETATM   10  N1  UNL     1      29.270  20.682  12.331  1.00  0.00    -0.307 N 
ATOM     11  H1  UNL     1      29.571  19.707  12.330  1.00  0.00     0.186 HD
BRANCH  10  12
HETATM   12  N2  UNL     1      29.675  21.536  13.347  1.00  0.00    -0.252 N 
HETATM   13  C5  UNL     1      29.283  21.199  14.678  1.00  0.00     0.338 C 
HETATM   14  O1  UNL     1      28.601  20.171  14.911  1.00  0.00    -0.245 OA
HETATM   15  N3  UNL     1      29.674  22.042  15.738  1.00  0.00    -0.286 N 
ATOM     16  H3  UNL     1      30.228  22.879  15.557  1.00  0.00     0.169 HD
ATOM     17  H2  UNL     1      30.230  22.369  13.151  1.00  0.00     0.191 HD
BRANCH  15  18
HETATM   18  C6  UNL     1      29.274  21.698  17.105  1.00  0.00     0.462 C 
HETATM   19  F1  UNL     1      30.357  21.775  17.945  1.00  0.00    -0.191 F 
HETATM   20  F2  UNL     1      28.300  22.600  17.494  1.00  0.00    -0.191 F 
ENDBRANCH  15  18
ENDBRANCH  10  12
ENDBRANCH   3   9
BRANCH   5  21
HETATM   21  N4  UNL     1      27.103  20.335   6.779  1.00  0.00    -0.113 N 
HETATM   22  O2  UNL     1      27.124  19.768   5.703  1.00  0.00    -0.532 OA
HETATM   23  O3  UNL     1      26.713  21.676   6.760  1.00  0.00    -0.532 OA
ENDBRANCH   5  21
BRANCH   6  24
HETATM   24  O4  UNL     1      26.951  17.516   7.394  1.00  0.00    -0.357 OA
ATOM     25  H4  UNL     1      27.576  16.991   6.907  1.00  0.00     0.218 HD
ENDBRANCH   6  24
TORSDOF 5
ENDMDL
MODEL 2
REMARK VINA RESULT: -8.842526027      2.141      3.132
REMARK  5 active torsions:
REMARK  status: ('A' for Active; 'I' for Inactive)
REMARK    1  A    between atoms: C3_3  and  C4_4 
REMARK    2  A    between atoms: N1_5  and  N2_7 
REMARK       I    between atoms: N2_7  and  C5_9 
REMARK       I    between atoms: C5_9  and  N3_11 
REMARK    3  A    between atoms: N3_11  and  C6_13 
REMARK    4  A    between atoms: C8_17  and  N4_18 
REMARK    5  A    between atoms: C9_21  and  O4_22 
ROOT
HETATM    1  C1  UNL     1      28.642  21.034  10.588  1.00  0.00     0.051 C 
HETATM    2  C2  UNL     1      28.211  19.659  10.229  1.00  0.00    -0.026 A 
HETATM    3  C3  UNL     1      28.462  18.653  11.139  1.00  0.00    -0.009 A 
HETATM    4  C7  UNL     1      28.060  17.391  10.796  1.00  0.00     0.052 A 
HETATM    5  C8  UNL     1      27.416  17.110   9.571  1.00  0.00     0.138 A 
HETATM    6  C9  UNL     1      27.195  18.153   8.712  1.00  0.00     0.121 A 
HETATM    7  C10 UNL     1      27.596  19.454   9.036  1.00  0.00     0.076 A 
HETATM    8 CL1  UNL     1      27.288  20.741   7.900  1.00  0.00    -0.081 Cl
ENDROOT
BRANCH   3   9
HETATM    9  C4  UNL     1      29.125  18.904  12.411  1.00  0.00     0.119 C 
HETATM   10  N1  UNL     1      28.395  19.063  13.456  1.00  0.00    -0.307 N 
ATOM     11  H1  UNL     1      27.379  19.011  13.384  1.00  0.00     0.186 HD
BRANCH  10  12
HETATM   12  N2  UNL     1      28.997  19.305  14.683  1.00  0.00    -0.252 N 
HETATM   13  C5  UNL     1      29.082  20.665  15.111  1.00  0.00     0.338 C 
HETATM   14  O1  UNL     1      28.628  21.596  14.401  1.00  0.00    -0.245 OA
HETATM   15  N3  UNL     1      29.685  20.953  16.351  1.00  0.00    -0.286 N 
ATOM     16  H3  UNL     1      30.057  20.202  16.933  1.00  0.00     0.169 HD
ATOM     17  H2  UNL     1      29.362  18.544  15.255  1.00  0.00     0.191 HD
BRANCH  15  18
HETATM   18  C6  UNL     1      29.773  22.347  16.793  1.00  0.00     0.462 C 
HETATM   19  F1  UNL     1      28.642  22.691  17.491  1.00  0.00    -0.191 F 
HETATM   20  F2  UNL     1      30.889  22.458  17.603  1.00  0.00    -0.191 F 
ENDBRANCH  15  18
ENDBRANCH  10  12
ENDBRANCH   3   9
BRANCH   5  21
HETATM   21  N4  UNL     1      27.027  15.782   9.290  1.00  0.00    -0.113 N 
HETATM   22  O2  UNL     1      27.706  14.775   9.370  1.00  0.00    -0.532 OA
HETATM   23  O3  UNL     1      25.699  15.598   8.899  1.00  0.00    -0.532 OA
ENDBRANCH   5  21
BRANCH   6  24
HETATM   24  O4  UNL     1      26.577  18.003   7.497  1.00  0.00    -0.357 OA
ATOM     25  H4  UNL     1      27.039  17.745   6.708  1.00  0.00     0.218 HD
ENDBRANCH   6  24
TORSDOF 5
ENDMDL
MODEL 3
REMARK VINA RESULT: -8.764402039      2.231      3.160
REMARK  5 active torsions:
REMARK  status: ('A' for Active; 'I' for Inactive)
REMARK    1  A    between atoms: C3_3  and  C4_4 
REMARK    2  A    between atoms: N1_5  and  N2_7 
REMARK       I    between atoms: N2_7  and  C5_9 
REMARK       I    between atoms: C5_9  and  N3_11 
REMARK    3  A    between atoms: N3_11  and  C6_13 
REMARK    4  A    between atoms: C8_17  and  N4_18 
REMARK    5  A    between atoms: C9_21  and  O4_22 
ROOT
HETATM    1  C1  UNL     1      27.472  21.103   8.815  1.00  0.00     0.051 C 
HETATM    2  C2  UNL     1      27.649  19.660   9.123  1.00  0.00    -0.026 A 
HETATM    3  C3  UNL     1      28.177  19.331  10.354  1.00  0.00    -0.009 A 
HETATM    4  C7  UNL     1      28.334  17.999  10.625  1.00  0.00     0.052 A 
HETATM    5  C8  UNL     1      27.979  16.993   9.701  1.00  0.00     0.138 A 
HETATM    6  C9  UNL     1      27.459  17.386   8.496  1.00  0.00     0.121 A 
HETATM    7  C10 UNL     1      27.288  18.741   8.191  1.00  0.00     0.076 A 
HETATM    8 CL1  UNL     1      26.622  19.180   6.641  1.00  0.00    -0.081 Cl
ENDROOT
BRANCH   3   9
HETATM    9  C4  UNL     1      28.556  20.341  11.332  1.00  0.00     0.119 C 
HETATM   10  N1  UNL     1      29.298  19.985  12.317  1.00  0.00    -0.307 N 
ATOM     11  H1  UNL     1      29.609  19.017  12.401  1.00  0.00     0.186 HD
BRANCH  10  12
HETATM   12  N2  UNL     1      29.676  20.924  13.267  1.00  0.00    -0.252 N 
HETATM   13  C5  UNL     1      29.163  20.758  14.589  1.00  0.00     0.338 C 
HETATM   14  O1  UNL     1      28.402  19.799  14.872  1.00  0.00    -0.245 OA
HETATM   15  N3  UNL     1      29.522  21.690  15.583  1.00  0.00    -0.286 N 
ATOM     16  H3  UNL     1      30.139  22.472  15.360  1.00  0.00     0.169 HD
ATOM     17  H2  UNL     1      30.294  21.700  13.030  1.00  0.00     0.191 HD
BRANCH  15  18
HETATM   18  C6  UNL     1      28.998  21.522  16.939  1.00  0.00     0.462 C 
HETATM   19  F1  UNL     1      30.004  21.691  17.857  1.00  0.00    -0.191 F 
HETATM   20  F2  UNL     1      28.013  22.475  17.127  1.00  0.00    -0.191 F 
ENDBRANCH  15  18
ENDBRANCH  10  12
ENDBRANCH   3   9
BRANCH   5  21
HETATM   21  N4  UNL     1      28.168  15.638  10.055  1.00  0.00    -0.113 N 
HETATM   22  O2  UNL     1      27.363  14.730   9.973  1.00  0.00    -0.532 OA
HETATM   23  O3  UNL     1      29.436  15.296  10.529  1.00  0.00    -0.532 OA
ENDBRANCH   5  21
BRANCH   6  24
HETATM   24  O4  UNL     1      27.076  16.500   7.522  1.00  0.00    -0.357 OA
ATOM     25  H4  UNL     1      27.224  15.564   7.585  1.00  0.00     0.218 HD
ENDBRANCH   6  24
TORSDOF 5
ENDMDL
MODEL 4
REMARK VINA RESULT: -8.549398111      5.819      7.745
REMARK  5 active torsions:
REMARK  status: ('A' for Active; 'I' for Inactive)
REMARK    1  A    between atoms: C3_3  and  C4_4 
REMARK    2  A    between atoms: N1_5  and  N2_7 
REMARK       I    between atoms: N2_7  and  C5_9 
REMARK       I    between atoms: C5_9  and  N3_11 
REMARK    3  A    between atoms: N3_11  and  C6_13 
REMARK    4  A    between atoms: C8_17  and  N4_18 
REMARK    5  A    between atoms: C9_21  and  O4_22 
ROOT
HETATM    1  C1  UNL     1      27.199  18.168   8.399  1.00  0.00     0.051 C 
HETATM    2  C2  UNL     1      27.730  18.626   9.709  1.00  0.00    -0.026 A 
HETATM    3  C3  UNL     1      27.869  17.683  10.706  1.00  0.00    -0.009 A 
HETATM    4  C7  UNL     1      28.359  18.119  11.907  1.00  0.00     0.052 A 
HETATM    5  C8  UNL     1      28.710  19.467  12.136  1.00  0.00     0.138 A 
HETATM    6  C9  UNL     1      28.549  20.353  11.104  1.00  0.00     0.121 A 
HETATM    7  C10 UNL     1      28.050  19.937   9.865  1.00  0.00     0.076 A 
HETATM    8 CL1  UNL     1      27.866  21.111   8.590  1.00  0.00    -0.081 Cl
ENDROOT
BRANCH   3   9
HETATM    9  C4  UNL     1      27.515  16.285  10.508  1.00  0.00     0.119 C 
HETATM   10  N1  UNL     1      28.462  15.418  10.474  1.00  0.00    -0.307 N 
ATOM     11  H1  UNL     1      29.432  15.713  10.586  1.00  0.00     0.186 HD
BRANCH  10  12
HETATM   12  N2  UNL     1      28.157  14.076  10.286  1.00  0.00    -0.252 N 
HETATM   13  C5  UNL     1      29.118  13.121  10.736  1.00  0.00     0.338 C 
HETATM   14  O1  UNL     1      30.190  13.487  11.279  1.00  0.00    -0.245 OA
HETATM   15  N3  UNL     1      28.847  11.748  10.564  1.00  0.00    -0.286 N 
ATOM     16  H3  UNL     1      27.979  11.444  10.123  1.00  0.00     0.169 HD
ATOM     17  H2  UNL     1      27.285  13.787   9.845  1.00  0.00     0.191 HD
BRANCH  15  18
HETATM   18  C6  UNL     1      29.830  10.766  11.025  1.00  0.00     0.462 C 
HETATM   19  F1  UNL     1      29.744  10.619  12.387  1.00  0.00    -0.191 F 
HETATM   20  F2  UNL     1      29.549   9.567  10.396  1.00  0.00    -0.191 F 
ENDBRANCH  15  18
ENDBRANCH  10  12
ENDBRANCH   3   9
BRANCH   5  21
HETATM   21  N4  UNL     1      29.212  19.840  13.402  1.00  0.00    -0.113 N 
HETATM   22  O2  UNL     1      29.136  20.928  13.942  1.00  0.00    -0.532 OA
HETATM   23  O3  UNL     1      29.848  18.834  14.134  1.00  0.00    -0.532 OA
ENDBRANCH   5  21
BRANCH   6  24
HETATM   24  O4  UNL     1      28.859  21.685  11.207  1.00  0.00    -0.357 OA
ATOM     25  H4  UNL     1      29.711  22.038  10.975  1.00  0.00     0.218 HD
ENDBRANCH   6  24
TORSDOF 5
ENDMDL
MODEL 5
REMARK VINA RESULT: -8.504828221      1.298      1.737
REMARK  5 active torsions:
REMARK  status: ('A' for Active; 'I' for Inactive)
REMARK    1  A    between atoms: C3_3  and  C4_4 
REMARK    2  A    between atoms: N1_5  and  N2_7 
REMARK       I    between atoms: N2_7  and  C5_9 
REMARK       I    between atoms: C5_9  and  N3_11 
REMARK    3  A    between atoms: N3_11  and  C6_13 
REMARK    4  A    between atoms: C8_17  and  N4_18 
REMARK    5  A    between atoms: C9_21  and  O4_22 
ROOT
HETATM    1  C1  UNL     1      28.134  16.272  10.361  1.00  0.00     0.051 C 
HETATM    2  C2  UNL     1      27.867  17.552   9.655  1.00  0.00    -0.026 A 
HETATM    3  C3  UNL     1      27.928  18.714  10.396  1.00  0.00    -0.009 A 
HETATM    4  C7  UNL     1      27.680  19.885   9.733  1.00  0.00     0.052 A 
HETATM    5  C8  UNL     1      27.373  19.924   8.356  1.00  0.00     0.138 A 
HETATM    6  C9  UNL     1      27.328  18.736   7.678  1.00  0.00     0.121 A 
HETATM    7  C10 UNL     1      27.577  17.522   8.329  1.00  0.00     0.076 A 
HETATM    8 CL1  UNL     1      27.504  16.041   7.412  1.00  0.00    -0.081 Cl
ENDROOT
BRANCH   3   9
HETATM    9  C4  UNL     1      28.241  18.713  11.818  1.00  0.00     0.119 C 
HETATM   10  N1  UNL     1      29.299  19.327  12.208  1.00  0.00    -0.307 N 
ATOM     11  H1  UNL     1      29.896  19.800  11.530  1.00  0.00     0.186 HD
BRANCH  10  12
HETATM   12  N2  UNL     1      29.625  19.343  13.557  1.00  0.00    -0.252 N 
HETATM   13  C5  UNL     1      29.321  20.533  14.287  1.00  0.00     0.338 C 
HETATM   14  O1  UNL     1      28.782  21.518  13.724  1.00  0.00    -0.245 OA
HETATM   15  N3  UNL     1      29.637  20.591  15.659  1.00  0.00    -0.286 N 
ATOM     16  H3  UNL     1      30.076  19.795  16.123  1.00  0.00     0.169 HD
ATOM     17  H2  UNL     1      30.062  18.540  14.008  1.00  0.00     0.191 HD
BRANCH  15  18
HETATM   18  C6  UNL     1      29.326  21.809  16.410  1.00  0.00     0.462 C 
HETATM   19  F1  UNL     1      27.996  21.827  16.746  1.00  0.00    -0.191 F 
HETATM   20  F2  UNL     1      30.109  21.807  17.551  1.00  0.00    -0.191 F 
ENDBRANCH  15  18
ENDBRANCH  10  12
ENDBRANCH   3   9
BRANCH   5  21
HETATM   21  N4  UNL     1      27.132  21.173   7.742  1.00  0.00    -0.113 N 
HETATM   22  O2  UNL     1      27.786  21.709   6.866  1.00  0.00    -0.532 OA
HETATM   23  O3  UNL     1      25.995  21.862   8.170  1.00  0.00    -0.532 OA
ENDBRANCH   5  21
BRANCH   6  24
HETATM   24  O4  UNL     1      27.044  18.648   6.339  1.00  0.00    -0.357 OA
ATOM     25  H4  UNL     1      27.667  18.329   5.696  1.00  0.00     0.218 HD
ENDBRANCH   6  24
TORSDOF 5
ENDMDL
