MODEL 1
REMARK VINA RESULT: -6.898115820      0.000      0.000
REMARK  7 active torsions:
REMARK  status: ('A' for Active; 'I' for Inactive)
REMARK    1  A    between atoms: C2_2  and  N1_3 
REMARK    2  A    between atoms: C2_2  and  C9_18 
REMARK       I    between atoms: N1_3  and  C3_5 
REMARK    3  A    between atoms: C3_5  and  C4_7 
REMARK    4  A    between atoms: C4_7  and  O2_8 
REMARK    5  A    between atoms: O2_8  and  C5_9 
REMARK    6  A    between atoms: C7_11  and  O3_12 
REMARK    7  A    between atoms: C8_15  and  O5_16 
ROOT
HETATM    1  C4  UNL     1      26.493  20.715   7.405  1.00  0.00     0.278 C 
ENDROOT
BRANCH   1   2
HETATM    2  C3  UNL     1      27.641  20.739   8.341  1.00  0.00     0.242 C 
HETATM    3  N1  UNL     1      27.601  19.924   9.505  1.00  0.00    -0.351 N 
ATOM      4  H1  UNL     1      26.782  19.339   9.672  1.00  0.00     0.163 HD
HETATM    5  O1  UNL     1      28.629  21.465   8.113  1.00  0.00    -0.271 OA
BRANCH   3   6
HETATM    6  C2  UNL     1      28.686  19.899  10.461  1.00  0.00     0.134 C 
HETATM    7  C1  UNL     1      28.612  21.045  11.444  1.00  0.00     0.036 C 
BRANCH   6   8
HETATM    8  C9  UNL     1      28.602  18.595  11.232  1.00  0.00     0.208 C 
HETATM    9 CL1  UNL     1      30.186  17.788  11.054  1.00  0.00    -0.082 Cl
HETATM   10 CL2  UNL     1      27.414  17.571  10.367  1.00  0.00    -0.082 Cl
HETATM   11 CL3  UNL     1      28.181  18.816  12.917  1.00  0.00    -0.082 Cl
ENDBRANCH   6   8
ENDBRANCH   3   6
ENDBRANCH   1   2
BRANCH   1  12
HETATM   12  O2  UNL     1      25.592  19.675   7.682  1.00  0.00    -0.337 OA
BRANCH  12  13
HETATM   13  C5  UNL     1      24.230  19.940   7.645  1.00  0.00     0.132 A 
HETATM   14  C6  UNL     1      23.615  21.160   7.538  1.00  0.00     0.105 A 
HETATM   15  C7  UNL     1      22.265  20.950   7.539  1.00  0.00     0.188 A 
HETATM   16  O4  UNL     1      22.062  19.665   7.641  1.00  0.00    -0.262 OA
HETATM   17  C8  UNL     1      23.188  19.013   7.708  1.00  0.00     0.220 A 
BRANCH  15  18
HETATM   18  O3  UNL     1      21.273  21.928   7.448  1.00  0.00    -0.341 OA
ATOM     19  H3  UNL     1      20.405  21.891   7.833  1.00  0.00     0.220 HD
ENDBRANCH  15  18
BRANCH  17  20
HETATM   20  O5  UNL     1      23.350  17.647   7.821  1.00  0.00    -0.339 OA
ATOM     21  H5  UNL     1      22.720  17.055   8.216  1.00  0.00     0.220 HD
ENDBRANCH  17  20
ENDBRANCH  12  13
ENDBRANCH   1  12
TORSDOF 7
ENDMDL
MODEL 2
REMARK VINA RESULT: -6.721666023      4.330      7.128
REMARK  7 active torsions:
REMARK  status: ('A' for Active; 'I' for Inactive)
REMARK    1  A    between atoms: C2_2  and  N1_3 
REMARK    2  A    between atoms: C2_2  and  C9_18 
REMARK       I    between atoms: N1_3  and  C3_5 
REMARK    3  A    between atoms: C3_5  and  C4_7 
REMARK    4  A    between atoms: C4_7  and  O2_8 
REMARK    5  A    between atoms: O2_8  and  C5_9 
REMARK    6  A    between atoms: C7_11  and  O3_12 
REMARK    7  A    between atoms: C8_15  and  O5_16 
ROOT
HETATM    1  C4  UNL     1      28.609  20.104  10.708  1.00  0.00     0.278 C 
ENDROOT
BRANCH   1   2
HETATM    2  C3  UNL     1      27.753  19.711   9.564  1.00  0.00     0.242 C 
HETATM    3  N1  UNL     1      27.230  20.722   8.712  1.00  0.00    -0.351 N 
ATOM      4  H1  UNL     1      27.454  21.698   8.907  1.00  0.00     0.163 HD
HETATM    5  O1  UNL     1      27.495  18.510   9.350  1.00  0.00    -0.271 OA
BRANCH   3   6
HETATM    6  C2  UNL     1      26.389  20.410   7.579  1.00  0.00     0.134 C 
HETATM    7  C1  UNL     1      24.972  20.908   7.760  1.00  0.00     0.036 C 
BRANCH   6   8
HETATM    8  C9  UNL     1      26.983  21.079   6.354  1.00  0.00     0.208 C 
HETATM    9 CL1  UNL     1      28.431  21.969   6.903  1.00  0.00    -0.082 Cl
HETATM   10 CL2  UNL     1      25.799  22.316   5.829  1.00  0.00    -0.082 Cl
HETATM   11 CL3  UNL     1      27.373  19.950   5.073  1.00  0.00    -0.082 Cl
ENDBRANCH   6   8
ENDBRANCH   3   6
ENDBRANCH   1   2
BRANCH   1  12
HETATM   12  O2  UNL     1      28.561  19.177  11.761  1.00  0.00    -0.337 OA
BRANCH  12  13
HETATM   13  C5  UNL     1      29.013  19.563  13.015  1.00  0.00     0.132 A 
HETATM   14  C6  UNL     1      28.950  20.809  13.583  1.00  0.00     0.105 A 
HETATM   15  C7  UNL     1      29.513  20.731  14.825  1.00  0.00     0.188 A 
HETATM   16  O4  UNL     1      29.901  19.499  15.011  1.00  0.00    -0.262 OA
HETATM   17  C8  UNL     1      29.632  18.758  13.974  1.00  0.00     0.220 A 
BRANCH  15  18
HETATM   18  O3  UNL     1      29.652  21.777  15.741  1.00  0.00    -0.341 OA
ATOM     19  H3  UNL     1      29.783  21.694  16.678  1.00  0.00     0.220 HD
ENDBRANCH  15  18
BRANCH  17  20
HETATM   20  O5  UNL     1      29.902  17.413  13.822  1.00  0.00    -0.339 OA
ATOM     21  H5  UNL     1      29.792  16.756  14.500  1.00  0.00     0.220 HD
ENDBRANCH  17  20
ENDBRANCH  12  13
ENDBRANCH   1  12
TORSDOF 7
ENDMDL
MODEL 3
REMARK VINA RESULT: -6.688266146      3.941      6.817
REMARK  7 active torsions:
REMARK  status: ('A' for Active; 'I' for Inactive)
REMARK    1  A    between atoms: C2_2  and  N1_3 
REMARK    2  A    between atoms: C2_2  and  C9_18 
REMARK       I    between atoms: N1_3  and  C3_5 
REMARK    3  A    between atoms: C3_5  and  C4_7 
REMARK    4  A    between atoms: C4_7  and  O2_8 
REMARK    5  A    between atoms: O2_8  and  C5_9 
REMARK    6  A    between atoms: C7_11  and  O3_12 
REMARK    7  A    between atoms: C8_15  and  O5_16 
ROOT
HETATM    1  C4  UNL     1      28.257  17.561  10.215  1.00  0.00     0.278 C 
ENDROOT
BRANCH   1   2
HETATM    2  C3  UNL     1      27.368  17.794   9.053  1.00  0.00     0.242 C 
HETATM    3  N1  UNL     1      27.137  19.127   8.614  1.00  0.00    -0.351 N 
ATOM      4  H1  UNL     1      27.589  19.896   9.110  1.00  0.00     0.163 HD
HETATM    5  O1  UNL     1      26.828  16.835   8.466  1.00  0.00    -0.271 OA
BRANCH   3   6
HETATM    6  C2  UNL     1      26.282  19.426   7.488  1.00  0.00     0.134 C 
HETATM    7  C1  UNL     1      24.841  19.630   7.899  1.00  0.00     0.036 C 
BRANCH   6   8
HETATM    8  C9  UNL     1      26.785  20.704   6.842  1.00  0.00     0.208 C 
HETATM    9 CL1  UNL     1      27.458  20.247   5.252  1.00  0.00    -0.082 Cl
HETATM   10 CL2  UNL     1      28.169  21.261   7.835  1.00  0.00    -0.082 Cl
HETATM   11 CL3  UNL     1      25.546  21.931   6.686  1.00  0.00    -0.082 Cl
ENDBRANCH   6   8
ENDBRANCH   3   6
ENDBRANCH   1   2
BRANCH   1  12
HETATM   12  O2  UNL     1      27.767  18.146  11.393  1.00  0.00    -0.337 OA
BRANCH  12  13
HETATM   13  C5  UNL     1      28.670  18.693  12.296  1.00  0.00     0.132 A 
HETATM   14  C6  UNL     1      28.830  20.014  12.625  1.00  0.00     0.105 A 
HETATM   15  C7  UNL     1      29.830  20.095  13.552  1.00  0.00     0.188 A 
HETATM   16  O4  UNL     1      30.262  18.885  13.781  1.00  0.00    -0.262 OA
HETATM   17  C8  UNL     1      29.613  18.010  13.066  1.00  0.00     0.220 A 
BRANCH  15  18
HETATM   18  O3  UNL     1      30.311  21.260  14.154  1.00  0.00    -0.341 OA
ATOM     19  H3  UNL     1      30.088  21.583  15.019  1.00  0.00     0.220 HD
ENDBRANCH  15  18
BRANCH  17  20
HETATM   20  O5  UNL     1      29.805  16.643  13.053  1.00  0.00    -0.339 OA
ATOM     21  H5  UNL     1      30.287  16.155  13.710  1.00  0.00     0.220 HD
ENDBRANCH  17  20
ENDBRANCH  12  13
ENDBRANCH   1  12
TORSDOF 7
ENDMDL
MODEL 4
REMARK VINA RESULT: -6.673190405      1.727      1.975
REMARK  7 active torsions:
REMARK  status: ('A' for Active; 'I' for Inactive)
REMARK    1  A    between atoms: C2_2  and  N1_3 
REMARK    2  A    between atoms: C2_2  and  C9_18 
REMARK       I    between atoms: N1_3  and  C3_5 
REMARK    3  A    between atoms: C3_5  and  C4_7 
REMARK    4  A    between atoms: C4_7  and  O2_8 
REMARK    5  A    between atoms: O2_8  and  C5_9 
REMARK    6  A    between atoms: C7_11  and  O3_12 
REMARK    7  A    between atoms: C8_15  and  O5_16 
ROOT
HETATM    1  C4  UNL     1      26.473  20.725   8.077  1.00  0.00     0.278 C 
ENDROOT
BRANCH   1   2
HETATM    2  C3  UNL     1      27.446  19.965   8.896  1.00  0.00     0.242 C 
HETATM    3  N1  UNL     1      27.270  18.563   9.056  1.00  0.00    -0.351 N 
ATOM      4  H1  UNL     1      26.476  18.110   8.604  1.00  0.00     0.163 HD
HETATM    5  O1  UNL     1      28.407  20.545   9.439  1.00  0.00    -0.271 OA
BRANCH   3   6
HETATM    6  C2  UNL     1      28.181  17.760   9.841  1.00  0.00     0.134 C 
HETATM    7  C1  UNL     1      27.905  17.863  11.324  1.00  0.00     0.036 C 
BRANCH   6   8
HETATM    8  C9  UNL     1      28.015  16.312   9.418  1.00  0.00     0.208 C 
HETATM    9 CL1  UNL     1      29.405  15.416  10.092  1.00  0.00    -0.082 Cl
HETATM   10 CL2  UNL     1      28.209  16.281   7.637  1.00  0.00    -0.082 Cl
HETATM   11 CL3  UNL     1      26.492  15.615   9.930  1.00  0.00    -0.082 Cl
ENDBRANCH   6   8
ENDBRANCH   3   6
ENDBRANCH   1   2
BRANCH   1  12
HETATM   12  O2  UNL     1      25.588  19.890   7.379  1.00  0.00    -0.337 OA
BRANCH  12  13
HETATM   13  C5  UNL     1      24.223  20.121   7.484  1.00  0.00     0.132 A 
HETATM   14  C6  UNL     1      23.568  21.323   7.416  1.00  0.00     0.105 A 
HETATM   15  C7  UNL     1      22.233  21.081   7.570  1.00  0.00     0.188 A 
HETATM   16  O4  UNL     1      22.075  19.795   7.725  1.00  0.00    -0.262 OA
HETATM   17  C8  UNL     1      23.219  19.172   7.683  1.00  0.00     0.220 A 
BRANCH  15  18
HETATM   18  O3  UNL     1      21.210  22.033   7.564  1.00  0.00    -0.341 OA
ATOM     19  H3  UNL     1      20.551  22.157   8.236  1.00  0.00     0.220 HD
ENDBRANCH  15  18
BRANCH  17  20
HETATM   20  O5  UNL     1      23.428  17.814   7.811  1.00  0.00    -0.339 OA
ATOM     21  H5  UNL     1      23.318  17.177   7.114  1.00  0.00     0.220 HD
ENDBRANCH  17  20
ENDBRANCH  12  13
ENDBRANCH   1  12
TORSDOF 7
ENDMDL
MODEL 5
REMARK VINA RESULT: -6.634812520      3.716      6.866
REMARK  7 active torsions:
REMARK  status: ('A' for Active; 'I' for Inactive)
REMARK    1  A    between atoms: C2_2  and  N1_3 
REMARK    2  A    between atoms: C2_2  and  C9_18 
REMARK       I    between atoms: N1_3  and  C3_5 
REMARK    3  A    between atoms: C3_5  and  C4_7 
REMARK    4  A    between atoms: C4_7  and  O2_8 
REMARK    5  A    between atoms: O2_8  and  C5_9 
REMARK    6  A    between atoms: C7_11  and  O3_12 
REMARK    7  A    between atoms: C8_15  and  O5_16 
ROOT
HETATM    1  C4  UNL     1      28.003  18.330  10.564  1.00  0.00     0.278 C 
ENDROOT
BRANCH   1   2
HETATM    2  C3  UNL     1      27.213  18.367   9.310  1.00  0.00     0.242 C 
HETATM    3  N1  UNL     1      27.040  19.608   8.637  1.00  0.00    -0.351 N 
ATOM      4  H1  UNL     1      27.464  20.448   9.032  1.00  0.00     0.163 HD
HETATM    5  O1  UNL     1      26.706  17.325   8.851  1.00  0.00    -0.271 OA
BRANCH   3   6
HETATM    6  C2  UNL     1      26.282  19.716   7.411  1.00  0.00     0.134 C 
HETATM    7  C1  UNL     1      24.839  20.092   7.659  1.00  0.00     0.036 C 
BRANCH   6   8
HETATM    8  C9  UNL     1      26.923  20.794   6.556  1.00  0.00     0.208 C 
HETATM    9 CL1  UNL     1      28.240  21.508   7.528  1.00  0.00    -0.082 Cl
HETATM   10 CL2  UNL     1      25.690  22.078   6.356  1.00  0.00    -0.082 Cl
HETATM   11 CL3  UNL     1      27.511  20.195   5.019  1.00  0.00    -0.082 Cl
ENDBRANCH   6   8
ENDBRANCH   3   6
ENDBRANCH   1   2
BRANCH   1  12
HETATM   12  O2  UNL     1      28.831  19.454  10.712  1.00  0.00    -0.337 OA
BRANCH  12  13
HETATM   13  C5  UNL     1      29.097  19.927  11.990  1.00  0.00     0.132 A 
HETATM   14  C6  UNL     1      29.539  19.213  13.073  1.00  0.00     0.105 A 
HETATM   15  C7  UNL     1      29.664  20.080  14.121  1.00  0.00     0.188 A 
HETATM   16  O4  UNL     1      29.317  21.266  13.703  1.00  0.00    -0.262 OA
HETATM   17  C8  UNL     1      28.970  21.240  12.447  1.00  0.00     0.220 A 
BRANCH  15  18
HETATM   18  O3  UNL     1      30.088  19.763  15.414  1.00  0.00    -0.341 OA
ATOM     19  H3  UNL     1      29.918  20.264  16.203  1.00  0.00     0.220 HD
ENDBRANCH  15  18
BRANCH  17  20
HETATM   20  O5  UNL     1      28.549  22.307  11.681  1.00  0.00    -0.339 OA
ATOM     21  H5  UNL     1      27.647  22.477  11.432  1.00  0.00     0.220 HD
ENDBRANCH  17  20
ENDBRANCH  12  13
ENDBRANCH   1  12
TORSDOF 7
ENDMDL
