MODEL 1
REMARK VINA RESULT: -6.901112865      0.000      0.000
REMARK  7 active torsions:
REMARK  status: ('A' for Active; 'I' for Inactive)
REMARK    1  A    between atoms: C2_2  and  C3_3 
REMARK    2  A    between atoms: C3_3  and  C4_4 
REMARK    3  A    between atoms: C4_4  and  O1_5 
REMARK    4  A    between atoms: C4_4  and  C5_7 
REMARK    5  A    between atoms: C7_9  and  C8_10 
REMARK    6  A    between atoms: C9_13  and  C10_14 
REMARK    7  A    between atoms: N2_18  and  O3_19 
ROOT
HETATM    1  C5  UNL     1      28.318  19.283  10.610  1.00  0.00     0.070 A 
HETATM    2  C6  UNL     1      28.063  18.000  10.212  1.00  0.00     0.049 A 
HETATM    3  C7  UNL     1      27.370  17.995   8.969  1.00  0.00     0.060 A 
HETATM    4  C9  UNL     1      27.243  19.330   8.678  1.00  0.00     0.109 A 
HETATM    5  N2  UNL     1      27.816  20.083   9.671  1.00  0.00    -0.225 N 
ENDROOT
BRANCH   1   6
HETATM    6  C4  UNL     1      29.030  19.672  11.869  1.00  0.00     0.170 C 
BRANCH   6   7
HETATM    7  C3  UNL     1      28.638  18.767  13.013  1.00  0.00     0.037 C 
BRANCH   7   8
HETATM    8  C2  UNL     1      29.285  19.151  14.302  1.00  0.00    -0.002 C 
HETATM    9  C1  UNL     1      28.298  19.633  15.339  1.00  0.00     0.005 C 
ENDBRANCH   7   8
ENDBRANCH   6   7
BRANCH   6  10
HETATM   10  O1  UNL     1      28.792  21.007  12.168  1.00  0.00    -0.389 OA
ATOM     11  H1  UNL     1      29.408  21.337  12.812  1.00  0.00     0.210 HD
ENDBRANCH   6  10
ENDBRANCH   1   6
BRANCH   5  12
HETATM   12  O3  UNL     1      27.895  21.459   9.748  1.00  0.00    -0.282 OA
ATOM     13  H3  UNL     1      28.719  21.928   9.682  1.00  0.00     0.245 HD
ENDBRANCH   5  12
BRANCH   3  14
HETATM   14  C8  UNL     1      26.967  16.784   8.315  1.00  0.00     0.267 C 
HETATM   15  N1  UNL     1      25.867  15.996   8.619  1.00  0.00    -0.057 NA
HETATM   16  O2  UNL     1      27.675  16.341   7.325  1.00  0.00    -0.271 OA
ENDBRANCH   3  14
BRANCH   4  17
HETATM   17  C10 UNL     1      26.596  19.938   7.510  1.00  0.00     0.234 C 
HETATM   18 CL1  UNL     1      27.221  19.331   5.961  1.00  0.00    -0.077 Cl
HETATM   19 CL2  UNL     1      24.848  19.492   7.520  1.00  0.00    -0.077 Cl
HETATM   20 CL3  UNL     1      26.645  21.712   7.486  1.00  0.00    -0.077 Cl
ENDBRANCH   4  17
TORSDOF 7
ENDMDL
MODEL 2
REMARK VINA RESULT: -6.782793835      0.148      1.188
REMARK  7 active torsions:
REMARK  status: ('A' for Active; 'I' for Inactive)
REMARK    1  A    between atoms: C2_2  and  C3_3 
REMARK    2  A    between atoms: C3_3  and  C4_4 
REMARK    3  A    between atoms: C4_4  and  O1_5 
REMARK    4  A    between atoms: C4_4  and  C5_7 
REMARK    5  A    between atoms: C7_9  and  C8_10 
REMARK    6  A    between atoms: C9_13  and  C10_14 
REMARK    7  A    between atoms: N2_18  and  O3_19 
ROOT
HETATM    1  C5  UNL     1      28.290  19.178  10.638  1.00  0.00     0.070 A 
HETATM    2  C6  UNL     1      27.990  17.894  10.278  1.00  0.00     0.049 A 
HETATM    3  C7  UNL     1      27.285  17.877   9.042  1.00  0.00     0.060 A 
HETATM    4  C9  UNL     1      27.197  19.207   8.716  1.00  0.00     0.109 A 
HETATM    5  N2  UNL     1      27.804  19.968   9.682  1.00  0.00    -0.225 N 
ENDROOT
BRANCH   1   6
HETATM    6  C4  UNL     1      29.027  19.578  11.880  1.00  0.00     0.170 C 
BRANCH   6   7
HETATM    7  C3  UNL     1      28.657  18.683  13.039  1.00  0.00     0.037 C 
BRANCH   7   8
HETATM    8  C2  UNL     1      29.320  19.086  14.314  1.00  0.00    -0.002 C 
HETATM    9  C1  UNL     1      28.357  19.666  15.323  1.00  0.00     0.005 C 
ENDBRANCH   7   8
ENDBRANCH   6   7
BRANCH   6  10
HETATM   10  O1  UNL     1      28.795  20.916  12.171  1.00  0.00    -0.389 OA
ATOM     11  H1  UNL     1      28.833  21.456  11.391  1.00  0.00     0.210 HD
ENDBRANCH   6  10
ENDBRANCH   1   6
BRANCH   5  12
HETATM   12  O3  UNL     1      27.928  21.342   9.721  1.00  0.00    -0.282 OA
ATOM     13  H3  UNL     1      27.441  21.916   9.140  1.00  0.00     0.245 HD
ENDBRANCH   5  12
BRANCH   3  14
HETATM   14  C8  UNL     1      26.838  16.663   8.425  1.00  0.00     0.267 C 
HETATM   15  N1  UNL     1      25.689  15.944   8.728  1.00  0.00    -0.057 NA
HETATM   16  O2  UNL     1      27.548  16.143   7.475  1.00  0.00    -0.271 OA
ENDBRANCH   3  14
BRANCH   4  17
HETATM   17  C10 UNL     1      26.558  19.803   7.538  1.00  0.00     0.234 C 
HETATM   18 CL1  UNL     1      24.797  19.571   7.496  1.00  0.00    -0.077 Cl
HETATM   19 CL2  UNL     1      26.796  21.591   7.593  1.00  0.00    -0.077 Cl
HETATM   20 CL3  UNL     1      27.239  19.270   5.987  1.00  0.00    -0.077 Cl
ENDBRANCH   4  17
TORSDOF 7
ENDMDL
MODEL 3
REMARK VINA RESULT: -6.684118796      3.747      4.477
REMARK  7 active torsions:
REMARK  status: ('A' for Active; 'I' for Inactive)
REMARK    1  A    between atoms: C2_2  and  C3_3 
REMARK    2  A    between atoms: C3_3  and  C4_4 
REMARK    3  A    between atoms: C4_4  and  O1_5 
REMARK    4  A    between atoms: C4_4  and  C5_7 
REMARK    5  A    between atoms: C7_9  and  C8_10 
REMARK    6  A    between atoms: C9_13  and  C10_14 
REMARK    7  A    between atoms: N2_18  and  O3_19 
ROOT
HETATM    1  C5  UNL     1      28.948  17.431  11.814  1.00  0.00     0.070 A 
HETATM    2  C6  UNL     1      28.178  17.877  10.777  1.00  0.00     0.049 A 
HETATM    3  C7  UNL     1      28.081  16.880   9.766  1.00  0.00     0.060 A 
HETATM    4  C9  UNL     1      28.830  15.849  10.273  1.00  0.00     0.109 A 
HETATM    5  N2  UNL     1      29.340  16.197  11.499  1.00  0.00    -0.225 N 
ENDROOT
BRANCH   1   6
HETATM    6  C4  UNL     1      29.267  18.211  13.052  1.00  0.00     0.170 C 
BRANCH   6   7
HETATM    7  C3  UNL     1      29.949  19.514  12.708  1.00  0.00     0.037 C 
BRANCH   7   8
HETATM    8  C2  UNL     1      29.086  20.703  12.966  1.00  0.00    -0.002 C 
HETATM    9  C1  UNL     1      28.780  21.494  11.716  1.00  0.00     0.005 C 
ENDBRANCH   7   8
ENDBRANCH   6   7
BRANCH   6  10
HETATM   10  O1  UNL     1      30.033  17.447  13.923  1.00  0.00    -0.389 OA
ATOM     11  H1  UNL     1      30.933  17.750  13.957  1.00  0.00     0.210 HD
ENDBRANCH   6  10
ENDBRANCH   1   6
BRANCH   5  12
HETATM   12  O3  UNL     1      30.139  15.436  12.327  1.00  0.00    -0.282 OA
ATOM     13  H3  UNL     1      31.087  15.508  12.330  1.00  0.00     0.245 HD
ENDBRANCH   5  12
BRANCH   3  14
HETATM   14  C8  UNL     1      27.338  17.077   8.556  1.00  0.00     0.267 C 
HETATM   15  N1  UNL     1      27.797  16.916   7.256  1.00  0.00    -0.057 NA
HETATM   16  O2  UNL     1      26.098  17.444   8.634  1.00  0.00    -0.271 OA
ENDBRANCH   3  14
BRANCH   4  17
HETATM   17  C10 UNL     1      29.101  14.546   9.655  1.00  0.00     0.234 C 
HETATM   18 CL1  UNL     1      29.688  13.327  10.807  1.00  0.00    -0.077 Cl
HETATM   19 CL2  UNL     1      27.554  13.879   9.010  1.00  0.00    -0.077 Cl
HETATM   20 CL3  UNL     1      30.217  14.607   8.276  1.00  0.00    -0.077 Cl
ENDBRANCH   4  17
TORSDOF 7
ENDMDL
MODEL 4
REMARK VINA RESULT: -6.635486383      3.157      3.884
REMARK  7 active torsions:
REMARK  status: ('A' for Active; 'I' for Inactive)
REMARK    1  A    between atoms: C2_2  and  C3_3 
REMARK    2  A    between atoms: C3_3  and  C4_4 
REMARK    3  A    between atoms: C4_4  and  O1_5 
REMARK    4  A    between atoms: C4_4  and  C5_7 
REMARK    5  A    between atoms: C7_9  and  C8_10 
REMARK    6  A    between atoms: C9_13  and  C10_14 
REMARK    7  A    between atoms: N2_18  and  O3_19 
ROOT
HETATM    1  C5  UNL     1      28.896  17.751  11.945  1.00  0.00     0.070 A 
HETATM    2  C6  UNL     1      28.148  18.533  11.110  1.00  0.00     0.049 A 
HETATM    3  C7  UNL     1      27.829  17.823   9.918  1.00  0.00     0.060 A 
HETATM    4  C9  UNL     1      28.430  16.605  10.113  1.00  0.00     0.109 A 
HETATM    5  N2  UNL     1      29.062  16.581  11.330  1.00  0.00    -0.225 N 
ENDROOT
BRANCH   1   6
HETATM    6  C4  UNL     1      29.412  18.168  13.288  1.00  0.00     0.170 C 
BRANCH   6   7
HETATM    7  C3  UNL     1      30.139  19.490  13.201  1.00  0.00     0.037 C 
BRANCH   7   8
HETATM    8  C2  UNL     1      29.490  20.560  14.012  1.00  0.00    -0.002 C 
HETATM    9  C1  UNL     1      28.641  20.017  15.138  1.00  0.00     0.005 C 
ENDBRANCH   7   8
ENDBRANCH   6   7
BRANCH   6  10
HETATM   10  O1  UNL     1      30.220  17.175  13.827  1.00  0.00    -0.389 OA
ATOM     11  H1  UNL     1      30.569  16.604  13.153  1.00  0.00     0.210 HD
ENDBRANCH   6  10
ENDBRANCH   1   6
BRANCH   5  12
HETATM   12  O3  UNL     1      29.775  15.542  11.891  1.00  0.00    -0.282 OA
ATOM     13  H3  UNL     1      30.345  14.979  11.380  1.00  0.00     0.245 HD
ENDBRANCH   5  12
BRANCH   3  14
HETATM   14  C8  UNL     1      27.056  18.401   8.859  1.00  0.00     0.267 C 
HETATM   15  N1  UNL     1      27.305  19.596   8.198  1.00  0.00    -0.057 NA
HETATM   16  O2  UNL     1      26.003  17.775   8.437  1.00  0.00    -0.271 OA
ENDBRANCH   3  14
BRANCH   4  17
HETATM   17  C10 UNL     1      28.447  15.455   9.201  1.00  0.00     0.234 C 
HETATM   18 CL1  UNL     1      29.674  14.241   9.619  1.00  0.00    -0.077 Cl
HETATM   19 CL2  UNL     1      26.867  14.593   9.327  1.00  0.00    -0.077 Cl
HETATM   20 CL3  UNL     1      28.631  15.883   7.487  1.00  0.00    -0.077 Cl
ENDBRANCH   4  17
TORSDOF 7
ENDMDL
MODEL 5
REMARK VINA RESULT: -6.620732657      3.719      4.533
REMARK  7 active torsions:
REMARK  status: ('A' for Active; 'I' for Inactive)
REMARK    1  A    between atoms: C2_2  and  C3_3 
REMARK    2  A    between atoms: C3_3  and  C4_4 
REMARK    3  A    between atoms: C4_4  and  O1_5 
REMARK    4  A    between atoms: C4_4  and  C5_7 
REMARK    5  A    between atoms: C7_9  and  C8_10 
REMARK    6  A    between atoms: C9_13  and  C10_14 
REMARK    7  A    between atoms: N2_18  and  O3_19 
ROOT
HETATM    1  C5  UNL     1      28.940  17.426  11.794  1.00  0.00     0.070 A 
HETATM    2  C6  UNL     1      28.174  17.890  10.761  1.00  0.00     0.049 A 
HETATM    3  C7  UNL     1      28.058  16.900   9.745  1.00  0.00     0.060 A 
HETATM    4  C9  UNL     1      28.792  15.854  10.245  1.00  0.00     0.109 A 
HETATM    5  N2  UNL     1      29.310  16.188  11.471  1.00  0.00    -0.225 N 
ENDROOT
BRANCH   1   6
HETATM    6  C4  UNL     1      29.275  18.194  13.035  1.00  0.00     0.170 C 
BRANCH   6   7
HETATM    7  C3  UNL     1      29.959  19.497  12.695  1.00  0.00     0.037 C 
BRANCH   7   8
HETATM    8  C2  UNL     1      29.100  20.688  12.964  1.00  0.00    -0.002 C 
HETATM    9  C1  UNL     1      28.783  21.482  11.719  1.00  0.00     0.005 C 
ENDBRANCH   7   8
ENDBRANCH   6   7
BRANCH   6  10
HETATM   10  O1  UNL     1      30.046  17.419  13.891  1.00  0.00    -0.389 OA
ATOM     11  H1  UNL     1      30.302  16.599  13.487  1.00  0.00     0.210 HD
ENDBRANCH   6  10
ENDBRANCH   1   6
BRANCH   5  12
HETATM   12  O3  UNL     1      30.099  15.410  12.293  1.00  0.00    -0.282 OA
ATOM     13  H3  UNL     1      31.036  15.543  12.378  1.00  0.00     0.245 HD
ENDBRANCH   5  12
BRANCH   3  14
HETATM   14  C8  UNL     1      27.315  17.116   8.538  1.00  0.00     0.267 C 
HETATM   15  N1  UNL     1      27.768  16.958   7.236  1.00  0.00    -0.057 NA
HETATM   16  O2  UNL     1      26.080  17.500   8.622  1.00  0.00    -0.271 OA
ENDBRANCH   3  14
BRANCH   4  17
HETATM   17  C10 UNL     1      29.039  14.550   9.620  1.00  0.00     0.234 C 
HETATM   18 CL1  UNL     1      27.598  13.850   8.852  1.00  0.00    -0.077 Cl
HETATM   19 CL2  UNL     1      30.228  14.768   8.280  1.00  0.00    -0.077 Cl
HETATM   20 CL3  UNL     1      29.750  13.340  10.707  1.00  0.00    -0.077 Cl
ENDBRANCH   4  17
TORSDOF 7
ENDMDL
