MODEL 1
REMARK VINA RESULT: -6.859881573      0.000      0.000
REMARK  13 active torsions:
REMARK  status: ('A' for Active; 'I' for Inactive)
REMARK    1  A    between atoms: C2_2  and  O1_3 
REMARK    2  A    between atoms: O1_3  and  C3_4 
REMARK    3  A    between atoms: C3_4  and  C4_6 
REMARK    4  A    between atoms: C5_7  and  N1_8 
REMARK    5  A    between atoms: C6_10  and  C7_11 
REMARK    6  A    between atoms: C8_12  and  O3_13 
REMARK    7  A    between atoms: C10_16  and  O4_17 
REMARK    8  A    between atoms: C13_21  and  O5_22 
REMARK    9  A    between atoms: C16_27  and  C17_28 
REMARK   10  A    between atoms: C17_28  and  O8_30 
REMARK   11  A    between atoms: C19_32  and  C20_33 
REMARK   12  A    between atoms: C20_33  and  O10_35 
REMARK   13  A    between atoms: O10_35  and  C21_36 
ROOT
HETATM    1  C4  UNL     1     -35.431 -17.537  59.423  1.00  0.00     0.110 A 
HETATM    2  C5  UNL     1     -34.407 -16.631  59.390  1.00  0.00     0.166 A 
HETATM    3  O6  UNL     1     -34.753 -15.593  58.696  1.00  0.00    -0.285 OA
HETATM    4  C16 UNL     1     -36.010 -15.726  58.223  1.00  0.00     0.170 A 
HETATM    5  C19 UNL     1     -36.456 -16.942  58.669  1.00  0.00     0.100 A 
ENDROOT
BRANCH   2   6
HETATM    6  N1  UNL     1     -33.160 -16.829  60.034  1.00  0.00    -0.345 N 
HETATM    7  C6  UNL     1     -32.137 -17.350  59.464  1.00  0.00     0.105 C 
ATOM      8  H1  UNL     1     -33.072 -16.540  61.008  1.00  0.00     0.167 HD
BRANCH   7   9
HETATM    9  C7  UNL     1     -30.843 -17.576  60.069  1.00  0.00     0.022 A 
HETATM   10  C8  UNL     1     -30.388 -16.640  60.985  1.00  0.00     0.080 A 
HETATM   11  C9  UNL     1     -29.143 -16.880  61.561  1.00  0.00     0.074 A 
HETATM   12  C10 UNL     1     -28.399 -17.988  61.240  1.00  0.00     0.075 A 
HETATM   13  C11 UNL     1     -28.849 -18.917  60.330  1.00  0.00    -0.015 A 
HETATM   14  C12 UNL     1     -30.077 -18.707  59.743  1.00  0.00    -0.006 A 
HETATM   15  C15 UNL     1     -28.240 -20.182  59.827  1.00  0.00     0.045 C 
HETATM   16  C13 UNL     1     -30.391 -19.800  58.794  1.00  0.00     0.153 C 
HETATM   17  C14 UNL     1     -29.055 -20.493  58.614  1.00  0.00     0.041 C 
BRANCH  10  18
HETATM   18  O3  UNL     1     -31.083 -15.503  61.356  1.00  0.00    -0.360 OA
ATOM     19  H3  UNL     1     -31.706 -15.461  62.073  1.00  0.00     0.217 HD
ENDBRANCH  10  18
BRANCH  12  20
HETATM   20  O4  UNL     1     -27.152 -18.196  61.840  1.00  0.00    -0.360 OA
ATOM     21  H4  UNL     1     -26.520 -17.488  61.887  1.00  0.00     0.217 HD
ENDBRANCH  12  20
BRANCH  16  22
HETATM   22  O5  UNL     1     -31.323 -20.631  59.395  1.00  0.00    -0.391 OA
ATOM     23  H5  UNL     1     -31.106 -21.527  59.165  1.00  0.00     0.210 HD
ENDBRANCH  16  22
ENDBRANCH   7   9
ENDBRANCH   2   6
BRANCH   1  24
HETATM   24  C3  UNL     1     -35.512 -18.823  60.063  1.00  0.00     0.298 C 
HETATM   25  O2  UNL     1     -35.349 -19.867  59.357  1.00  0.00    -0.259 OA
BRANCH  24  26
HETATM   26  O1  UNL     1     -35.757 -19.026  61.412  1.00  0.00    -0.318 OA
BRANCH  26  27
HETATM   27  C2  UNL     1     -35.885 -17.928  62.327  1.00  0.00     0.174 C 
HETATM   28  C1  UNL     1     -34.686 -18.003  63.247  1.00  0.00     0.034 C 
ENDBRANCH  26  27
ENDBRANCH  24  26
ENDBRANCH   1  24
BRANCH   5  29
HETATM   29  C20 UNL     1     -37.735 -17.559  58.440  1.00  0.00     0.297 C 
HETATM   30  O9  UNL     1     -37.827 -18.403  57.467  1.00  0.00    -0.259 OA
BRANCH  29  31
HETATM   31  O10 UNL     1     -38.908 -17.382  59.120  1.00  0.00    -0.318 OA
BRANCH  31  32
HETATM   32  C21 UNL     1     -39.056 -17.667  60.498  1.00  0.00     0.174 C 
HETATM   33  C22 UNL     1     -39.222 -19.169  60.618  1.00  0.00     0.034 C 
ENDBRANCH  31  32
ENDBRANCH  29  31
ENDBRANCH   5  29
BRANCH   4  34
HETATM   34  C17 UNL     1     -36.658 -14.707  57.408  1.00  0.00     0.318 C 
HETATM   35  O7  UNL     1     -36.236 -14.497  56.215  1.00  0.00    -0.257 OA
BRANCH  34  36
HETATM   36  O8  UNL     1     -37.709 -13.912  57.774  1.00  0.00    -0.321 OA
HETATM   37  C18 UNL     1     -39.050 -14.141  57.470  1.00  0.00     0.213 C 
ENDBRANCH  34  36
ENDBRANCH   4  34
TORSDOF 13
ENDMDL
MODEL 2
REMARK VINA RESULT: -6.836567855      1.864      2.820
REMARK  13 active torsions:
REMARK  status: ('A' for Active; 'I' for Inactive)
REMARK    1  A    between atoms: C2_2  and  O1_3 
REMARK    2  A    between atoms: O1_3  and  C3_4 
REMARK    3  A    between atoms: C3_4  and  C4_6 
REMARK    4  A    between atoms: C5_7  and  N1_8 
REMARK    5  A    between atoms: C6_10  and  C7_11 
REMARK    6  A    between atoms: C8_12  and  O3_13 
REMARK    7  A    between atoms: C10_16  and  O4_17 
REMARK    8  A    between atoms: C13_21  and  O5_22 
REMARK    9  A    between atoms: C16_27  and  C17_28 
REMARK   10  A    between atoms: C17_28  and  O8_30 
REMARK   11  A    between atoms: C19_32  and  C20_33 
REMARK   12  A    between atoms: C20_33  and  O10_35 
REMARK   13  A    between atoms: O10_35  and  C21_36 
ROOT
HETATM    1  C4  UNL     1     -34.187 -18.786  60.066  1.00  0.00     0.110 A 
HETATM    2  C5  UNL     1     -33.123 -17.975  60.353  1.00  0.00     0.166 A 
HETATM    3  O6  UNL     1     -33.501 -16.736  60.373  1.00  0.00    -0.285 OA
HETATM    4  C16 UNL     1     -34.819 -16.629  60.106  1.00  0.00     0.170 A 
HETATM    5  C19 UNL     1     -35.272 -17.906  59.909  1.00  0.00     0.100 A 
ENDROOT
BRANCH   2   6
HETATM    6  N1  UNL     1     -31.811 -18.454  60.590  1.00  0.00    -0.345 N 
HETATM    7  C6  UNL     1     -30.868 -18.413  59.724  1.00  0.00     0.105 C 
ATOM      8  H1  UNL     1     -31.605 -18.855  61.505  1.00  0.00     0.167 HD
BRANCH   7   9
HETATM    9  C7  UNL     1     -29.513 -18.885  59.909  1.00  0.00     0.022 A 
HETATM   10  C8  UNL     1     -28.681 -18.143  60.733  1.00  0.00     0.080 A 
HETATM   11  C9  UNL     1     -27.383 -18.617  60.903  1.00  0.00     0.074 A 
HETATM   12  C10 UNL     1     -26.945 -19.764  60.288  1.00  0.00     0.075 A 
HETATM   13  C11 UNL     1     -27.771 -20.501  59.469  1.00  0.00    -0.015 A 
HETATM   14  C12 UNL     1     -29.060 -20.056  59.281  1.00  0.00    -0.006 A 
HETATM   15  C15 UNL     1     -27.536 -21.760  58.706  1.00  0.00     0.045 C 
HETATM   16  C13 UNL     1     -29.794 -20.966  58.372  1.00  0.00     0.153 C 
HETATM   17  C14 UNL     1     -28.689 -21.802  57.756  1.00  0.00     0.041 C 
BRANCH  10  18
HETATM   18  O3  UNL     1     -29.053 -16.981  61.384  1.00  0.00    -0.360 OA
ATOM     19  H3  UNL     1     -28.693 -16.688  62.213  1.00  0.00     0.217 HD
ENDBRANCH  10  18
BRANCH  12  20
HETATM   20  O4  UNL     1     -25.634 -20.211  60.483  1.00  0.00    -0.360 OA
ATOM     21  H4  UNL     1     -25.334 -21.010  60.066  1.00  0.00     0.217 HD
ENDBRANCH  12  20
BRANCH  16  22
HETATM   22  O5  UNL     1     -30.652 -21.736  59.142  1.00  0.00    -0.391 OA
ATOM     23  H5  UNL     1     -31.536 -21.595  58.824  1.00  0.00     0.210 HD
ENDBRANCH  16  22
ENDBRANCH   7   9
ENDBRANCH   2   6
BRANCH   1  24
HETATM   24  C3  UNL     1     -34.255 -20.218  59.938  1.00  0.00     0.298 C 
HETATM   25  O2  UNL     1     -33.369 -20.811  59.246  1.00  0.00    -0.259 OA
BRANCH  24  26
HETATM   26  O1  UNL     1     -35.223 -21.023  60.517  1.00  0.00    -0.318 OA
BRANCH  26  27
HETATM   27  C2  UNL     1     -35.845 -22.093  59.792  1.00  0.00     0.174 C 
HETATM   28  C1  UNL     1     -37.334 -21.948  60.018  1.00  0.00     0.034 C 
ENDBRANCH  26  27
ENDBRANCH  24  26
ENDBRANCH   1  24
BRANCH   5  29
HETATM   29  C20 UNL     1     -36.607 -18.340  59.596  1.00  0.00     0.297 C 
HETATM   30  O9  UNL     1     -37.463 -18.389  60.562  1.00  0.00    -0.259 OA
BRANCH  29  31
HETATM   31  O10 UNL     1     -37.125 -18.722  58.390  1.00  0.00    -0.318 OA
BRANCH  31  32
HETATM   32  C21 UNL     1     -36.378 -18.711  57.187  1.00  0.00     0.174 C 
HETATM   33  C22 UNL     1     -36.266 -20.153  56.730  1.00  0.00     0.034 C 
ENDBRANCH  31  32
ENDBRANCH  29  31
ENDBRANCH   5  29
BRANCH   4  34
HETATM   34  C17 UNL     1     -35.514 -15.349  60.062  1.00  0.00     0.318 C 
HETATM   35  O7  UNL     1     -35.252 -14.463  60.952  1.00  0.00    -0.257 OA
BRANCH  34  36
HETATM   36  O8  UNL     1     -36.454 -14.958  59.149  1.00  0.00    -0.321 OA
HETATM   37  C18 UNL     1     -36.331 -15.048  57.763  1.00  0.00     0.213 C 
ENDBRANCH  34  36
ENDBRANCH   4  34
TORSDOF 13
ENDMDL
MODEL 3
REMARK VINA RESULT: -6.831164469      1.767      2.927
REMARK  13 active torsions:
REMARK  status: ('A' for Active; 'I' for Inactive)
REMARK    1  A    between atoms: C2_2  and  O1_3 
REMARK    2  A    between atoms: O1_3  and  C3_4 
REMARK    3  A    between atoms: C3_4  and  C4_6 
REMARK    4  A    between atoms: C5_7  and  N1_8 
REMARK    5  A    between atoms: C6_10  and  C7_11 
REMARK    6  A    between atoms: C8_12  and  O3_13 
REMARK    7  A    between atoms: C10_16  and  O4_17 
REMARK    8  A    between atoms: C13_21  and  O5_22 
REMARK    9  A    between atoms: C16_27  and  C17_28 
REMARK   10  A    between atoms: C17_28  and  O8_30 
REMARK   11  A    between atoms: C19_32  and  C20_33 
REMARK   12  A    between atoms: C20_33  and  O10_35 
REMARK   13  A    between atoms: O10_35  and  C21_36 
ROOT
HETATM    1  C4  UNL     1     -32.994 -16.705  60.154  1.00  0.00     0.110 A 
HETATM    2  C5  UNL     1     -32.292 -17.250  59.113  1.00  0.00     0.166 A 
HETATM    3  O6  UNL     1     -33.042 -17.323  58.060  1.00  0.00    -0.285 OA
HETATM    4  C16 UNL     1     -34.277 -16.842  58.313  1.00  0.00     0.170 A 
HETATM    5  C19 UNL     1     -34.270 -16.448  59.625  1.00  0.00     0.100 A 
ENDROOT
BRANCH   2   6
HETATM    6  N1  UNL     1     -30.939 -17.663  59.208  1.00  0.00    -0.345 N 
HETATM    7  C6  UNL     1     -30.563 -18.754  59.764  1.00  0.00     0.105 C 
ATOM      8  H1  UNL     1     -30.223 -17.056  58.809  1.00  0.00     0.167 HD
BRANCH   7   9
HETATM    9  C7  UNL     1     -29.202 -19.226  59.889  1.00  0.00     0.022 A 
HETATM   10  C8  UNL     1     -28.344 -18.507  60.707  1.00  0.00     0.080 A 
HETATM   11  C9  UNL     1     -27.040 -18.982  60.819  1.00  0.00     0.074 A 
HETATM   12  C10 UNL     1     -26.620 -20.107  60.155  1.00  0.00     0.075 A 
HETATM   13  C11 UNL     1     -27.471 -20.822  59.342  1.00  0.00    -0.015 A 
HETATM   14  C12 UNL     1     -28.767 -20.377  59.211  1.00  0.00    -0.006 A 
HETATM   15  C15 UNL     1     -27.259 -22.057  58.533  1.00  0.00     0.045 C 
HETATM   16  C13 UNL     1     -29.529 -21.261  58.299  1.00  0.00     0.153 C 
HETATM   17  C14 UNL     1     -28.443 -22.073  57.622  1.00  0.00     0.041 C 
BRANCH  10  18
HETATM   18  O3  UNL     1     -28.697 -17.367  61.406  1.00  0.00    -0.360 OA
ATOM     19  H3  UNL     1     -29.408 -17.318  62.034  1.00  0.00     0.217 HD
ENDBRANCH  10  18
BRANCH  12  20
HETATM   20  O4  UNL     1     -25.301 -20.556  60.292  1.00  0.00    -0.360 OA
ATOM     21  H4  UNL     1     -25.091 -21.237  60.919  1.00  0.00     0.217 HD
ENDBRANCH  12  20
BRANCH  16  22
HETATM   22  O5  UNL     1     -30.358 -22.057  59.073  1.00  0.00    -0.391 OA
ATOM     23  H5  UNL     1     -29.925 -22.208  59.906  1.00  0.00     0.210 HD
ENDBRANCH  16  22
ENDBRANCH   7   9
ENDBRANCH   2   6
BRANCH   1  24
HETATM   24  C3  UNL     1     -32.585 -16.430  61.506  1.00  0.00     0.298 C 
HETATM   25  O2  UNL     1     -31.492 -15.813  61.699  1.00  0.00    -0.259 OA
BRANCH  24  26
HETATM   26  O1  UNL     1     -33.298 -16.787  62.640  1.00  0.00    -0.318 OA
BRANCH  26  27
HETATM   27  C2  UNL     1     -33.885 -18.089  62.782  1.00  0.00     0.174 C 
HETATM   28  C1  UNL     1     -34.915 -17.970  63.883  1.00  0.00     0.034 C 
ENDBRANCH  26  27
ENDBRANCH  24  26
ENDBRANCH   1  24
BRANCH   5  29
HETATM   29  C20 UNL     1     -35.343 -15.866  60.387  1.00  0.00     0.297 C 
HETATM   30  O9  UNL     1     -35.314 -14.590  60.582  1.00  0.00    -0.259 OA
BRANCH  29  31
HETATM   31  O10 UNL     1     -36.423 -16.480  60.955  1.00  0.00    -0.318 OA
BRANCH  31  32
HETATM   32  C21 UNL     1     -36.847 -17.785  60.604  1.00  0.00     0.174 C 
HETATM   33  C22 UNL     1     -38.099 -17.626  59.764  1.00  0.00     0.034 C 
ENDBRANCH  31  32
ENDBRANCH  29  31
ENDBRANCH   5  29
BRANCH   4  34
HETATM   34  C17 UNL     1     -35.331 -16.802  57.307  1.00  0.00     0.318 C 
HETATM   35  O7  UNL     1     -35.802 -17.904  56.850  1.00  0.00    -0.257 OA
BRANCH  34  36
HETATM   36  O8  UNL     1     -35.904 -15.685  56.765  1.00  0.00    -0.321 OA
HETATM   37  C18 UNL     1     -36.969 -14.969  57.310  1.00  0.00     0.213 C 
ENDBRANCH  34  36
ENDBRANCH   4  34
TORSDOF 13
ENDMDL
MODEL 4
REMARK VINA RESULT: -6.766141162      1.143      1.538
REMARK  13 active torsions:
REMARK  status: ('A' for Active; 'I' for Inactive)
REMARK    1  A    between atoms: C2_2  and  O1_3 
REMARK    2  A    between atoms: O1_3  and  C3_4 
REMARK    3  A    between atoms: C3_4  and  C4_6 
REMARK    4  A    between atoms: C5_7  and  N1_8 
REMARK    5  A    between atoms: C6_10  and  C7_11 
REMARK    6  A    between atoms: C8_12  and  O3_13 
REMARK    7  A    between atoms: C10_16  and  O4_17 
REMARK    8  A    between atoms: C13_21  and  O5_22 
REMARK    9  A    between atoms: C16_27  and  C17_28 
REMARK   10  A    between atoms: C17_28  and  O8_30 
REMARK   11  A    between atoms: C19_32  and  C20_33 
REMARK   12  A    between atoms: C20_33  and  O10_35 
REMARK   13  A    between atoms: O10_35  and  C21_36 
ROOT
HETATM    1  C4  UNL     1     -35.087 -18.194  59.291  1.00  0.00     0.110 A 
HETATM    2  C5  UNL     1     -34.181 -17.202  59.549  1.00  0.00     0.166 A 
HETATM    3  O6  UNL     1     -34.662 -16.055  59.185  1.00  0.00    -0.285 OA
HETATM    4  C16 UNL     1     -35.900 -16.193  58.667  1.00  0.00     0.170 A 
HETATM    5  C19 UNL     1     -36.188 -17.531  58.723  1.00  0.00     0.100 A 
ENDROOT
BRANCH   2   6
HETATM    6  N1  UNL     1     -32.910 -17.429  60.133  1.00  0.00    -0.345 N 
HETATM    7  C6  UNL     1     -31.825 -17.540  59.460  1.00  0.00     0.105 C 
ATOM      8  H1  UNL     1     -32.856 -17.508  61.148  1.00  0.00     0.167 HD
BRANCH   7   9
HETATM    9  C7  UNL     1     -30.503 -17.771  60.000  1.00  0.00     0.022 A 
HETATM   10  C8  UNL     1     -29.975 -16.806  60.844  1.00  0.00     0.080 A 
HETATM   11  C9  UNL     1     -28.704 -17.051  61.358  1.00  0.00     0.074 A 
HETATM   12  C10 UNL     1     -28.005 -18.191  61.047  1.00  0.00     0.075 A 
HETATM   13  C11 UNL     1     -28.529 -19.149  60.209  1.00  0.00    -0.015 A 
HETATM   14  C12 UNL     1     -29.783 -18.935  59.684  1.00  0.00    -0.006 A 
HETATM   15  C15 UNL     1     -27.978 -20.451  59.731  1.00  0.00     0.045 C 
HETATM   16  C13 UNL     1     -30.177 -20.061  58.807  1.00  0.00     0.153 C 
HETATM   17  C14 UNL     1     -28.870 -20.796  58.583  1.00  0.00     0.041 C 
BRANCH  10  18
HETATM   18  O3  UNL     1     -30.621 -15.636  61.200  1.00  0.00    -0.360 OA
ATOM     19  H3  UNL     1     -30.444 -14.785  60.817  1.00  0.00     0.217 HD
ENDBRANCH  10  18
BRANCH  12  20
HETATM   20  O4  UNL     1     -26.730 -18.403  61.583  1.00  0.00    -0.360 OA
ATOM     21  H4  UNL     1     -26.517 -19.232  61.995  1.00  0.00     0.217 HD
ENDBRANCH  12  20
BRANCH  16  22
HETATM   22  O5  UNL     1     -31.091 -20.840  59.498  1.00  0.00    -0.391 OA
ATOM     23  H5  UNL     1     -31.395 -21.523  58.912  1.00  0.00     0.210 HD
ENDBRANCH  16  22
ENDBRANCH   7   9
ENDBRANCH   2   6
BRANCH   1  24
HETATM   24  C3  UNL     1     -35.000 -19.612  59.521  1.00  0.00     0.298 C 
HETATM   25  O2  UNL     1     -34.038 -20.257  58.999  1.00  0.00    -0.259 OA
BRANCH  24  26
HETATM   26  O1  UNL     1     -35.894 -20.350  60.280  1.00  0.00    -0.318 OA
BRANCH  26  27
HETATM   27  C2  UNL     1     -36.063 -21.761  60.083  1.00  0.00     0.174 C 
HETATM   28  C1  UNL     1     -37.155 -21.916  59.046  1.00  0.00     0.034 C 
ENDBRANCH  26  27
ENDBRANCH  24  26
ENDBRANCH   1  24
BRANCH   5  29
HETATM   29  C20 UNL     1     -37.385 -18.204  58.295  1.00  0.00     0.297 C 
HETATM   30  O9  UNL     1     -37.362 -18.794  57.146  1.00  0.00    -0.259 OA
BRANCH  29  31
HETATM   31  O10 UNL     1     -38.585 -18.317  58.941  1.00  0.00    -0.318 OA
BRANCH  31  32
HETATM   32  C21 UNL     1     -38.722 -18.207  60.345  1.00  0.00     0.174 C 
HETATM   33  C22 UNL     1     -39.289 -19.525  60.833  1.00  0.00     0.034 C 
ENDBRANCH  31  32
ENDBRANCH  29  31
ENDBRANCH   5  29
BRANCH   4  34
HETATM   34  C17 UNL     1     -36.681 -15.066  58.175  1.00  0.00     0.318 C 
HETATM   35  O7  UNL     1     -36.492 -14.649  56.976  1.00  0.00    -0.257 OA
BRANCH  34  36
HETATM   36  O8  UNL     1     -37.631 -14.365  58.863  1.00  0.00    -0.321 OA
HETATM   37  C18 UNL     1     -38.983 -14.697  58.955  1.00  0.00     0.213 C 
ENDBRANCH  34  36
ENDBRANCH   4  34
TORSDOF 13
ENDMDL
MODEL 5
REMARK VINA RESULT: -6.763065238      0.830      1.498
REMARK  13 active torsions:
REMARK  status: ('A' for Active; 'I' for Inactive)
REMARK    1  A    between atoms: C2_2  and  O1_3 
REMARK    2  A    between atoms: O1_3  and  C3_4 
REMARK    3  A    between atoms: C3_4  and  C4_6 
REMARK    4  A    between atoms: C5_7  and  N1_8 
REMARK    5  A    between atoms: C6_10  and  C7_11 
REMARK    6  A    between atoms: C8_12  and  O3_13 
REMARK    7  A    between atoms: C10_16  and  O4_17 
REMARK    8  A    between atoms: C13_21  and  O5_22 
REMARK    9  A    between atoms: C16_27  and  C17_28 
REMARK   10  A    between atoms: C17_28  and  O8_30 
REMARK   11  A    between atoms: C19_32  and  C20_33 
REMARK   12  A    between atoms: C20_33  and  O10_35 
REMARK   13  A    between atoms: O10_35  and  C21_36 
ROOT
HETATM    1  C4  UNL     1     -35.635 -17.229  60.140  1.00  0.00     0.110 A 
HETATM    2  C5  UNL     1     -34.515 -16.517  59.805  1.00  0.00     0.166 A 
HETATM    3  O6  UNL     1     -34.804 -15.632  58.904  1.00  0.00    -0.285 OA
HETATM    4  C16 UNL     1     -36.112 -15.686  58.576  1.00  0.00     0.170 A 
HETATM    5  C19 UNL     1     -36.654 -16.684  59.342  1.00  0.00     0.100 A 
ENDROOT
BRANCH   2   6
HETATM    6  N1  UNL     1     -33.240 -16.741  60.381  1.00  0.00    -0.345 N 
HETATM    7  C6  UNL     1     -32.247 -17.242  59.745  1.00  0.00     0.105 C 
ATOM      8  H1  UNL     1     -33.104 -16.486  61.360  1.00  0.00     0.167 HD
BRANCH   7   9
HETATM    9  C7  UNL     1     -30.926 -17.492  60.279  1.00  0.00     0.022 A 
HETATM   10  C8  UNL     1     -30.424 -16.588  61.203  1.00  0.00     0.080 A 
HETATM   11  C9  UNL     1     -29.154 -16.850  61.710  1.00  0.00     0.074 A 
HETATM   12  C10 UNL     1     -28.431 -17.948  61.317  1.00  0.00     0.075 A 
HETATM   13  C11 UNL     1     -28.928 -18.846  60.399  1.00  0.00    -0.015 A 
HETATM   14  C12 UNL     1     -30.181 -18.613  59.879  1.00  0.00    -0.006 A 
HETATM   15  C15 UNL     1     -28.349 -20.095  59.825  1.00  0.00     0.045 C 
HETATM   16  C13 UNL     1     -30.545 -19.672  58.911  1.00  0.00     0.153 C 
HETATM   17  C14 UNL     1     -29.223 -20.363  58.643  1.00  0.00     0.041 C 
BRANCH  10  18
HETATM   18  O3  UNL     1     -31.096 -15.462  61.645  1.00  0.00    -0.360 OA
ATOM     19  H3  UNL     1     -30.675 -14.692  62.009  1.00  0.00     0.217 HD
ENDBRANCH  10  18
BRANCH  12  20
HETATM   20  O4  UNL     1     -27.157 -18.180  61.848  1.00  0.00    -0.360 OA
ATOM     21  H4  UNL     1     -26.456 -17.557  61.696  1.00  0.00     0.217 HD
ENDBRANCH  12  20
BRANCH  16  22
HETATM   22  O5  UNL     1     -31.451 -20.521  59.527  1.00  0.00    -0.391 OA
ATOM     23  H5  UNL     1     -32.267 -20.480  59.042  1.00  0.00     0.210 HD
ENDBRANCH  16  22
ENDBRANCH   7   9
ENDBRANCH   2   6
BRANCH   1  24
HETATM   24  C3  UNL     1     -35.805 -18.303  61.083  1.00  0.00     0.298 C 
HETATM   25  O2  UNL     1     -36.352 -18.051  62.202  1.00  0.00    -0.259 OA
BRANCH  24  26
HETATM   26  O1  UNL     1     -35.417 -19.616  60.871  1.00  0.00    -0.318 OA
BRANCH  26  27
HETATM   27  C2  UNL     1     -35.418 -20.199  59.560  1.00  0.00     0.174 C 
HETATM   28  C1  UNL     1     -35.832 -21.643  59.739  1.00  0.00     0.034 C 
ENDBRANCH  26  27
ENDBRANCH  24  26
ENDBRANCH   1  24
BRANCH   5  29
HETATM   29  C20 UNL     1     -38.018 -17.142  59.372  1.00  0.00     0.297 C 
HETATM   30  O9  UNL     1     -38.894 -16.376  59.929  1.00  0.00    -0.259 OA
BRANCH  29  31
HETATM   31  O10 UNL     1     -38.543 -18.306  58.884  1.00  0.00    -0.318 OA
BRANCH  31  32
HETATM   32  C21 UNL     1     -39.645 -18.967  59.477  1.00  0.00     0.174 C 
HETATM   33  C22 UNL     1     -39.082 -19.871  60.557  1.00  0.00     0.034 C 
ENDBRANCH  31  32
ENDBRANCH  29  31
ENDBRANCH   5  29
BRANCH   4  34
HETATM   34  C17 UNL     1     -36.714 -14.803  57.586  1.00  0.00     0.318 C 
HETATM   35  O7  UNL     1     -36.220 -14.760  56.403  1.00  0.00    -0.257 OA
BRANCH  34  36
HETATM   36  O8  UNL     1     -37.789 -13.978  57.770  1.00  0.00    -0.321 OA
HETATM   37  C18 UNL     1     -39.069 -14.179  57.255  1.00  0.00     0.213 C 
ENDBRANCH  34  36
ENDBRANCH   4  34
TORSDOF 13
ENDMDL
