MODEL 1
REMARK VINA RESULT: -7.776469131      0.000      0.000
REMARK  8 active torsions:
REMARK  status: ('A' for Active; 'I' for Inactive)
REMARK    1  A    between atoms: C2_2  and  C3_6 
REMARK    2  A    between atoms: C3_6  and  C4_7 
REMARK    3  A    between atoms: N3_10  and  C5_11 
REMARK    4  A    between atoms: N8_24  and  C9_25 
REMARK    5  A    between atoms: C11_27  and  N9_28 
REMARK    6  A    between atoms: C14_35  and  O2_36 
REMARK    7  A    between atoms: O2_36  and  C15_37 
REMARK    8  A    between atoms: C15_37  and  C16_38 
ROOT
HETATM    1  C5  UNL     1     -30.472 -19.445  59.229  1.00  0.00     0.164 A 
HETATM    2  N4  UNL     1     -30.077 -18.659  60.247  1.00  0.00    -0.315 N 
ATOM      3  H4  UNL     1     -30.734 -17.976  60.623  1.00  0.00     0.170 HD
HETATM    4  C6  UNL     1     -28.843 -18.743  60.788  1.00  0.00     0.182 A 
HETATM    5 CL1  UNL     1     -28.389 -17.682  62.118  1.00  0.00    -0.045 Cl
HETATM    6  N5  UNL     1     -27.952 -19.622  60.323  1.00  0.00    -0.315 N 
ATOM      7  H5  UNL     1     -27.023 -19.672  60.742  1.00  0.00     0.170 HD
HETATM    8  C7  UNL     1     -28.267 -20.430  59.323  1.00  0.00     0.160 A 
HETATM    9  C8  UNL     1     -29.546 -20.351  58.758  1.00  0.00     0.141 A 
HETATM   10  N6  UNL     1     -29.539 -21.288  57.785  1.00  0.00    -0.279 N 
ATOM     11  H6  UNL     1     -30.322 -21.500  57.166  1.00  0.00     0.189 HD
HETATM   12  N7  UNL     1     -28.365 -21.887  57.759  1.00  0.00    -0.236 N 
ATOM     13  H7  UNL     1     -28.106 -22.634  57.114  1.00  0.00     0.208 HD
HETATM   14  N8  UNL     1     -27.565 -21.379  58.693  1.00  0.00    -0.230 N 
ENDROOT
BRANCH   1  15
HETATM   15  N3  UNL     1     -31.753 -19.401  58.629  1.00  0.00    -0.213 N 
HETATM   16  N2  UNL     1     -32.198 -19.205  57.403  1.00  0.00    -0.290 N 
HETATM   17  C4  UNL     1     -33.474 -19.339  57.803  1.00  0.00     0.084 A 
ATOM     18  H2  UNL     1     -31.751 -19.022  56.506  1.00  0.00     0.187 HD
HETATM   19  C14 UNL     1     -33.031 -19.546  59.095  1.00  0.00     0.190 A 
BRANCH  17  20
HETATM   20  C3  UNL     1     -34.754 -19.267  57.083  1.00  0.00     0.114 C 
BRANCH  20  21
HETATM   21  C2  UNL     1     -35.459 -18.002  57.408  1.00  0.00    -0.018 C 
HETATM   22  C1  UNL     1     -36.854 -18.052  57.986  1.00  0.00     0.063 C 
HETATM   23  N1  UNL     1     -34.967 -16.841  57.223  1.00  0.00    -0.406 N 
ATOM     24  H12 UNL     1     -35.452 -15.972  57.446  1.00  0.00     0.155 HD
ATOM     25  H11 UNL     1     -34.025 -16.808  56.833  1.00  0.00     0.155 HD
ENDBRANCH  20  21
ENDBRANCH  17  20
BRANCH  19  26
HETATM   26  O2  UNL     1     -33.602 -19.795  60.326  1.00  0.00    -0.333 OA
BRANCH  26  27
HETATM   27  C15 UNL     1     -33.701 -18.808  61.294  1.00  0.00     0.182 C 
BRANCH  27  28
HETATM   28  C16 UNL     1     -33.850 -17.417  60.744  1.00  0.00     0.010 C 
HETATM   29  C17 UNL     1     -32.710 -16.572  61.278  1.00  0.00     0.007 C 
HETATM   30  C18 UNL     1     -32.694 -15.296  60.453  1.00  0.00     0.005 C 
HETATM   31  C19 UNL     1     -33.998 -14.580  60.525  1.00  0.00    -0.019 C 
HETATM   32  C20 UNL     1     -34.045 -13.750  61.794  1.00  0.00     0.010 C 
HETATM   33  C21 UNL     1     -35.203 -15.440  60.349  1.00  0.00     0.005 C 
HETATM   34  C22 UNL     1     -35.127 -16.743  61.133  1.00  0.00     0.007 C 
ENDBRANCH  27  28
ENDBRANCH  26  27
ENDBRANCH  19  26
ENDBRANCH   1  15
BRANCH  14  35
HETATM   35  C9  UNL     1     -26.209 -21.781  58.967  1.00  0.00     0.250 C 
HETATM   36  C10 UNL     1     -25.490 -22.372  57.801  1.00  0.00     0.091 C 
HETATM   37  C11 UNL     1     -24.023 -22.275  58.241  1.00  0.00     0.216 C 
HETATM   38  C12 UNL     1     -24.137 -21.335  59.418  1.00  0.00     0.150 C 
HETATM   39  C13 UNL     1     -23.010 -20.371  59.552  1.00  0.00     0.042 C 
HETATM   40  O1  UNL     1     -25.380 -20.692  59.291  1.00  0.00    -0.358 OA
BRANCH  37  41
HETATM   41  N9  UNL     1     -23.177 -21.728  57.229  1.00  0.00    -0.072 N 
ATOM     42  H93 UNL     1     -23.145 -22.338  56.411  1.00  0.00     0.274 HD
ATOM     43  H92 UNL     1     -23.601 -20.904  56.803  1.00  0.00     0.274 HD
ATOM     44  H91 UNL     1     -22.238 -21.522  57.568  1.00  0.00     0.274 HD
ENDBRANCH  37  41
ENDBRANCH  14  35
TORSDOF 8
ENDMDL
MODEL 2
REMARK VINA RESULT: -7.736275310      2.829      8.694
REMARK  8 active torsions:
REMARK  status: ('A' for Active; 'I' for Inactive)
REMARK    1  A    between atoms: C2_2  and  C3_6 
REMARK    2  A    between atoms: C3_6  and  C4_7 
REMARK    3  A    between atoms: N3_10  and  C5_11 
REMARK    4  A    between atoms: N8_24  and  C9_25 
REMARK    5  A    between atoms: C11_27  and  N9_28 
REMARK    6  A    between atoms: C14_35  and  O2_36 
REMARK    7  A    between atoms: O2_36  and  C15_37 
REMARK    8  A    between atoms: C15_37  and  C16_38 
ROOT
HETATM    1  C5  UNL     1     -30.156 -21.589  59.552  1.00  0.00     0.164 A 
HETATM    2  N4  UNL     1     -29.131 -20.784  59.884  1.00  0.00    -0.315 N 
ATOM      3  H4  UNL     1     -28.181 -21.155  59.843  1.00  0.00     0.170 HD
HETATM    4  C6  UNL     1     -29.313 -19.503  60.269  1.00  0.00     0.182 A 
HETATM    5 CL1  UNL     1     -27.927 -18.503  60.692  1.00  0.00    -0.045 Cl
HETATM    6  N5  UNL     1     -30.539 -18.980  60.339  1.00  0.00    -0.315 N 
ATOM      7  H5  UNL     1     -30.661 -18.010  60.633  1.00  0.00     0.170 HD
HETATM    8  C7  UNL     1     -31.599 -19.710  60.029  1.00  0.00     0.160 A 
HETATM    9  C8  UNL     1     -31.417 -21.039  59.626  1.00  0.00     0.141 A 
HETATM   10  N6  UNL     1     -32.669 -21.490  59.389  1.00  0.00    -0.279 N 
ATOM     11  H6  UNL     1     -32.906 -22.432  59.076  1.00  0.00     0.189 HD
HETATM   12  N7  UNL     1     -33.536 -20.524  59.622  1.00  0.00    -0.236 N 
ATOM     13  H7  UNL     1     -34.546 -20.611  59.516  1.00  0.00     0.208 HD
HETATM   14  N8  UNL     1     -32.905 -19.421  60.017  1.00  0.00    -0.230 N 
ENDROOT
BRANCH   1  15
HETATM   15  N3  UNL     1     -30.019 -22.936  59.139  1.00  0.00    -0.213 N 
HETATM   16  N2  UNL     1     -30.764 -24.019  59.243  1.00  0.00    -0.290 N 
HETATM   17  C4  UNL     1     -29.851 -24.757  58.588  1.00  0.00     0.084 A 
ATOM     18  H2  UNL     1     -31.674 -24.219  59.657  1.00  0.00     0.187 HD
HETATM   19  C14 UNL     1     -29.054 -23.635  58.468  1.00  0.00     0.190 A 
BRANCH  17  20
HETATM   20  C3  UNL     1     -29.807 -26.177  58.211  1.00  0.00     0.114 C 
BRANCH  20  21
HETATM   21  C2  UNL     1     -28.815 -26.902  59.042  1.00  0.00    -0.018 C 
HETATM   22  C1  UNL     1     -28.813 -26.710  60.541  1.00  0.00     0.063 C 
HETATM   23  N1  UNL     1     -27.931 -27.692  58.575  1.00  0.00    -0.406 N 
ATOM     24  H12 UNL     1     -27.250 -28.191  59.147  1.00  0.00     0.155 HD
ATOM     25  H11 UNL     1     -27.933 -27.822  57.563  1.00  0.00     0.155 HD
ENDBRANCH  20  21
ENDBRANCH  17  20
BRANCH  19  26
HETATM   26  O2  UNL     1     -27.826 -23.329  57.918  1.00  0.00    -0.333 OA
BRANCH  26  27
HETATM   27  C15 UNL     1     -26.656 -23.415  58.657  1.00  0.00     0.182 C 
BRANCH  27  28
HETATM   28  C16 UNL     1     -25.839 -22.153  58.666  1.00  0.00     0.010 C 
HETATM   29  C17 UNL     1     -24.491 -22.457  58.043  1.00  0.00     0.007 C 
HETATM   30  C18 UNL     1     -23.832 -21.118  57.762  1.00  0.00     0.005 C 
HETATM   31  C19 UNL     1     -23.701 -20.300  59.000  1.00  0.00    -0.019 C 
HETATM   32  C20 UNL     1     -22.465 -20.739  59.762  1.00  0.00     0.010 C 
HETATM   33  C21 UNL     1     -24.920 -20.245  59.855  1.00  0.00     0.005 C 
HETATM   34  C22 UNL     1     -25.587 -21.603  60.034  1.00  0.00     0.007 C 
ENDBRANCH  27  28
ENDBRANCH  26  27
ENDBRANCH  19  26
ENDBRANCH   1  15
BRANCH  14  35
HETATM   35  C9  UNL     1     -33.518 -18.163  60.360  1.00  0.00     0.250 C 
HETATM   36  C10 UNL     1     -33.543 -17.864  61.822  1.00  0.00     0.091 C 
HETATM   37  C11 UNL     1     -33.810 -16.352  61.839  1.00  0.00     0.216 C 
HETATM   38  C12 UNL     1     -33.544 -15.997  60.396  1.00  0.00     0.150 C 
HETATM   39  C13 UNL     1     -32.876 -14.681  60.195  1.00  0.00     0.042 C 
HETATM   40  O1  UNL     1     -32.804 -17.061  59.855  1.00  0.00    -0.358 OA
BRANCH  37  41
HETATM   41  N9  UNL     1     -32.929 -15.646  62.712  1.00  0.00    -0.072 N 
ATOM     42  H93 UNL     1     -32.028 -15.477  62.264  1.00  0.00     0.274 HD
ATOM     43  H92 UNL     1     -33.234 -14.681  62.838  1.00  0.00     0.274 HD
ATOM     44  H91 UNL     1     -32.808 -16.111  63.612  1.00  0.00     0.274 HD
ENDBRANCH  37  41
ENDBRANCH  14  35
TORSDOF 8
ENDMDL
MODEL 3
REMARK VINA RESULT: -7.730642738      1.742      2.104
REMARK  8 active torsions:
REMARK  status: ('A' for Active; 'I' for Inactive)
REMARK    1  A    between atoms: C2_2  and  C3_6 
REMARK    2  A    between atoms: C3_6  and  C4_7 
REMARK    3  A    between atoms: N3_10  and  C5_11 
REMARK    4  A    between atoms: N8_24  and  C9_25 
REMARK    5  A    between atoms: C11_27  and  N9_28 
REMARK    6  A    between atoms: C14_35  and  O2_36 
REMARK    7  A    between atoms: O2_36  and  C15_37 
REMARK    8  A    between atoms: C15_37  and  C16_38 
ROOT
HETATM    1  C5  UNL     1     -30.088 -20.306  59.881  1.00  0.00     0.164 A 
HETATM    2  N4  UNL     1     -29.644 -19.279  60.626  1.00  0.00    -0.315 N 
ATOM      3  H4  UNL     1     -30.318 -18.600  60.979  1.00  0.00     0.170 HD
HETATM    4  C6  UNL     1     -28.337 -19.113  60.924  1.00  0.00     0.182 A 
HETATM    5 CL1  UNL     1     -27.822 -17.744  61.904  1.00  0.00    -0.045 Cl
HETATM    6  N5  UNL     1     -27.422 -19.978  60.481  1.00  0.00    -0.315 N 
ATOM      7  H5  UNL     1     -26.438 -19.838  60.713  1.00  0.00     0.170 HD
HETATM    8  C7  UNL     1     -27.782 -21.015  59.741  1.00  0.00     0.160 A 
HETATM    9  C8  UNL     1     -29.135 -21.194  59.429  1.00  0.00     0.141 A 
HETATM   10  N6  UNL     1     -29.159 -22.317  58.680  1.00  0.00    -0.279 N 
ATOM     11  H6  UNL     1     -29.997 -22.740  58.278  1.00  0.00     0.189 HD
HETATM   12  N7  UNL     1     -27.933 -22.784  58.547  1.00  0.00    -0.236 N 
ATOM     13  H7  UNL     1     -27.683 -23.624  58.026  1.00  0.00     0.208 HD
HETATM   14  N8  UNL     1     -27.068 -22.003  59.188  1.00  0.00    -0.230 N 
ENDROOT
BRANCH   1  15
HETATM   15  N3  UNL     1     -31.445 -20.527  59.543  1.00  0.00    -0.213 N 
HETATM   16  N2  UNL     1     -32.331 -21.463  59.820  1.00  0.00    -0.290 N 
HETATM   17  C4  UNL     1     -33.275 -20.840  59.096  1.00  0.00     0.084 A 
ATOM     18  H2  UNL     1     -32.308 -22.323  60.369  1.00  0.00     0.187 HD
HETATM   19  C14 UNL     1     -32.364 -19.848  58.791  1.00  0.00     0.190 A 
BRANCH  17  20
HETATM   20  C3  UNL     1     -34.677 -21.167  58.800  1.00  0.00     0.114 C 
BRANCH  20  21
HETATM   21  C2  UNL     1     -35.527 -20.923  59.992  1.00  0.00    -0.018 C 
HETATM   22  C1  UNL     1     -35.667 -19.519  60.535  1.00  0.00     0.063 C 
HETATM   23  N1  UNL     1     -36.161 -21.834  60.617  1.00  0.00    -0.406 N 
ATOM     24  H12 UNL     1     -36.746 -21.666  61.436  1.00  0.00     0.155 HD
ATOM     25  H11 UNL     1     -36.067 -22.781  60.250  1.00  0.00     0.155 HD
ENDBRANCH  20  21
ENDBRANCH  17  20
BRANCH  19  26
HETATM   26  O2  UNL     1     -32.358 -18.678  58.058  1.00  0.00    -0.333 OA
BRANCH  26  27
HETATM   27  C15 UNL     1     -32.115 -17.450  58.652  1.00  0.00     0.182 C 
BRANCH  27  28
HETATM   28  C16 UNL     1     -33.048 -17.115  59.783  1.00  0.00     0.010 C 
HETATM   29  C17 UNL     1     -33.949 -15.983  59.334  1.00  0.00     0.007 C 
HETATM   30  C18 UNL     1     -35.078 -15.901  60.348  1.00  0.00     0.005 C 
HETATM   31  C19 UNL     1     -34.560 -15.686  61.728  1.00  0.00    -0.019 C 
HETATM   32  C20 UNL     1     -34.279 -14.210  61.934  1.00  0.00     0.010 C 
HETATM   33  C21 UNL     1     -33.414 -16.556  62.116  1.00  0.00     0.005 C 
HETATM   34  C22 UNL     1     -32.353 -16.668  61.030  1.00  0.00     0.007 C 
ENDBRANCH  27  28
ENDBRANCH  26  27
ENDBRANCH  19  26
ENDBRANCH   1  15
BRANCH  14  35
HETATM   35  C9  UNL     1     -25.642 -22.193  59.270  1.00  0.00     0.250 C 
HETATM   36  C10 UNL     1     -25.004 -22.646  58.000  1.00  0.00     0.091 C 
HETATM   37  C11 UNL     1     -23.523 -22.328  58.250  1.00  0.00     0.216 C 
HETATM   38  C12 UNL     1     -23.621 -21.437  59.464  1.00  0.00     0.150 C 
HETATM   39  C13 UNL     1     -22.646 -20.311  59.487  1.00  0.00     0.042 C 
HETATM   40  O1  UNL     1     -24.953 -20.994  59.524  1.00  0.00    -0.358 OA
BRANCH  37  41
HETATM   41  N9  UNL     1     -22.914 -21.641  57.156  1.00  0.00    -0.072 N 
ATOM     42  H93 UNL     1     -22.054 -21.177  57.450  1.00  0.00     0.274 HD
ATOM     43  H92 UNL     1     -22.524 -22.299  56.481  1.00  0.00     0.274 HD
ATOM     44  H91 UNL     1     -23.547 -20.983  56.702  1.00  0.00     0.274 HD
ENDBRANCH  37  41
ENDBRANCH  14  35
TORSDOF 8
ENDMDL
MODEL 4
REMARK VINA RESULT: -7.703935544      4.111      8.192
REMARK  8 active torsions:
REMARK  status: ('A' for Active; 'I' for Inactive)
REMARK    1  A    between atoms: C2_2  and  C3_6 
REMARK    2  A    between atoms: C3_6  and  C4_7 
REMARK    3  A    between atoms: N3_10  and  C5_11 
REMARK    4  A    between atoms: N8_24  and  C9_25 
REMARK    5  A    between atoms: C11_27  and  N9_28 
REMARK    6  A    between atoms: C14_35  and  O2_36 
REMARK    7  A    between atoms: O2_36  and  C15_37 
REMARK    8  A    between atoms: C15_37  and  C16_38 
ROOT
HETATM    1  C5  UNL     1     -33.865 -19.928  60.121  1.00  0.00     0.164 A 
HETATM    2  N4  UNL     1     -32.951 -20.611  59.410  1.00  0.00    -0.315 N 
ATOM      3  H4  UNL     1     -32.007 -20.233  59.331  1.00  0.00     0.170 HD
HETATM    4  C6  UNL     1     -33.239 -21.779  58.795  1.00  0.00     0.182 A 
HETATM    5 CL1  UNL     1     -31.996 -22.621  57.877  1.00  0.00    -0.045 Cl
HETATM    6  N5  UNL     1     -34.463 -22.306  58.871  1.00  0.00    -0.315 N 
ATOM      7  H5  UNL     1     -34.664 -23.188  58.400  1.00  0.00     0.170 HD
HETATM    8  C7  UNL     1     -35.416 -21.692  59.554  1.00  0.00     0.160 A 
HETATM    9  C8  UNL     1     -35.125 -20.482  60.195  1.00  0.00     0.141 A 
HETATM   10  N6  UNL     1     -36.288 -20.129  60.786  1.00  0.00    -0.279 N 
ATOM     11  H6  UNL     1     -36.433 -19.287  61.344  1.00  0.00     0.189 HD
HETATM   12  N7  UNL     1     -37.205 -21.042  60.531  1.00  0.00    -0.236 N 
ATOM     13  H7  UNL     1     -38.168 -21.008  60.865  1.00  0.00     0.208 HD
HETATM   14  N8  UNL     1     -36.697 -22.012  59.776  1.00  0.00    -0.230 N 
ENDROOT
BRANCH   1  15
HETATM   15  N3  UNL     1     -33.615 -18.704  60.787  1.00  0.00    -0.213 N 
HETATM   16  N2  UNL     1     -33.931 -18.206  61.966  1.00  0.00    -0.290 N 
HETATM   17  C4  UNL     1     -33.287 -17.058  61.698  1.00  0.00     0.084 A 
ATOM     18  H2  UNL     1     -34.458 -18.555  62.767  1.00  0.00     0.187 HD
HETATM   19  C14 UNL     1     -32.945 -17.558  60.457  1.00  0.00     0.190 A 
BRANCH  17  20
HETATM   20  C3  UNL     1     -33.092 -15.824  62.474  1.00  0.00     0.114 C 
BRANCH  20  21
HETATM   21  C2  UNL     1     -33.858 -14.707  61.869  1.00  0.00    -0.018 C 
HETATM   22  C1  UNL     1     -33.291 -13.972  60.676  1.00  0.00     0.063 C 
HETATM   23  N1  UNL     1     -34.987 -14.300  62.295  1.00  0.00    -0.406 N 
ATOM     24  H12 UNL     1     -35.514 -13.532  61.879  1.00  0.00     0.155 HD
ATOM     25  H11 UNL     1     -35.370 -14.797  63.101  1.00  0.00     0.155 HD
ENDBRANCH  20  21
ENDBRANCH  17  20
BRANCH  19  26
HETATM   26  O2  UNL     1     -32.239 -17.118  59.356  1.00  0.00    -0.333 OA
BRANCH  26  27
HETATM   27  C15 UNL     1     -30.863 -16.956  59.393  1.00  0.00     0.182 C 
BRANCH  27  28
HETATM   28  C16 UNL     1     -30.122 -18.105  60.018  1.00  0.00     0.010 C 
HETATM   29  C17 UNL     1     -28.821 -17.577  60.587  1.00  0.00     0.007 C 
HETATM   30  C18 UNL     1     -28.269 -18.667  61.490  1.00  0.00     0.005 C 
HETATM   31  C19 UNL     1     -28.074 -19.945  60.749  1.00  0.00    -0.019 C 
HETATM   32  C20 UNL     1     -26.751 -19.898  60.009  1.00  0.00     0.010 C 
HETATM   33  C21 UNL     1     -29.212 -20.352  59.878  1.00  0.00     0.005 C 
HETATM   34  C22 UNL     1     -29.780 -19.201  59.059  1.00  0.00     0.007 C 
ENDBRANCH  27  28
ENDBRANCH  26  27
ENDBRANCH  19  26
ENDBRANCH   1  15
BRANCH  14  35
HETATM   35  C9  UNL     1     -37.394 -23.178  59.298  1.00  0.00     0.250 C 
HETATM   36  C10 UNL     1     -37.624 -23.202  57.824  1.00  0.00     0.091 C 
HETATM   37  C11 UNL     1     -37.946 -24.681  57.570  1.00  0.00     0.216 C 
HETATM   38  C12 UNL     1     -37.504 -25.300  58.875  1.00  0.00     0.150 C 
HETATM   39  C13 UNL     1     -36.864 -26.638  58.741  1.00  0.00     0.042 C 
HETATM   40  O1  UNL     1     -36.661 -24.362  59.493  1.00  0.00    -0.358 OA
BRANCH  37  41
HETATM   41  N9  UNL     1     -37.214 -25.225  56.471  1.00  0.00    -0.072 N 
ATOM     42  H93 UNL     1     -37.191 -24.571  55.688  1.00  0.00     0.274 HD
ATOM     43  H92 UNL     1     -36.217 -25.267  56.680  1.00  0.00     0.274 HD
ATOM     44  H91 UNL     1     -37.564 -26.136  56.176  1.00  0.00     0.274 HD
ENDBRANCH  37  41
ENDBRANCH  14  35
TORSDOF 8
ENDMDL
MODEL 5
REMARK VINA RESULT: -7.688369217      1.953      3.631
REMARK  8 active torsions:
REMARK  status: ('A' for Active; 'I' for Inactive)
REMARK    1  A    between atoms: C2_2  and  C3_6 
REMARK    2  A    between atoms: C3_6  and  C4_7 
REMARK    3  A    between atoms: N3_10  and  C5_11 
REMARK    4  A    between atoms: N8_24  and  C9_25 
REMARK    5  A    between atoms: C11_27  and  N9_28 
REMARK    6  A    between atoms: C14_35  and  O2_36 
REMARK    7  A    between atoms: O2_36  and  C15_37 
REMARK    8  A    between atoms: C15_37  and  C16_38 
ROOT
HETATM    1  C5  UNL     1     -30.804 -17.855  60.145  1.00  0.00     0.164 A 
HETATM    2  N4  UNL     1     -30.221 -17.135  61.120  1.00  0.00    -0.315 N 
ATOM      3  H4  UNL     1     -30.726 -16.340  61.511  1.00  0.00     0.170 HD
HETATM    4  C6  UNL     1     -28.993 -17.426  61.598  1.00  0.00     0.182 A 
HETATM    5 CL1  UNL     1     -28.287 -16.440  62.875  1.00  0.00    -0.045 Cl
HETATM    6  N5  UNL     1     -28.298 -18.457  61.111  1.00  0.00    -0.315 N 
ATOM      7  H5  UNL     1     -27.370 -18.663  61.483  1.00  0.00     0.170 HD
HETATM    8  C7  UNL     1     -28.804 -19.213  60.150  1.00  0.00     0.160 A 
HETATM    9  C8  UNL     1     -30.078 -18.918  59.650  1.00  0.00     0.141 A 
HETATM   10  N6  UNL     1     -30.291 -19.858  58.703  1.00  0.00    -0.279 N 
ATOM     11  H6  UNL     1     -31.132 -19.938  58.131  1.00  0.00     0.189 HD
HETATM   12  N7  UNL     1     -29.243 -20.655  58.632  1.00  0.00    -0.236 N 
ATOM     13  H7  UNL     1     -29.156 -21.446  57.994  1.00  0.00     0.208 HD
HETATM   14  N8  UNL     1     -28.316 -20.281  59.509  1.00  0.00    -0.230 N 
ENDROOT
BRANCH   1  15
HETATM   15  N3  UNL     1     -32.088 -17.595  59.610  1.00  0.00    -0.213 N 
HETATM   16  N2  UNL     1     -32.542 -16.943  58.558  1.00  0.00    -0.290 N 
HETATM   17  C4  UNL     1     -33.815 -17.236  58.876  1.00  0.00     0.084 A 
ATOM     18  H2  UNL     1     -32.101 -16.421  57.801  1.00  0.00     0.187 HD
HETATM   19  C14 UNL     1     -33.362 -17.924  59.985  1.00  0.00     0.190 A 
BRANCH  17  20
HETATM   20  C3  UNL     1     -35.099 -16.904  58.242  1.00  0.00     0.114 C 
BRANCH  20  21
HETATM   21  C2  UNL     1     -35.547 -18.017  57.369  1.00  0.00    -0.018 C 
HETATM   22  C1  UNL     1     -36.955 -18.550  57.502  1.00  0.00     0.063 C 
HETATM   23  N1  UNL     1     -34.812 -18.581  56.495  1.00  0.00    -0.406 N 
ATOM     24  H12 UNL     1     -35.120 -19.346  55.895  1.00  0.00     0.155 HD
ATOM     25  H11 UNL     1     -33.861 -18.220  56.405  1.00  0.00     0.155 HD
ENDBRANCH  20  21
ENDBRANCH  17  20
BRANCH  19  26
HETATM   26  O2  UNL     1     -33.925 -18.638  61.024  1.00  0.00    -0.333 OA
BRANCH  26  27
HETATM   27  C15 UNL     1     -33.949 -20.024  61.024  1.00  0.00     0.182 C 
BRANCH  27  28
HETATM   28  C16 UNL     1     -34.587 -20.629  59.804  1.00  0.00     0.010 C 
HETATM   29  C17 UNL     1     -35.721 -21.525  60.258  1.00  0.00     0.007 C 
HETATM   30  C18 UNL     1     -36.542 -21.845  59.021  1.00  0.00     0.005 C 
HETATM   31  C19 UNL     1     -35.713 -22.490  57.965  1.00  0.00    -0.019 C 
HETATM   32  C20 UNL     1     -35.592 -23.973  58.258  1.00  0.00     0.010 C 
HETATM   33  C21 UNL     1     -34.397 -21.840  57.708  1.00  0.00     0.005 C 
HETATM   34  C22 UNL     1     -33.656 -21.465  58.985  1.00  0.00     0.007 C 
ENDBRANCH  27  28
ENDBRANCH  26  27
ENDBRANCH  19  26
ENDBRANCH   1  15
BRANCH  14  35
HETATM   35  C9  UNL     1     -27.039 -20.912  59.724  1.00  0.00     0.250 C 
HETATM   36  C10 UNL     1     -26.697 -21.972  58.731  1.00  0.00     0.091 C 
HETATM   37  C11 UNL     1     -25.181 -22.121  58.925  1.00  0.00     0.216 C 
HETATM   38  C12 UNL     1     -24.872 -20.886  59.736  1.00  0.00     0.150 C 
HETATM   39  C13 UNL     1     -23.574 -20.236  59.406  1.00  0.00     0.042 C 
HETATM   40  O1  UNL     1     -25.964 -20.018  59.568  1.00  0.00    -0.358 OA
BRANCH  37  41
HETATM   41  N9  UNL     1     -24.464 -22.116  57.690  1.00  0.00    -0.072 N 
ATOM     42  H93 UNL     1     -24.564 -21.220  57.212  1.00  0.00     0.274 HD
ATOM     43  H92 UNL     1     -23.456 -22.104  57.852  1.00  0.00     0.274 HD
ATOM     44  H91 UNL     1     -24.726 -22.889  57.079  1.00  0.00     0.274 HD
ENDBRANCH  37  41
ENDBRANCH  14  35
TORSDOF 8
ENDMDL
