MODEL 1
REMARK VINA RESULT: -5.780784775      0.000      0.000
REMARK  10 active torsions:
REMARK  status: ('A' for Active; 'I' for Inactive)
REMARK    1  A    between atoms: C2_2  and  O1_3 
REMARK    2  A    between atoms: O1_3  and  C3_4 
REMARK    3  A    between atoms: C3_4  and  C4_6 
REMARK    4  A    between atoms: C4_6  and  S1_7 
REMARK    5  A    between atoms: S1_7  and  C5_8 
REMARK    6  A    between atoms: C6_9  and  N1_10 
REMARK    7  A    between atoms: N1_10  and  C7_12 
REMARK    8  A    between atoms: N5_28  and  C14_29 
REMARK    9  A    between atoms: C14_29  and  C15_30 
REMARK   10  A    between atoms: C15_30  and  N6_31 
ROOT
HETATM    1  C5  UNL     1     -34.196 -17.915  60.962  1.00  0.00     0.101 A 
HETATM    2  C6  UNL     1     -34.978 -19.022  60.779  1.00  0.00     0.085 A 
HETATM    3  C10 UNL     1     -34.281 -19.963  60.023  1.00  0.00     0.066 A 
HETATM    4  C11 UNL     1     -34.624 -21.219  59.567  1.00  0.00     0.117 A 
HETATM    5  S2  UNL     1     -36.139 -21.774  59.982  1.00  0.00    -0.059 SA
HETATM    6  N4  UNL     1     -33.885 -22.037  58.842  1.00  0.00    -0.332 N 
ATOM      7  H4  UNL     1     -34.312 -22.931  58.599  1.00  0.00     0.168 HD
HETATM    8  C12 UNL     1     -32.645 -21.835  58.386  1.00  0.00     0.145 A 
HETATM    9  S3  UNL     1     -31.817 -22.909  57.499  1.00  0.00    -0.052 SA
HETATM   10  S4  UNL     1     -32.000 -20.329  58.829  1.00  0.00    -0.042 SA
HETATM   11  C13 UNL     1     -33.049 -19.351  59.770  1.00  0.00     0.095 A 
HETATM   12  N5  UNL     1     -32.994 -18.135  60.327  1.00  0.00    -0.331 N 
ENDROOT
BRANCH   2  13
HETATM   13  N1  UNL     1     -36.307 -19.203  61.285  1.00  0.00    -0.325 N 
ATOM     14  H1  UNL     1     -36.452 -19.831  62.075  1.00  0.00     0.169 HD
BRANCH  13  15
HETATM   15  C7  UNL     1     -37.429 -18.534  60.723  1.00  0.00     0.175 C 
HETATM   16  N2  UNL     1     -38.231 -17.799  61.390  1.00  0.00    -0.361 N 
HETATM   17  C8  UNL     1     -39.288 -17.225  60.624  1.00  0.00     0.142 C 
ATOM     18  H2  UNL     1     -38.126 -17.636  62.391  1.00  0.00     0.162 HD
HETATM   19  C9  UNL     1     -39.284 -18.114  59.376  1.00  0.00     0.142 C 
HETATM   20  N3  UNL     1     -37.875 -18.536  59.375  1.00  0.00    -0.361 N 
ATOM     21  H3  UNL     1     -37.319 -18.786  58.556  1.00  0.00     0.162 HD
ENDBRANCH  13  15
ENDBRANCH   2  13
BRANCH   1  22
HETATM   22  S1  UNL     1     -34.568 -16.411  61.840  1.00  0.00    -0.100 SA
BRANCH  22  23
HETATM   23  C4  UNL     1     -34.788 -15.014  60.723  1.00  0.00     0.191 C 
BRANCH  23  24
HETATM   24  C3  UNL     1     -35.515 -15.503  59.517  1.00  0.00     0.268 C 
HETATM   25  O2  UNL     1     -36.777 -15.514  59.451  1.00  0.00    -0.264 OA
BRANCH  24  26
HETATM   26  O1  UNL     1     -34.832 -15.964  58.420  1.00  0.00    -0.321 OA
BRANCH  26  27
HETATM   27  C2  UNL     1     -35.253 -16.959  57.533  1.00  0.00     0.174 C 
HETATM   28  C1  UNL     1     -34.132 -17.638  56.801  1.00  0.00     0.034 C 
ENDBRANCH  26  27
ENDBRANCH  24  26
ENDBRANCH  23  24
ENDBRANCH  22  23
ENDBRANCH   1  22
BRANCH  12  29
HETATM   29  C14 UNL     1     -31.916 -17.192  60.259  1.00  0.00     0.160 C 
BRANCH  29  30
HETATM   30  C15 UNL     1     -30.696 -17.507  61.032  1.00  0.00     0.291 C 
BRANCH  30  31
HETATM   31  N6  UNL     1     -29.742 -16.477  61.263  1.00  0.00     0.081 N 
HETATM   32  C16 UNL     1     -30.294 -15.333  61.967  1.00  0.00     0.309 C 
HETATM   33  C17 UNL     1     -28.642 -17.050  62.038  1.00  0.00     0.309 C 
ENDBRANCH  30  31
ENDBRANCH  29  30
ENDBRANCH  12  29
TORSDOF 10
ENDMDL
MODEL 2
REMARK VINA RESULT: -5.752329908      2.235      3.021
REMARK  10 active torsions:
REMARK  status: ('A' for Active; 'I' for Inactive)
REMARK    1  A    between atoms: C2_2  and  O1_3 
REMARK    2  A    between atoms: O1_3  and  C3_4 
REMARK    3  A    between atoms: C3_4  and  C4_6 
REMARK    4  A    between atoms: C4_6  and  S1_7 
REMARK    5  A    between atoms: S1_7  and  C5_8 
REMARK    6  A    between atoms: C6_9  and  N1_10 
REMARK    7  A    between atoms: N1_10  and  C7_12 
REMARK    8  A    between atoms: N5_28  and  C14_29 
REMARK    9  A    between atoms: C14_29  and  C15_30 
REMARK   10  A    between atoms: C15_30  and  N6_31 
ROOT
HETATM    1  C5  UNL     1     -32.501 -17.275  59.743  1.00  0.00     0.101 A 
HETATM    2  C6  UNL     1     -33.394 -18.311  59.755  1.00  0.00     0.085 A 
HETATM    3  C10 UNL     1     -32.714 -19.513  59.568  1.00  0.00     0.066 A 
HETATM    4  C11 UNL     1     -33.151 -20.820  59.495  1.00  0.00     0.117 A 
HETATM    5  S2  UNL     1     -34.788 -21.069  59.673  1.00  0.00    -0.059 SA
HETATM    6  N4  UNL     1     -32.417 -21.899  59.305  1.00  0.00    -0.332 N 
ATOM      7  H4  UNL     1     -32.922 -22.786  59.281  1.00  0.00     0.168 HD
HETATM    8  C12 UNL     1     -31.093 -21.972  59.139  1.00  0.00     0.145 A 
HETATM    9  S3  UNL     1     -30.280 -23.357  58.912  1.00  0.00    -0.052 SA
HETATM   10  S4  UNL     1     -30.322 -20.461  59.192  1.00  0.00    -0.042 SA
HETATM   11  C13 UNL     1     -31.375 -19.131  59.445  1.00  0.00     0.095 A 
HETATM   12  N5  UNL     1     -31.244 -17.802  59.549  1.00  0.00    -0.331 N 
ENDROOT
BRANCH   2  13
HETATM   13  N1  UNL     1     -34.811 -18.193  59.936  1.00  0.00    -0.325 N 
ATOM     14  H1  UNL     1     -35.282 -18.838  60.571  1.00  0.00     0.169 HD
BRANCH  13  15
HETATM   15  C7  UNL     1     -35.582 -17.207  59.262  1.00  0.00     0.175 C 
HETATM   16  N2  UNL     1     -35.596 -17.054  57.995  1.00  0.00    -0.361 N 
HETATM   17  C8  UNL     1     -36.443 -16.003  57.532  1.00  0.00     0.142 C 
ATOM     18  H2  UNL     1     -35.045 -17.635  57.363  1.00  0.00     0.162 HD
HETATM   19  C9  UNL     1     -36.641 -15.180  58.809  1.00  0.00     0.142 C 
HETATM   20  N3  UNL     1     -36.456 -16.236  59.818  1.00  0.00    -0.361 N 
ATOM     21  H3  UNL     1     -36.878 -16.265  60.746  1.00  0.00     0.162 HD
ENDBRANCH  13  15
ENDBRANCH   2  13
BRANCH   1  22
HETATM   22  S1  UNL     1     -32.803 -15.530  59.933  1.00  0.00    -0.100 SA
BRANCH  22  23
HETATM   23  C4  UNL     1     -32.911 -15.049  61.666  1.00  0.00     0.191 C 
BRANCH  23  24
HETATM   24  C3  UNL     1     -34.336 -15.172  62.086  1.00  0.00     0.268 C 
HETATM   25  O2  UNL     1     -35.152 -14.212  61.989  1.00  0.00    -0.264 OA
BRANCH  24  26
HETATM   26  O1  UNL     1     -34.822 -16.349  62.600  1.00  0.00    -0.321 OA
BRANCH  26  27
HETATM   27  C2  UNL     1     -34.115 -17.279  63.367  1.00  0.00     0.174 C 
HETATM   28  C1  UNL     1     -34.771 -18.626  63.451  1.00  0.00     0.034 C 
ENDBRANCH  26  27
ENDBRANCH  24  26
ENDBRANCH  23  24
ENDBRANCH  22  23
ENDBRANCH   1  22
BRANCH  12  29
HETATM   29  C14 UNL     1     -30.038 -17.034  59.442  1.00  0.00     0.160 C 
BRANCH  29  30
HETATM   30  C15 UNL     1     -29.448 -16.526  60.699  1.00  0.00     0.291 C 
BRANCH  30  31
HETATM   31  N6  UNL     1     -28.832 -17.448  61.591  1.00  0.00     0.081 N 
HETATM   32  C16 UNL     1     -27.798 -18.249  60.961  1.00  0.00     0.309 C 
HETATM   33  C17 UNL     1     -28.259 -16.685  62.699  1.00  0.00     0.309 C 
ENDBRANCH  30  31
ENDBRANCH  29  30
ENDBRANCH  12  29
TORSDOF 10
ENDMDL
MODEL 3
REMARK VINA RESULT: -5.701588634      3.104      5.844
REMARK  10 active torsions:
REMARK  status: ('A' for Active; 'I' for Inactive)
REMARK    1  A    between atoms: C2_2  and  O1_3 
REMARK    2  A    between atoms: O1_3  and  C3_4 
REMARK    3  A    between atoms: C3_4  and  C4_6 
REMARK    4  A    between atoms: C4_6  and  S1_7 
REMARK    5  A    between atoms: S1_7  and  C5_8 
REMARK    6  A    between atoms: C6_9  and  N1_10 
REMARK    7  A    between atoms: N1_10  and  C7_12 
REMARK    8  A    between atoms: N5_28  and  C14_29 
REMARK    9  A    between atoms: C14_29  and  C15_30 
REMARK   10  A    between atoms: C15_30  and  N6_31 
ROOT
HETATM    1  C5  UNL     1     -31.782 -18.548  60.149  1.00  0.00     0.101 A 
HETATM    2  C6  UNL     1     -30.862 -17.907  60.933  1.00  0.00     0.085 A 
HETATM    3  C10 UNL     1     -29.600 -18.455  60.711  1.00  0.00     0.066 A 
HETATM    4  C11 UNL     1     -28.362 -18.171  61.249  1.00  0.00     0.117 A 
HETATM    5  S2  UNL     1     -28.302 -16.941  62.370  1.00  0.00    -0.059 SA
HETATM    6  N4  UNL     1     -27.215 -18.761  60.973  1.00  0.00    -0.332 N 
ATOM      7  H4  UNL     1     -26.398 -18.411  61.475  1.00  0.00     0.168 HD
HETATM    8  C12 UNL     1     -26.993 -19.762  60.116  1.00  0.00     0.145 A 
HETATM    9  S3  UNL     1     -25.537 -20.421  59.845  1.00  0.00    -0.052 SA
HETATM   10  S4  UNL     1     -28.394 -20.291  59.317  1.00  0.00    -0.042 SA
HETATM   11  C13 UNL     1     -29.825 -19.451  59.755  1.00  0.00     0.095 A 
HETATM   12  N5  UNL     1     -31.120 -19.509  59.418  1.00  0.00    -0.331 N 
ENDROOT
BRANCH   2  13
HETATM   13  N1  UNL     1     -31.139 -16.835  61.843  1.00  0.00    -0.325 N 
ATOM     14  H1  UNL     1     -30.726 -16.860  62.775  1.00  0.00     0.169 HD
BRANCH  13  15
HETATM   15  C7  UNL     1     -31.969 -15.736  61.489  1.00  0.00     0.175 C 
HETATM   16  N2  UNL     1     -32.926 -15.301  62.213  1.00  0.00    -0.361 N 
HETATM   17  C8  UNL     1     -33.628 -14.187  61.664  1.00  0.00     0.142 C 
ATOM     18  H2  UNL     1     -33.171 -15.717  63.111  1.00  0.00     0.162 HD
HETATM   19  C9  UNL     1     -33.221 -14.261  60.189  1.00  0.00     0.142 C 
HETATM   20  N3  UNL     1     -31.916 -14.928  60.322  1.00  0.00    -0.361 N 
ATOM     21  H3  UNL     1     -31.119 -14.829  59.693  1.00  0.00     0.162 HD
ENDBRANCH  13  15
ENDBRANCH   2  13
BRANCH   1  22
HETATM   22  S1  UNL     1     -33.537 -18.270  60.021  1.00  0.00    -0.100 SA
BRANCH  22  23
HETATM   23  C4  UNL     1     -34.455 -19.165  61.288  1.00  0.00     0.191 C 
BRANCH  23  24
HETATM   24  C3  UNL     1     -34.952 -18.171  62.281  1.00  0.00     0.268 C 
HETATM   25  O2  UNL     1     -34.274 -17.833  63.292  1.00  0.00    -0.264 OA
BRANCH  24  26
HETATM   26  O1  UNL     1     -36.180 -17.577  62.131  1.00  0.00    -0.321 OA
BRANCH  26  27
HETATM   27  C2  UNL     1     -37.231 -18.026  61.327  1.00  0.00     0.174 C 
HETATM   28  C1  UNL     1     -37.430 -17.222  60.075  1.00  0.00     0.034 C 
ENDBRANCH  26  27
ENDBRANCH  24  26
ENDBRANCH  23  24
ENDBRANCH  22  23
ENDBRANCH   1  22
BRANCH  12  29
HETATM   29  C14 UNL     1     -31.743 -20.418  58.501  1.00  0.00     0.160 C 
BRANCH  29  30
HETATM   30  C15 UNL     1     -31.762 -21.848  58.879  1.00  0.00     0.291 C 
BRANCH  30  31
HETATM   31  N6  UNL     1     -30.987 -22.770  58.123  1.00  0.00     0.081 N 
HETATM   32  C16 UNL     1     -30.149 -23.623  58.946  1.00  0.00     0.309 C 
HETATM   33  C17 UNL     1     -31.908 -23.592  57.339  1.00  0.00     0.309 C 
ENDBRANCH  30  31
ENDBRANCH  29  30
ENDBRANCH  12  29
TORSDOF 10
ENDMDL
MODEL 4
REMARK VINA RESULT: -5.635642461      1.009      1.265
REMARK  10 active torsions:
REMARK  status: ('A' for Active; 'I' for Inactive)
REMARK    1  A    between atoms: C2_2  and  O1_3 
REMARK    2  A    between atoms: O1_3  and  C3_4 
REMARK    3  A    between atoms: C3_4  and  C4_6 
REMARK    4  A    between atoms: C4_6  and  S1_7 
REMARK    5  A    between atoms: S1_7  and  C5_8 
REMARK    6  A    between atoms: C6_9  and  N1_10 
REMARK    7  A    between atoms: N1_10  and  C7_12 
REMARK    8  A    between atoms: N5_28  and  C14_29 
REMARK    9  A    between atoms: C14_29  and  C15_30 
REMARK   10  A    between atoms: C15_30  and  N6_31 
ROOT
HETATM    1  C5  UNL     1     -33.508 -17.981  61.056  1.00  0.00     0.101 A 
HETATM    2  C6  UNL     1     -34.410 -18.999  60.912  1.00  0.00     0.085 A 
HETATM    3  C10 UNL     1     -33.886 -19.967  60.056  1.00  0.00     0.066 A 
HETATM    4  C11 UNL     1     -34.394 -21.163  59.592  1.00  0.00     0.117 A 
HETATM    5  S2  UNL     1     -35.909 -21.589  60.136  1.00  0.00    -0.059 SA
HETATM    6  N4  UNL     1     -33.813 -22.013  58.768  1.00  0.00    -0.332 N 
ATOM      7  H4  UNL     1     -34.348 -22.850  58.537  1.00  0.00     0.168 HD
HETATM    8  C12 UNL     1     -32.608 -21.909  58.198  1.00  0.00     0.145 A 
HETATM    9  S3  UNL     1     -31.980 -23.016  57.194  1.00  0.00    -0.052 SA
HETATM   10  S4  UNL     1     -31.777 -20.494  58.628  1.00  0.00    -0.042 SA
HETATM   11  C13 UNL     1     -32.629 -19.465  59.704  1.00  0.00     0.095 A 
HETATM   12  N5  UNL     1     -32.400 -18.285  60.296  1.00  0.00    -0.331 N 
ENDROOT
BRANCH   2  13
HETATM   13  N1  UNL     1     -35.695 -19.075  61.541  1.00  0.00    -0.325 N 
ATOM     14  H1  UNL     1     -35.782 -19.574  62.427  1.00  0.00     0.169 HD
BRANCH  13  15
HETATM   15  C7  UNL     1     -36.854 -18.479  60.972  1.00  0.00     0.175 C 
HETATM   16  N2  UNL     1     -37.958 -18.325  61.595  1.00  0.00    -0.361 N 
HETATM   17  C8  UNL     1     -38.989 -17.701  60.832  1.00  0.00     0.142 C 
ATOM     18  H2  UNL     1     -38.092 -18.625  62.560  1.00  0.00     0.162 HD
HETATM   19  C9  UNL     1     -38.472 -17.889  59.401  1.00  0.00     0.142 C 
HETATM   20  N3  UNL     1     -37.025 -17.952  59.665  1.00  0.00    -0.361 N 
ATOM     21  H3  UNL     1     -36.282 -17.670  59.026  1.00  0.00     0.162 HD
ENDBRANCH  13  15
ENDBRANCH   2  13
BRANCH   1  22
HETATM   22  S1  UNL     1     -33.643 -16.490  62.021  1.00  0.00    -0.100 SA
BRANCH  22  23
HETATM   23  C4  UNL     1     -35.101 -15.528  61.576  1.00  0.00     0.191 C 
BRANCH  23  24
HETATM   24  C3  UNL     1     -34.949 -15.097  60.157  1.00  0.00     0.268 C 
HETATM   25  O2  UNL     1     -33.829 -14.777  59.668  1.00  0.00    -0.264 OA
BRANCH  24  26
HETATM   26  O1  UNL     1     -36.034 -15.032  59.319  1.00  0.00    -0.321 OA
BRANCH  26  27
HETATM   27  C2  UNL     1     -36.009 -15.030  57.922  1.00  0.00     0.174 C 
HETATM   28  C1  UNL     1     -37.321 -14.669  57.288  1.00  0.00     0.034 C 
ENDBRANCH  26  27
ENDBRANCH  24  26
ENDBRANCH  23  24
ENDBRANCH  22  23
ENDBRANCH   1  22
BRANCH  12  29
HETATM   29  C14 UNL     1     -31.245 -17.448  60.155  1.00  0.00     0.160 C 
BRANCH  29  30
HETATM   30  C15 UNL     1     -30.061 -17.790  60.971  1.00  0.00     0.291 C 
BRANCH  30  31
HETATM   31  N6  UNL     1     -29.204 -16.743  61.413  1.00  0.00     0.081 N 
HETATM   32  C16 UNL     1     -29.924 -15.614  61.976  1.00  0.00     0.309 C 
HETATM   33  C17 UNL     1     -28.297 -17.300  62.416  1.00  0.00     0.309 C 
ENDBRANCH  30  31
ENDBRANCH  29  30
ENDBRANCH  12  29
TORSDOF 10
ENDMDL
MODEL 5
REMARK VINA RESULT: -5.620605813      3.279      6.202
REMARK  10 active torsions:
REMARK  status: ('A' for Active; 'I' for Inactive)
REMARK    1  A    between atoms: C2_2  and  O1_3 
REMARK    2  A    between atoms: O1_3  and  C3_4 
REMARK    3  A    between atoms: C3_4  and  C4_6 
REMARK    4  A    between atoms: C4_6  and  S1_7 
REMARK    5  A    between atoms: S1_7  and  C5_8 
REMARK    6  A    between atoms: C6_9  and  N1_10 
REMARK    7  A    between atoms: N1_10  and  C7_12 
REMARK    8  A    between atoms: N5_28  and  C14_29 
REMARK    9  A    between atoms: C14_29  and  C15_30 
REMARK   10  A    between atoms: C15_30  and  N6_31 
ROOT
HETATM    1  C5  UNL     1     -31.458 -19.534  59.559  1.00  0.00     0.101 A 
HETATM    2  C6  UNL     1     -30.697 -18.764  60.394  1.00  0.00     0.085 A 
HETATM    3  C10 UNL     1     -29.364 -19.161  60.306  1.00  0.00     0.066 A 
HETATM    4  C11 UNL     1     -28.223 -18.713  60.940  1.00  0.00     0.117 A 
HETATM    5  S2  UNL     1     -28.412 -17.453  62.012  1.00  0.00    -0.059 SA
HETATM    6  N4  UNL     1     -26.993 -19.168  60.790  1.00  0.00    -0.332 N 
ATOM      7  H4  UNL     1     -26.274 -18.707  61.348  1.00  0.00     0.168 HD
HETATM    8  C12 UNL     1     -26.577 -20.159  59.996  1.00  0.00     0.145 A 
HETATM    9  S3  UNL     1     -25.034 -20.644  59.881  1.00  0.00    -0.052 SA
HETATM   10  S4  UNL     1     -27.826 -20.877  59.099  1.00  0.00    -0.042 SA
HETATM   11  C13 UNL     1     -29.380 -20.204  59.375  1.00  0.00     0.095 A 
HETATM   12  N5  UNL     1     -30.623 -20.429  58.928  1.00  0.00    -0.331 N 
ENDROOT
BRANCH   2  13
HETATM   13  N1  UNL     1     -31.181 -17.707  61.233  1.00  0.00    -0.325 N 
ATOM     14  H1  UNL     1     -31.264 -17.872  62.236  1.00  0.00     0.169 HD
BRANCH  13  15
HETATM   15  C7  UNL     1     -31.549 -16.436  60.713  1.00  0.00     0.175 C 
HETATM   16  N2  UNL     1     -30.966 -15.342  61.018  1.00  0.00    -0.361 N 
HETATM   17  C8  UNL     1     -31.499 -14.185  60.377  1.00  0.00     0.142 C 
ATOM     18  H2  UNL     1     -30.183 -15.299  61.669  1.00  0.00     0.162 HD
HETATM   19  C9  UNL     1     -32.874 -14.688  59.924  1.00  0.00     0.142 C 
HETATM   20  N3  UNL     1     -32.584 -16.124  59.791  1.00  0.00    -0.361 N 
ATOM     21  H3  UNL     1     -33.042 -16.777  59.154  1.00  0.00     0.162 HD
ENDBRANCH  13  15
ENDBRANCH   2  13
BRANCH   1  22
HETATM   22  S1  UNL     1     -33.214 -19.475  59.266  1.00  0.00    -0.100 SA
BRANCH  22  23
HETATM   23  C4  UNL     1     -34.158 -19.887  60.745  1.00  0.00     0.191 C 
BRANCH  23  24
HETATM   24  C3  UNL     1     -34.982 -18.698  61.107  1.00  0.00     0.268 C 
HETATM   25  O2  UNL     1     -36.238 -18.684  60.971  1.00  0.00    -0.264 OA
BRANCH  24  26
HETATM   26  O1  UNL     1     -34.400 -17.562  61.609  1.00  0.00    -0.321 OA
BRANCH  26  27
HETATM   27  C2  UNL     1     -34.567 -17.036  62.893  1.00  0.00     0.174 C 
HETATM   28  C1  UNL     1     -34.612 -18.072  63.977  1.00  0.00     0.034 C 
ENDBRANCH  26  27
ENDBRANCH  24  26
ENDBRANCH  23  24
ENDBRANCH  22  23
ENDBRANCH   1  22
BRANCH  12  29
HETATM   29  C14 UNL     1     -31.046 -21.433  57.997  1.00  0.00     0.160 C 
BRANCH  29  30
HETATM   30  C15 UNL     1     -31.225 -22.804  58.521  1.00  0.00     0.291 C 
BRANCH  30  31
HETATM   31  N6  UNL     1     -30.431 -23.856  57.983  1.00  0.00     0.081 N 
HETATM   32  C16 UNL     1     -29.642 -23.446  56.835  1.00  0.00     0.309 C 
HETATM   33  C17 UNL     1     -29.547 -24.337  59.043  1.00  0.00     0.309 C 
ENDBRANCH  30  31
ENDBRANCH  29  30
ENDBRANCH  12  29
TORSDOF 10
ENDMDL
