MODEL 1
REMARK VINA RESULT: -7.007038228      0.000      0.000
REMARK  7 active torsions:
REMARK  status: ('A' for Active; 'I' for Inactive)
REMARK       I    between atoms: N1_2  and  C2_4 
REMARK    1  A    between atoms: C2_4  and  C3_6 
REMARK    2  A    between atoms: C3_6  and  O2_7 
REMARK    3  A    between atoms: C3_6  and  C4_9 
REMARK    4  A    between atoms: C4_9  and  N2_10 
REMARK    5  A    between atoms: C4_9  and  C9_23 
REMARK    6  A    between atoms: N2_10  and  C5_12 
REMARK       I    between atoms: C9_23  and  N6_25 
REMARK    7  A    between atoms: N6_25  and  N7_27 
ROOT
HETATM    1  C4  UNL     1      10.766  18.499  10.307  1.00  0.00     0.231 C 
ENDROOT
BRANCH   1   2
HETATM    2  C3  UNL     1      12.181  18.703   9.842  1.00  0.00     0.242 C 
BRANCH   2   3
HETATM    3  C2  UNL     1      13.008  17.482   9.858  1.00  0.00     0.248 C 
HETATM    4  N1  UNL     1      14.385  17.547   9.543  1.00  0.00    -0.363 N 
HETATM    5  C1  UNL     1      15.246  16.376   9.543  1.00  0.00     0.149 C 
ATOM      6  H1  UNL     1      14.791  18.452   9.306  1.00  0.00     0.162 HD
HETATM    7  O1  UNL     1      12.526  16.351  10.148  1.00  0.00    -0.271 OA
ENDBRANCH   2   3
BRANCH   2   8
HETATM    8  O2  UNL     1      12.840  19.714  10.487  1.00  0.00    -0.384 OA
ATOM      9  H2  UNL     1      13.631  19.935  10.009  1.00  0.00     0.210 HD
ENDBRANCH   2   8
ENDBRANCH   1   2
BRANCH   1  10
HETATM   10  N2  UNL     1       9.996  18.153   9.127  1.00  0.00    -0.209 N 
ATOM     11  H2  UNL     1       9.664  18.930   8.556  1.00  0.00     0.178 HD
BRANCH  10  12
HETATM   12  C5  UNL     1       9.694  16.990   8.732  1.00  0.00     0.687 A 
HETATM   13  N3  UNL     1       9.217  16.094   9.642  1.00  0.00    -0.141 N 
HETATM   14  C6  UNL     1       8.896  14.857   9.224  1.00  0.00     0.344 A 
ATOM     15  H3  UNL     1       9.106  16.357  10.621  1.00  0.00     0.189 HD
HETATM   16  O3  UNL     1       8.448  13.994  10.045  1.00  0.00    -0.246 OA
HETATM   17  N4  UNL     1       9.025  14.470   7.943  1.00  0.00    -0.255 N 
HETATM   18  C7  UNL     1       8.670  13.126   7.514  1.00  0.00     0.166 C 
HETATM   19  C8  UNL     1       9.502  15.395   7.081  1.00  0.00     0.344 A 
HETATM   20  O4  UNL     1       9.634  15.068   5.889  1.00  0.00    -0.246 OA
HETATM   21  N5  UNL     1       9.838  16.643   7.445  1.00  0.00    -0.141 N 
ATOM     22  H5  UNL     1      10.193  17.310   6.760  1.00  0.00     0.189 HD
ENDBRANCH  10  12
ENDBRANCH   1  10
BRANCH   1  23
HETATM   23  C9  UNL     1      10.157  19.698  10.907  1.00  0.00     0.262 C 
HETATM   24  O5  UNL     1       9.445  19.508  11.954  1.00  0.00    -0.269 OA
HETATM   25  N6  UNL     1      10.271  21.012  10.459  1.00  0.00    -0.275 N 
ATOM     26  H6  UNL     1      10.828  21.214   9.628  1.00  0.00     0.189 HD
BRANCH  25  27
HETATM   27  N7  UNL     1       9.637  22.053  11.130  1.00  0.00    -0.343 N 
ATOM     28  H72 UNL     1       9.413  21.932  12.118  1.00  0.00     0.176 HD
ATOM     29  H71 UNL     1       9.399  22.918  10.647  1.00  0.00     0.176 HD
ENDBRANCH  25  27
ENDBRANCH   1  23
TORSDOF 7
ENDMDL
MODEL 2
REMARK VINA RESULT: -6.983845398      0.041      1.707
REMARK  7 active torsions:
REMARK  status: ('A' for Active; 'I' for Inactive)
REMARK       I    between atoms: N1_2  and  C2_4 
REMARK    1  A    between atoms: C2_4  and  C3_6 
REMARK    2  A    between atoms: C3_6  and  O2_7 
REMARK    3  A    between atoms: C3_6  and  C4_9 
REMARK    4  A    between atoms: C4_9  and  N2_10 
REMARK    5  A    between atoms: C4_9  and  C9_23 
REMARK    6  A    between atoms: N2_10  and  C5_12 
REMARK       I    between atoms: C9_23  and  N6_25 
REMARK    7  A    between atoms: N6_25  and  N7_27 
ROOT
HETATM    1  C4  UNL     1      10.766  18.522  10.347  1.00  0.00     0.231 C 
ENDROOT
BRANCH   1   2
HETATM    2  C3  UNL     1      12.179  18.729   9.877  1.00  0.00     0.242 C 
BRANCH   2   3
HETATM    3  C2  UNL     1      13.008  17.509   9.885  1.00  0.00     0.248 C 
HETATM    4  N1  UNL     1      14.384  17.577   9.568  1.00  0.00    -0.363 N 
HETATM    5  C1  UNL     1      15.246  16.408   9.561  1.00  0.00     0.149 C 
ATOM      6  H1  UNL     1      14.789  18.485   9.336  1.00  0.00     0.162 HD
HETATM    7  O1  UNL     1      12.528  16.377  10.170  1.00  0.00    -0.271 OA
ENDBRANCH   2   3
BRANCH   2   8
HETATM    8  O2  UNL     1      12.840  19.739  10.522  1.00  0.00    -0.384 OA
ATOM      9  H2  UNL     1      13.174  20.360   9.885  1.00  0.00     0.210 HD
ENDBRANCH   2   8
ENDBRANCH   1   2
BRANCH   1  10
HETATM   10  N2  UNL     1       9.996  18.160   9.174  1.00  0.00    -0.209 N 
ATOM     11  H2  UNL     1       9.670  18.928   8.587  1.00  0.00     0.178 HD
BRANCH  10  12
HETATM   12  C5  UNL     1       9.686  16.992   8.800  1.00  0.00     0.687 A 
HETATM   13  N3  UNL     1       9.854  16.658   7.489  1.00  0.00    -0.141 N 
HETATM   14  C6  UNL     1       9.525  15.417   7.090  1.00  0.00     0.344 A 
ATOM     15  H3  UNL     1      10.223  17.337   6.824  1.00  0.00     0.189 HD
HETATM   16  O3  UNL     1       9.668  15.071   5.874  1.00  0.00    -0.246 OA
HETATM   17  N4  UNL     1       9.038  14.491   7.934  1.00  0.00    -0.255 N 
HETATM   18  C7  UNL     1       8.689  13.154   7.479  1.00  0.00     0.166 C 
HETATM   19  C8  UNL     1       8.890  14.871   9.222  1.00  0.00     0.344 A 
HETATM   20  O4  UNL     1       8.442  14.038  10.029  1.00  0.00    -0.246 OA
HETATM   21  N5  UNL     1       9.203  16.097   9.674  1.00  0.00    -0.141 N 
ATOM     22  H5  UNL     1       9.077  16.340  10.657  1.00  0.00     0.189 HD
ENDBRANCH  10  12
ENDBRANCH   1  10
BRANCH   1  23
HETATM   23  C9  UNL     1      10.152  19.724  10.937  1.00  0.00     0.262 C 
HETATM   24  O5  UNL     1       9.445  19.541  11.988  1.00  0.00    -0.269 OA
HETATM   25  N6  UNL     1      10.257  21.034  10.475  1.00  0.00    -0.275 N 
ATOM     26  H6  UNL     1      10.810  21.230   9.640  1.00  0.00     0.189 HD
BRANCH  25  27
HETATM   27  N7  UNL     1       9.618  22.077  11.137  1.00  0.00    -0.343 N 
ATOM     28  H72 UNL     1       8.883  21.853  11.807  1.00  0.00     0.176 HD
ATOM     29  H71 UNL     1       9.877  23.047  10.957  1.00  0.00     0.176 HD
ENDBRANCH  25  27
ENDBRANCH   1  23
TORSDOF 7
ENDMDL
MODEL 3
REMARK VINA RESULT: -6.904669063      1.922      6.173
REMARK  7 active torsions:
REMARK  status: ('A' for Active; 'I' for Inactive)
REMARK       I    between atoms: N1_2  and  C2_4 
REMARK    1  A    between atoms: C2_4  and  C3_6 
REMARK    2  A    between atoms: C3_6  and  O2_7 
REMARK    3  A    between atoms: C3_6  and  C4_9 
REMARK    4  A    between atoms: C4_9  and  N2_10 
REMARK    5  A    between atoms: C4_9  and  C9_23 
REMARK    6  A    between atoms: N2_10  and  C5_12 
REMARK       I    between atoms: C9_23  and  N6_25 
REMARK    7  A    between atoms: N6_25  and  N7_27 
ROOT
HETATM    1  C4  UNL     1      10.193  15.510   7.711  1.00  0.00     0.231 C 
ENDROOT
BRANCH   1   2
HETATM    2  C3  UNL     1       8.923  14.830   8.141  1.00  0.00     0.242 C 
BRANCH   2   3
HETATM    3  C2  UNL     1       8.684  14.849   9.596  1.00  0.00     0.248 C 
HETATM    4  N1  UNL     1       8.494  13.642  10.306  1.00  0.00    -0.363 N 
HETATM    5  C1  UNL     1       8.255  13.603  11.739  1.00  0.00     0.149 C 
ATOM      6  H1  UNL     1       8.525  12.761   9.792  1.00  0.00     0.162 HD
HETATM    7  O1  UNL     1       8.642  15.927  10.252  1.00  0.00    -0.271 OA
ENDBRANCH   2   3
BRANCH   2   8
HETATM    8  O2  UNL     1       8.786  13.553   7.669  1.00  0.00    -0.384 OA
ATOM      9  H2  UNL     1       9.474  13.370   7.040  1.00  0.00     0.210 HD
ENDBRANCH   2   8
ENDBRANCH   1   2
BRANCH   1  10
HETATM   10  N2  UNL     1      10.007  16.924   7.975  1.00  0.00    -0.209 N 
ATOM     11  H2  UNL     1       9.221  17.375   7.506  1.00  0.00     0.178 HD
BRANCH  10  12
HETATM   12  C5  UNL     1      10.715  17.656   8.724  1.00  0.00     0.687 A 
HETATM   13  N3  UNL     1      12.044  17.376   8.845  1.00  0.00    -0.141 N 
HETATM   14  C6  UNL     1      12.799  18.154   9.642  1.00  0.00     0.344 A 
ATOM     15  H3  UNL     1      12.457  16.591   8.342  1.00  0.00     0.189 HD
HETATM   16  O3  UNL     1      14.042  17.922   9.779  1.00  0.00    -0.246 OA
HETATM   17  N4  UNL     1      12.294  19.198  10.321  1.00  0.00    -0.255 N 
HETATM   18  C7  UNL     1      13.131  20.025  11.177  1.00  0.00     0.166 C 
HETATM   19  C8  UNL     1      10.973  19.433  10.167  1.00  0.00     0.344 A 
HETATM   20  O4  UNL     1      10.475  20.392  10.783  1.00  0.00    -0.246 OA
HETATM   21  N5  UNL     1      10.173  18.689   9.385  1.00  0.00    -0.141 N 
ATOM     22  H5  UNL     1       9.180  18.904   9.297  1.00  0.00     0.189 HD
ENDBRANCH  10  12
ENDBRANCH   1  10
BRANCH   1  23
HETATM   23  C9  UNL     1      10.498  15.354   6.280  1.00  0.00     0.262 C 
HETATM   24  O5  UNL     1      10.783  14.168   5.887  1.00  0.00    -0.269 OA
HETATM   25  N6  UNL     1      10.510  16.353   5.309  1.00  0.00    -0.275 N 
ATOM     26  H6  UNL     1      10.291  17.314   5.574  1.00  0.00     0.189 HD
BRANCH  25  27
HETATM   27  N7  UNL     1      10.819  16.059   3.985  1.00  0.00    -0.343 N 
ATOM     28  H72 UNL     1      11.460  15.288   3.793  1.00  0.00     0.176 HD
ATOM     29  H71 UNL     1      10.415  16.600   3.221  1.00  0.00     0.176 HD
ENDBRANCH  25  27
ENDBRANCH   1  23
TORSDOF 7
ENDMDL
MODEL 4
REMARK VINA RESULT: -6.893006267      1.915      6.091
REMARK  7 active torsions:
REMARK  status: ('A' for Active; 'I' for Inactive)
REMARK       I    between atoms: N1_2  and  C2_4 
REMARK    1  A    between atoms: C2_4  and  C3_6 
REMARK    2  A    between atoms: C3_6  and  O2_7 
REMARK    3  A    between atoms: C3_6  and  C4_9 
REMARK    4  A    between atoms: C4_9  and  N2_10 
REMARK    5  A    between atoms: C4_9  and  C9_23 
REMARK    6  A    between atoms: N2_10  and  C5_12 
REMARK       I    between atoms: C9_23  and  N6_25 
REMARK    7  A    between atoms: N6_25  and  N7_27 
ROOT
HETATM    1  C4  UNL     1      10.232  15.577   7.801  1.00  0.00     0.231 C 
ENDROOT
BRANCH   1   2
HETATM    2  C3  UNL     1       8.951  14.926   8.245  1.00  0.00     0.242 C 
BRANCH   2   3
HETATM    3  C2  UNL     1       8.731  14.947   9.703  1.00  0.00     0.248 C 
HETATM    4  N1  UNL     1       8.622  13.738  10.428  1.00  0.00    -0.363 N 
HETATM    5  C1  UNL     1       8.405  13.701  11.864  1.00  0.00     0.149 C 
ATOM      6  H1  UNL     1       8.698  12.855   9.922  1.00  0.00     0.162 HD
HETATM    7  O1  UNL     1       8.634  16.027  10.349  1.00  0.00    -0.271 OA
ENDBRANCH   2   3
BRANCH   2   8
HETATM    8  O2  UNL     1       8.779  13.654   7.772  1.00  0.00    -0.384 OA
ATOM      9  H2  UNL     1       7.864  13.516   7.553  1.00  0.00     0.210 HD
ENDBRANCH   2   8
ENDBRANCH   1   2
BRANCH   1  10
HETATM   10  N2  UNL     1      10.068  16.998   8.035  1.00  0.00    -0.209 N 
ATOM     11  H2  UNL     1       9.304  17.457   7.537  1.00  0.00     0.178 HD
BRANCH  10  12
HETATM   12  C5  UNL     1      10.771  17.730   8.790  1.00  0.00     0.687 A 
HETATM   13  N3  UNL     1      10.166  18.756   9.455  1.00  0.00    -0.141 N 
HETATM   14  C6  UNL     1      10.912  19.534  10.258  1.00  0.00     0.344 A 
ATOM     15  H3  UNL     1       9.167  18.928   9.344  1.00  0.00     0.189 HD
HETATM   16  O3  UNL     1      10.381  20.501  10.893  1.00  0.00    -0.246 OA
HETATM   17  N4  UNL     1      12.230  19.340  10.433  1.00  0.00    -0.255 N 
HETATM   18  C7  UNL     1      13.016  20.196  11.308  1.00  0.00     0.166 C 
HETATM   19  C8  UNL     1      12.781  18.311   9.753  1.00  0.00     0.344 A 
HETATM   20  O4  UNL     1      13.999  18.105   9.893  1.00  0.00    -0.246 OA
HETATM   21  N5  UNL     1      12.084  17.502   8.938  1.00  0.00    -0.141 N 
ATOM     22  H5  UNL     1      12.541  16.736   8.445  1.00  0.00     0.189 HD
ENDBRANCH  10  12
ENDBRANCH   1  10
BRANCH   1  23
HETATM   23  C9  UNL     1      10.534  15.386   6.373  1.00  0.00     0.262 C 
HETATM   24  O5  UNL     1      10.855  14.199   6.016  1.00  0.00    -0.269 OA
HETATM   25  N6  UNL     1      10.508  16.354   5.372  1.00  0.00    -0.275 N 
ATOM     26  H6  UNL     1      10.258  17.315   5.608  1.00  0.00     0.189 HD
BRANCH  25  27
HETATM   27  N7  UNL     1      10.818  16.028   4.056  1.00  0.00    -0.343 N 
ATOM     28  H72 UNL     1      11.285  15.140   3.870  1.00  0.00     0.176 HD
ATOM     29  H71 UNL     1      10.586  16.662   3.291  1.00  0.00     0.176 HD
ENDBRANCH  25  27
ENDBRANCH   1  23
TORSDOF 7
ENDMDL
MODEL 5
REMARK VINA RESULT: -6.705672144      2.135      5.045
REMARK  7 active torsions:
REMARK  status: ('A' for Active; 'I' for Inactive)
REMARK       I    between atoms: N1_2  and  C2_4 
REMARK    1  A    between atoms: C2_4  and  C3_6 
REMARK    2  A    between atoms: C3_6  and  O2_7 
REMARK    3  A    between atoms: C3_6  and  C4_9 
REMARK    4  A    between atoms: C4_9  and  N2_10 
REMARK    5  A    between atoms: C4_9  and  C9_23 
REMARK    6  A    between atoms: N2_10  and  C5_12 
REMARK       I    between atoms: C9_23  and  N6_25 
REMARK    7  A    between atoms: N6_25  and  N7_27 
ROOT
HETATM    1  C4  UNL     1      10.826  16.885   7.663  1.00  0.00     0.231 C 
ENDROOT
BRANCH   1   2
HETATM    2  C3  UNL     1      11.727  16.032   8.513  1.00  0.00     0.242 C 
BRANCH   2   3
HETATM    3  C2  UNL     1      13.044  16.632   8.796  1.00  0.00     0.248 C 
HETATM    4  N1  UNL     1      14.229  15.897   8.565  1.00  0.00    -0.363 N 
HETATM    5  C1  UNL     1      15.552  16.439   8.827  1.00  0.00     0.149 C 
ATOM      6  H1  UNL     1      14.153  14.947   8.201  1.00  0.00     0.162 HD
HETATM    7  O1  UNL     1      13.161  17.806   9.247  1.00  0.00    -0.271 OA
ENDBRANCH   2   3
BRANCH   2   8
HETATM    8  O2  UNL     1      11.893  14.757   8.045  1.00  0.00    -0.384 OA
ATOM      9  H2  UNL     1      11.169  14.531   7.472  1.00  0.00     0.210 HD
ENDBRANCH   2   8
ENDBRANCH   1   2
BRANCH   1  10
HETATM   10  N2  UNL     1       9.660  17.179   8.474  1.00  0.00    -0.209 N 
ATOM     11  H2  UNL     1       8.758  16.891   8.096  1.00  0.00     0.178 HD
BRANCH  10  12
HETATM   12  C5  UNL     1       9.644  17.755   9.600  1.00  0.00     0.687 A 
HETATM   13  N3  UNL     1       8.988  17.154  10.633  1.00  0.00    -0.141 N 
HETATM   14  C6  UNL     1       8.970  17.765  11.831  1.00  0.00     0.344 A 
ATOM     15  H3  UNL     1       8.519  16.258  10.499  1.00  0.00     0.189 HD
HETATM   16  O3  UNL     1       8.366  17.233  12.817  1.00  0.00    -0.246 OA
HETATM   17  N4  UNL     1       9.576  18.944  12.050  1.00  0.00    -0.255 N 
HETATM   18  C7  UNL     1       9.543  19.586  13.356  1.00  0.00     0.166 C 
HETATM   19  C8  UNL     1      10.212  19.498  10.995  1.00  0.00     0.344 A 
HETATM   20  O4  UNL     1      10.783  20.590  11.166  1.00  0.00    -0.246 OA
HETATM   21  N5  UNL     1      10.262  18.932   9.778  1.00  0.00    -0.141 N 
ATOM     22  H5  UNL     1      10.756  19.385   9.010  1.00  0.00     0.189 HD
ENDBRANCH  10  12
ENDBRANCH   1  10
BRANCH   1  23
HETATM   23  C9  UNL     1      10.364  16.222   6.432  1.00  0.00     0.262 C 
HETATM   24  O5  UNL     1       9.341  15.460   6.549  1.00  0.00    -0.269 OA
HETATM   25  N6  UNL     1      10.918  16.334   5.159  1.00  0.00    -0.275 N 
ATOM     26  H6  UNL     1      11.734  16.929   5.016  1.00  0.00     0.189 HD
BRANCH  25  27
HETATM   27  N7  UNL     1      10.373  15.644   4.081  1.00  0.00    -0.343 N 
ATOM     28  H72 UNL     1       9.358  15.617   3.982  1.00  0.00     0.176 HD
ATOM     29  H71 UNL     1      10.974  15.176   3.403  1.00  0.00     0.176 HD
ENDBRANCH  25  27
ENDBRANCH   1  23
TORSDOF 7
ENDMDL
