MODEL 1
REMARK VINA RESULT: -7.066544578      0.000      0.000
REMARK  8 active torsions:
REMARK  status: ('A' for Active; 'I' for Inactive)
REMARK    1  A    between atoms: C5_10  and  C6_11 
REMARK    2  A    between atoms: C6_11  and  C7_12 
REMARK    3  A    between atoms: C7_12  and  O3_13 
REMARK    4  A    between atoms: C7_12  and  N3_15 
REMARK    5  A    between atoms: C7_12  and  C8_20 
REMARK    6  A    between atoms: N3_15  and  N4_17 
REMARK    7  A    between atoms: C8_20  and  N5_21 
REMARK    8  A    between atoms: C8_20  and  C9_25 
ROOT
HETATM    1  C7  UNL     1      10.843  18.618  11.724  1.00  0.00     0.185 C 
ENDROOT
BRANCH   1   2
HETATM    2  C6  UNL     1       9.474  18.261  11.359  1.00  0.00     0.106 C 
BRANCH   2   3
HETATM    3  C5  UNL     1       9.131  16.912  10.954  1.00  0.00    -0.018 A 
HETATM    4  C4  UNL     1       9.235  16.354   9.695  1.00  0.00     0.084 A 
HETATM    5  C3  UNL     1       9.584  16.816   8.437  1.00  0.00     0.264 A 
HETATM    6  C11 UNL     1       8.869  15.013   9.735  1.00  0.00     0.127 A 
HETATM    7  N2  UNL     1       9.562  16.008   7.367  1.00  0.00    -0.274 N 
HETATM    8  O2  UNL     1       9.923  18.002   8.291  1.00  0.00    -0.267 OA
HETATM    9  C2  UNL     1       9.196  14.705   7.469  1.00  0.00     0.330 A 
ATOM     10  H2  UNL     1       9.827  16.381   6.456  1.00  0.00     0.173 HD
HETATM   11  N1  UNL     1       8.846  14.201   8.663  1.00  0.00    -0.289 N 
HETATM   12  O1  UNL     1       9.175  13.947   6.469  1.00  0.00    -0.246 OA
HETATM   13  C1  UNL     1       8.449  12.801   8.807  1.00  0.00     0.163 C 
HETATM   14  N7  UNL     1       8.541  14.751  11.010  1.00  0.00    -0.351 N 
HETATM   15  C10 UNL     1       8.690  15.858  11.737  1.00  0.00     0.098 A 
ATOM     16  H7  UNL     1       8.227  13.848  11.366  1.00  0.00     0.166 HD
ENDBRANCH   2   3
ENDBRANCH   1   2
BRANCH   1  17
HETATM   17  O3  UNL     1      11.731  17.879  10.881  1.00  0.00    -0.367 OA
ATOM     18  H3  UNL     1      11.518  16.958  10.969  1.00  0.00     0.212 HD
ENDBRANCH   1  17
BRANCH   1  19
HETATM   19  N3  UNL     1      11.324  18.342  13.046  1.00  0.00    -0.306 N 
ATOM     20  H3  UNL     1      12.320  18.213  13.224  1.00  0.00     0.183 HD
BRANCH  19  21
HETATM   21  N4  UNL     1      10.418  18.257  14.052  1.00  0.00    -0.347 N 
ATOM     22  H42 UNL     1       9.421  18.279  13.843  1.00  0.00     0.176 HD
ATOM     23  H41 UNL     1      10.767  18.171  15.008  1.00  0.00     0.176 HD
ENDBRANCH  19  21
ENDBRANCH   1  19
BRANCH   1  24
HETATM   24  C8  UNL     1      11.240  20.070  11.364  1.00  0.00     0.328 C 
BRANCH  24  25
HETATM   25  N5  UNL     1      10.842  20.200   9.935  1.00  0.00    -0.062 N 
ATOM     26  H53 UNL     1      10.704  19.311   9.455  1.00  0.00     0.275 HD
ATOM     27  H52 UNL     1       9.895  20.549   9.792  1.00  0.00     0.275 HD
ATOM     28  H51 UNL     1      11.573  20.788   9.534  1.00  0.00     0.275 HD
ENDBRANCH  24  25
BRANCH  24  29
HETATM   29  C9  UNL     1      10.437  21.077  12.072  1.00  0.00     0.266 C 
HETATM   30  N6  UNL     1       9.329  21.794  11.587  1.00  0.00    -0.060 NA
HETATM   31  O4  UNL     1      10.765  21.353  13.280  1.00  0.00    -0.274 OA
ENDBRANCH  24  29
ENDBRANCH   1  24
TORSDOF 8
ENDMDL
MODEL 2
REMARK VINA RESULT: -7.026864809      2.539      6.570
REMARK  8 active torsions:
REMARK  status: ('A' for Active; 'I' for Inactive)
REMARK    1  A    between atoms: C5_10  and  C6_11 
REMARK    2  A    between atoms: C6_11  and  C7_12 
REMARK    3  A    between atoms: C7_12  and  O3_13 
REMARK    4  A    between atoms: C7_12  and  N3_15 
REMARK    5  A    between atoms: C7_12  and  C8_20 
REMARK    6  A    between atoms: N3_15  and  N4_17 
REMARK    7  A    between atoms: C8_20  and  N5_21 
REMARK    8  A    between atoms: C8_20  and  C9_25 
ROOT
HETATM    1  C7  UNL     1      10.700  14.502   7.788  1.00  0.00     0.185 C 
ENDROOT
BRANCH   1   2
HETATM    2  C6  UNL     1      11.713  15.419   7.273  1.00  0.00     0.106 C 
BRANCH   2   3
HETATM    3  C5  UNL     1      12.426  16.324   8.152  1.00  0.00    -0.018 A 
HETATM    4  C4  UNL     1      11.920  17.407   8.844  1.00  0.00     0.084 A 
HETATM    5  C3  UNL     1      10.695  18.050   8.910  1.00  0.00     0.264 A 
HETATM    6  C11 UNL     1      12.913  17.977   9.632  1.00  0.00     0.127 A 
HETATM    7  N2  UNL     1      10.516  19.130   9.684  1.00  0.00    -0.274 N 
HETATM    8  O2  UNL     1       9.740  17.622   8.240  1.00  0.00    -0.267 OA
HETATM    9  C2  UNL     1      11.527  19.641  10.433  1.00  0.00     0.330 A 
ATOM     10  H2  UNL     1       9.600  19.577   9.710  1.00  0.00     0.173 HD
HETATM   11  N1  UNL     1      12.737  19.061  10.408  1.00  0.00    -0.289 N 
HETATM   12  O1  UNL     1      11.361  20.653  11.158  1.00  0.00    -0.246 OA
HETATM   13  C1  UNL     1      13.844  19.587  11.206  1.00  0.00     0.163 C 
HETATM   14  N7  UNL     1      14.023  17.251   9.423  1.00  0.00    -0.351 N 
HETATM   15  C10 UNL     1      13.751  16.277   8.555  1.00  0.00     0.098 A 
ATOM     16  H7  UNL     1      14.930  17.418   9.859  1.00  0.00     0.166 HD
ENDBRANCH   2   3
ENDBRANCH   1   2
BRANCH   1  17
HETATM   17  O3  UNL     1      10.923  13.220   7.195  1.00  0.00    -0.367 OA
ATOM     18  H3  UNL     1      10.299  12.611   7.571  1.00  0.00     0.212 HD
ENDBRANCH   1  17
BRANCH   1  19
HETATM   19  N3  UNL     1       9.312  14.755   7.532  1.00  0.00    -0.306 N 
ATOM     20  H3  UNL     1       8.600  14.511   8.220  1.00  0.00     0.183 HD
BRANCH  19  21
HETATM   21  N4  UNL     1       8.973  15.327   6.350  1.00  0.00    -0.347 N 
ATOM     22  H42 UNL     1       9.674  15.833   5.808  1.00  0.00     0.176 HD
ATOM     23  H41 UNL     1       8.009  15.235   6.029  1.00  0.00     0.176 HD
ENDBRANCH  19  21
ENDBRANCH   1  19
BRANCH   1  24
HETATM   24  C8  UNL     1      10.855  14.160   9.289  1.00  0.00     0.328 C 
BRANCH  24  25
HETATM   25  N5  UNL     1       9.650  14.770   9.916  1.00  0.00    -0.062 N 
ATOM     26  H53 UNL     1       9.158  15.436   9.321  1.00  0.00     0.275 HD
ATOM     27  H52 UNL     1       8.865  14.129  10.033  1.00  0.00     0.275 HD
ATOM     28  H51 UNL     1      10.005  15.165  10.787  1.00  0.00     0.275 HD
ENDBRANCH  24  25
BRANCH  24  29
HETATM   29  C9  UNL     1      10.735  12.721   9.565  1.00  0.00     0.266 C 
HETATM   30  N6  UNL     1      11.767  11.801   9.816  1.00  0.00    -0.060 NA
HETATM   31  O4  UNL     1       9.555  12.219   9.586  1.00  0.00    -0.274 OA
ENDBRANCH  24  29
ENDBRANCH   1  24
TORSDOF 8
ENDMDL
MODEL 3
REMARK VINA RESULT: -6.970087414      2.052      3.019
REMARK  8 active torsions:
REMARK  status: ('A' for Active; 'I' for Inactive)
REMARK    1  A    between atoms: C5_10  and  C6_11 
REMARK    2  A    between atoms: C6_11  and  C7_12 
REMARK    3  A    between atoms: C7_12  and  O3_13 
REMARK    4  A    between atoms: C7_12  and  N3_15 
REMARK    5  A    between atoms: C7_12  and  C8_20 
REMARK    6  A    between atoms: N3_15  and  N4_17 
REMARK    7  A    between atoms: C8_20  and  N5_21 
REMARK    8  A    between atoms: C8_20  and  C9_25 
ROOT
HETATM    1  C7  UNL     1      11.459  19.904  10.811  1.00  0.00     0.185 C 
ENDROOT
BRANCH   1   2
HETATM    2  C6  UNL     1      11.649  18.463  10.958  1.00  0.00     0.106 C 
BRANCH   2   3
HETATM    3  C5  UNL     1      11.867  17.611   9.806  1.00  0.00    -0.018 A 
HETATM    4  C4  UNL     1      10.917  16.987   9.022  1.00  0.00     0.084 A 
HETATM    5  C3  UNL     1       9.538  16.861   9.057  1.00  0.00     0.264 A 
HETATM    6  C11 UNL     1      11.530  16.314   7.972  1.00  0.00     0.127 A 
HETATM    7  N2  UNL     1       8.880  16.142   8.136  1.00  0.00    -0.274 N 
HETATM    8  O2  UNL     1       8.893  17.420   9.959  1.00  0.00    -0.267 OA
HETATM    9  C2  UNL     1       9.536  15.507   7.130  1.00  0.00     0.330 A 
ATOM     10  H2  UNL     1       7.865  16.072   8.190  1.00  0.00     0.173 HD
HETATM   11  N1  UNL     1      10.873  15.592   7.046  1.00  0.00    -0.289 N 
HETATM   12  O1  UNL     1       8.922  14.834   6.267  1.00  0.00    -0.246 OA
HETATM   13  C1  UNL     1      11.608  14.922   5.974  1.00  0.00     0.163 C 
HETATM   14  N7  UNL     1      12.849  16.521   8.111  1.00  0.00    -0.351 N 
HETATM   15  C10 UNL     1      13.061  17.281   9.185  1.00  0.00     0.098 A 
ATOM     16  H7  UNL     1      13.574  16.155   7.493  1.00  0.00     0.166 HD
ENDBRANCH   2   3
ENDBRANCH   1   2
BRANCH   1  17
HETATM   17  O3  UNL     1      10.789  20.135   9.568  1.00  0.00    -0.367 OA
ATOM     18  H3  UNL     1       9.885  20.353   9.760  1.00  0.00     0.212 HD
ENDBRANCH   1  17
BRANCH   1  19
HETATM   19  N3  UNL     1      12.598  20.771  10.746  1.00  0.00    -0.306 N 
ATOM     20  H3  UNL     1      12.487  21.770  10.573  1.00  0.00     0.183 HD
BRANCH  19  21
HETATM   21  N4  UNL     1      13.829  20.227  10.921  1.00  0.00    -0.347 N 
ATOM     22  H42 UNL     1      13.976  19.523  11.645  1.00  0.00     0.176 HD
ATOM     23  H41 UNL     1      14.586  20.541  10.313  1.00  0.00     0.176 HD
ENDBRANCH  19  21
ENDBRANCH   1  19
BRANCH   1  24
HETATM   24  C8  UNL     1      10.446  20.518  11.807  1.00  0.00     0.328 C 
BRANCH  24  25
HETATM   25  N5  UNL     1       9.279  19.597  11.734  1.00  0.00    -0.062 N 
ATOM     26  H53 UNL     1       8.821  19.569  10.824  1.00  0.00     0.275 HD
ATOM     27  H52 UNL     1       9.521  18.607  11.764  1.00  0.00     0.275 HD
ATOM     28  H51 UNL     1       8.679  19.907  12.499  1.00  0.00     0.275 HD
ENDBRANCH  24  25
BRANCH  24  29
HETATM   29  C9  UNL     1      10.898  20.444  13.203  1.00  0.00     0.266 C 
HETATM   30  N6  UNL     1      12.204  20.602  13.698  1.00  0.00    -0.060 NA
HETATM   31  O4  UNL     1      10.012  20.210  14.100  1.00  0.00    -0.274 OA
ENDBRANCH  24  29
ENDBRANCH   1  24
TORSDOF 8
ENDMDL
MODEL 4
REMARK VINA RESULT: -6.949578162      2.078      2.304
REMARK  8 active torsions:
REMARK  status: ('A' for Active; 'I' for Inactive)
REMARK    1  A    between atoms: C5_10  and  C6_11 
REMARK    2  A    between atoms: C6_11  and  C7_12 
REMARK    3  A    between atoms: C7_12  and  O3_13 
REMARK    4  A    between atoms: C7_12  and  N3_15 
REMARK    5  A    between atoms: C7_12  and  C8_20 
REMARK    6  A    between atoms: N3_15  and  N4_17 
REMARK    7  A    between atoms: C8_20  and  N5_21 
REMARK    8  A    between atoms: C8_20  and  C9_25 
ROOT
HETATM    1  C7  UNL     1      11.687  18.937  10.962  1.00  0.00     0.185 C 
ENDROOT
BRANCH   1   2
HETATM    2  C6  UNL     1      12.484  18.135  10.038  1.00  0.00     0.106 C 
BRANCH   2   3
HETATM    3  C5  UNL     1      12.141  16.757   9.747  1.00  0.00    -0.018 A 
HETATM    4  C4  UNL     1      11.186  16.290   8.866  1.00  0.00     0.084 A 
HETATM    5  C3  UNL     1      10.222  16.870   8.059  1.00  0.00     0.264 A 
HETATM    6  C11 UNL     1      11.213  14.901   8.824  1.00  0.00     0.127 A 
HETATM    7  N2  UNL     1       9.398  16.122   7.310  1.00  0.00    -0.274 N 
HETATM    8  O2  UNL     1      10.111  18.106   8.026  1.00  0.00    -0.267 OA
HETATM    9  C2  UNL     1       9.474  14.766   7.311  1.00  0.00     0.330 A 
ATOM     10  H2  UNL     1       8.701  16.582   6.726  1.00  0.00     0.173 HD
HETATM   11  N1  UNL     1      10.388  14.148   8.074  1.00  0.00    -0.289 N 
HETATM   12  O1  UNL     1       8.704  14.064   6.610  1.00  0.00    -0.246 OA
HETATM   13  C1  UNL     1      10.495  12.689   8.096  1.00  0.00     0.163 C 
HETATM   14  N7  UNL     1      12.176  14.516   9.677  1.00  0.00    -0.351 N 
HETATM   15  C10 UNL     1      12.730  15.597  10.226  1.00  0.00     0.098 A 
ATOM     16  H7  UNL     1      12.443  13.552   9.874  1.00  0.00     0.166 HD
ENDBRANCH   2   3
ENDBRANCH   1   2
BRANCH   1  17
HETATM   17  O3  UNL     1      11.312  18.100  12.060  1.00  0.00    -0.367 OA
ATOM     18  H3  UNL     1      10.483  17.689  11.845  1.00  0.00     0.212 HD
ENDBRANCH   1  17
BRANCH   1  19
HETATM   19  N3  UNL     1      10.443  19.500  10.528  1.00  0.00    -0.306 N 
ATOM     20  H3  UNL     1      10.422  20.277   9.868  1.00  0.00     0.183 HD
BRANCH  19  21
HETATM   21  N4  UNL     1       9.294  18.973  11.020  1.00  0.00    -0.347 N 
ATOM     22  H42 UNL     1       9.233  18.713  12.005  1.00  0.00     0.176 HD
ATOM     23  H41 UNL     1       8.508  18.848  10.381  1.00  0.00     0.176 HD
ENDBRANCH  19  21
ENDBRANCH   1  19
BRANCH   1  24
HETATM   24  C8  UNL     1      12.483  20.042  11.697  1.00  0.00     0.328 C 
BRANCH  24  25
HETATM   25  N5  UNL     1      12.269  21.250  10.853  1.00  0.00    -0.062 N 
ATOM     26  H53 UNL     1      12.302  21.073   9.849  1.00  0.00     0.275 HD
ATOM     27  H52 UNL     1      11.316  21.611  10.868  1.00  0.00     0.275 HD
ATOM     28  H51 UNL     1      12.974  21.906  11.189  1.00  0.00     0.275 HD
ENDBRANCH  24  25
BRANCH  24  29
HETATM   29  C9  UNL     1      11.908  20.390  13.005  1.00  0.00     0.266 C 
HETATM   30  N6  UNL     1      10.632  20.912  13.275  1.00  0.00    -0.060 NA
HETATM   31  O4  UNL     1      12.640  20.203  14.041  1.00  0.00    -0.274 OA
ENDBRANCH  24  29
ENDBRANCH   1  24
TORSDOF 8
ENDMDL
MODEL 5
REMARK VINA RESULT: -6.909884044      2.816      6.891
REMARK  8 active torsions:
REMARK  status: ('A' for Active; 'I' for Inactive)
REMARK    1  A    between atoms: C5_10  and  C6_11 
REMARK    2  A    between atoms: C6_11  and  C7_12 
REMARK    3  A    between atoms: C7_12  and  O3_13 
REMARK    4  A    between atoms: C7_12  and  N3_15 
REMARK    5  A    between atoms: C7_12  and  C8_20 
REMARK    6  A    between atoms: N3_15  and  N4_17 
REMARK    7  A    between atoms: C8_20  and  N5_21 
REMARK    8  A    between atoms: C8_20  and  C9_25 
ROOT
HETATM    1  C7  UNL     1      10.792  19.765  10.680  1.00  0.00     0.185 C 
ENDROOT
BRANCH   1   2
HETATM    2  C6  UNL     1      12.109  20.086  11.225  1.00  0.00     0.106 C 
BRANCH   2   3
HETATM    3  C5  UNL     1      12.585  19.477  12.451  1.00  0.00    -0.018 A 
HETATM    4  C4  UNL     1      12.271  19.830  13.750  1.00  0.00     0.084 A 
HETATM    5  C3  UNL     1      11.533  20.838  14.346  1.00  0.00     0.264 A 
HETATM    6  C11 UNL     1      12.880  18.956  14.642  1.00  0.00     0.127 A 
HETATM    7  N2  UNL     1      11.433  20.933  15.680  1.00  0.00    -0.274 N 
HETATM    8  O2  UNL     1      10.951  21.676  13.637  1.00  0.00    -0.267 OA
HETATM    9  C2  UNL     1      12.052  20.046  16.502  1.00  0.00     0.330 A 
ATOM     10  H2  UNL     1      10.880  21.687  16.086  1.00  0.00     0.173 HD
HETATM   11  N1  UNL     1      12.782  19.048  15.981  1.00  0.00    -0.289 N 
HETATM   12  O1  UNL     1      11.959  20.134  17.751  1.00  0.00    -0.246 OA
HETATM   13  C1  UNL     1      13.458  18.077  16.840  1.00  0.00     0.163 C 
HETATM   14  N7  UNL     1      13.566  18.073  13.898  1.00  0.00    -0.351 N 
HETATM   15  C10 UNL     1      13.401  18.368  12.609  1.00  0.00     0.098 A 
ATOM     16  H7  UNL     1      14.124  17.300  14.261  1.00  0.00     0.166 HD
ENDBRANCH   2   3
ENDBRANCH   1   2
BRANCH   1  17
HETATM   17  O3  UNL     1      10.828  20.008   9.271  1.00  0.00    -0.367 OA
ATOM     18  H3  UNL     1      10.902  19.169   8.831  1.00  0.00     0.212 HD
ENDBRANCH   1  17
BRANCH   1  19
HETATM   19  N3  UNL     1       9.641  20.496  11.119  1.00  0.00    -0.306 N 
ATOM     20  H3  UNL     1       8.862  20.022  11.576  1.00  0.00     0.183 HD
BRANCH  19  21
HETATM   21  N4  UNL     1       9.614  21.837  10.910  1.00  0.00    -0.347 N 
ATOM     22  H42 UNL     1       8.723  22.315  10.779  1.00  0.00     0.176 HD
ATOM     23  H41 UNL     1      10.503  22.338  10.889  1.00  0.00     0.176 HD
ENDBRANCH  19  21
ENDBRANCH   1  19
BRANCH   1  24
HETATM   24  C8  UNL     1      10.441  18.258  10.707  1.00  0.00     0.328 C 
BRANCH  24  25
HETATM   25  N5  UNL     1       8.978  18.242  10.979  1.00  0.00    -0.062 N 
ATOM     26  H53 UNL     1       8.691  18.816  11.773  1.00  0.00     0.275 HD
ATOM     27  H52 UNL     1       8.414  18.730  10.284  1.00  0.00     0.275 HD
ATOM     28  H51 UNL     1       8.761  17.250  11.076  1.00  0.00     0.275 HD
ENDBRANCH  24  25
BRANCH  24  29
HETATM   29  C9  UNL     1      10.587  17.611   9.395  1.00  0.00     0.266 C 
HETATM   30  N6  UNL     1      11.775  17.238   8.745  1.00  0.00    -0.060 NA
HETATM   31  O4  UNL     1       9.515  17.343   8.746  1.00  0.00    -0.274 OA
ENDBRANCH  24  29
ENDBRANCH   1  24
TORSDOF 8
ENDMDL
