MODEL 1
REMARK VINA RESULT: -7.885358432      0.000      0.000
REMARK  9 active torsions:
REMARK  status: ('A' for Active; 'I' for Inactive)
REMARK    1  A    between atoms: O1_2  and  C2_3 
REMARK    2  A    between atoms: C2_3  and  C3_4 
REMARK       I    between atoms: C3_4  and  N1_6 
REMARK    3  A    between atoms: N1_6  and  C4_8 
REMARK    4  A    between atoms: C5_11  and  N3_12 
REMARK    5  A    between atoms: N3_12  and  C6_14 
REMARK    6  A    between atoms: N5_18  and  C9_19 
REMARK    7  A    between atoms: C9_19  and  O3_20 
REMARK    8  A    between atoms: C9_19  and  N6_22 
REMARK    9  A    between atoms: N6_22  and  N7_23 
ROOT
HETATM    1  C4  UNL     1     -12.900 -18.038   9.707  1.00  0.00     0.688 A 
HETATM    2  N2  UNL     1     -11.768 -17.637   9.140  1.00  0.00    -0.174 N 
ATOM      3  H2  UNL     1     -11.775 -16.776   8.594  1.00  0.00     0.186 HD
HETATM    4  C5  UNL     1     -10.596 -18.327   9.259  1.00  0.00     0.150 A 
HETATM    5  C10 UNL     1     -10.609 -19.487  10.001  1.00  0.00     0.137 A 
HETATM    6  N8  UNL     1      -9.517 -20.233  10.177  1.00  0.00    -0.293 N 
ATOM      7  H8  UNL     1      -8.632 -19.951   9.754  1.00  0.00     0.187 HD
HETATM    8  N9  UNL     1      -9.580 -21.331  10.894  1.00  0.00    -0.295 N 
ATOM      9  H9  UNL     1      -8.731 -21.884  11.012  1.00  0.00     0.187 HD
HETATM   10  C11 UNL     1     -10.711 -21.761  11.479  1.00  0.00     0.199 A 
HETATM   11  N10 UNL     1     -11.840 -21.052  11.337  1.00  0.00    -0.335 N 
ATOM     12  H10 UNL     1     -12.711 -21.358  11.772  1.00  0.00     0.168 HD
HETATM   13  C12 UNL     1     -11.787 -19.917  10.598  1.00  0.00     0.154 A 
HETATM   14  N11 UNL     1     -12.896 -19.169  10.426  1.00  0.00    -0.174 N 
ATOM     15  H11 UNL     1     -13.766 -19.476  10.861  1.00  0.00     0.186 HD
ENDROOT
BRANCH   4  16
HETATM   16  N3  UNL     1      -9.567 -17.900   8.705  1.00  0.00    -0.356 N 
ATOM     17  H3  UNL     1      -9.137 -18.624   8.129  1.00  0.00     0.162 HD
BRANCH  16  18
HETATM   18  C6  UNL     1      -8.832 -16.716   8.646  1.00  0.00     0.180 C 
HETATM   19  C7  UNL     1      -8.492 -16.136  10.023  1.00  0.00     0.059 C 
HETATM   20  C8  UNL     1      -8.184 -14.688   9.617  1.00  0.00     0.132 C 
HETATM   21  N4  UNL     1      -9.018 -14.439   8.470  1.00  0.00    -0.160 NA
HETATM   22  N5  UNL     1      -9.657 -15.605   8.137  1.00  0.00    -0.167 NA
BRANCH  22  23
HETATM   23  C9  UNL     1      -9.894 -15.796   6.734  1.00  0.00     0.327 C 
BRANCH  23  24
HETATM   24  O3  UNL     1     -11.273 -15.663   6.480  1.00  0.00    -0.364 OA
ATOM     25  H3  UNL     1     -11.422 -15.729   5.544  1.00  0.00     0.213 HD
ENDBRANCH  23  24
BRANCH  23  26
HETATM   26  N6  UNL     1      -9.182 -14.890   5.873  1.00  0.00    -0.099 NA
BRANCH  26  27
HETATM   27  N7  UNL     1      -9.909 -13.786   5.482  1.00  0.00    -0.345 N 
ATOM     28  H72 UNL     1     -10.139 -13.033   6.131  1.00  0.00     0.172 HD
ATOM     29  H71 UNL     1     -10.191 -13.793   4.502  1.00  0.00     0.172 HD
ENDBRANCH  26  27
ENDBRANCH  23  26
ENDBRANCH  22  23
ENDBRANCH  16  18
ENDBRANCH   4  16
BRANCH   1  30
HETATM   30  N1  UNL     1     -14.016 -17.390   9.600  1.00  0.00    -0.158 N 
HETATM   31  C3  UNL     1     -14.057 -16.065   9.092  1.00  0.00     0.259 C 
HETATM   32  O2  UNL     1     -14.028 -15.829   7.858  1.00  0.00    -0.270 OA
ATOM     33  H1  UNL     1     -14.885 -17.841   9.887  1.00  0.00     0.187 HD
BRANCH  31  34
HETATM   34  C2  UNL     1     -14.134 -14.909  10.017  1.00  0.00     0.270 C 
BRANCH  34  35
HETATM   35  O1  UNL     1     -13.229 -13.915   9.655  1.00  0.00    -0.387 OA
HETATM   36  C1  UNL     1     -12.050 -14.177  10.370  1.00  0.00     0.202 C 
ENDBRANCH  34  35
ENDBRANCH  31  34
ENDBRANCH   1  30
TORSDOF 9
ENDMDL
MODEL 2
REMARK VINA RESULT: -7.839408513      1.440      1.615
REMARK  9 active torsions:
REMARK  status: ('A' for Active; 'I' for Inactive)
REMARK    1  A    between atoms: O1_2  and  C2_3 
REMARK    2  A    between atoms: C2_3  and  C3_4 
REMARK       I    between atoms: C3_4  and  N1_6 
REMARK    3  A    between atoms: N1_6  and  C4_8 
REMARK    4  A    between atoms: C5_11  and  N3_12 
REMARK    5  A    between atoms: N3_12  and  C6_14 
REMARK    6  A    between atoms: N5_18  and  C9_19 
REMARK    7  A    between atoms: C9_19  and  O3_20 
REMARK    8  A    between atoms: C9_19  and  N6_22 
REMARK    9  A    between atoms: N6_22  and  N7_23 
ROOT
HETATM    1  C4  UNL     1     -13.007 -17.518   9.387  1.00  0.00     0.688 A 
HETATM    2  N2  UNL     1     -11.891 -17.069   8.824  1.00  0.00    -0.174 N 
ATOM      3  H2  UNL     1     -11.929 -16.200   8.291  1.00  0.00     0.186 HD
HETATM    4  C5  UNL     1     -10.695 -17.719   8.930  1.00  0.00     0.150 A 
HETATM    5  C10 UNL     1     -10.666 -18.890   9.655  1.00  0.00     0.137 A 
HETATM    6  N8  UNL     1      -9.548 -19.600   9.818  1.00  0.00    -0.293 N 
ATOM      7  H8  UNL     1      -8.675 -19.281   9.398  1.00  0.00     0.187 HD
HETATM    8  N9  UNL     1      -9.572 -20.710  10.519  1.00  0.00    -0.295 N 
ATOM      9  H9  UNL     1      -8.704 -21.234  10.628  1.00  0.00     0.187 HD
HETATM   10  C11 UNL     1     -10.686 -21.187  11.099  1.00  0.00     0.199 A 
HETATM   11  N10 UNL     1     -11.839 -20.517  10.970  1.00  0.00    -0.335 N 
ATOM     12  H10 UNL     1     -12.698 -20.858  11.402  1.00  0.00     0.168 HD
HETATM   13  C12 UNL     1     -11.827 -19.369  10.248  1.00  0.00     0.154 A 
HETATM   14  N11 UNL     1     -12.962 -18.658  10.089  1.00  0.00    -0.174 N 
ATOM     15  H11 UNL     1     -13.819 -19.002  10.521  1.00  0.00     0.186 HD
ENDROOT
BRANCH   4  16
HETATM   16  N3  UNL     1      -9.683 -17.249   8.381  1.00  0.00    -0.356 N 
ATOM     17  H3  UNL     1      -9.387 -17.834   7.600  1.00  0.00     0.162 HD
BRANCH  16  18
HETATM   18  C6  UNL     1      -8.836 -16.149   8.526  1.00  0.00     0.180 C 
HETATM   19  C7  UNL     1      -8.575 -15.766   9.986  1.00  0.00     0.059 C 
HETATM   20  C8  UNL     1      -8.092 -14.322   9.786  1.00  0.00     0.132 C 
HETATM   21  N4  UNL     1      -8.787 -13.860   8.612  1.00  0.00    -0.160 NA
HETATM   22  N5  UNL     1      -9.500 -14.907   8.089  1.00  0.00    -0.167 NA
BRANCH  22  23
HETATM   23  C9  UNL     1      -9.620 -14.914   6.658  1.00  0.00     0.327 C 
BRANCH  23  24
HETATM   24  O3  UNL     1      -8.395 -15.325   6.099  1.00  0.00    -0.364 OA
ATOM     25  H3  UNL     1      -8.533 -15.546   5.185  1.00  0.00     0.213 HD
ENDBRANCH  23  24
BRANCH  23  26
HETATM   26  N6  UNL     1     -10.664 -15.760   6.144  1.00  0.00    -0.099 NA
BRANCH  26  27
HETATM   27  N7  UNL     1     -10.318 -16.465   5.011  1.00  0.00    -0.345 N 
ATOM     28  H72 UNL     1     -10.018 -15.998   4.155  1.00  0.00     0.172 HD
ATOM     29  H71 UNL     1     -10.390 -17.478   5.107  1.00  0.00     0.172 HD
ENDBRANCH  26  27
ENDBRANCH  23  26
ENDBRANCH  22  23
ENDBRANCH  16  18
ENDBRANCH   4  16
BRANCH   1  30
HETATM   30  N1  UNL     1     -14.145 -16.907   9.292  1.00  0.00    -0.158 N 
HETATM   31  C3  UNL     1     -14.301 -15.561   9.714  1.00  0.00     0.259 C 
HETATM   32  O2  UNL     1     -13.945 -14.596   8.991  1.00  0.00    -0.270 OA
ATOM     33  H1  UNL     1     -14.947 -17.405   8.905  1.00  0.00     0.187 HD
BRANCH  31  34
HETATM   34  C2  UNL     1     -14.893 -15.253  11.037  1.00  0.00     0.270 C 
BRANCH  34  35
HETATM   35  O1  UNL     1     -15.589 -16.348  11.542  1.00  0.00    -0.387 OA
HETATM   36  C1  UNL     1     -14.978 -16.673  12.763  1.00  0.00     0.202 C 
ENDBRANCH  34  35
ENDBRANCH  31  34
ENDBRANCH   1  30
TORSDOF 9
ENDMDL
MODEL 3
REMARK VINA RESULT: -7.810006115      2.712      4.470
REMARK  9 active torsions:
REMARK  status: ('A' for Active; 'I' for Inactive)
REMARK    1  A    between atoms: O1_2  and  C2_3 
REMARK    2  A    between atoms: C2_3  and  C3_4 
REMARK       I    between atoms: C3_4  and  N1_6 
REMARK    3  A    between atoms: N1_6  and  C4_8 
REMARK    4  A    between atoms: C5_11  and  N3_12 
REMARK    5  A    between atoms: N3_12  and  C6_14 
REMARK    6  A    between atoms: N5_18  and  C9_19 
REMARK    7  A    between atoms: C9_19  and  O3_20 
REMARK    8  A    between atoms: C9_19  and  N6_22 
REMARK    9  A    between atoms: N6_22  and  N7_23 
ROOT
HETATM    1  C4  UNL     1     -10.428 -19.367   9.923  1.00  0.00     0.688 A 
HETATM    2  N2  UNL     1      -9.648 -18.551   9.224  1.00  0.00    -0.174 N 
ATOM      3  H2  UNL     1      -8.657 -18.778   9.138  1.00  0.00     0.186 HD
HETATM    4  C5  UNL     1     -10.115 -17.422   8.616  1.00  0.00     0.150 A 
HETATM    5  C10 UNL     1     -11.456 -17.133   8.744  1.00  0.00     0.137 A 
HETATM    6  N8  UNL     1     -12.010 -16.054   8.188  1.00  0.00    -0.293 N 
ATOM      7  H8  UNL     1     -11.436 -15.409   7.645  1.00  0.00     0.187 HD
HETATM    8  N9  UNL     1     -13.293 -15.824   8.339  1.00  0.00    -0.295 N 
ATOM      9  H9  UNL     1     -13.691 -14.992   7.904  1.00  0.00     0.187 HD
HETATM   10  C11 UNL     1     -14.106 -16.632   9.040  1.00  0.00     0.199 A 
HETATM   11  N10 UNL     1     -13.606 -17.731   9.621  1.00  0.00    -0.335 N 
ATOM     12  H10 UNL     1     -14.203 -18.361  10.158  1.00  0.00     0.168 HD
HETATM   13  C12 UNL     1     -12.282 -17.980   9.473  1.00  0.00     0.154 A 
HETATM   14  N11 UNL     1     -11.731 -19.073  10.038  1.00  0.00    -0.174 N 
ATOM     15  H11 UNL     1     -12.329 -19.701  10.575  1.00  0.00     0.186 HD
ENDROOT
BRANCH   4  16
HETATM   16  N3  UNL     1      -9.335 -16.696   7.973  1.00  0.00    -0.356 N 
ATOM     17  H3  UNL     1      -9.179 -17.069   7.037  1.00  0.00     0.162 HD
BRANCH  16  18
HETATM   18  C6  UNL     1      -8.612 -15.518   8.166  1.00  0.00     0.180 C 
HETATM   19  C7  UNL     1      -8.461 -15.127   9.639  1.00  0.00     0.059 C 
HETATM   20  C8  UNL     1      -8.118 -13.639   9.470  1.00  0.00     0.132 C 
HETATM   21  N4  UNL     1      -8.799 -13.237   8.267  1.00  0.00    -0.160 NA
HETATM   22  N5  UNL     1      -9.377 -14.345   7.704  1.00  0.00    -0.167 NA
BRANCH  22  23
HETATM   23  C9  UNL     1      -9.426 -14.349   6.269  1.00  0.00     0.327 C 
BRANCH  23  24
HETATM   24  O3  UNL     1      -8.320 -15.067   5.775  1.00  0.00    -0.364 OA
ATOM     25  H3  UNL     1      -8.522 -15.382   4.902  1.00  0.00     0.213 HD
ENDBRANCH  23  24
BRANCH  23  26
HETATM   26  N6  UNL     1     -10.624 -14.914   5.708  1.00  0.00    -0.099 NA
BRANCH  26  27
HETATM   27  N7  UNL     1     -10.405 -15.812   4.685  1.00  0.00    -0.345 N 
ATOM     28  H72 UNL     1     -10.877 -15.731   3.785  1.00  0.00     0.172 HD
ATOM     29  H71 UNL     1      -9.738 -16.550   4.909  1.00  0.00     0.172 HD
ENDBRANCH  26  27
ENDBRANCH  23  26
ENDBRANCH  22  23
ENDBRANCH  16  18
ENDBRANCH   4  16
BRANCH   1  30
HETATM   30  N1  UNL     1      -9.994 -20.441  10.503  1.00  0.00    -0.158 N 
HETATM   31  C3  UNL     1     -10.621 -20.958  11.667  1.00  0.00     0.259 C 
HETATM   32  O2  UNL     1     -11.667 -21.652  11.602  1.00  0.00    -0.270 OA
ATOM     33  H1  UNL     1      -9.185 -20.925  10.115  1.00  0.00     0.187 HD
BRANCH  31  34
HETATM   34  C2  UNL     1     -10.051 -20.689  13.009  1.00  0.00     0.270 C 
BRANCH  34  35
HETATM   35  O1  UNL     1     -10.723 -21.407  13.993  1.00  0.00    -0.387 OA
HETATM   36  C1  UNL     1     -11.312 -20.456  14.842  1.00  0.00     0.202 C 
ENDBRANCH  34  35
ENDBRANCH  31  34
ENDBRANCH   1  30
TORSDOF 9
ENDMDL
MODEL 4
REMARK VINA RESULT: -7.606542157      1.889      2.514
REMARK  9 active torsions:
REMARK  status: ('A' for Active; 'I' for Inactive)
REMARK    1  A    between atoms: O1_2  and  C2_3 
REMARK    2  A    between atoms: C2_3  and  C3_4 
REMARK       I    between atoms: C3_4  and  N1_6 
REMARK    3  A    between atoms: N1_6  and  C4_8 
REMARK    4  A    between atoms: C5_11  and  N3_12 
REMARK    5  A    between atoms: N3_12  and  C6_14 
REMARK    6  A    between atoms: N5_18  and  C9_19 
REMARK    7  A    between atoms: C9_19  and  O3_20 
REMARK    8  A    between atoms: C9_19  and  N6_22 
REMARK    9  A    between atoms: N6_22  and  N7_23 
ROOT
HETATM    1  C4  UNL     1     -13.379 -16.323   8.778  1.00  0.00     0.688 A 
HETATM    2  N2  UNL     1     -12.132 -16.151   8.354  1.00  0.00    -0.174 N 
ATOM      3  H2  UNL     1     -11.918 -15.328   7.792  1.00  0.00     0.186 HD
HETATM    4  C5  UNL     1     -11.126 -17.028   8.640  1.00  0.00     0.150 A 
HETATM    5  C10 UNL     1     -11.437 -18.133   9.401  1.00  0.00     0.137 A 
HETATM    6  N8  UNL     1     -10.527 -19.049   9.735  1.00  0.00    -0.293 N 
ATOM      7  H8  UNL     1      -9.561 -18.944   9.424  1.00  0.00     0.187 HD
HETATM    8  N9  UNL     1     -10.873 -20.085  10.463  1.00  0.00    -0.295 N 
ATOM      9  H9  UNL     1     -10.158 -20.771  10.703  1.00  0.00     0.187 HD
HETATM   10  C11 UNL     1     -12.126 -20.284  10.905  1.00  0.00     0.199 A 
HETATM   11  N10 UNL     1     -13.084 -19.397  10.601  1.00  0.00    -0.335 N 
ATOM     12  H10 UNL     1     -14.043 -19.526  10.926  1.00  0.00     0.168 HD
HETATM   13  C12 UNL     1     -12.739 -18.324   9.850  1.00  0.00     0.154 A 
HETATM   14  N11 UNL     1     -13.666 -17.403   9.518  1.00  0.00    -0.174 N 
ATOM     15  H11 UNL     1     -14.624 -17.534   9.842  1.00  0.00     0.186 HD
ENDROOT
BRANCH   4  16
HETATM   16  N3  UNL     1      -9.977 -16.813   8.215  1.00  0.00    -0.356 N 
ATOM     17  H3  UNL     1      -9.687 -17.542   7.565  1.00  0.00     0.162 HD
BRANCH  16  18
HETATM   18  C6  UNL     1      -8.971 -15.859   8.373  1.00  0.00     0.180 C 
HETATM   19  C7  UNL     1      -8.744 -15.443   9.830  1.00  0.00     0.059 C 
HETATM   20  C8  UNL     1      -8.017 -14.110   9.602  1.00  0.00     0.132 C 
HETATM   21  N4  UNL     1      -8.549 -13.607   8.361  1.00  0.00    -0.160 NA
HETATM   22  N5  UNL     1      -9.390 -14.552   7.835  1.00  0.00    -0.167 NA
BRANCH  22  23
HETATM   23  C9  UNL     1      -9.417 -14.618   6.401  1.00  0.00     0.327 C 
BRANCH  23  24
HETATM   24  O3  UNL     1      -8.277 -15.313   5.954  1.00  0.00    -0.364 OA
ATOM     25  H3  UNL     1      -8.304 -15.372   5.006  1.00  0.00     0.213 HD
ENDBRANCH  23  24
BRANCH  23  26
HETATM   26  N6  UNL     1     -10.584 -15.251   5.848  1.00  0.00    -0.099 NA
BRANCH  26  27
HETATM   27  N7  UNL     1     -10.315 -16.186   4.871  1.00  0.00    -0.345 N 
ATOM     28  H72 UNL     1      -9.393 -16.271   4.443  1.00  0.00     0.172 HD
ATOM     29  H71 UNL     1     -11.110 -16.775   4.621  1.00  0.00     0.172 HD
ENDBRANCH  26  27
ENDBRANCH  23  26
ENDBRANCH  22  23
ENDBRANCH  16  18
ENDBRANCH   4  16
BRANCH   1  30
HETATM   30  N1  UNL     1     -14.340 -15.496   8.512  1.00  0.00    -0.158 N 
HETATM   31  C3  UNL     1     -15.697 -15.836   8.751  1.00  0.00     0.259 C 
HETATM   32  O2  UNL     1     -16.207 -15.754   9.897  1.00  0.00    -0.270 OA
ATOM     33  H1  UNL     1     -14.117 -14.580   8.122  1.00  0.00     0.187 HD
BRANCH  31  34
HETATM   34  C2  UNL     1     -16.560 -16.305   7.641  1.00  0.00     0.270 C 
BRANCH  34  35
HETATM   35  O1  UNL     1     -17.496 -15.337   7.288  1.00  0.00    -0.387 OA
HETATM   36  C1  UNL     1     -17.237 -15.008   5.949  1.00  0.00     0.202 C 
ENDBRANCH  34  35
ENDBRANCH  31  34
ENDBRANCH   1  30
TORSDOF 9
ENDMDL
MODEL 5
REMARK VINA RESULT: -7.552980053      2.618      4.853
REMARK  9 active torsions:
REMARK  status: ('A' for Active; 'I' for Inactive)
REMARK    1  A    between atoms: O1_2  and  C2_3 
REMARK    2  A    between atoms: C2_3  and  C3_4 
REMARK       I    between atoms: C3_4  and  N1_6 
REMARK    3  A    between atoms: N1_6  and  C4_8 
REMARK    4  A    between atoms: C5_11  and  N3_12 
REMARK    5  A    between atoms: N3_12  and  C6_14 
REMARK    6  A    between atoms: N5_18  and  C9_19 
REMARK    7  A    between atoms: C9_19  and  O3_20 
REMARK    8  A    between atoms: C9_19  and  N6_22 
REMARK    9  A    between atoms: N6_22  and  N7_23 
ROOT
HETATM    1  C4  UNL     1      -9.824 -18.744   9.556  1.00  0.00     0.688 A 
HETATM    2  N2  UNL     1      -9.752 -17.993   8.463  1.00  0.00    -0.174 N 
ATOM      3  H2  UNL     1     -10.082 -18.384   7.580  1.00  0.00     0.186 HD
HETATM    4  C5  UNL     1      -9.256 -16.721   8.470  1.00  0.00     0.150 A 
HETATM    5  C10 UNL     1      -8.817 -16.212   9.672  1.00  0.00     0.137 A 
HETATM    6  N8  UNL     1      -8.316 -14.981   9.786  1.00  0.00    -0.293 N 
ATOM      7  H8  UNL     1      -8.248 -14.381   8.964  1.00  0.00     0.187 HD
HETATM    8  N9  UNL     1      -7.912 -14.542  10.955  1.00  0.00    -0.295 N 
ATOM      9  H9  UNL     1      -7.532 -13.597  11.014  1.00  0.00     0.187 HD
HETATM   10  C11 UNL     1      -7.973 -15.279  12.076  1.00  0.00     0.199 A 
HETATM   11  N10 UNL     1      -8.467 -16.524  12.024  1.00  0.00    -0.335 N 
ATOM     12  H10 UNL     1      -8.525 -17.103  12.863  1.00  0.00     0.168 HD
HETATM   13  C12 UNL     1      -8.888 -16.989  10.823  1.00  0.00     0.154 A 
HETATM   14  N11 UNL     1      -9.394 -18.235  10.718  1.00  0.00    -0.174 N 
ATOM     15  H11 UNL     1      -9.450 -18.812  11.557  1.00  0.00     0.186 HD
ENDROOT
BRANCH   4  16
HETATM   16  N3  UNL     1      -9.215 -16.066   7.413  1.00  0.00    -0.356 N 
ATOM     17  H3  UNL     1      -8.255 -15.968   7.084  1.00  0.00     0.162 HD
BRANCH  16  18
HETATM   18  C6  UNL     1     -10.105 -15.428   6.549  1.00  0.00     0.180 C 
HETATM   19  C7  UNL     1     -10.377 -16.212   5.261  1.00  0.00     0.059 C 
HETATM   20  C8  UNL     1     -10.917 -15.074   4.383  1.00  0.00     0.132 C 
HETATM   21  N4  UNL     1     -10.245 -13.891   4.856  1.00  0.00    -0.160 NA
HETATM   22  N5  UNL     1      -9.493 -14.227   5.950  1.00  0.00    -0.167 NA
BRANCH  22  23
HETATM   23  C9  UNL     1      -9.377 -13.206   6.953  1.00  0.00     0.327 C 
BRANCH  23  24
HETATM   24  O3  UNL     1     -10.340 -13.437   7.954  1.00  0.00    -0.364 OA
ATOM     25  H3  UNL     1     -10.715 -14.301   7.827  1.00  0.00     0.213 HD
ENDBRANCH  23  24
BRANCH  23  26
HETATM   26  N6  UNL     1      -8.084 -13.114   7.575  1.00  0.00    -0.099 NA
BRANCH  26  27
HETATM   27  N7  UNL     1      -7.524 -11.854   7.537  1.00  0.00    -0.345 N 
ATOM     28  H72 UNL     1      -7.357 -11.363   6.659  1.00  0.00     0.172 HD
ATOM     29  H71 UNL     1      -7.296 -11.468   8.453  1.00  0.00     0.172 HD
ENDBRANCH  26  27
ENDBRANCH  23  26
ENDBRANCH  22  23
ENDBRANCH  16  18
ENDBRANCH   4  16
BRANCH   1  30
HETATM   30  N1  UNL     1     -10.293 -19.951   9.558  1.00  0.00    -0.158 N 
HETATM   31  C3  UNL     1     -11.072 -20.441  10.639  1.00  0.00     0.259 C 
HETATM   32  O2  UNL     1     -12.296 -20.175  10.746  1.00  0.00    -0.270 OA
ATOM     33  H1  UNL     1     -10.098 -20.564   8.766  1.00  0.00     0.187 HD
BRANCH  31  34
HETATM   34  C2  UNL     1     -10.454 -21.289  11.686  1.00  0.00     0.270 C 
BRANCH  34  35
HETATM   35  O1  UNL     1      -9.860 -20.511  12.677  1.00  0.00    -0.387 OA
HETATM   36  C1  UNL     1     -10.714 -20.572  13.789  1.00  0.00     0.202 C 
ENDBRANCH  34  35
ENDBRANCH  31  34
ENDBRANCH   1  30
TORSDOF 9
ENDMDL
