MODEL 1
REMARK VINA RESULT: -8.034247625      0.000      0.000
REMARK  9 active torsions:
REMARK  status: ('A' for Active; 'I' for Inactive)
REMARK    1  A    between atoms: C2_2  and  C3_3 
REMARK    2  A    between atoms: C7_8  and  C8_9 
REMARK    3  A    between atoms: C8_9  and  C9_11 
REMARK    4  A    between atoms: C9_11  and  O3_12 
REMARK    5  A    between atoms: C10_14  and  O4_15 
REMARK    6  A    between atoms: C10_14  and  C11_17 
REMARK    7  A    between atoms: C12_18  and  O5_19 
REMARK    8  A    between atoms: N1_21  and  N2_22 
REMARK    9  A    between atoms: N4_31  and  O8_32 
ROOT
HETATM    1  C3  UNL     1      -9.038 -15.629   9.814  1.00  0.00     0.069 C 
HETATM    2  C4  UNL     1      -9.622 -14.447   9.721  1.00  0.00     0.014 C 
HETATM    3  C5  UNL     1      -9.528 -13.495  10.884  1.00  0.00     0.054 C 
HETATM    4  C6  UNL     1     -10.338 -14.116   8.520  1.00  0.00     0.174 C 
HETATM    5  O1  UNL     1     -10.728 -12.932   8.320  1.00  0.00    -0.292 OA
HETATM    6  C7  UNL     1     -10.631 -15.147   7.508  1.00  0.00     0.195 C 
HETATM    7  C10 UNL     1     -10.387 -16.541   7.982  1.00  0.00     0.213 C 
HETATM    8  N4  UNL     1      -9.092 -16.537   8.701  1.00  0.00    -0.218 N 
ENDROOT
BRANCH   7   9
HETATM    9  O4  UNL     1     -10.224 -17.360   6.823  1.00  0.00    -0.364 OA
ATOM     10  H4  UNL     1      -9.498 -17.002   6.326  1.00  0.00     0.213 HD
ENDBRANCH   7   9
BRANCH   7  11
HETATM   11  C11 UNL     1     -11.428 -17.194   8.774  1.00  0.00     0.121 A 
HETATM   12  C12 UNL     1     -11.123 -18.460   9.327  1.00  0.00     0.182 A 
HETATM   13  N1  UNL     1     -11.988 -19.148  10.073  1.00  0.00    -0.188 N 
HETATM   14  C13 UNL     1     -13.190 -18.592  10.292  1.00  0.00     0.350 A 
HETATM   15  O6  UNL     1     -14.023 -19.229  10.997  1.00  0.00    -0.244 OA
HETATM   16  N3  UNL     1     -13.519 -17.398   9.787  1.00  0.00    -0.273 N 
HETATM   17  C14 UNL     1     -12.659 -16.655   9.014  1.00  0.00     0.265 A 
ATOM     18  H3  UNL     1     -14.447 -17.023   9.984  1.00  0.00     0.173 HD
HETATM   19  O7  UNL     1     -13.078 -15.548   8.593  1.00  0.00    -0.267 OA
BRANCH  12  20
HETATM   20  O5  UNL     1      -9.898 -19.071   9.126  1.00  0.00    -0.344 OA
ATOM     21  H5  UNL     1      -9.827 -19.986   8.881  1.00  0.00     0.219 HD
ENDBRANCH  12  20
BRANCH  13  22
HETATM   22  N2  UNL     1     -11.675 -20.405  10.619  1.00  0.00    -0.332 N 
ATOM     23  H22 UNL     1     -11.621 -20.528  11.629  1.00  0.00     0.177 HD
ATOM     24  H21 UNL     1     -11.493 -21.221  10.036  1.00  0.00     0.177 HD
ENDBRANCH  13  22
ENDBRANCH   7  11
BRANCH   6  25
HETATM   25  C8  UNL     1      -9.771 -14.823   6.301  1.00  0.00     0.167 C 
HETATM   26  O2  UNL     1      -8.573 -14.739   6.382  1.00  0.00    -0.295 OA
BRANCH  25  27
HETATM   27  C9  UNL     1     -10.396 -14.604   4.990  1.00  0.00     0.243 C 
BRANCH  27  28
HETATM   28  O3  UNL     1     -10.375 -15.771   4.209  1.00  0.00    -0.394 OA
ATOM     29  H3  UNL     1     -11.139 -15.828   3.648  1.00  0.00     0.209 HD
ENDBRANCH  27  28
ENDBRANCH  25  27
ENDBRANCH   6  25
BRANCH   8  30
HETATM   30  O8  UNL     1      -8.028 -17.276   8.356  1.00  0.00    -0.284 OA
ATOM     31  H8  UNL     1      -7.549 -17.104   7.554  1.00  0.00     0.245 HD
ENDBRANCH   8  30
BRANCH   1  32
HETATM   32  C2  UNL     1      -8.316 -16.033  11.001  1.00  0.00     0.022 C 
HETATM   33  C1  UNL     1      -8.464 -17.071  11.747  1.00  0.00     0.013 C 
ENDBRANCH   1  32
TORSDOF 9
ENDMDL
MODEL 2
REMARK VINA RESULT: -7.203676339      3.011      6.371
REMARK  9 active torsions:
REMARK  status: ('A' for Active; 'I' for Inactive)
REMARK    1  A    between atoms: C2_2  and  C3_3 
REMARK    2  A    between atoms: C7_8  and  C8_9 
REMARK    3  A    between atoms: C8_9  and  C9_11 
REMARK    4  A    between atoms: C9_11  and  O3_12 
REMARK    5  A    between atoms: C10_14  and  O4_15 
REMARK    6  A    between atoms: C10_14  and  C11_17 
REMARK    7  A    between atoms: C12_18  and  O5_19 
REMARK    8  A    between atoms: N1_21  and  N2_22 
REMARK    9  A    between atoms: N4_31  and  O8_32 
ROOT
HETATM    1  C3  UNL     1     -11.707 -18.374  10.401  1.00  0.00     0.069 C 
HETATM    2  C4  UNL     1     -12.674 -18.521  11.290  1.00  0.00     0.014 C 
HETATM    3  C5  UNL     1     -14.067 -18.076  10.929  1.00  0.00     0.054 C 
HETATM    4  C6  UNL     1     -12.362 -19.085  12.574  1.00  0.00     0.174 C 
HETATM    5  O1  UNL     1     -13.290 -19.425  13.360  1.00  0.00    -0.292 OA
HETATM    6  C7  UNL     1     -10.962 -19.275  12.995  1.00  0.00     0.195 C 
HETATM    7  C10 UNL     1      -9.973 -18.577  12.122  1.00  0.00     0.213 C 
HETATM    8  N4  UNL     1     -10.378 -18.823  10.718  1.00  0.00    -0.218 N 
ENDROOT
BRANCH   7   9
HETATM    9  O4  UNL     1      -8.711 -19.218  12.315  1.00  0.00    -0.364 OA
ATOM     10  H4  UNL     1      -8.042 -18.628  11.987  1.00  0.00     0.213 HD
ENDBRANCH   7   9
BRANCH   7  11
HETATM   11  C11 UNL     1      -9.724 -17.156  12.358  1.00  0.00     0.121 A 
HETATM   12  C12 UNL     1      -8.886 -16.483  11.438  1.00  0.00     0.182 A 
HETATM   13  N1  UNL     1      -8.594 -15.186  11.546  1.00  0.00    -0.188 N 
HETATM   14  C13 UNL     1      -9.131 -14.516  12.578  1.00  0.00     0.350 A 
HETATM   15  O6  UNL     1      -8.866 -13.287  12.695  1.00  0.00    -0.244 OA
HETATM   16  N3  UNL     1      -9.928 -15.115  13.470  1.00  0.00    -0.273 N 
HETATM   17  C14 UNL     1     -10.256 -16.448  13.398  1.00  0.00     0.265 A 
ATOM     18  H3  UNL     1     -10.309 -14.560  14.236  1.00  0.00     0.173 HD
HETATM   19  O7  UNL     1     -11.012 -16.902  14.293  1.00  0.00    -0.267 OA
BRANCH  12  20
HETATM   20  O5  UNL     1      -8.309 -17.133  10.362  1.00  0.00    -0.344 OA
ATOM     21  H5  UNL     1      -8.551 -16.931   9.465  1.00  0.00     0.219 HD
ENDBRANCH  12  20
BRANCH  13  22
HETATM   22  N2  UNL     1      -7.760 -14.526  10.626  1.00  0.00    -0.332 N 
ATOM     23  H22 UNL     1      -7.860 -14.696   9.626  1.00  0.00     0.177 HD
ATOM     24  H21 UNL     1      -7.039 -13.868  10.921  1.00  0.00     0.177 HD
ENDBRANCH  13  22
ENDBRANCH   7  11
BRANCH   6  25
HETATM   25  C8  UNL     1     -10.716 -20.772  13.008  1.00  0.00     0.167 C 
HETATM   26  O2  UNL     1     -10.392 -21.352  14.011  1.00  0.00    -0.295 OA
BRANCH  25  27
HETATM   27  C9  UNL     1     -10.874 -21.554  11.774  1.00  0.00     0.243 C 
BRANCH  27  28
HETATM   28  O3  UNL     1      -9.649 -22.086  11.340  1.00  0.00    -0.394 OA
ATOM     29  H3  UNL     1      -9.636 -23.033  11.410  1.00  0.00     0.209 HD
ENDBRANCH  27  28
ENDBRANCH  25  27
ENDBRANCH   6  25
BRANCH   8  30
HETATM   30  O8  UNL     1      -9.615 -19.435   9.803  1.00  0.00    -0.284 OA
ATOM     31  H8  UNL     1      -9.896 -19.509   8.898  1.00  0.00     0.245 HD
ENDBRANCH   8  30
BRANCH   1  32
HETATM   32  C2  UNL     1     -11.948 -17.797   9.097  1.00  0.00     0.022 C 
HETATM   33  C1  UNL     1     -11.490 -16.715   8.573  1.00  0.00     0.013 C 
ENDBRANCH   1  32
TORSDOF 9
ENDMDL
MODEL 3
REMARK VINA RESULT: -7.166273635      0.409      1.910
REMARK  9 active torsions:
REMARK  status: ('A' for Active; 'I' for Inactive)
REMARK    1  A    between atoms: C2_2  and  C3_3 
REMARK    2  A    between atoms: C7_8  and  C8_9 
REMARK    3  A    between atoms: C8_9  and  C9_11 
REMARK    4  A    between atoms: C9_11  and  O3_12 
REMARK    5  A    between atoms: C10_14  and  O4_15 
REMARK    6  A    between atoms: C10_14  and  C11_17 
REMARK    7  A    between atoms: C12_18  and  O5_19 
REMARK    8  A    between atoms: N1_21  and  N2_22 
REMARK    9  A    between atoms: N4_31  and  O8_32 
ROOT
HETATM    1  C3  UNL     1      -8.983 -15.587   9.763  1.00  0.00     0.069 C 
HETATM    2  C4  UNL     1      -9.591 -14.417   9.673  1.00  0.00     0.014 C 
HETATM    3  C5  UNL     1      -9.498 -13.458  10.830  1.00  0.00     0.054 C 
HETATM    4  C6  UNL     1     -10.329 -14.105   8.481  1.00  0.00     0.174 C 
HETATM    5  O1  UNL     1     -10.745 -12.929   8.281  1.00  0.00    -0.292 OA
HETATM    6  C7  UNL     1     -10.617 -15.146   7.477  1.00  0.00     0.195 C 
HETATM    7  C10 UNL     1     -10.339 -16.533   7.954  1.00  0.00     0.213 C 
HETATM    8  N4  UNL     1      -9.034 -16.501   8.654  1.00  0.00    -0.218 N 
ENDROOT
BRANCH   7   9
HETATM    9  O4  UNL     1     -10.176 -17.354   6.796  1.00  0.00    -0.364 OA
ATOM     10  H4  UNL     1     -11.021 -17.401   6.364  1.00  0.00     0.213 HD
ENDBRANCH   7   9
BRANCH   7  11
HETATM   11  C11 UNL     1     -11.356 -17.203   8.763  1.00  0.00     0.121 A 
HETATM   12  C12 UNL     1     -12.644 -16.620   8.799  1.00  0.00     0.182 A 
HETATM   13  N1  UNL     1     -13.653 -17.145   9.495  1.00  0.00    -0.188 N 
HETATM   14  C13 UNL     1     -13.408 -18.273  10.180  1.00  0.00     0.350 A 
HETATM   15  O6  UNL     1     -14.352 -18.785  10.845  1.00  0.00    -0.244 OA
HETATM   16  N3  UNL     1     -12.204 -18.856  10.173  1.00  0.00    -0.273 N 
HETATM   17  C14 UNL     1     -11.137 -18.351   9.470  1.00  0.00     0.265 A 
ATOM     18  H3  UNL     1     -12.072 -19.712  10.712  1.00  0.00     0.173 HD
HETATM   19  O7  UNL     1     -10.054 -18.983   9.539  1.00  0.00    -0.267 OA
BRANCH  12  20
HETATM   20  O5  UNL     1     -12.941 -15.457   8.110  1.00  0.00    -0.344 OA
ATOM     21  H5  UNL     1     -13.836 -15.179   7.956  1.00  0.00     0.219 HD
ENDBRANCH  12  20
BRANCH  13  22
HETATM   22  N2  UNL     1     -14.930 -16.558   9.524  1.00  0.00    -0.332 N 
ATOM     23  H22 UNL     1     -15.174 -15.890  10.254  1.00  0.00     0.177 HD
ATOM     24  H21 UNL     1     -15.645 -16.777   8.830  1.00  0.00     0.177 HD
ENDBRANCH  13  22
ENDBRANCH   7  11
BRANCH   6  25
HETATM   25  C8  UNL     1      -9.779 -14.811   6.257  1.00  0.00     0.167 C 
HETATM   26  O2  UNL     1      -8.583 -14.702   6.321  1.00  0.00    -0.295 OA
BRANCH  25  27
HETATM   27  C9  UNL     1     -10.427 -14.613   4.953  1.00  0.00     0.243 C 
BRANCH  27  28
HETATM   28  O3  UNL     1     -10.399 -15.785   4.181  1.00  0.00    -0.394 OA
ATOM     29  H3  UNL     1     -11.103 -16.376   4.419  1.00  0.00     0.209 HD
ENDBRANCH  27  28
ENDBRANCH  25  27
ENDBRANCH   6  25
BRANCH   8  30
HETATM   30  O8  UNL     1      -7.962 -17.221   8.297  1.00  0.00    -0.284 OA
ATOM     31  H8  UNL     1      -7.402 -17.627   8.949  1.00  0.00     0.245 HD
ENDBRANCH   8  30
BRANCH   1  32
HETATM   32  C2  UNL     1      -8.236 -15.972  10.941  1.00  0.00     0.022 C 
HETATM   33  C1  UNL     1      -8.490 -16.872  11.825  1.00  0.00     0.013 C 
ENDBRANCH   1  32
TORSDOF 9
ENDMDL
MODEL 4
REMARK VINA RESULT: -7.084071650      2.526      5.585
REMARK  9 active torsions:
REMARK  status: ('A' for Active; 'I' for Inactive)
REMARK    1  A    between atoms: C2_2  and  C3_3 
REMARK    2  A    between atoms: C7_8  and  C8_9 
REMARK    3  A    between atoms: C8_9  and  C9_11 
REMARK    4  A    between atoms: C9_11  and  O3_12 
REMARK    5  A    between atoms: C10_14  and  O4_15 
REMARK    6  A    between atoms: C10_14  and  C11_17 
REMARK    7  A    between atoms: C12_18  and  O5_19 
REMARK    8  A    between atoms: N1_21  and  N2_22 
REMARK    9  A    between atoms: N4_31  and  O8_32 
ROOT
HETATM    1  C3  UNL     1     -12.169 -17.385  12.727  1.00  0.00     0.069 C 
HETATM    2  C4  UNL     1     -10.868 -17.445  12.953  1.00  0.00     0.014 C 
HETATM    3  C5  UNL     1     -10.221 -16.356  13.767  1.00  0.00     0.054 C 
HETATM    4  C6  UNL     1     -10.115 -18.538  12.404  1.00  0.00     0.174 C 
HETATM    5  O1  UNL     1      -8.922 -18.733  12.769  1.00  0.00    -0.292 OA
HETATM    6  C7  UNL     1     -10.716 -19.445  11.409  1.00  0.00     0.195 C 
HETATM    7  C10 UNL     1     -12.005 -18.947  10.845  1.00  0.00     0.213 C 
HETATM    8  N4  UNL     1     -12.809 -18.434  11.978  1.00  0.00    -0.218 N 
ENDROOT
BRANCH   7   9
HETATM    9  O4  UNL     1     -12.699 -20.077  10.314  1.00  0.00    -0.364 OA
ATOM     10  H4  UNL     1     -12.118 -20.498   9.692  1.00  0.00     0.213 HD
ENDBRANCH   7   9
BRANCH   7  11
HETATM   11  C11 UNL     1     -11.954 -17.978   9.752  1.00  0.00     0.121 A 
HETATM   12  C12 UNL     1     -10.705 -17.780   9.118  1.00  0.00     0.182 A 
HETATM   13  N1  UNL     1     -10.538 -16.928   8.106  1.00  0.00    -0.188 N 
HETATM   14  C13 UNL     1     -11.617 -16.244   7.692  1.00  0.00     0.350 A 
HETATM   15  O6  UNL     1     -11.477 -15.432   6.733  1.00  0.00    -0.244 OA
HETATM   16  N3  UNL     1     -12.815 -16.400   8.264  1.00  0.00    -0.273 N 
HETATM   17  C14 UNL     1     -13.033 -17.266   9.308  1.00  0.00     0.265 A 
ATOM     18  H3  UNL     1     -13.601 -15.854   7.911  1.00  0.00     0.173 HD
HETATM   19  O7  UNL     1     -14.201 -17.330   9.768  1.00  0.00    -0.267 OA
BRANCH  12  20
HETATM   20  O5  UNL     1      -9.568 -18.462   9.512  1.00  0.00    -0.344 OA
ATOM     21  H5  UNL     1      -8.922 -18.765   8.886  1.00  0.00     0.219 HD
ENDBRANCH  12  20
BRANCH  13  22
HETATM   22  N2  UNL     1      -9.293 -16.739   7.482  1.00  0.00    -0.332 N 
ATOM     23  H22 UNL     1      -8.886 -17.478   6.909  1.00  0.00     0.177 HD
ATOM     24  H21 UNL     1      -8.762 -15.874   7.578  1.00  0.00     0.177 HD
ENDBRANCH  13  22
ENDBRANCH   7  11
BRANCH   6  25
HETATM   25  C8  UNL     1     -10.903 -20.781  12.101  1.00  0.00     0.167 C 
HETATM   26  O2  UNL     1     -11.687 -20.923  13.003  1.00  0.00    -0.295 OA
BRANCH  25  27
HETATM   27  C9  UNL     1     -10.117 -21.947  11.674  1.00  0.00     0.243 C 
BRANCH  27  28
HETATM   28  O3  UNL     1      -9.240 -21.621  10.627  1.00  0.00    -0.394 OA
ATOM     29  H3  UNL     1      -8.372 -21.414  10.951  1.00  0.00     0.209 HD
ENDBRANCH  27  28
ENDBRANCH  25  27
ENDBRANCH   6  25
BRANCH   8  30
HETATM   30  O8  UNL     1     -14.015 -18.900  12.329  1.00  0.00    -0.284 OA
ATOM     31  H8  UNL     1     -14.368 -19.692  11.941  1.00  0.00     0.245 HD
ENDBRANCH   8  30
BRANCH   1  32
HETATM   32  C2  UNL     1     -12.985 -16.304  13.235  1.00  0.00     0.022 C 
HETATM   33  C1  UNL     1     -13.635 -15.390  12.604  1.00  0.00     0.013 C 
ENDBRANCH   1  32
TORSDOF 9
ENDMDL
MODEL 5
REMARK VINA RESULT: -6.957828891      3.001      6.682
REMARK  9 active torsions:
REMARK  status: ('A' for Active; 'I' for Inactive)
REMARK    1  A    between atoms: C2_2  and  C3_3 
REMARK    2  A    between atoms: C7_8  and  C8_9 
REMARK    3  A    between atoms: C8_9  and  C9_11 
REMARK    4  A    between atoms: C9_11  and  O3_12 
REMARK    5  A    between atoms: C10_14  and  O4_15 
REMARK    6  A    between atoms: C10_14  and  C11_17 
REMARK    7  A    between atoms: C12_18  and  O5_19 
REMARK    8  A    between atoms: N1_21  and  N2_22 
REMARK    9  A    between atoms: N4_31  and  O8_32 
ROOT
HETATM    1  C3  UNL     1     -12.782 -18.422  11.252  1.00  0.00     0.069 C 
HETATM    2  C4  UNL     1     -13.093 -17.977  12.457  1.00  0.00     0.014 C 
HETATM    3  C5  UNL     1     -14.277 -17.060  12.611  1.00  0.00     0.054 C 
HETATM    4  C6  UNL     1     -12.283 -18.371  13.576  1.00  0.00     0.174 C 
HETATM    5  O1  UNL     1     -12.669 -18.133  14.755  1.00  0.00    -0.292 OA
HETATM    6  C7  UNL     1     -10.992 -19.055  13.370  1.00  0.00     0.195 C 
HETATM    7  C10 UNL     1     -10.511 -19.016  11.958  1.00  0.00     0.213 C 
HETATM    8  N4  UNL     1     -11.673 -19.324  11.092  1.00  0.00    -0.218 N 
ENDROOT
BRANCH   7   9
HETATM    9  O4  UNL     1      -9.574 -20.083  11.800  1.00  0.00    -0.364 OA
ATOM     10  H4  UNL     1      -8.847 -19.746  11.292  1.00  0.00     0.213 HD
ENDBRANCH   7   9
BRANCH   7  11
HETATM   11  C11 UNL     1      -9.813 -17.818  11.497  1.00  0.00     0.121 A 
HETATM   12  C12 UNL     1      -9.448 -17.764  10.131  1.00  0.00     0.182 A 
HETATM   13  N1  UNL     1      -8.815 -16.720   9.595  1.00  0.00    -0.188 N 
HETATM   14  C13 UNL     1      -8.525 -15.691  10.407  1.00  0.00     0.350 A 
HETATM   15  O6  UNL     1      -7.926 -14.693   9.917  1.00  0.00    -0.244 OA
HETATM   16  N3  UNL     1      -8.851 -15.703  11.705  1.00  0.00    -0.273 N 
HETATM   17  C14 UNL     1      -9.503 -16.756  12.299  1.00  0.00     0.265 A 
ATOM     18  H3  UNL     1      -8.606 -14.895  12.277  1.00  0.00     0.173 HD
HETATM   19  O7  UNL     1      -9.757 -16.655  13.525  1.00  0.00    -0.267 OA
BRANCH  12  20
HETATM   20  O5  UNL     1      -9.726 -18.801   9.258  1.00  0.00    -0.344 OA
ATOM     21  H5  UNL     1      -9.138 -19.031   8.548  1.00  0.00     0.219 HD
ENDBRANCH  12  20
BRANCH  13  22
HETATM   22  N2  UNL     1      -8.458 -16.676   8.236  1.00  0.00    -0.332 N 
ATOM     23  H22 UNL     1      -8.319 -15.781   7.769  1.00  0.00     0.177 HD
ATOM     24  H21 UNL     1      -8.331 -17.521   7.680  1.00  0.00     0.177 HD
ENDBRANCH  13  22
ENDBRANCH   7  11
BRANCH   6  25
HETATM   25  C8  UNL     1     -11.181 -20.484  13.843  1.00  0.00     0.167 C 
HETATM   26  O2  UNL     1     -11.328 -21.393  13.069  1.00  0.00    -0.295 OA
BRANCH  25  27
HETATM   27  C9  UNL     1     -11.186 -20.787  15.281  1.00  0.00     0.243 C 
BRANCH  27  28
HETATM   28  O3  UNL     1     -12.469 -21.143  15.728  1.00  0.00    -0.394 OA
ATOM     29  H3  UNL     1     -12.772 -20.562  16.415  1.00  0.00     0.209 HD
ENDBRANCH  27  28
ENDBRANCH  25  27
ENDBRANCH   6  25
BRANCH   8  30
HETATM   30  O8  UNL     1     -11.738 -20.360  10.245  1.00  0.00    -0.284 OA
ATOM     31  H8  UNL     1     -11.912 -21.241  10.556  1.00  0.00     0.245 HD
ENDBRANCH   8  30
BRANCH   1  32
HETATM   32  C2  UNL     1     -13.545 -18.051  10.080  1.00  0.00     0.022 C 
HETATM   33  C1  UNL     1     -13.261 -17.225   9.135  1.00  0.00     0.013 C 
ENDBRANCH   1  32
TORSDOF 9
ENDMDL
