MODEL 1
REMARK VINA RESULT: -7.186984868      0.000      0.000
REMARK  17 active torsions:
REMARK  status: ('A' for Active; 'I' for Inactive)
REMARK    1  A    between atoms: C2_2  and  C3_3 
REMARK    2  A    between atoms: C2_2  and  C14_18 
REMARK    3  A    between atoms: C2_2  and  C21_25 
REMARK    4  A    between atoms: C3_3  and  C4_4 
REMARK    5  A    between atoms: C4_4  and  C5_5 
REMARK    6  A    between atoms: C5_5  and  C6_6 
REMARK    7  A    between atoms: C6_6  and  N1_7 
REMARK       I    between atoms: N1_7  and  C7_9 
REMARK    8  A    between atoms: C7_9  and  C8_11 
REMARK    9  A    between atoms: C8_11  and  N2_12 
REMARK   10  A    between atoms: C14_18  and  C15_19 
REMARK       I    between atoms: C21_25  and  N3_27 
REMARK   11  A    between atoms: N3_27  and  N4_29 
REMARK   12  A    between atoms: N4_29  and  C22_31 
REMARK   13  A    between atoms: C22_31  and  N5_33 
REMARK   14  A    between atoms: N5_33  and  C23_35 
REMARK   15  A    between atoms: C23_35  and  C24_36 
REMARK   16  A    between atoms: C24_36  and  C25_37 
REMARK   17  A    between atoms: C25_37  and  N6_38 
ROOT
HETATM    1  C1  UNL     1       9.243  33.212   2.891  1.00  0.00     0.030 C 
HETATM    2  C2  UNL     1       9.063  32.099   1.825  1.00  0.00     0.057 C 
ENDROOT
BRANCH   2   3
HETATM    3  C3  UNL     1       8.880  30.747   2.360  1.00  0.00    -0.012 C 
BRANCH   3   4
HETATM    4  C4  UNL     1       9.859  30.062   3.181  1.00  0.00    -0.028 C 
BRANCH   4   5
HETATM    5  C5  UNL     1      10.772  29.038   2.648  1.00  0.00     0.046 C 
BRANCH   5   6
HETATM    6  C6  UNL     1      11.385  28.116   3.628  1.00  0.00     0.126 C 
BRANCH   6   7
HETATM    7  N1  UNL     1      12.296  28.747   4.548  1.00  0.00    -0.359 N 
HETATM    8  C7  UNL     1      11.937  29.060   5.861  1.00  0.00     0.246 C 
HETATM    9  O1  UNL     1      10.785  28.809   6.349  1.00  0.00    -0.272 OA
ATOM     10  H1  UNL     1      13.237  28.974   4.228  1.00  0.00     0.162 HD
BRANCH   8  11
HETATM   11  C8  UNL     1      12.875  29.709   6.786  1.00  0.00     0.374 C 
BRANCH  11  12
HETATM   12  N2  UNL     1      14.257  29.557   6.533  1.00  0.00     0.097 N 
HETATM   13  C9  UNL     1      14.924  28.462   7.159  1.00  0.00     0.273 C 
HETATM   14  C10 UNL     1      15.972  28.985   8.151  1.00  0.00     0.030 C 
HETATM   15  C11 UNL     1      15.342  30.067   8.987  1.00  0.00     0.003 C 
HETATM   16  C12 UNL     1      14.827  31.200   8.158  1.00  0.00     0.030 C 
HETATM   17  C13 UNL     1      14.958  30.816   6.691  1.00  0.00     0.273 C 
ENDBRANCH  11  12
ENDBRANCH   8  11
ENDBRANCH   6   7
ENDBRANCH   5   6
ENDBRANCH   4   5
ENDBRANCH   3   4
ENDBRANCH   2   3
BRANCH   2  18
HETATM   18  C14 UNL     1       7.854  32.609   1.074  1.00  0.00     0.027 C 
BRANCH  18  19
HETATM   19  C15 UNL     1       6.614  32.931   1.765  1.00  0.00    -0.013 C 
HETATM   20  C16 UNL     1       5.997  34.100   0.945  1.00  0.00     0.005 C 
HETATM   21  C17 UNL     1       5.137  33.587  -0.173  1.00  0.00     0.000 C 
HETATM   22  C18 UNL     1       3.857  33.068   0.491  1.00  0.00     0.000 C 
HETATM   23  C19 UNL     1       4.185  32.665   1.908  1.00  0.00     0.000 C 
HETATM   24  C20 UNL     1       5.538  31.923   1.887  1.00  0.00     0.005 C 
ENDBRANCH  18  19
ENDBRANCH   2  18
BRANCH   2  25
HETATM   25  C21 UNL     1      10.247  32.273   0.964  1.00  0.00     0.248 C 
HETATM   26  O2  UNL     1      10.343  31.577  -0.083  1.00  0.00    -0.271 OA
HETATM   27  N3  UNL     1      11.294  33.177   1.236  1.00  0.00    -0.267 N 
ATOM     28  H3  UNL     1      11.232  33.749   2.078  1.00  0.00     0.190 HD
BRANCH  27  29
HETATM   29  N4  UNL     1      12.407  33.328   0.416  1.00  0.00    -0.274 N 
ATOM     30  H4  UNL     1      13.245  32.805   0.667  1.00  0.00     0.189 HD
BRANCH  29  31
HETATM   31  C22 UNL     1      12.475  34.145  -0.738  1.00  0.00     0.186 C 
HETATM   32  S1  UNL     1      13.492  35.395  -0.918  1.00  0.00    -0.040 SA
BRANCH  31  33
HETATM   33  N5  UNL     1      11.583  33.868  -1.857  1.00  0.00    -0.366 N 
ATOM     34  H5  UNL     1      11.622  32.979  -2.354  1.00  0.00     0.161 HD
BRANCH  33  35
HETATM   35  C23 UNL     1      10.657  34.880  -2.232  1.00  0.00     0.123 C 
BRANCH  35  36
HETATM   36  C24 UNL     1       9.455  35.110  -1.403  1.00  0.00     0.050 C 
BRANCH  36  37
HETATM   37  C25 UNL     1       8.823  36.429  -1.572  1.00  0.00     0.274 C 
BRANCH  37  38
HETATM   38  N6  UNL     1       7.402  36.525  -1.324  1.00  0.00     0.090 N 
HETATM   39  C26 UNL     1       6.766  36.055  -2.556  1.00  0.00     0.274 C 
HETATM   40  C27 UNL     1       5.305  36.303  -2.618  1.00  0.00     0.056 C 
HETATM   41  C28 UNL     1       4.735  37.141  -1.525  1.00  0.00     0.169 C 
HETATM   42  O3  UNL     1       4.968  38.481  -1.836  1.00  0.00    -0.389 OA
HETATM   43  C29 UNL     1       6.304  38.548  -2.249  1.00  0.00     0.198 C 
HETATM   44  C30 UNL     1       7.144  37.964  -1.172  1.00  0.00     0.298 C 
ENDBRANCH  37  38
ENDBRANCH  36  37
ENDBRANCH  35  36
ENDBRANCH  33  35
ENDBRANCH  31  33
ENDBRANCH  29  31
ENDBRANCH  27  29
ENDBRANCH   2  25
TORSDOF 17
ENDMDL
MODEL 2
REMARK VINA RESULT: -7.165593599      2.702      4.876
REMARK  17 active torsions:
REMARK  status: ('A' for Active; 'I' for Inactive)
REMARK    1  A    between atoms: C2_2  and  C3_3 
REMARK    2  A    between atoms: C2_2  and  C14_18 
REMARK    3  A    between atoms: C2_2  and  C21_25 
REMARK    4  A    between atoms: C3_3  and  C4_4 
REMARK    5  A    between atoms: C4_4  and  C5_5 
REMARK    6  A    between atoms: C5_5  and  C6_6 
REMARK    7  A    between atoms: C6_6  and  N1_7 
REMARK       I    between atoms: N1_7  and  C7_9 
REMARK    8  A    between atoms: C7_9  and  C8_11 
REMARK    9  A    between atoms: C8_11  and  N2_12 
REMARK   10  A    between atoms: C14_18  and  C15_19 
REMARK       I    between atoms: C21_25  and  N3_27 
REMARK   11  A    between atoms: N3_27  and  N4_29 
REMARK   12  A    between atoms: N4_29  and  C22_31 
REMARK   13  A    between atoms: C22_31  and  N5_33 
REMARK   14  A    between atoms: N5_33  and  C23_35 
REMARK   15  A    between atoms: C23_35  and  C24_36 
REMARK   16  A    between atoms: C24_36  and  C25_37 
REMARK   17  A    between atoms: C25_37  and  N6_38 
ROOT
HETATM    1  C1  UNL     1       6.566  35.417   1.988  1.00  0.00     0.030 C 
HETATM    2  C2  UNL     1       6.379  34.761   0.595  1.00  0.00     0.057 C 
ENDROOT
BRANCH   2   3
HETATM    3  C3  UNL     1       5.395  33.677   0.542  1.00  0.00    -0.012 C 
BRANCH   3   4
HETATM    4  C4  UNL     1       5.231  32.682   1.582  1.00  0.00    -0.028 C 
BRANCH   4   5
HETATM    5  C5  UNL     1       6.253  31.667   1.886  1.00  0.00     0.046 C 
BRANCH   5   6
HETATM    6  C6  UNL     1       7.349  32.075   2.790  1.00  0.00     0.126 C 
BRANCH   6   7
HETATM    7  N1  UNL     1       8.370  31.076   2.972  1.00  0.00    -0.359 N 
HETATM    8  C7  UNL     1       9.616  31.155   2.346  1.00  0.00     0.246 C 
HETATM    9  O1  UNL     1       9.949  32.113   1.572  1.00  0.00    -0.272 OA
ATOM     10  H1  UNL     1       8.176  30.281   3.582  1.00  0.00     0.162 HD
BRANCH   8  11
HETATM   11  C8  UNL     1      10.646  30.125   2.537  1.00  0.00     0.374 C 
BRANCH  11  12
HETATM   12  N2  UNL     1      10.390  29.109   3.487  1.00  0.00     0.097 N 
HETATM   13  C9  UNL     1      10.854  29.322   4.819  1.00  0.00     0.273 C 
HETATM   14  C10 UNL     1      11.926  28.282   5.173  1.00  0.00     0.030 C 
HETATM   15  C11 UNL     1      12.905  28.197   4.033  1.00  0.00     0.003 C 
HETATM   16  C12 UNL     1      12.248  27.821   2.743  1.00  0.00     0.030 C 
HETATM   17  C13 UNL     1      10.741  27.804   2.963  1.00  0.00     0.273 C 
ENDBRANCH  11  12
ENDBRANCH   8  11
ENDBRANCH   6   7
ENDBRANCH   5   6
ENDBRANCH   4   5
ENDBRANCH   3   4
ENDBRANCH   2   3
BRANCH   2  18
HETATM   18  C14 UNL     1       5.989  35.960  -0.240  1.00  0.00     0.027 C 
BRANCH  18  19
HETATM   19  C15 UNL     1       5.270  35.806  -1.496  1.00  0.00    -0.013 C 
HETATM   20  C16 UNL     1       4.385  37.081  -1.602  1.00  0.00     0.005 C 
HETATM   21  C17 UNL     1       5.126  38.205  -2.267  1.00  0.00     0.000 C 
HETATM   22  C18 UNL     1       5.188  37.840  -3.754  1.00  0.00     0.000 C 
HETATM   23  C19 UNL     1       5.113  36.338  -3.880  1.00  0.00     0.000 C 
HETATM   24  C20 UNL     1       6.004  35.727  -2.777  1.00  0.00     0.005 C 
ENDBRANCH  18  19
ENDBRANCH   2  18
BRANCH   2  25
HETATM   25  C21 UNL     1       7.754  34.373   0.228  1.00  0.00     0.248 C 
HETATM   26  O2  UNL     1       8.717  34.892   0.853  1.00  0.00    -0.271 OA
HETATM   27  N3  UNL     1       8.067  33.450  -0.790  1.00  0.00    -0.267 N 
ATOM     28  H3  UNL     1       7.299  33.019  -1.305  1.00  0.00     0.190 HD
BRANCH  27  29
HETATM   29  N4  UNL     1       9.369  33.096  -1.128  1.00  0.00    -0.274 N 
ATOM     30  H4  UNL     1       9.566  32.103  -1.249  1.00  0.00     0.189 HD
BRANCH  29  31
HETATM   31  C22 UNL     1      10.445  33.997  -1.318  1.00  0.00     0.186 C 
HETATM   32  S1  UNL     1      10.619  34.957  -2.612  1.00  0.00    -0.040 SA
BRANCH  31  33
HETATM   33  N5  UNL     1      11.480  34.090  -0.296  1.00  0.00    -0.366 N 
ATOM     34  H5  UNL     1      11.338  33.701   0.635  1.00  0.00     0.161 HD
BRANCH  33  35
HETATM   35  C23 UNL     1      12.696  34.741  -0.643  1.00  0.00     0.123 C 
BRANCH  35  36
HETATM   36  C24 UNL     1      13.196  35.847   0.202  1.00  0.00     0.050 C 
BRANCH  36  37
HETATM   37  C25 UNL     1      12.509  37.136   0.013  1.00  0.00     0.274 C 
BRANCH  37  38
HETATM   38  N6  UNL     1      11.220  37.304   0.646  1.00  0.00     0.090 N 
HETATM   39  C26 UNL     1      10.349  37.845  -0.399  1.00  0.00     0.274 C 
HETATM   40  C27 UNL     1       9.038  38.332   0.096  1.00  0.00     0.056 C 
HETATM   41  C28 UNL     1       8.869  38.371   1.576  1.00  0.00     0.169 C 
HETATM   42  O3  UNL     1       9.474  39.535   2.054  1.00  0.00    -0.389 OA
HETATM   43  C29 UNL     1      10.715  39.609   1.413  1.00  0.00     0.198 C 
HETATM   44  C30 UNL     1      11.437  38.336   1.669  1.00  0.00     0.298 C 
ENDBRANCH  37  38
ENDBRANCH  36  37
ENDBRANCH  35  36
ENDBRANCH  33  35
ENDBRANCH  31  33
ENDBRANCH  29  31
ENDBRANCH  27  29
ENDBRANCH   2  25
TORSDOF 17
ENDMDL
MODEL 3
REMARK VINA RESULT: -7.060553666      2.415     10.305
REMARK  17 active torsions:
REMARK  status: ('A' for Active; 'I' for Inactive)
REMARK    1  A    between atoms: C2_2  and  C3_3 
REMARK    2  A    between atoms: C2_2  and  C14_18 
REMARK    3  A    between atoms: C2_2  and  C21_25 
REMARK    4  A    between atoms: C3_3  and  C4_4 
REMARK    5  A    between atoms: C4_4  and  C5_5 
REMARK    6  A    between atoms: C5_5  and  C6_6 
REMARK    7  A    between atoms: C6_6  and  N1_7 
REMARK       I    between atoms: N1_7  and  C7_9 
REMARK    8  A    between atoms: C7_9  and  C8_11 
REMARK    9  A    between atoms: C8_11  and  N2_12 
REMARK   10  A    between atoms: C14_18  and  C15_19 
REMARK       I    between atoms: C21_25  and  N3_27 
REMARK   11  A    between atoms: N3_27  and  N4_29 
REMARK   12  A    between atoms: N4_29  and  C22_31 
REMARK   13  A    between atoms: C22_31  and  N5_33 
REMARK   14  A    between atoms: N5_33  and  C23_35 
REMARK   15  A    between atoms: C23_35  and  C24_36 
REMARK   16  A    between atoms: C24_36  and  C25_37 
REMARK   17  A    between atoms: C25_37  and  N6_38 
ROOT
HETATM    1  C1  UNL     1      10.746  33.468  -0.913  1.00  0.00     0.030 C 
HETATM    2  C2  UNL     1      10.229  33.030   0.483  1.00  0.00     0.057 C 
ENDROOT
BRANCH   2   3
HETATM    3  C3  UNL     1      10.682  33.858   1.604  1.00  0.00    -0.012 C 
BRANCH   3   4
HETATM    4  C4  UNL     1      11.525  35.028   1.458  1.00  0.00    -0.028 C 
BRANCH   4   5
HETATM    5  C5  UNL     1      11.054  36.392   1.746  1.00  0.00     0.046 C 
BRANCH   5   6
HETATM    6  C6  UNL     1      10.610  37.202   0.591  1.00  0.00     0.126 C 
BRANCH   6   7
HETATM    7  N1  UNL     1       9.354  36.786   0.023  1.00  0.00    -0.359 N 
HETATM    8  C7  UNL     1       9.151  36.690  -1.356  1.00  0.00     0.246 C 
HETATM    9  O1  UNL     1      10.057  36.956  -2.215  1.00  0.00    -0.272 OA
ATOM     10  H1  UNL     1       8.584  36.554   0.650  1.00  0.00     0.162 HD
BRANCH   8  11
HETATM   11  C8  UNL     1       7.863  36.269  -1.922  1.00  0.00     0.374 C 
BRANCH  11  12
HETATM   12  N2  UNL     1       7.093  37.245  -2.595  1.00  0.00     0.097 N 
HETATM   13  C9  UNL     1       6.509  38.281  -1.807  1.00  0.00     0.273 C 
HETATM   14  C10 UNL     1       4.979  38.182  -1.861  1.00  0.00     0.030 C 
HETATM   15  C11 UNL     1       4.584  36.746  -1.638  1.00  0.00     0.003 C 
HETATM   16  C12 UNL     1       5.183  35.826  -2.654  1.00  0.00     0.030 C 
HETATM   17  C13 UNL     1       6.153  36.628  -3.510  1.00  0.00     0.273 C 
ENDBRANCH  11  12
ENDBRANCH   8  11
ENDBRANCH   6   7
ENDBRANCH   5   6
ENDBRANCH   4   5
ENDBRANCH   3   4
ENDBRANCH   2   3
BRANCH   2  18
HETATM   18  C14 UNL     1       8.733  33.086   0.268  1.00  0.00     0.027 C 
BRANCH  18  19
HETATM   19  C15 UNL     1       7.810  33.159   1.391  1.00  0.00    -0.013 C 
HETATM   20  C16 UNL     1       6.723  34.177   0.941  1.00  0.00     0.005 C 
HETATM   21  C17 UNL     1       5.615  33.495   0.190  1.00  0.00     0.000 C 
HETATM   22  C18 UNL     1       4.802  32.737   1.245  1.00  0.00     0.000 C 
HETATM   23  C19 UNL     1       5.711  32.417   2.407  1.00  0.00     0.000 C 
HETATM   24  C20 UNL     1       7.069  31.959   1.834  1.00  0.00     0.005 C 
ENDBRANCH  18  19
ENDBRANCH   2  18
BRANCH   2  25
HETATM   25  C21 UNL     1      10.631  31.613   0.553  1.00  0.00     0.248 C 
HETATM   26  O2  UNL     1      10.849  30.992  -0.523  1.00  0.00    -0.271 OA
HETATM   27  N3  UNL     1      10.788  30.896   1.756  1.00  0.00    -0.267 N 
ATOM     28  H3  UNL     1      10.618  31.384   2.635  1.00  0.00     0.190 HD
BRANCH  27  29
HETATM   29  N4  UNL     1      11.165  29.558   1.806  1.00  0.00    -0.274 N 
ATOM     30  H4  UNL     1      11.198  29.050   0.922  1.00  0.00     0.189 HD
BRANCH  29  31
HETATM   31  C22 UNL     1      11.506  28.842   2.977  1.00  0.00     0.186 C 
HETATM   32  S1  UNL     1      12.656  27.702   3.053  1.00  0.00    -0.040 SA
BRANCH  31  33
HETATM   33  N5  UNL     1      10.794  29.128   4.216  1.00  0.00    -0.366 N 
ATOM     34  H5  UNL     1       9.998  29.765   4.231  1.00  0.00     0.161 HD
BRANCH  33  35
HETATM   35  C23 UNL     1      11.246  28.488   5.404  1.00  0.00     0.123 C 
BRANCH  35  36
HETATM   36  C24 UNL     1      11.922  29.287   6.448  1.00  0.00     0.050 C 
BRANCH  36  37
HETATM   37  C25 UNL     1      13.392  29.203   6.445  1.00  0.00     0.274 C 
BRANCH  37  38
HETATM   38  N6  UNL     1      14.131  30.438   6.580  1.00  0.00     0.090 N 
HETATM   39  C26 UNL     1      15.496  30.115   6.161  1.00  0.00     0.274 C 
HETATM   40  C27 UNL     1      16.489  31.176   6.458  1.00  0.00     0.056 C 
HETATM   41  C28 UNL     1      16.004  32.315   7.288  1.00  0.00     0.169 C 
HETATM   42  O3  UNL     1      16.033  31.923   8.627  1.00  0.00    -0.389 OA
HETATM   43  C29 UNL     1      15.468  30.643   8.660  1.00  0.00     0.198 C 
HETATM   44  C30 UNL     1      14.128  30.719   8.023  1.00  0.00     0.298 C 
ENDBRANCH  37  38
ENDBRANCH  36  37
ENDBRANCH  35  36
ENDBRANCH  33  35
ENDBRANCH  31  33
ENDBRANCH  29  31
ENDBRANCH  27  29
ENDBRANCH   2  25
TORSDOF 17
ENDMDL
MODEL 4
REMARK VINA RESULT: -7.058818288      1.632      2.128
REMARK  17 active torsions:
REMARK  status: ('A' for Active; 'I' for Inactive)
REMARK    1  A    between atoms: C2_2  and  C3_3 
REMARK    2  A    between atoms: C2_2  and  C14_18 
REMARK    3  A    between atoms: C2_2  and  C21_25 
REMARK    4  A    between atoms: C3_3  and  C4_4 
REMARK    5  A    between atoms: C4_4  and  C5_5 
REMARK    6  A    between atoms: C5_5  and  C6_6 
REMARK    7  A    between atoms: C6_6  and  N1_7 
REMARK       I    between atoms: N1_7  and  C7_9 
REMARK    8  A    between atoms: C7_9  and  C8_11 
REMARK    9  A    between atoms: C8_11  and  N2_12 
REMARK   10  A    between atoms: C14_18  and  C15_19 
REMARK       I    between atoms: C21_25  and  N3_27 
REMARK   11  A    between atoms: N3_27  and  N4_29 
REMARK   12  A    between atoms: N4_29  and  C22_31 
REMARK   13  A    between atoms: C22_31  and  N5_33 
REMARK   14  A    between atoms: N5_33  and  C23_35 
REMARK   15  A    between atoms: C23_35  and  C24_36 
REMARK   16  A    between atoms: C24_36  and  C25_37 
REMARK   17  A    between atoms: C25_37  and  N6_38 
ROOT
HETATM    1  C1  UNL     1       9.856  34.092   1.814  1.00  0.00     0.030 C 
HETATM    2  C2  UNL     1       9.605  33.193   0.574  1.00  0.00     0.057 C 
ENDROOT
BRANCH   2   3
HETATM    3  C3  UNL     1       9.957  31.782   0.744  1.00  0.00    -0.012 C 
BRANCH   3   4
HETATM    4  C4  UNL     1      10.470  31.219   1.977  1.00  0.00    -0.028 C 
BRANCH   4   5
HETATM    5  C5  UNL     1       9.804  30.116   2.689  1.00  0.00     0.046 C 
BRANCH   5   6
HETATM    6  C6  UNL     1      10.665  29.010   3.161  1.00  0.00     0.126 C 
BRANCH   6   7
HETATM    7  N1  UNL     1      11.637  29.397   4.151  1.00  0.00    -0.359 N 
HETATM    8  C7  UNL     1      11.500  29.073   5.502  1.00  0.00     0.246 C 
HETATM    9  O1  UNL     1      10.512  28.410   5.965  1.00  0.00    -0.272 OA
ATOM     10  H1  UNL     1      12.456  29.926   3.853  1.00  0.00     0.162 HD
BRANCH   8  11
HETATM   11  C8  UNL     1      12.497  29.479   6.501  1.00  0.00     0.374 C 
BRANCH  11  12
HETATM   12  N2  UNL     1      13.860  29.265   6.192  1.00  0.00     0.097 N 
HETATM   13  C9  UNL     1      14.514  28.170   6.831  1.00  0.00     0.273 C 
HETATM   14  C10 UNL     1      15.626  28.689   7.753  1.00  0.00     0.030 C 
HETATM   15  C11 UNL     1      15.075  29.826   8.573  1.00  0.00     0.003 C 
HETATM   16  C12 UNL     1      14.563  30.946   7.724  1.00  0.00     0.030 C 
HETATM   17  C13 UNL     1      14.612  30.501   6.269  1.00  0.00     0.273 C 
ENDBRANCH  11  12
ENDBRANCH   8  11
ENDBRANCH   6   7
ENDBRANCH   5   6
ENDBRANCH   4   5
ENDBRANCH   3   4
ENDBRANCH   2   3
BRANCH   2  18
HETATM   18  C14 UNL     1       8.125  33.414   0.352  1.00  0.00     0.027 C 
BRANCH  18  19
HETATM   19  C15 UNL     1       7.170  33.298   1.445  1.00  0.00    -0.013 C 
HETATM   20  C16 UNL     1       6.051  34.322   1.100  1.00  0.00     0.005 C 
HETATM   21  C17 UNL     1       4.995  33.703   0.230  1.00  0.00     0.000 C 
HETATM   22  C18 UNL     1       4.189  32.778   1.149  1.00  0.00     0.000 C 
HETATM   23  C19 UNL     1       5.080  32.342   2.286  1.00  0.00     0.000 C 
HETATM   24  C20 UNL     1       6.472  32.020   1.700  1.00  0.00     0.005 C 
ENDBRANCH  18  19
ENDBRANCH   2  18
BRANCH   2  25
HETATM   25  C21 UNL     1      10.340  33.895  -0.495  1.00  0.00     0.248 C 
HETATM   26  O2  UNL     1      11.504  34.314  -0.254  1.00  0.00    -0.271 OA
HETATM   27  N3  UNL     1       9.821  34.134  -1.783  1.00  0.00    -0.267 N 
ATOM     28  H3  UNL     1       8.881  33.800  -1.995  1.00  0.00     0.190 HD
BRANCH  27  29
HETATM   29  N4  UNL     1      10.525  34.801  -2.780  1.00  0.00    -0.274 N 
ATOM     30  H4  UNL     1      11.084  34.232  -3.415  1.00  0.00     0.189 HD
BRANCH  29  31
HETATM   31  C22 UNL     1      10.532  36.201  -2.988  1.00  0.00     0.186 C 
HETATM   32  S1  UNL     1      10.113  36.924  -4.377  1.00  0.00    -0.040 SA
BRANCH  31  33
HETATM   33  N5  UNL     1      10.938  37.078  -1.897  1.00  0.00    -0.366 N 
ATOM     34  H5  UNL     1      11.903  37.100  -1.570  1.00  0.00     0.161 HD
BRANCH  33  35
HETATM   35  C23 UNL     1       9.942  37.902  -1.303  1.00  0.00     0.123 C 
BRANCH  35  36
HETATM   36  C24 UNL     1       9.083  37.348  -0.235  1.00  0.00     0.050 C 
BRANCH  36  37
HETATM   37  C25 UNL     1       7.656  37.234  -0.577  1.00  0.00     0.274 C 
BRANCH  37  38
HETATM   38  N6  UNL     1       7.297  37.315  -1.975  1.00  0.00     0.090 N 
HETATM   39  C26 UNL     1       6.199  38.282  -2.032  1.00  0.00     0.274 C 
HETATM   40  C27 UNL     1       5.504  38.335  -3.342  1.00  0.00     0.056 C 
HETATM   41  C28 UNL     1       5.892  37.292  -4.333  1.00  0.00     0.169 C 
HETATM   42  O3  UNL     1       5.203  36.118  -4.024  1.00  0.00    -0.389 OA
HETATM   43  C29 UNL     1       5.329  35.958  -2.639  1.00  0.00     0.198 C 
HETATM   44  C30 UNL     1       6.777  35.981  -2.307  1.00  0.00     0.298 C 
ENDBRANCH  37  38
ENDBRANCH  36  37
ENDBRANCH  35  36
ENDBRANCH  33  35
ENDBRANCH  31  33
ENDBRANCH  29  31
ENDBRANCH  27  29
ENDBRANCH   2  25
TORSDOF 17
ENDMDL
MODEL 5
REMARK VINA RESULT: -7.035460261      2.389     10.431
REMARK  17 active torsions:
REMARK  status: ('A' for Active; 'I' for Inactive)
REMARK    1  A    between atoms: C2_2  and  C3_3 
REMARK    2  A    between atoms: C2_2  and  C14_18 
REMARK    3  A    between atoms: C2_2  and  C21_25 
REMARK    4  A    between atoms: C3_3  and  C4_4 
REMARK    5  A    between atoms: C4_4  and  C5_5 
REMARK    6  A    between atoms: C5_5  and  C6_6 
REMARK    7  A    between atoms: C6_6  and  N1_7 
REMARK       I    between atoms: N1_7  and  C7_9 
REMARK    8  A    between atoms: C7_9  and  C8_11 
REMARK    9  A    between atoms: C8_11  and  N2_12 
REMARK   10  A    between atoms: C14_18  and  C15_19 
REMARK       I    between atoms: C21_25  and  N3_27 
REMARK   11  A    between atoms: N3_27  and  N4_29 
REMARK   12  A    between atoms: N4_29  and  C22_31 
REMARK   13  A    between atoms: C22_31  and  N5_33 
REMARK   14  A    between atoms: N5_33  and  C23_35 
REMARK   15  A    between atoms: C23_35  and  C24_36 
REMARK   16  A    between atoms: C24_36  and  C25_37 
REMARK   17  A    between atoms: C25_37  and  N6_38 
ROOT
HETATM    1  C1  UNL     1      10.266  32.614   0.116  1.00  0.00     0.030 C 
HETATM    2  C2  UNL     1       9.401  32.921   1.367  1.00  0.00     0.057 C 
ENDROOT
BRANCH   2   3
HETATM    3  C3  UNL     1       9.824  34.087   2.147  1.00  0.00    -0.012 C 
BRANCH   3   4
HETATM    4  C4  UNL     1      11.077  34.786   1.943  1.00  0.00    -0.028 C 
BRANCH   4   5
HETATM    5  C5  UNL     1      11.148  36.222   1.628  1.00  0.00     0.046 C 
BRANCH   5   6
HETATM    6  C6  UNL     1      10.968  36.604   0.210  1.00  0.00     0.126 C 
BRANCH   6   7
HETATM    7  N1  UNL     1       9.597  36.635  -0.226  1.00  0.00    -0.359 N 
HETATM    8  C7  UNL     1       9.172  36.024  -1.408  1.00  0.00     0.246 C 
HETATM    9  O1  UNL     1       9.959  35.390  -2.188  1.00  0.00    -0.272 OA
ATOM     10  H1  UNL     1       8.909  37.122   0.349  1.00  0.00     0.162 HD
BRANCH   8  11
HETATM   11  C8  UNL     1       7.771  36.069  -1.844  1.00  0.00     0.374 C 
BRANCH  11  12
HETATM   12  N2  UNL     1       7.327  37.237  -2.507  1.00  0.00     0.097 N 
HETATM   13  C9  UNL     1       6.756  38.271  -1.706  1.00  0.00     0.273 C 
HETATM   14  C10 UNL     1       5.278  38.460  -2.071  1.00  0.00     0.030 C 
HETATM   15  C11 UNL     1       4.624  37.105  -2.139  1.00  0.00     0.003 C 
HETATM   16  C12 UNL     1       5.277  36.207  -3.140  1.00  0.00     0.030 C 
HETATM   17  C13 UNL     1       6.523  36.906  -3.666  1.00  0.00     0.273 C 
ENDBRANCH  11  12
ENDBRANCH   8  11
ENDBRANCH   6   7
ENDBRANCH   5   6
ENDBRANCH   4   5
ENDBRANCH   3   4
ENDBRANCH   2   3
BRANCH   2  18
HETATM   18  C14 UNL     1       8.035  33.090   0.740  1.00  0.00     0.027 C 
BRANCH  18  19
HETATM   19  C15 UNL     1       6.833  33.174   1.556  1.00  0.00    -0.013 C 
HETATM   20  C16 UNL     1       6.036  34.371   0.963  1.00  0.00     0.005 C 
HETATM   21  C17 UNL     1       5.138  33.927  -0.156  1.00  0.00     0.000 C 
HETATM   22  C18 UNL     1       3.977  33.183   0.512  1.00  0.00     0.000 C 
HETATM   23  C19 UNL     1       4.463  32.625   1.828  1.00  0.00     0.000 C 
HETATM   24  C20 UNL     1       5.876  32.046   1.602  1.00  0.00     0.005 C 
ENDBRANCH  18  19
ENDBRANCH   2  18
BRANCH   2  25
HETATM   25  C21 UNL     1       9.416  31.642   2.099  1.00  0.00     0.248 C 
HETATM   26  O2  UNL     1       8.950  31.609   3.271  1.00  0.00    -0.271 OA
HETATM   27  N3  UNL     1       9.923  30.437   1.573  1.00  0.00    -0.267 N 
ATOM     28  H3  UNL     1      10.301  30.446   0.625  1.00  0.00     0.190 HD
BRANCH  27  29
HETATM   29  N4  UNL     1       9.933  29.238   2.277  1.00  0.00    -0.274 N 
ATOM     30  H4  UNL     1       9.190  28.571   2.073  1.00  0.00     0.189 HD
BRANCH  29  31
HETATM   31  C22 UNL     1      10.887  28.865   3.253  1.00  0.00     0.186 C 
HETATM   32  S1  UNL     1      12.194  27.953   2.957  1.00  0.00    -0.040 SA
BRANCH  31  33
HETATM   33  N5  UNL     1      10.710  29.317   4.628  1.00  0.00    -0.366 N 
ATOM     34  H5  UNL     1      10.048  30.058   4.857  1.00  0.00     0.161 HD
BRANCH  33  35
HETATM   35  C23 UNL     1      11.490  28.689   5.638  1.00  0.00     0.123 C 
BRANCH  35  36
HETATM   36  C24 UNL     1      12.400  29.508   6.467  1.00  0.00     0.050 C 
BRANCH  36  37
HETATM   37  C25 UNL     1      13.820  29.449   6.082  1.00  0.00     0.274 C 
BRANCH  37  38
HETATM   38  N6  UNL     1      14.700  30.461   6.620  1.00  0.00     0.090 N 
HETATM   39  C26 UNL     1      16.013  29.820   6.706  1.00  0.00     0.274 C 
HETATM   40  C27 UNL     1      17.020  30.598   7.468  1.00  0.00     0.056 C 
HETATM   41  C28 UNL     1      16.514  31.806   8.180  1.00  0.00     0.169 C 
HETATM   42  O3  UNL     1      15.934  31.394   9.381  1.00  0.00    -0.389 OA
HETATM   43  C29 UNL     1      15.134  30.292   9.057  1.00  0.00     0.198 C 
HETATM   44  C30 UNL     1      14.199  30.708   7.980  1.00  0.00     0.298 C 
ENDBRANCH  37  38
ENDBRANCH  36  37
ENDBRANCH  35  36
ENDBRANCH  33  35
ENDBRANCH  31  33
ENDBRANCH  29  31
ENDBRANCH  27  29
ENDBRANCH   2  25
TORSDOF 17
ENDMDL
