MODEL 1
REMARK VINA RESULT: -6.814868978      0.000      0.000
REMARK  16 active torsions:
REMARK  status: ('A' for Active; 'I' for Inactive)
REMARK    1  A    between atoms: C2_2  and  N1_3 
REMARK       I    between atoms: N1_3  and  C3_5 
REMARK    2  A    between atoms: C3_5  and  C4_7 
REMARK    3  A    between atoms: C4_7  and  O2_8 
REMARK    4  A    between atoms: C5_10  and  N2_11 
REMARK    5  A    between atoms: C5_10  and  C28_43 
REMARK       I    between atoms: N2_11  and  C6_12 
REMARK    6  A    between atoms: C6_12  and  C7_14 
REMARK       I    between atoms: C7_14  and  N3_16 
REMARK    7  A    between atoms: N3_16  and  C8_18 
REMARK    8  A    between atoms: C8_18  and  C9_19 
REMARK    9  A    between atoms: C8_18  and  C12_22 
REMARK   10  A    between atoms: N4_27  and  C17_28 
REMARK   11  A    between atoms: C17_28  and  C19_30 
REMARK   12  A    between atoms: C19_30  and  O5_31 
REMARK   13  A    between atoms: C19_30  and  N5_33 
REMARK   14  A    between atoms: N5_33  and  C20_35 
REMARK   15  A    between atoms: C20_35  and  C21_36 
REMARK   16  A    between atoms: C28_43  and  C30_45 
ROOT
HETATM    1  C8  UNL     1       7.801  32.917   0.783  1.00  0.00     0.134 C 
ENDROOT
BRANCH   1   2
HETATM    2  N3  UNL     1       9.199  32.525   1.050  1.00  0.00    -0.342 N 
HETATM    3  C7  UNL     1      10.017  31.938   0.195  1.00  0.00     0.324 C 
HETATM    4  O4  UNL     1      10.117  31.531  -0.943  1.00  0.00    -0.261 OA
ATOM      5  H3  UNL     1       9.567  32.726   1.980  1.00  0.00     0.163 HD
BRANCH   3   6
HETATM    6  C6  UNL     1      11.538  31.686   0.763  1.00  0.00     0.384 C 
HETATM    7  N2  UNL     1      12.186  32.836   0.325  1.00  0.00    -0.359 NA
HETATM    8  O3  UNL     1      11.656  30.756   1.326  1.00  0.00    -0.246 OA
BRANCH   7   9
HETATM    9  C5  UNL     1      12.857  33.973  -0.096  1.00  0.00     0.152 C 
HETATM   10  C4  UNL     1      12.830  34.284  -1.465  1.00  0.00     0.175 C 
BRANCH  10  11
HETATM   11  C3  UNL     1      13.149  35.151  -2.620  1.00  0.00     0.278 C 
HETATM   12  N1  UNL     1      11.918  35.396  -3.223  1.00  0.00    -0.355 N 
ATOM     13  H1  UNL     1      11.254  35.017  -2.549  1.00  0.00     0.162 HD
HETATM   14  O1  UNL     1      14.262  35.455  -2.790  1.00  0.00    -0.265 OA
BRANCH  12  15
HETATM   15  C2  UNL     1      11.093  35.873  -4.240  1.00  0.00     0.118 C 
HETATM   16  C1  UNL     1      11.625  35.428  -5.626  1.00  0.00     0.026 C 
ENDBRANCH  12  15
ENDBRANCH  10  11
BRANCH  10  17
HETATM   17  O2  UNL     1      12.046  33.297  -2.109  1.00  0.00    -0.353 OA
ATOM     18  H2  UNL     1      11.758  33.786  -2.871  1.00  0.00     0.218 HD
ENDBRANCH  10  17
BRANCH   9  19
HETATM   19  C28 UNL     1      13.115  34.998   0.947  1.00  0.00    -0.040 C 
HETATM   20  C29 UNL     1      14.555  35.084   1.280  1.00  0.00     0.047 C 
BRANCH  19  21
HETATM   21  C30 UNL     1      12.029  35.268   1.895  1.00  0.00     0.033 C 
HETATM   22  C31 UNL     1      12.135  36.739   2.336  1.00  0.00     0.010 C 
ENDBRANCH  19  21
ENDBRANCH   9  19
ENDBRANCH   7   9
ENDBRANCH   3   6
ENDBRANCH   1   2
BRANCH   1  23
HETATM   23  C9  UNL     1       7.221  32.821   2.236  1.00  0.00     0.006 C 
HETATM   24  C10 UNL     1       5.945  31.975   2.313  1.00  0.00     0.012 C 
HETATM   25  C11 UNL     1       8.205  32.051   3.096  1.00  0.00     0.012 C 
ENDBRANCH   1  23
BRANCH   1  26
HETATM   26  C12 UNL     1       7.792  34.242   0.244  1.00  0.00     0.012 C 
HETATM   27  C13 UNL     1       8.941  35.025  -0.182  1.00  0.00     0.055 C 
HETATM   28  C14 UNL     1       8.939  36.441   0.409  1.00  0.00     0.011 C 
HETATM   29  C15 UNL     1       7.959  36.694   1.498  1.00  0.00     0.045 C 
HETATM   30  C16 UNL     1       6.674  35.914   1.509  1.00  0.00     0.065 C 
HETATM   31  N4  UNL     1       6.632  35.047   0.422  1.00  0.00    -0.353 N 
BRANCH  31  32
HETATM   32  C17 UNL     1       5.695  35.040  -0.578  1.00  0.00     0.159 C 
HETATM   33  C18 UNL     1       4.438  34.295  -0.194  1.00  0.00     0.041 C 
BRANCH  32  34
HETATM   34  C19 UNL     1       5.344  36.398  -1.017  1.00  0.00     0.135 C 
BRANCH  34  35
HETATM   35  O5  UNL     1       4.047  36.595  -1.017  1.00  0.00    -0.348 OA
ATOM     36  H5  UNL     1       3.825  37.504  -1.178  1.00  0.00     0.219 HD
ENDBRANCH  34  35
BRANCH  34  37
HETATM   37  N5  UNL     1       6.134  37.448  -1.489  1.00  0.00    -0.363 N 
ATOM     38  H5  UNL     1       6.745  37.947  -0.842  1.00  0.00     0.162 HD
BRANCH  37  39
HETATM   39  C20 UNL     1       6.102  37.850  -2.917  1.00  0.00     0.035 C 
HETATM   40  C24 UNL     1       5.153  37.333  -3.848  1.00  0.00     0.031 C 
HETATM   41  C25 UNL     1       5.852  37.143  -5.217  1.00  0.00     0.002 C 
HETATM   42  C26 UNL     1       7.379  37.294  -4.917  1.00  0.00     0.002 C 
HETATM   43  C27 UNL     1       7.515  37.222  -3.430  1.00  0.00     0.031 C 
BRANCH  39  44
HETATM   44  C21 UNL     1       6.301  39.324  -2.976  1.00  0.00     0.005 C 
HETATM   45  C22 UNL     1       7.330  39.787  -1.947  1.00  0.00     0.012 C 
HETATM   46  C23 UNL     1       5.022  40.091  -2.858  1.00  0.00     0.012 C 
ENDBRANCH  39  44
ENDBRANCH  37  39
ENDBRANCH  34  37
ENDBRANCH  32  34
ENDBRANCH  31  32
ENDBRANCH   1  26
TORSDOF 16
ENDMDL
MODEL 2
REMARK VINA RESULT: -6.676362594      1.629      2.452
REMARK  16 active torsions:
REMARK  status: ('A' for Active; 'I' for Inactive)
REMARK    1  A    between atoms: C2_2  and  N1_3 
REMARK       I    between atoms: N1_3  and  C3_5 
REMARK    2  A    between atoms: C3_5  and  C4_7 
REMARK    3  A    between atoms: C4_7  and  O2_8 
REMARK    4  A    between atoms: C5_10  and  N2_11 
REMARK    5  A    between atoms: C5_10  and  C28_43 
REMARK       I    between atoms: N2_11  and  C6_12 
REMARK    6  A    between atoms: C6_12  and  C7_14 
REMARK       I    between atoms: C7_14  and  N3_16 
REMARK    7  A    between atoms: N3_16  and  C8_18 
REMARK    8  A    between atoms: C8_18  and  C9_19 
REMARK    9  A    between atoms: C8_18  and  C12_22 
REMARK   10  A    between atoms: N4_27  and  C17_28 
REMARK   11  A    between atoms: C17_28  and  C19_30 
REMARK   12  A    between atoms: C19_30  and  O5_31 
REMARK   13  A    between atoms: C19_30  and  N5_33 
REMARK   14  A    between atoms: N5_33  and  C20_35 
REMARK   15  A    between atoms: C20_35  and  C21_36 
REMARK   16  A    between atoms: C28_43  and  C30_45 
ROOT
HETATM    1  C8  UNL     1       7.783  32.947   0.775  1.00  0.00     0.134 C 
ENDROOT
BRANCH   1   2
HETATM    2  N3  UNL     1       9.192  32.568   0.998  1.00  0.00    -0.342 N 
HETATM    3  C7  UNL     1      10.041  32.156   0.073  1.00  0.00     0.324 C 
HETATM    4  O4  UNL     1      10.167  31.940  -1.113  1.00  0.00    -0.261 OA
ATOM      5  H3  UNL     1       9.543  32.629   1.954  1.00  0.00     0.163 HD
BRANCH   3   6
HETATM    6  C6  UNL     1      11.565  31.870   0.618  1.00  0.00     0.384 C 
HETATM    7  N2  UNL     1      12.089  33.157   0.649  1.00  0.00    -0.359 NA
HETATM    8  O3  UNL     1      11.772  30.817   0.830  1.00  0.00    -0.246 OA
BRANCH   7   9
HETATM    9  C5  UNL     1      12.636  34.429   0.693  1.00  0.00     0.152 C 
HETATM   10  C4  UNL     1      12.170  35.312   1.680  1.00  0.00     0.175 C 
BRANCH  10  11
HETATM   11  C3  UNL     1      12.191  36.604   2.401  1.00  0.00     0.278 C 
HETATM   12  N1  UNL     1      12.078  37.564   1.399  1.00  0.00    -0.355 N 
ATOM     13  H1  UNL     1      11.865  37.008   0.572  1.00  0.00     0.162 HD
HETATM   14  O1  UNL     1      12.274  36.585   3.564  1.00  0.00    -0.265 OA
BRANCH  12  15
HETATM   15  C2  UNL     1      12.097  38.867   0.903  1.00  0.00     0.118 C 
HETATM   16  C1  UNL     1      11.469  38.917  -0.513  1.00  0.00     0.026 C 
ENDBRANCH  12  15
ENDBRANCH  10  11
BRANCH  10  17
HETATM   17  O2  UNL     1      11.207  34.618   2.450  1.00  0.00    -0.353 OA
ATOM     18  H2  UNL     1      11.378  33.728   2.164  1.00  0.00     0.218 HD
ENDBRANCH  10  17
BRANCH   9  19
HETATM   19  C28 UNL     1      13.966  34.586   0.050  1.00  0.00    -0.040 C 
HETATM   20  C29 UNL     1      15.050  34.052   0.905  1.00  0.00     0.047 C 
BRANCH  19  21
HETATM   21  C30 UNL     1      14.125  35.707  -0.882  1.00  0.00     0.033 C 
HETATM   22  C31 UNL     1      12.980  35.642  -1.908  1.00  0.00     0.010 C 
ENDBRANCH  19  21
ENDBRANCH   9  19
ENDBRANCH   7   9
ENDBRANCH   3   6
ENDBRANCH   1   2
BRANCH   1  23
HETATM   23  C9  UNL     1       7.240  32.804   2.238  1.00  0.00     0.006 C 
HETATM   24  C10 UNL     1       5.966  31.957   2.320  1.00  0.00     0.012 C 
HETATM   25  C11 UNL     1       8.244  32.007   3.048  1.00  0.00     0.012 C 
ENDBRANCH   1  23
BRANCH   1  26
HETATM   26  C12 UNL     1       7.744  34.286   0.272  1.00  0.00     0.012 C 
HETATM   27  C13 UNL     1       8.876  35.114  -0.112  1.00  0.00     0.055 C 
HETATM   28  C14 UNL     1       8.823  36.512   0.517  1.00  0.00     0.011 C 
HETATM   29  C15 UNL     1       7.818  36.706   1.595  1.00  0.00     0.045 C 
HETATM   30  C16 UNL     1       6.556  35.889   1.563  1.00  0.00     0.065 C 
HETATM   31  N4  UNL     1       6.559  35.052   0.452  1.00  0.00    -0.353 N 
BRANCH  31  32
HETATM   32  C17 UNL     1       5.638  35.045  -0.564  1.00  0.00     0.159 C 
HETATM   33  C18 UNL     1       4.380  34.289  -0.207  1.00  0.00     0.041 C 
BRANCH  32  34
HETATM   34  C19 UNL     1       5.285  36.403  -1.000  1.00  0.00     0.135 C 
BRANCH  34  35
HETATM   35  O5  UNL     1       3.987  36.589  -1.029  1.00  0.00    -0.348 OA
ATOM     36  H5  UNL     1       3.723  37.341  -0.512  1.00  0.00     0.219 HD
ENDBRANCH  34  35
BRANCH  34  37
HETATM   37  N5  UNL     1       6.077  37.465  -1.444  1.00  0.00    -0.363 N 
ATOM     38  H5  UNL     1       6.659  37.970  -0.776  1.00  0.00     0.162 HD
BRANCH  37  39
HETATM   39  C20 UNL     1       6.086  37.870  -2.871  1.00  0.00     0.035 C 
HETATM   40  C24 UNL     1       5.148  37.374  -3.824  1.00  0.00     0.031 C 
HETATM   41  C25 UNL     1       5.874  37.172  -5.177  1.00  0.00     0.002 C 
HETATM   42  C26 UNL     1       7.397  37.292  -4.842  1.00  0.00     0.002 C 
HETATM   43  C27 UNL     1       7.497  37.214  -3.353  1.00  0.00     0.031 C 
BRANCH  39  44
HETATM   44  C21 UNL     1       6.316  39.340  -2.922  1.00  0.00     0.005 C 
HETATM   45  C22 UNL     1       7.380  39.770  -1.915  1.00  0.00     0.012 C 
HETATM   46  C23 UNL     1       5.059  40.134  -2.766  1.00  0.00     0.012 C 
ENDBRANCH  39  44
ENDBRANCH  37  39
ENDBRANCH  34  37
ENDBRANCH  32  34
ENDBRANCH  31  32
ENDBRANCH   1  26
TORSDOF 16
ENDMDL
MODEL 3
REMARK VINA RESULT: -6.550619671      2.067      6.289
REMARK  16 active torsions:
REMARK  status: ('A' for Active; 'I' for Inactive)
REMARK    1  A    between atoms: C2_2  and  N1_3 
REMARK       I    between atoms: N1_3  and  C3_5 
REMARK    2  A    between atoms: C3_5  and  C4_7 
REMARK    3  A    between atoms: C4_7  and  O2_8 
REMARK    4  A    between atoms: C5_10  and  N2_11 
REMARK    5  A    between atoms: C5_10  and  C28_43 
REMARK       I    between atoms: N2_11  and  C6_12 
REMARK    6  A    between atoms: C6_12  and  C7_14 
REMARK       I    between atoms: C7_14  and  N3_16 
REMARK    7  A    between atoms: N3_16  and  C8_18 
REMARK    8  A    between atoms: C8_18  and  C9_19 
REMARK    9  A    between atoms: C8_18  and  C12_22 
REMARK   10  A    between atoms: N4_27  and  C17_28 
REMARK   11  A    between atoms: C17_28  and  C19_30 
REMARK   12  A    between atoms: C19_30  and  O5_31 
REMARK   13  A    between atoms: C19_30  and  N5_33 
REMARK   14  A    between atoms: N5_33  and  C20_35 
REMARK   15  A    between atoms: C20_35  and  C21_36 
REMARK   16  A    between atoms: C28_43  and  C30_45 
ROOT
HETATM    1  C8  UNL     1       8.160  33.491   1.247  1.00  0.00     0.134 C 
ENDROOT
BRANCH   1   2
HETATM    2  N3  UNL     1       6.981  34.108   0.608  1.00  0.00    -0.342 N 
HETATM    3  C7  UNL     1       6.648  35.386   0.665  1.00  0.00     0.324 C 
HETATM    4  O4  UNL     1       6.989  36.469   1.089  1.00  0.00    -0.261 OA
ATOM      5  H3  UNL     1       6.367  33.493   0.074  1.00  0.00     0.163 HD
BRANCH   3   6
HETATM    6  C6  UNL     1       5.312  35.786  -0.205  1.00  0.00     0.384 C 
HETATM    7  N2  UNL     1       5.858  36.620  -1.174  1.00  0.00    -0.359 NA
HETATM    8  O3  UNL     1       4.391  35.314   0.150  1.00  0.00    -0.246 OA
BRANCH   7   9
HETATM    9  C5  UNL     1       6.375  37.452  -2.155  1.00  0.00     0.152 C 
HETATM   10  C4  UNL     1       6.442  36.959  -3.468  1.00  0.00     0.175 C 
BRANCH  10  11
HETATM   11  C3  UNL     1       6.735  37.105  -4.911  1.00  0.00     0.278 C 
HETATM   12  N1  UNL     1       8.119  36.988  -5.000  1.00  0.00    -0.355 N 
ATOM     13  H1  UNL     1       8.384  36.688  -4.062  1.00  0.00     0.162 HD
HETATM   14  O1  UNL     1       5.839  37.261  -5.641  1.00  0.00    -0.265 OA
BRANCH  12  15
HETATM   15  C2  UNL     1       9.343  37.055  -5.663  1.00  0.00     0.118 C 
HETATM   16  C1  UNL     1       9.683  38.521  -6.029  1.00  0.00     0.026 C 
ENDBRANCH  12  15
ENDBRANCH  10  11
BRANCH  10  17
HETATM   17  O2  UNL     1       5.901  35.651  -3.458  1.00  0.00    -0.353 OA
ATOM     18  H2  UNL     1       5.464  35.660  -2.615  1.00  0.00     0.218 HD
ENDBRANCH  10  17
BRANCH   9  19
HETATM   19  C28 UNL     1       6.350  38.905  -1.851  1.00  0.00    -0.040 C 
HETATM   20  C29 UNL     1       5.042  39.509  -2.192  1.00  0.00     0.047 C 
BRANCH  19  21
HETATM   21  C30 UNL     1       7.630  39.618  -1.910  1.00  0.00     0.033 C 
HETATM   22  C31 UNL     1       8.653  38.834  -1.070  1.00  0.00     0.010 C 
ENDBRANCH  19  21
ENDBRANCH   9  19
ENDBRANCH   7   9
ENDBRANCH   3   6
ENDBRANCH   1   2
BRANCH   1  23
HETATM   23  C9  UNL     1       7.554  32.093   1.617  1.00  0.00     0.006 C 
HETATM   24  C10 UNL     1       8.398  31.333   2.645  1.00  0.00     0.012 C 
HETATM   25  C11 UNL     1       6.239  32.316   2.338  1.00  0.00     0.012 C 
ENDBRANCH   1  23
BRANCH   1  26
HETATM   26  C12 UNL     1       9.219  33.426   0.286  1.00  0.00     0.012 C 
HETATM   27  C13 UNL     1       9.503  32.338  -0.635  1.00  0.00     0.055 C 
HETATM   28  C14 UNL     1      10.977  31.912  -0.604  1.00  0.00     0.011 C 
HETATM   29  C15 UNL     1      11.793  32.458   0.511  1.00  0.00     0.045 C 
HETATM   30  C16 UNL     1      11.425  33.798   1.087  1.00  0.00     0.065 C 
HETATM   31  N4  UNL     1      10.320  34.317   0.419  1.00  0.00    -0.353 N 
BRANCH  31  32
HETATM   32  C17 UNL     1      10.270  35.496  -0.276  1.00  0.00     0.159 C 
HETATM   33  C18 UNL     1      11.201  36.546   0.285  1.00  0.00     0.041 C 
BRANCH  32  34
HETATM   34  C19 UNL     1      10.550  35.309  -1.707  1.00  0.00     0.135 C 
BRANCH  34  35
HETATM   35  O5  UNL     1       9.499  35.558  -2.451  1.00  0.00    -0.348 OA
ATOM     36  H5  UNL     1       9.673  35.413  -3.373  1.00  0.00     0.219 HD
ENDBRANCH  34  35
BRANCH  34  37
HETATM   37  N5  UNL     1      11.691  34.853  -2.371  1.00  0.00    -0.363 N 
ATOM     38  H5  UNL     1      11.883  33.852  -2.409  1.00  0.00     0.162 HD
BRANCH  37  39
HETATM   39  C20 UNL     1      12.628  35.800  -3.024  1.00  0.00     0.035 C 
HETATM   40  C24 UNL     1      12.288  37.156  -3.308  1.00  0.00     0.031 C 
HETATM   41  C25 UNL     1      12.921  37.554  -4.664  1.00  0.00     0.002 C 
HETATM   42  C26 UNL     1      13.395  36.206  -5.301  1.00  0.00     0.002 C 
HETATM   43  C27 UNL     1      12.746  35.123  -4.501  1.00  0.00     0.031 C 
BRANCH  39  44
HETATM   44  C21 UNL     1      13.970  35.604  -2.410  1.00  0.00     0.005 C 
HETATM   45  C22 UNL     1      14.056  34.265  -1.683  1.00  0.00     0.012 C 
HETATM   46  C23 UNL     1      14.378  36.738  -1.525  1.00  0.00     0.012 C 
ENDBRANCH  39  44
ENDBRANCH  37  39
ENDBRANCH  34  37
ENDBRANCH  32  34
ENDBRANCH  31  32
ENDBRANCH   1  26
TORSDOF 16
ENDMDL
MODEL 4
REMARK VINA RESULT: -6.549666509      2.469      6.349
REMARK  16 active torsions:
REMARK  status: ('A' for Active; 'I' for Inactive)
REMARK    1  A    between atoms: C2_2  and  N1_3 
REMARK       I    between atoms: N1_3  and  C3_5 
REMARK    2  A    between atoms: C3_5  and  C4_7 
REMARK    3  A    between atoms: C4_7  and  O2_8 
REMARK    4  A    between atoms: C5_10  and  N2_11 
REMARK    5  A    between atoms: C5_10  and  C28_43 
REMARK       I    between atoms: N2_11  and  C6_12 
REMARK    6  A    between atoms: C6_12  and  C7_14 
REMARK       I    between atoms: C7_14  and  N3_16 
REMARK    7  A    between atoms: N3_16  and  C8_18 
REMARK    8  A    between atoms: C8_18  and  C9_19 
REMARK    9  A    between atoms: C8_18  and  C12_22 
REMARK   10  A    between atoms: N4_27  and  C17_28 
REMARK   11  A    between atoms: C17_28  and  C19_30 
REMARK   12  A    between atoms: C19_30  and  O5_31 
REMARK   13  A    between atoms: C19_30  and  N5_33 
REMARK   14  A    between atoms: N5_33  and  C20_35 
REMARK   15  A    between atoms: C20_35  and  C21_36 
REMARK   16  A    between atoms: C28_43  and  C30_45 
ROOT
HETATM    1  C8  UNL     1       7.041  37.099  -1.696  1.00  0.00     0.134 C 
ENDROOT
BRANCH   1   2
HETATM    2  N3  UNL     1       7.663  36.894  -3.019  1.00  0.00    -0.342 N 
HETATM    3  C7  UNL     1       8.726  37.526  -3.483  1.00  0.00     0.324 C 
HETATM    4  O4  UNL     1       9.576  38.346  -3.207  1.00  0.00    -0.261 OA
ATOM      5  H3  UNL     1       7.232  36.202  -3.632  1.00  0.00     0.163 HD
BRANCH   3   6
HETATM    6  C6  UNL     1       9.224  37.033  -4.970  1.00  0.00     0.384 C 
HETATM    7  N2  UNL     1      10.341  36.271  -4.644  1.00  0.00    -0.359 NA
HETATM    8  O3  UNL     1       8.588  37.378  -5.790  1.00  0.00    -0.246 OA
BRANCH   7   9
HETATM    9  C5  UNL     1      11.456  35.504  -4.349  1.00  0.00     0.152 C 
HETATM   10  C4  UNL     1      12.195  34.978  -5.422  1.00  0.00     0.175 C 
BRANCH  10  11
HETATM   11  C3  UNL     1      13.342  34.231  -5.983  1.00  0.00     0.278 C 
HETATM   12  N1  UNL     1      12.871  33.724  -7.190  1.00  0.00    -0.355 N 
ATOM     13  H1  UNL     1      11.972  34.192  -7.300  1.00  0.00     0.162 HD
HETATM   14  O1  UNL     1      14.339  34.218  -5.379  1.00  0.00    -0.265 OA
BRANCH  12  15
HETATM   15  C2  UNL     1      12.949  32.928  -8.332  1.00  0.00     0.118 C 
HETATM   16  C1  UNL     1      13.124  33.808  -9.596  1.00  0.00     0.026 C 
ENDBRANCH  12  15
ENDBRANCH  10  11
BRANCH  10  17
HETATM   17  O2  UNL     1      11.581  35.420  -6.617  1.00  0.00    -0.353 OA
ATOM     18  H2  UNL     1      10.738  34.989  -6.539  1.00  0.00     0.218 HD
ENDBRANCH  10  17
BRANCH   9  19
HETATM   19  C28 UNL     1      12.045  35.706  -3.001  1.00  0.00    -0.040 C 
HETATM   20  C29 UNL     1      12.812  36.970  -2.927  1.00  0.00     0.047 C 
BRANCH  19  21
HETATM   21  C30 UNL     1      12.361  34.501  -2.226  1.00  0.00     0.033 C 
HETATM   22  C31 UNL     1      13.181  34.926  -0.996  1.00  0.00     0.010 C 
ENDBRANCH  19  21
ENDBRANCH   9  19
ENDBRANCH   7   9
ENDBRANCH   3   6
ENDBRANCH   1   2
BRANCH   1  23
HETATM   23  C9  UNL     1       5.543  37.252  -2.132  1.00  0.00     0.006 C 
HETATM   24  C10 UNL     1       5.076  38.711  -2.156  1.00  0.00     0.012 C 
HETATM   25  C11 UNL     1       5.419  36.820  -3.581  1.00  0.00     0.012 C 
ENDBRANCH   1  23
BRANCH   1  26
HETATM   26  C12 UNL     1       7.293  35.945  -0.888  1.00  0.00     0.012 C 
HETATM   27  C13 UNL     1       6.571  34.683  -0.909  1.00  0.00     0.055 C 
HETATM   28  C14 UNL     1       6.151  34.223   0.493  1.00  0.00     0.011 C 
HETATM   29  C15 UNL     1       6.293  35.226   1.580  1.00  0.00     0.045 C 
HETATM   30  C16 UNL     1       7.368  36.271   1.464  1.00  0.00     0.065 C 
HETATM   31  N4  UNL     1       8.084  36.090   0.285  1.00  0.00    -0.353 N 
BRANCH  31  32
HETATM   32  C17 UNL     1       9.428  35.843   0.180  1.00  0.00     0.159 C 
HETATM   33  C18 UNL     1      10.246  37.108   0.058  1.00  0.00     0.041 C 
BRANCH  32  34
HETATM   34  C19 UNL     1       9.933  35.040   1.302  1.00  0.00     0.135 C 
BRANCH  34  35
HETATM   35  O5  UNL     1      10.970  35.599   1.879  1.00  0.00    -0.348 OA
ATOM     36  H5  UNL     1      10.851  36.534   2.000  1.00  0.00     0.219 HD
ENDBRANCH  34  35
BRANCH  34  37
HETATM   37  N5  UNL     1       9.548  33.788   1.788  1.00  0.00    -0.363 N 
ATOM     38  H5  UNL     1       8.869  33.732   2.547  1.00  0.00     0.162 HD
BRANCH  37  39
HETATM   39  C20 UNL     1      10.110  32.539   1.218  1.00  0.00     0.035 C 
HETATM   40  C24 UNL     1      11.512  32.292   1.121  1.00  0.00     0.031 C 
HETATM   41  C25 UNL     1      11.792  31.536  -0.201  1.00  0.00     0.002 C 
HETATM   42  C26 UNL     1      10.465  31.646  -1.021  1.00  0.00     0.002 C 
HETATM   43  C27 UNL     1       9.644  32.690  -0.335  1.00  0.00     0.031 C 
BRANCH  39  44
HETATM   44  C21 UNL     1       9.307  31.401   1.745  1.00  0.00     0.005 C 
HETATM   45  C22 UNL     1       8.091  31.895   2.525  1.00  0.00     0.012 C 
HETATM   46  C23 UNL     1      10.119  30.434   2.545  1.00  0.00     0.012 C 
ENDBRANCH  39  44
ENDBRANCH  37  39
ENDBRANCH  34  37
ENDBRANCH  32  34
ENDBRANCH  31  32
ENDBRANCH   1  26
TORSDOF 16
ENDMDL
MODEL 5
REMARK VINA RESULT: -6.546969976      2.438      4.287
REMARK  16 active torsions:
REMARK  status: ('A' for Active; 'I' for Inactive)
REMARK    1  A    between atoms: C2_2  and  N1_3 
REMARK       I    between atoms: N1_3  and  C3_5 
REMARK    2  A    between atoms: C3_5  and  C4_7 
REMARK    3  A    between atoms: C4_7  and  O2_8 
REMARK    4  A    between atoms: C5_10  and  N2_11 
REMARK    5  A    between atoms: C5_10  and  C28_43 
REMARK       I    between atoms: N2_11  and  C6_12 
REMARK    6  A    between atoms: C6_12  and  C7_14 
REMARK       I    between atoms: C7_14  and  N3_16 
REMARK    7  A    between atoms: N3_16  and  C8_18 
REMARK    8  A    between atoms: C8_18  and  C9_19 
REMARK    9  A    between atoms: C8_18  and  C12_22 
REMARK   10  A    between atoms: N4_27  and  C17_28 
REMARK   11  A    between atoms: C17_28  and  C19_30 
REMARK   12  A    between atoms: C19_30  and  O5_31 
REMARK   13  A    between atoms: C19_30  and  N5_33 
REMARK   14  A    between atoms: N5_33  and  C20_35 
REMARK   15  A    between atoms: C20_35  and  C21_36 
REMARK   16  A    between atoms: C28_43  and  C30_45 
ROOT
HETATM    1  C8  UNL     1       9.547  32.370   0.845  1.00  0.00     0.134 C 
ENDROOT
BRANCH   1   2
HETATM    2  N3  UNL     1      10.730  33.252   0.796  1.00  0.00    -0.342 N 
HETATM    3  C7  UNL     1      11.541  33.405  -0.235  1.00  0.00     0.324 C 
HETATM    4  O4  UNL     1      11.739  33.070  -1.383  1.00  0.00    -0.261 OA
ATOM      5  H3  UNL     1      10.940  33.793   1.635  1.00  0.00     0.163 HD
BRANCH   3   6
HETATM    6  C6  UNL     1      12.736  34.511  -0.010  1.00  0.00     0.384 C 
HETATM    7  N2  UNL     1      12.026  35.702  -0.107  1.00  0.00    -0.359 NA
HETATM    8  O3  UNL     1      13.722  34.072   0.172  1.00  0.00    -0.246 OA
BRANCH   7   9
HETATM    9  C5  UNL     1      11.344  36.905  -0.196  1.00  0.00     0.152 C 
HETATM   10  C4  UNL     1      10.429  37.219   0.822  1.00  0.00     0.175 C 
BRANCH  10  11
HETATM   11  C3  UNL     1       9.462  38.121   1.484  1.00  0.00     0.278 C 
HETATM   12  N1  UNL     1      10.195  39.268   1.773  1.00  0.00    -0.355 N 
ATOM     13  H1  UNL     1      11.072  39.110   1.277  1.00  0.00     0.162 HD
HETATM   14  O1  UNL     1       8.364  37.750   1.616  1.00  0.00    -0.265 OA
BRANCH  12  15
HETATM   15  C2  UNL     1      10.394  40.514   2.367  1.00  0.00     0.118 C 
HETATM   16  C1  UNL     1       9.245  41.483   1.991  1.00  0.00     0.026 C 
ENDBRANCH  12  15
ENDBRANCH  10  11
BRANCH  10  17
HETATM   17  O2  UNL     1      10.458  36.160   1.760  1.00  0.00    -0.353 OA
ATOM     18  H2  UNL     1      11.310  36.311   2.153  1.00  0.00     0.218 HD
ENDBRANCH  10  17
BRANCH   9  19
HETATM   19  C28 UNL     1      11.972  37.946  -1.050  1.00  0.00    -0.040 C 
HETATM   20  C29 UNL     1      13.171  38.526  -0.405  1.00  0.00     0.047 C 
BRANCH  19  21
HETATM   21  C30 UNL     1      11.088  38.678  -1.963  1.00  0.00     0.033 C 
HETATM   22  C31 UNL     1      10.765  37.759  -3.155  1.00  0.00     0.010 C 
ENDBRANCH  19  21
ENDBRANCH   9  19
ENDBRANCH   7   9
ENDBRANCH   3   6
ENDBRANCH   1   2
BRANCH   1  23
HETATM   23  C9  UNL     1       9.995  31.396   1.988  1.00  0.00     0.006 C 
HETATM   24  C10 UNL     1       8.909  30.383   2.367  1.00  0.00     0.012 C 
HETATM   25  C11 UNL     1      11.119  30.524   1.463  1.00  0.00     0.012 C 
ENDBRANCH   1  23
BRANCH   1  26
HETATM   26  C12 UNL     1       8.400  33.160   1.175  1.00  0.00     0.012 C 
HETATM   27  C13 UNL     1       7.740  33.253   2.468  1.00  0.00     0.055 C 
HETATM   28  C14 UNL     1       6.221  33.063   2.367  1.00  0.00     0.011 C 
HETATM   29  C15 UNL     1       5.710  32.557   1.066  1.00  0.00     0.045 C 
HETATM   30  C16 UNL     1       6.473  32.887  -0.188  1.00  0.00     0.065 C 
HETATM   31  N4  UNL     1       7.587  33.661   0.122  1.00  0.00    -0.353 N 
BRANCH  31  32
HETATM   32  C17 UNL     1       7.853  34.923  -0.342  1.00  0.00     0.159 C 
HETATM   33  C18 UNL     1       8.578  34.918  -1.667  1.00  0.00     0.041 C 
BRANCH  32  34
HETATM   34  C19 UNL     1       6.637  35.741  -0.453  1.00  0.00     0.135 C 
BRANCH  34  35
HETATM   35  O5  UNL     1       6.158  36.071   0.723  1.00  0.00    -0.348 OA
ATOM     36  H5  UNL     1       5.320  35.657   0.895  1.00  0.00     0.219 HD
ENDBRANCH  34  35
BRANCH  34  37
HETATM   37  N5  UNL     1       5.896  36.145  -1.565  1.00  0.00    -0.363 N 
ATOM     38  H5  UNL     1       5.177  35.526  -1.941  1.00  0.00     0.162 HD
BRANCH  37  39
HETATM   39  C20 UNL     1       6.135  37.460  -2.210  1.00  0.00     0.035 C 
HETATM   40  C24 UNL     1       7.181  38.342  -1.808  1.00  0.00     0.031 C 
HETATM   41  C25 UNL     1       6.667  39.800  -1.905  1.00  0.00     0.002 C 
HETATM   42  C26 UNL     1       5.120  39.672  -2.094  1.00  0.00     0.002 C 
HETATM   43  C27 UNL     1       4.782  38.253  -1.769  1.00  0.00     0.031 C 
BRANCH  39  44
HETATM   44  C21 UNL     1       6.002  37.273  -3.681  1.00  0.00     0.005 C 
HETATM   45  C22 UNL     1       5.120  36.071  -4.009  1.00  0.00     0.012 C 
HETATM   46  C23 UNL     1       7.320  37.196  -4.382  1.00  0.00     0.012 C 
ENDBRANCH  39  44
ENDBRANCH  37  39
ENDBRANCH  34  37
ENDBRANCH  32  34
ENDBRANCH  31  32
ENDBRANCH   1  26
TORSDOF 16
ENDMDL
