MODEL 1
REMARK VINA RESULT: -7.143946368      0.000      0.000
REMARK  16 active torsions:
REMARK  status: ('A' for Active; 'I' for Inactive)
REMARK    1  A    between atoms: N1_2  and  C2_5 
REMARK    2  A    between atoms: C2_5  and  C3_6 
REMARK    3  A    between atoms: C2_5  and  C26_42 
REMARK       I    between atoms: C3_6  and  N2_8 
REMARK    4  A    between atoms: N2_8  and  C4_10 
REMARK    5  A    between atoms: C4_10  and  C5_11 
REMARK    6  A    between atoms: C4_10  and  C22_37 
REMARK       I    between atoms: C5_11  and  N3_13 
REMARK    7  A    between atoms: N3_13  and  C6_15 
REMARK    8  A    between atoms: C6_15  and  C7_16 
REMARK    9  A    between atoms: C6_15  and  C11_20 
REMARK   10  A    between atoms: C7_16  and  C8_17 
REMARK       I    between atoms: C11_20  and  N4_22 
REMARK   11  A    between atoms: N4_22  and  C12_24 
REMARK   12  A    between atoms: C12_24  and  C13_25 
REMARK   13  A    between atoms: C12_24  and  C19_34 
REMARK   14  A    between atoms: C13_25  and  O4_26 
REMARK   15  A    between atoms: C13_25  and  N5_28 
REMARK   16  A    between atoms: C22_37  and  C23_39 
ROOT
HETATM    1  C5  UNL     1       9.809  33.495  -0.297  1.00  0.00     0.248 C 
HETATM    2  O2  UNL     1       9.806  33.348  -1.566  1.00  0.00    -0.271 OA
HETATM    3  N3  UNL     1       8.656  33.838   0.417  1.00  0.00    -0.346 N 
ATOM      4  H3  UNL     1       8.716  33.945   1.430  1.00  0.00     0.163 HD
ENDROOT
BRANCH   3   5
HETATM    5  C6  UNL     1       7.357  34.051  -0.245  1.00  0.00     0.177 C 
BRANCH   5   6
HETATM    6  C7  UNL     1       6.317  33.974   0.833  1.00  0.00     0.038 C 
BRANCH   6   7
HETATM    7  C8  UNL     1       5.383  32.805   0.775  1.00  0.00    -0.020 C 
HETATM    8  C9  UNL     1       4.031  33.358   0.248  1.00  0.00     0.009 C 
HETATM    9  C10 UNL     1       5.090  32.310   2.171  1.00  0.00     0.009 C 
ENDBRANCH   6   7
ENDBRANCH   5   6
BRANCH   5  10
HETATM   10  C11 UNL     1       7.398  35.393  -0.909  1.00  0.00     0.241 C 
HETATM   11  O3  UNL     1       7.414  36.405  -0.140  1.00  0.00    -0.271 OA
HETATM   12  N4  UNL     1       7.427  35.602  -2.298  1.00  0.00    -0.347 N 
ATOM     13  H4  UNL     1       7.414  34.820  -2.952  1.00  0.00     0.163 HD
BRANCH  12  14
HETATM   14  C12 UNL     1       7.477  37.032  -2.785  1.00  0.00     0.162 C 
BRANCH  14  15
HETATM   15  C13 UNL     1       8.753  37.166  -3.461  1.00  0.00     0.137 C 
BRANCH  15  16
HETATM   16  O4  UNL     1       8.688  38.052  -4.484  1.00  0.00    -0.348 OA
ATOM     17  H4  UNL     1       7.987  37.840  -5.088  1.00  0.00     0.219 HD
ENDBRANCH  15  16
BRANCH  15  18
HETATM   18  N5  UNL     1      10.039  36.647  -3.363  1.00  0.00    -0.363 N 
HETATM   19  C14 UNL     1      10.824  36.902  -2.122  1.00  0.00     0.125 C 
HETATM   20  C15 UNL     1      12.160  36.341  -2.377  1.00  0.00     0.026 C 
HETATM   21  C16 UNL     1      11.895  35.197  -3.320  1.00  0.00     0.001 C 
HETATM   22  C17 UNL     1      13.109  34.880  -4.160  1.00  0.00     0.011 C 
HETATM   23  C18 UNL     1      10.836  35.821  -4.228  1.00  0.00     0.129 C 
ENDBRANCH  15  18
ENDBRANCH  14  15
BRANCH  14  24
HETATM   24  C19 UNL     1       6.191  37.458  -3.289  1.00  0.00     0.008 C 
HETATM   25  C20 UNL     1       5.469  36.435  -4.090  1.00  0.00     0.012 C 
HETATM   26  C21 UNL     1       5.272  38.175  -2.312  1.00  0.00     0.012 C 
ENDBRANCH  14  24
ENDBRANCH  12  14
ENDBRANCH   5  10
ENDBRANCH   3   5
BRANCH   1  27
HETATM   27  C4  UNL     1      11.109  33.282   0.361  1.00  0.00     0.247 C 
BRANCH  27  28
HETATM   28  N2  UNL     1      10.797  32.431   1.550  1.00  0.00    -0.340 N 
HETATM   29  C3  UNL     1      10.843  31.037   1.456  1.00  0.00     0.249 C 
HETATM   30  O1  UNL     1      11.186  30.557   0.316  1.00  0.00    -0.271 OA
ATOM     31  H2  UNL     1      10.549  32.870   2.436  1.00  0.00     0.163 HD
BRANCH  29  32
HETATM   32  C2  UNL     1      10.554  30.045   2.486  1.00  0.00     0.280 C 
BRANCH  32  33
HETATM   33  N1  UNL     1       9.121  29.718   2.352  1.00  0.00    -0.066 N 
HETATM   34  C1  UNL     1       8.302  30.885   2.470  1.00  0.00     0.267 C 
ATOM     35  H12 UNL     1       8.839  28.996   3.015  1.00  0.00     0.277 HD
ATOM     36  H11 UNL     1       8.932  29.217   1.484  1.00  0.00     0.277 HD
ENDBRANCH  32  33
BRANCH  32  37
HETATM   37  C26 UNL     1      11.333  28.791   2.501  1.00  0.00     0.025 C 
HETATM   38  C27 UNL     1      12.800  28.972   2.748  1.00  0.00     0.007 C 
HETATM   39  C28 UNL     1      13.154  28.371   4.094  1.00  0.00     0.000 C 
HETATM   40  C29 UNL     1      12.261  28.903   5.197  1.00  0.00     0.000 C 
HETATM   41  C30 UNL     1      10.868  28.395   4.950  1.00  0.00     0.000 C 
HETATM   42  C31 UNL     1      10.774  27.856   3.543  1.00  0.00     0.007 C 
ENDBRANCH  32  37
ENDBRANCH  29  32
ENDBRANCH  27  28
BRANCH  27  43
HETATM   43  C22 UNL     1      11.638  34.579   0.847  1.00  0.00     0.162 C 
HETATM   44  O5  UNL     1      10.849  35.512   1.096  1.00  0.00    -0.295 OA
BRANCH  43  45
HETATM   45  C23 UNL     1      13.062  34.823   1.054  1.00  0.00     0.050 C 
HETATM   46  C24 UNL     1      14.003  34.206   0.085  1.00  0.00     0.017 C 
HETATM   47  C25 UNL     1      13.342  36.330   1.146  1.00  0.00     0.017 C 
ENDBRANCH  43  45
ENDBRANCH  27  43
ENDBRANCH   1  27
TORSDOF 16
ENDMDL
MODEL 2
REMARK VINA RESULT: -7.074586998      2.609      6.432
REMARK  16 active torsions:
REMARK  status: ('A' for Active; 'I' for Inactive)
REMARK    1  A    between atoms: N1_2  and  C2_5 
REMARK    2  A    between atoms: C2_5  and  C3_6 
REMARK    3  A    between atoms: C2_5  and  C26_42 
REMARK       I    between atoms: C3_6  and  N2_8 
REMARK    4  A    between atoms: N2_8  and  C4_10 
REMARK    5  A    between atoms: C4_10  and  C5_11 
REMARK    6  A    between atoms: C4_10  and  C22_37 
REMARK       I    between atoms: C5_11  and  N3_13 
REMARK    7  A    between atoms: N3_13  and  C6_15 
REMARK    8  A    between atoms: C6_15  and  C7_16 
REMARK    9  A    between atoms: C6_15  and  C11_20 
REMARK   10  A    between atoms: C7_16  and  C8_17 
REMARK       I    between atoms: C11_20  and  N4_22 
REMARK   11  A    between atoms: N4_22  and  C12_24 
REMARK   12  A    between atoms: C12_24  and  C13_25 
REMARK   13  A    between atoms: C12_24  and  C19_34 
REMARK   14  A    between atoms: C13_25  and  O4_26 
REMARK   15  A    between atoms: C13_25  and  N5_28 
REMARK   16  A    between atoms: C22_37  and  C23_39 
ROOT
HETATM    1  C5  UNL     1       7.435  35.875   0.576  1.00  0.00     0.248 C 
HETATM    2  O2  UNL     1       7.838  36.822   1.334  1.00  0.00    -0.271 OA
HETATM    3  N3  UNL     1       7.364  36.013  -0.815  1.00  0.00    -0.346 N 
ATOM      4  H3  UNL     1       7.033  35.225  -1.372  1.00  0.00     0.163 HD
ENDROOT
BRANCH   3   5
HETATM    5  C6  UNL     1       7.750  37.258  -1.501  1.00  0.00     0.177 C 
BRANCH   5   6
HETATM    6  C7  UNL     1       8.975  36.933  -2.305  1.00  0.00     0.038 C 
BRANCH   6   7
HETATM    7  C8  UNL     1      10.293  37.177  -1.639  1.00  0.00    -0.020 C 
HETATM    8  C9  UNL     1      10.142  38.513  -0.862  1.00  0.00     0.009 C 
HETATM    9  C10 UNL     1      11.354  37.444  -2.679  1.00  0.00     0.009 C 
ENDBRANCH   6   7
ENDBRANCH   5   6
BRANCH   5  10
HETATM   10  C11 UNL     1       6.597  37.684  -2.357  1.00  0.00     0.241 C 
HETATM   11  O3  UNL     1       5.436  37.443  -1.902  1.00  0.00    -0.271 OA
HETATM   12  N4  UNL     1       6.714  38.326  -3.601  1.00  0.00    -0.347 N 
ATOM     13  H4  UNL     1       7.627  38.538  -4.005  1.00  0.00     0.163 HD
BRANCH  12  14
HETATM   14  C12 UNL     1       5.435  38.691  -4.318  1.00  0.00     0.162 C 
BRANCH  14  15
HETATM   15  C13 UNL     1       5.249  40.110  -4.080  1.00  0.00     0.137 C 
BRANCH  15  16
HETATM   16  O4  UNL     1       6.148  40.855  -4.767  1.00  0.00    -0.348 OA
ATOM     17  H4  UNL     1       5.726  41.545  -5.264  1.00  0.00     0.219 HD
ENDBRANCH  15  16
BRANCH  15  18
HETATM   18  N5  UNL     1       4.405  40.937  -3.348  1.00  0.00    -0.363 N 
HETATM   19  C14 UNL     1       4.547  40.976  -1.865  1.00  0.00     0.125 C 
HETATM   20  C15 UNL     1       3.450  41.831  -1.386  1.00  0.00     0.026 C 
HETATM   21  C16 UNL     1       3.231  42.802  -2.516  1.00  0.00     0.001 C 
HETATM   22  C17 UNL     1       1.824  43.349  -2.511  1.00  0.00     0.011 C 
HETATM   23  C18 UNL     1       3.377  41.870  -3.719  1.00  0.00     0.129 C 
ENDBRANCH  15  18
ENDBRANCH  14  15
BRANCH  14  24
HETATM   24  C19 UNL     1       5.339  38.015  -5.592  1.00  0.00     0.008 C 
HETATM   25  C20 UNL     1       4.218  38.472  -6.454  1.00  0.00     0.012 C 
HETATM   26  C21 UNL     1       6.630  37.840  -6.376  1.00  0.00     0.012 C 
ENDBRANCH  14  24
ENDBRANCH  12  14
ENDBRANCH   5  10
ENDBRANCH   3   5
BRANCH   1  27
HETATM   27  C4  UNL     1       7.049  34.633   1.266  1.00  0.00     0.247 C 
BRANCH  27  28
HETATM   28  N2  UNL     1       7.927  33.580   0.669  1.00  0.00    -0.340 N 
HETATM   29  C3  UNL     1       9.123  33.216   1.294  1.00  0.00     0.249 C 
HETATM   30  O1  UNL     1       9.393  33.817   2.395  1.00  0.00    -0.271 OA
ATOM     31  H2  UNL     1       7.650  33.124  -0.200  1.00  0.00     0.163 HD
BRANCH  29  32
HETATM   32  C2  UNL     1      10.115  32.237   0.861  1.00  0.00     0.280 C 
BRANCH  32  33
HETATM   33  N1  UNL     1       9.621  30.923   1.319  1.00  0.00    -0.066 N 
HETATM   34  C1  UNL     1      10.348  30.455   2.459  1.00  0.00     0.267 C 
ATOM     35  H12 UNL     1       9.631  30.237   0.563  1.00  0.00     0.277 HD
ATOM     36  H11 UNL     1       8.618  30.944   1.499  1.00  0.00     0.277 HD
ENDBRANCH  32  33
BRANCH  32  37
HETATM   37  C26 UNL     1      10.447  32.152  -0.574  1.00  0.00     0.025 C 
HETATM   38  C27 UNL     1      10.441  33.466  -1.294  1.00  0.00     0.007 C 
HETATM   39  C28 UNL     1      11.855  33.807  -1.718  1.00  0.00     0.000 C 
HETATM   40  C29 UNL     1      12.821  33.735  -0.551  1.00  0.00     0.000 C 
HETATM   41  C30 UNL     1      12.927  32.298  -0.127  1.00  0.00     0.000 C 
HETATM   42  C31 UNL     1      11.799  31.508  -0.747  1.00  0.00     0.007 C 
ENDBRANCH  32  37
ENDBRANCH  29  32
ENDBRANCH  27  28
BRANCH  27  43
HETATM   43  C22 UNL     1       5.642  34.301   0.940  1.00  0.00     0.162 C 
HETATM   44  O5  UNL     1       4.854  35.210   0.612  1.00  0.00    -0.295 OA
BRANCH  43  45
HETATM   45  C23 UNL     1       5.122  32.937   0.985  1.00  0.00     0.050 C 
HETATM   46  C24 UNL     1       5.311  32.181   2.249  1.00  0.00     0.017 C 
HETATM   47  C25 UNL     1       3.637  32.915   0.596  1.00  0.00     0.017 C 
ENDBRANCH  43  45
ENDBRANCH  27  43
ENDBRANCH   1  27
TORSDOF 16
ENDMDL
MODEL 3
REMARK VINA RESULT: -6.911460178      1.438      2.919
REMARK  16 active torsions:
REMARK  status: ('A' for Active; 'I' for Inactive)
REMARK    1  A    between atoms: N1_2  and  C2_5 
REMARK    2  A    between atoms: C2_5  and  C3_6 
REMARK    3  A    between atoms: C2_5  and  C26_42 
REMARK       I    between atoms: C3_6  and  N2_8 
REMARK    4  A    between atoms: N2_8  and  C4_10 
REMARK    5  A    between atoms: C4_10  and  C5_11 
REMARK    6  A    between atoms: C4_10  and  C22_37 
REMARK       I    between atoms: C5_11  and  N3_13 
REMARK    7  A    between atoms: N3_13  and  C6_15 
REMARK    8  A    between atoms: C6_15  and  C7_16 
REMARK    9  A    between atoms: C6_15  and  C11_20 
REMARK   10  A    between atoms: C7_16  and  C8_17 
REMARK       I    between atoms: C11_20  and  N4_22 
REMARK   11  A    between atoms: N4_22  and  C12_24 
REMARK   12  A    between atoms: C12_24  and  C13_25 
REMARK   13  A    between atoms: C12_24  and  C19_34 
REMARK   14  A    between atoms: C13_25  and  O4_26 
REMARK   15  A    between atoms: C13_25  and  N5_28 
REMARK   16  A    between atoms: C22_37  and  C23_39 
ROOT
HETATM    1  C5  UNL     1      10.058  33.422  -0.521  1.00  0.00     0.248 C 
HETATM    2  O2  UNL     1       9.979  33.385  -1.796  1.00  0.00    -0.271 OA
HETATM    3  N3  UNL     1       8.954  33.715   0.287  1.00  0.00    -0.346 N 
ATOM      4  H3  UNL     1       9.075  33.733   1.300  1.00  0.00     0.163 HD
ENDROOT
BRANCH   3   5
HETATM    5  C6  UNL     1       7.622  33.996  -0.276  1.00  0.00     0.177 C 
BRANCH   5   6
HETATM    6  C7  UNL     1       6.646  33.839   0.853  1.00  0.00     0.038 C 
BRANCH   6   7
HETATM    7  C8  UNL     1       5.561  32.825   0.659  1.00  0.00    -0.020 C 
HETATM    8  C9  UNL     1       4.336  33.605   0.108  1.00  0.00     0.009 C 
HETATM    9  C10 UNL     1       5.117  32.285   1.996  1.00  0.00     0.009 C 
ENDBRANCH   6   7
ENDBRANCH   5   6
BRANCH   5  10
HETATM   10  C11 UNL     1       7.645  35.389  -0.826  1.00  0.00     0.241 C 
HETATM   11  O3  UNL     1       8.306  36.248  -0.164  1.00  0.00    -0.271 OA
HETATM   12  N4  UNL     1       7.002  35.797  -2.007  1.00  0.00    -0.347 N 
ATOM     13  H4  UNL     1       6.459  35.141  -2.569  1.00  0.00     0.163 HD
BRANCH  12  14
HETATM   14  C12 UNL     1       7.146  37.246  -2.411  1.00  0.00     0.162 C 
BRANCH  14  15
HETATM   15  C13 UNL     1       7.366  37.228  -3.845  1.00  0.00     0.137 C 
BRANCH  15  16
HETATM   16  O4  UNL     1       8.539  36.629  -4.164  1.00  0.00    -0.348 OA
ATOM     17  H4  UNL     1       8.610  36.471  -5.097  1.00  0.00     0.219 HD
ENDBRANCH  15  16
BRANCH  15  18
HETATM   18  N5  UNL     1       6.716  37.647  -5.000  1.00  0.00    -0.363 N 
HETATM   19  C14 UNL     1       7.448  37.591  -6.296  1.00  0.00     0.125 C 
HETATM   20  C15 UNL     1       6.550  38.208  -7.284  1.00  0.00     0.026 C 
HETATM   21  C16 UNL     1       5.173  37.897  -6.761  1.00  0.00     0.001 C 
HETATM   22  C17 UNL     1       4.156  38.902  -7.248  1.00  0.00     0.011 C 
HETATM   23  C18 UNL     1       5.384  38.118  -5.263  1.00  0.00     0.129 C 
ENDBRANCH  15  18
ENDBRANCH  14  15
BRANCH  14  24
HETATM   24  C19 UNL     1       6.206  38.083  -1.699  1.00  0.00     0.008 C 
HETATM   25  C20 UNL     1       6.324  39.536  -1.991  1.00  0.00     0.012 C 
HETATM   26  C21 UNL     1       4.758  37.619  -1.667  1.00  0.00     0.012 C 
ENDBRANCH  14  24
ENDBRANCH  12  14
ENDBRANCH   5  10
ENDBRANCH   3   5
BRANCH   1  27
HETATM   27  C4  UNL     1      11.392  33.141   0.037  1.00  0.00     0.247 C 
BRANCH  27  28
HETATM   28  N2  UNL     1      11.121  32.396   1.305  1.00  0.00    -0.340 N 
HETATM   29  C3  UNL     1      10.984  31.005   1.295  1.00  0.00     0.249 C 
HETATM   30  O1  UNL     1      11.126  30.430   0.157  1.00  0.00    -0.271 OA
ATOM     31  H2  UNL     1      11.037  32.907   2.184  1.00  0.00     0.163 HD
BRANCH  29  32
HETATM   32  C2  UNL     1      10.700  30.110   2.412  1.00  0.00     0.280 C 
BRANCH  32  33
HETATM   33  N1  UNL     1       9.248  29.848   2.371  1.00  0.00    -0.066 N 
HETATM   34  C1  UNL     1       8.494  31.006   2.743  1.00  0.00     0.267 C 
ATOM     35  H12 UNL     1       8.998  29.041   2.942  1.00  0.00     0.277 HD
ATOM     36  H11 UNL     1       8.959  29.492   1.460  1.00  0.00     0.277 HD
ENDBRANCH  32  33
BRANCH  32  37
HETATM   37  C26 UNL     1      11.419  28.823   2.489  1.00  0.00     0.025 C 
HETATM   38  C27 UNL     1      12.882  28.944   2.785  1.00  0.00     0.007 C 
HETATM   39  C28 UNL     1      13.161  28.365   4.158  1.00  0.00     0.000 C 
HETATM   40  C29 UNL     1      12.256  28.970   5.213  1.00  0.00     0.000 C 
HETATM   41  C30 UNL     1      10.850  28.519   4.930  1.00  0.00     0.000 C 
HETATM   42  C31 UNL     1      10.780  27.945   3.535  1.00  0.00     0.007 C 
ENDBRANCH  32  37
ENDBRANCH  29  32
ENDBRANCH  27  28
BRANCH  27  43
HETATM   43  C22 UNL     1      12.063  34.416   0.384  1.00  0.00     0.162 C 
HETATM   44  O5  UNL     1      11.435  35.294   1.006  1.00  0.00    -0.295 OA
BRANCH  43  45
HETATM   45  C23 UNL     1      13.451  34.700   0.028  1.00  0.00     0.050 C 
HETATM   46  C24 UNL     1      14.503  34.191   0.944  1.00  0.00     0.017 C 
HETATM   47  C25 UNL     1      13.748  34.224  -1.401  1.00  0.00     0.017 C 
ENDBRANCH  43  45
ENDBRANCH  27  43
ENDBRANCH   1  27
TORSDOF 16
ENDMDL
MODEL 4
REMARK VINA RESULT: -6.883990059      2.577      5.454
REMARK  16 active torsions:
REMARK  status: ('A' for Active; 'I' for Inactive)
REMARK    1  A    between atoms: N1_2  and  C2_5 
REMARK    2  A    between atoms: C2_5  and  C3_6 
REMARK    3  A    between atoms: C2_5  and  C26_42 
REMARK       I    between atoms: C3_6  and  N2_8 
REMARK    4  A    between atoms: N2_8  and  C4_10 
REMARK    5  A    between atoms: C4_10  and  C5_11 
REMARK    6  A    between atoms: C4_10  and  C22_37 
REMARK       I    between atoms: C5_11  and  N3_13 
REMARK    7  A    between atoms: N3_13  and  C6_15 
REMARK    8  A    between atoms: C6_15  and  C7_16 
REMARK    9  A    between atoms: C6_15  and  C11_20 
REMARK   10  A    between atoms: C7_16  and  C8_17 
REMARK       I    between atoms: C11_20  and  N4_22 
REMARK   11  A    between atoms: N4_22  and  C12_24 
REMARK   12  A    between atoms: C12_24  and  C13_25 
REMARK   13  A    between atoms: C12_24  and  C19_34 
REMARK   14  A    between atoms: C13_25  and  O4_26 
REMARK   15  A    between atoms: C13_25  and  N5_28 
REMARK   16  A    between atoms: C22_37  and  C23_39 
ROOT
HETATM    1  C5  UNL     1       7.491  35.706   0.883  1.00  0.00     0.248 C 
HETATM    2  O2  UNL     1       7.414  36.618   1.775  1.00  0.00    -0.271 OA
HETATM    3  N3  UNL     1       8.015  35.953  -0.391  1.00  0.00    -0.346 N 
ATOM      4  H3  UNL     1       8.051  35.188  -1.066  1.00  0.00     0.163 HD
ENDROOT
BRANCH   3   5
HETATM    5  C6  UNL     1       8.515  37.279  -0.791  1.00  0.00     0.177 C 
BRANCH   5   6
HETATM    6  C7  UNL     1      10.010  37.164  -0.851  1.00  0.00     0.038 C 
BRANCH   6   7
HETATM    7  C8  UNL     1      10.774  37.823   0.255  1.00  0.00    -0.020 C 
HETATM    8  C9  UNL     1      11.077  36.708   1.293  1.00  0.00     0.009 C 
HETATM    9  C10 UNL     1       9.887  38.806   0.979  1.00  0.00     0.009 C 
ENDBRANCH   6   7
ENDBRANCH   5   6
BRANCH   5  10
HETATM   10  C11 UNL     1       7.910  37.614  -2.120  1.00  0.00     0.241 C 
HETATM   11  O3  UNL     1       7.498  38.806  -2.269  1.00  0.00    -0.271 OA
HETATM   12  N4  UNL     1       7.778  36.715  -3.192  1.00  0.00    -0.347 N 
ATOM     13  H4  UNL     1       8.095  35.748  -3.115  1.00  0.00     0.163 HD
BRANCH  12  14
HETATM   14  C12 UNL     1       7.150  37.237  -4.463  1.00  0.00     0.162 C 
BRANCH  14  15
HETATM   15  C13 UNL     1       8.208  37.220  -5.454  1.00  0.00     0.137 C 
BRANCH  15  16
HETATM   16  O4  UNL     1       9.329  36.625  -4.979  1.00  0.00    -0.348 OA
ATOM     17  H4  UNL     1       9.319  35.687  -5.129  1.00  0.00     0.219 HD
ENDBRANCH  15  16
BRANCH  15  18
HETATM   18  N5  UNL     1       8.410  37.638  -6.764  1.00  0.00    -0.363 N 
HETATM   19  C14 UNL     1       9.748  38.167  -7.151  1.00  0.00     0.125 C 
HETATM   20  C15 UNL     1       9.602  38.632  -8.540  1.00  0.00     0.026 C 
HETATM   21  C16 UNL     1       8.547  37.723  -9.114  1.00  0.00     0.001 C 
HETATM   22  C17 UNL     1       7.828  38.373 -10.272  1.00  0.00     0.011 C 
HETATM   23  C18 UNL     1       7.577  37.639  -7.935  1.00  0.00     0.129 C 
ENDBRANCH  15  18
ENDBRANCH  14  15
BRANCH  14  24
HETATM   24  C19 UNL     1       5.809  36.723  -4.632  1.00  0.00     0.008 C 
HETATM   25  C20 UNL     1       5.314  35.897  -3.499  1.00  0.00     0.012 C 
HETATM   26  C21 UNL     1       4.756  37.698  -5.133  1.00  0.00     0.012 C 
ENDBRANCH  14  24
ENDBRANCH  12  14
ENDBRANCH   5  10
ENDBRANCH   3   5
BRANCH   1  27
HETATM   27  C4  UNL     1       6.989  34.383   1.287  1.00  0.00     0.247 C 
BRANCH  27  28
HETATM   28  N2  UNL     1       7.944  33.411   0.670  1.00  0.00    -0.340 N 
HETATM   29  C3  UNL     1       9.110  33.037   1.345  1.00  0.00     0.249 C 
HETATM   30  O1  UNL     1       9.282  33.553   2.507  1.00  0.00    -0.271 OA
ATOM     31  H2  UNL     1       7.744  33.019  -0.250  1.00  0.00     0.163 HD
BRANCH  29  32
HETATM   32  C2  UNL     1      10.164  32.129   0.906  1.00  0.00     0.280 C 
BRANCH  32  33
HETATM   33  N1  UNL     1       9.733  30.774   1.303  1.00  0.00    -0.066 N 
HETATM   34  C1  UNL     1      10.403  30.335   2.488  1.00  0.00     0.267 C 
ATOM     35  H12 UNL     1       9.848  30.107   0.540  1.00  0.00     0.277 HD
ATOM     36  H11 UNL     1       8.719  30.721   1.406  1.00  0.00     0.277 HD
ENDBRANCH  32  33
BRANCH  32  37
HETATM   37  C26 UNL     1      10.538  32.115  -0.522  1.00  0.00     0.025 C 
HETATM   38  C27 UNL     1      10.504  33.457  -1.188  1.00  0.00     0.007 C 
HETATM   39  C28 UNL     1      11.916  33.863  -1.558  1.00  0.00     0.000 C 
HETATM   40  C29 UNL     1      12.853  33.776  -0.369  1.00  0.00     0.000 C 
HETATM   41  C30 UNL     1      12.998  32.327   0.000  1.00  0.00     0.000 C 
HETATM   42  C31 UNL     1      11.916  31.525  -0.683  1.00  0.00     0.007 C 
ENDBRANCH  32  37
ENDBRANCH  29  32
ENDBRANCH  27  28
BRANCH  27  43
HETATM   43  C22 UNL     1       5.651  34.156   0.690  1.00  0.00     0.162 C 
HETATM   44  O5  UNL     1       5.101  35.071   0.046  1.00  0.00    -0.295 OA
BRANCH  43  45
HETATM   45  C23 UNL     1       4.931  32.893   0.822  1.00  0.00     0.050 C 
HETATM   46  C24 UNL     1       5.025  32.193   2.128  1.00  0.00     0.017 C 
HETATM   47  C25 UNL     1       3.453  33.074   0.447  1.00  0.00     0.017 C 
ENDBRANCH  43  45
ENDBRANCH  27  43
ENDBRANCH   1  27
TORSDOF 16
ENDMDL
MODEL 5
REMARK VINA RESULT: -6.745881794      2.253      8.879
REMARK  16 active torsions:
REMARK  status: ('A' for Active; 'I' for Inactive)
REMARK    1  A    between atoms: N1_2  and  C2_5 
REMARK    2  A    between atoms: C2_5  and  C3_6 
REMARK    3  A    between atoms: C2_5  and  C26_42 
REMARK       I    between atoms: C3_6  and  N2_8 
REMARK    4  A    between atoms: N2_8  and  C4_10 
REMARK    5  A    between atoms: C4_10  and  C5_11 
REMARK    6  A    between atoms: C4_10  and  C22_37 
REMARK       I    between atoms: C5_11  and  N3_13 
REMARK    7  A    between atoms: N3_13  and  C6_15 
REMARK    8  A    between atoms: C6_15  and  C7_16 
REMARK    9  A    between atoms: C6_15  and  C11_20 
REMARK   10  A    between atoms: C7_16  and  C8_17 
REMARK       I    between atoms: C11_20  and  N4_22 
REMARK   11  A    between atoms: N4_22  and  C12_24 
REMARK   12  A    between atoms: C12_24  and  C13_25 
REMARK   13  A    between atoms: C12_24  and  C19_34 
REMARK   14  A    between atoms: C13_25  and  O4_26 
REMARK   15  A    between atoms: C13_25  and  N5_28 
REMARK   16  A    between atoms: C22_37  and  C23_39 
ROOT
HETATM    1  C5  UNL     1      10.744  33.245   1.108  1.00  0.00     0.248 C 
HETATM    2  O2  UNL     1      10.683  34.005   2.133  1.00  0.00    -0.271 OA
HETATM    3  N3  UNL     1      10.370  31.897   1.156  1.00  0.00    -0.346 N 
ATOM      4  H3  UNL     1      10.440  31.335   0.307  1.00  0.00     0.163 HD
ENDROOT
BRANCH   3   5
HETATM    5  C6  UNL     1       9.876  31.263   2.391  1.00  0.00     0.177 C 
BRANCH   5   6
HETATM    6  C7  UNL     1       8.470  30.824   2.105  1.00  0.00     0.038 C 
BRANCH   6   7
HETATM    7  C8  UNL     1       7.386  31.532   2.857  1.00  0.00    -0.020 C 
HETATM    8  C9  UNL     1       6.069  31.245   2.086  1.00  0.00     0.009 C 
HETATM    9  C10 UNL     1       7.583  33.025   2.760  1.00  0.00     0.009 C 
ENDBRANCH   6   7
ENDBRANCH   5   6
BRANCH   5  10
HETATM   10  C11 UNL     1      10.784  30.114   2.708  1.00  0.00     0.241 C 
HETATM   11  O3  UNL     1      11.273  29.489   1.716  1.00  0.00    -0.271 OA
HETATM   12  N4  UNL     1      11.130  29.698   4.004  1.00  0.00    -0.347 N 
ATOM     13  H4  UNL     1      10.760  30.170   4.829  1.00  0.00     0.163 HD
BRANCH  12  14
HETATM   14  C12 UNL     1      12.071  28.522   4.128  1.00  0.00     0.162 C 
BRANCH  14  15
HETATM   15  C13 UNL     1      13.377  29.097   4.385  1.00  0.00     0.137 C 
BRANCH  15  16
HETATM   16  O4  UNL     1      14.106  29.212   3.249  1.00  0.00    -0.348 OA
ATOM     17  H4  UNL     1      13.871  28.548   2.612  1.00  0.00     0.219 HD
ENDBRANCH  15  16
BRANCH  15  18
HETATM   18  N5  UNL     1      14.106  29.573   5.469  1.00  0.00    -0.363 N 
HETATM   19  C14 UNL     1      15.538  29.934   5.268  1.00  0.00     0.125 C 
HETATM   20  C15 UNL     1      16.050  30.275   6.604  1.00  0.00     0.026 C 
HETATM   21  C16 UNL     1      14.846  30.825   7.321  1.00  0.00     0.001 C 
HETATM   22  C17 UNL     1      14.976  30.673   8.818  1.00  0.00     0.011 C 
HETATM   23  C18 UNL     1      13.764  29.861   6.835  1.00  0.00     0.129 C 
ENDBRANCH  15  18
ENDBRANCH  14  15
BRANCH  14  24
HETATM   24  C19 UNL     1      11.454  27.434   4.855  1.00  0.00     0.008 C 
HETATM   25  C20 UNL     1      12.391  26.360   5.275  1.00  0.00     0.012 C 
HETATM   26  C21 UNL     1      10.479  27.810   5.959  1.00  0.00     0.012 C 
ENDBRANCH  14  24
ENDBRANCH  12  14
ENDBRANCH   5  10
ENDBRANCH   3   5
BRANCH   1  27
HETATM   27  C4  UNL     1      11.238  33.883  -0.123  1.00  0.00     0.247 C 
BRANCH  27  28
HETATM   28  N2  UNL     1      10.013  34.111  -0.949  1.00  0.00    -0.340 N 
HETATM   29  C3  UNL     1       9.303  35.311  -0.848  1.00  0.00     0.249 C 
HETATM   30  O1  UNL     1       9.779  36.184  -0.038  1.00  0.00    -0.271 OA
ATOM     31  H2  UNL     1       9.693  33.386  -1.591  1.00  0.00     0.163 HD
BRANCH  29  32
HETATM   32  C2  UNL     1       8.085  35.709  -1.547  1.00  0.00     0.280 C 
BRANCH  32  33
HETATM   33  N1  UNL     1       8.518  36.259  -2.847  1.00  0.00    -0.066 N 
HETATM   34  C1  UNL     1       8.475  37.689  -2.854  1.00  0.00     0.267 C 
ATOM     35  H12 UNL     1       7.977  35.866  -3.617  1.00  0.00     0.277 HD
ATOM     36  H11 UNL     1       9.441  35.913  -3.109  1.00  0.00     0.277 HD
ENDBRANCH  32  33
BRANCH  32  37
HETATM   37  C26 UNL     1       7.038  34.696  -1.779  1.00  0.00     0.025 C 
HETATM   38  C27 UNL     1       6.739  33.827  -0.596  1.00  0.00     0.007 C 
HETATM   39  C28 UNL     1       5.338  34.126  -0.102  1.00  0.00     0.000 C 
HETATM   40  C29 UNL     1       5.135  35.608   0.142  1.00  0.00     0.000 C 
HETATM   41  C30 UNL     1       5.186  36.306  -1.188  1.00  0.00     0.000 C 
HETATM   42  C31 UNL     1       5.765  35.371  -2.223  1.00  0.00     0.007 C 
ENDBRANCH  32  37
ENDBRANCH  29  32
ENDBRANCH  27  28
BRANCH  27  43
HETATM   43  C22 UNL     1      12.118  32.939  -0.852  1.00  0.00     0.162 C 
HETATM   44  O5  UNL     1      11.631  31.911  -1.363  1.00  0.00    -0.295 OA
BRANCH  43  45
HETATM   45  C23 UNL     1      13.554  33.156  -1.007  1.00  0.00     0.050 C 
HETATM   46  C24 UNL     1      14.001  34.538  -1.316  1.00  0.00     0.017 C 
HETATM   47  C25 UNL     1      14.311  32.640   0.226  1.00  0.00     0.017 C 
ENDBRANCH  43  45
ENDBRANCH  27  43
ENDBRANCH   1  27
TORSDOF 16
ENDMDL
