MODEL 1
REMARK VINA RESULT: -7.687566740      0.000      0.000
REMARK  16 active torsions:
REMARK  status: ('A' for Active; 'I' for Inactive)
REMARK    1  A    between atoms: C2_2  and  C3_3 
REMARK    2  A    between atoms: C3_3  and  C4_4 
REMARK    3  A    between atoms: C4_4  and  C5_5 
REMARK    4  A    between atoms: C5_5  and  C6_6 
REMARK    5  A    between atoms: C6_6  and  C7_7 
REMARK    6  A    between atoms: C7_7  and  C8_8 
REMARK    7  A    between atoms: C8_8  and  C9_9 
REMARK    8  A    between atoms: C9_9  and  C10_10 
REMARK    9  A    between atoms: C11_11  and  N1_12 
REMARK   10  A    between atoms: C14_15  and  C15_16 
REMARK   11  A    between atoms: C15_16  and  O1_17 
REMARK   12  A    between atoms: C15_16  and  C16_19 
REMARK   13  A    between atoms: C16_19  and  O2_20 
REMARK   14  A    between atoms: C16_19  and  C17_22 
REMARK   15  A    between atoms: C17_22  and  N2_23 
REMARK       I    between atoms: N2_23  and  C18_25 
REMARK       I    between atoms: C18_25  and  N3_27 
REMARK   16  A    between atoms: C26_37  and  O6_38 
ROOT
HETATM    1  N1  UNL     1       8.517  33.035   1.595  1.00  0.00    -0.039 N 
HETATM    2  C12 UNL     1       8.308  33.464   2.978  1.00  0.00     0.279 C 
HETATM    3  C13 UNL     1      10.000  33.221   1.495  1.00  0.00     0.253 C 
HETATM    4  C14 UNL     1      10.349  33.420   0.091  1.00  0.00     0.075 C 
HETATM    5  C26 UNL     1       9.121  34.182  -0.411  1.00  0.00     0.163 C 
HETATM    6  C27 UNL     1       8.035  33.920   0.615  1.00  0.00     0.160 C 
HETATM    7  C28 UNL     1       7.604  35.281   1.162  1.00  0.00     0.042 C 
HETATM    8  C29 UNL     1       6.110  35.418   1.282  1.00  0.00     0.003 C 
HETATM    9  C30 UNL     1       5.450  35.518  -0.099  1.00  0.00     0.000 C 
HETATM   10  C31 UNL     1       6.376  34.713  -1.006  1.00  0.00     0.003 C 
HETATM   11  C32 UNL     1       6.844  33.494  -0.210  1.00  0.00     0.042 C 
ENDROOT
BRANCH   4  12
HETATM   12  C15 UNL     1      11.601  34.222  -0.120  1.00  0.00     0.156 C 
BRANCH  12  13
HETATM   13  O1  UNL     1      12.345  34.368   1.046  1.00  0.00    -0.392 OA
ATOM     14  H1  UNL     1      12.969  35.082   0.993  1.00  0.00     0.210 HD
ENDBRANCH  12  13
BRANCH  12  15
HETATM   15  C16 UNL     1      12.502  33.601  -1.158  1.00  0.00     0.165 C 
BRANCH  15  16
HETATM   16  O2  UNL     1      11.870  32.398  -1.550  1.00  0.00    -0.391 OA
ATOM     17  H2  UNL     1      12.551  31.736  -1.554  1.00  0.00     0.210 HD
ENDBRANCH  15  16
BRANCH  15  18
HETATM   18  C17 UNL     1      12.627  34.421  -2.410  1.00  0.00     0.158 C 
BRANCH  18  19
HETATM   19  N2  UNL     1      11.599  35.416  -2.571  1.00  0.00    -0.340 N 
HETATM   20  C18 UNL     1      11.015  35.680  -3.818  1.00  0.00     0.318 C 
HETATM   21  O3  UNL     1      11.412  35.009  -4.834  1.00  0.00    -0.247 OA
HETATM   22  N3  UNL     1      10.009  36.636  -4.064  1.00  0.00    -0.334 N 
HETATM   23  C19 UNL     1       9.453  37.445  -3.029  1.00  0.00     0.133 C 
HETATM   24  C23 UNL     1       9.479  36.856  -5.422  1.00  0.00     0.133 C 
HETATM   25  C20 UNL     1       7.932  37.218  -3.023  1.00  0.00     0.088 C 
HETATM   26  C21 UNL     1       7.399  37.713  -4.346  1.00  0.00     0.167 C 
HETATM   27  C22 UNL     1       8.499  38.001  -5.332  1.00  0.00     0.088 C 
HETATM   28  O4  UNL     1       6.492  36.813  -4.906  1.00  0.00    -0.353 OA
HETATM   29  O5  UNL     1       6.685  38.895  -4.120  1.00  0.00    -0.353 OA
HETATM   30  C24 UNL     1       5.545  37.577  -5.545  1.00  0.00     0.197 C 
HETATM   31  C25 UNL     1       5.919  39.027  -5.275  1.00  0.00     0.197 C 
ATOM     32  H2  UNL     1      11.286  35.943  -1.756  1.00  0.00     0.164 HD
ENDBRANCH  18  19
ENDBRANCH  15  18
ENDBRANCH  12  15
ENDBRANCH   4  12
BRANCH   5  33
HETATM   33  O6  UNL     1       8.845  33.636  -1.667  1.00  0.00    -0.392 OA
ATOM     34  H6  UNL     1       8.063  33.111  -1.541  1.00  0.00     0.210 HD
ENDBRANCH   5  33
BRANCH   1  35
HETATM   35  C11 UNL     1       8.389  31.651   1.452  1.00  0.00     0.199 C 
HETATM   36  C10 UNL     1       8.672  30.621   2.413  1.00  0.00    -0.002 C 
BRANCH  36  37
HETATM   37  C9  UNL     1       9.976  30.353   3.013  1.00  0.00     0.028 C 
BRANCH  37  38
HETATM   38  C8  UNL     1      11.056  29.855   2.078  1.00  0.00     0.004 C 
BRANCH  38  39
HETATM   39  C7  UNL     1      11.733  28.637   2.611  1.00  0.00     0.000 C 
BRANCH  39  40
HETATM   40  C6  UNL     1      10.708  27.725   3.304  1.00  0.00     0.000 C 
BRANCH  40  41
HETATM   41  C5  UNL     1      11.221  27.281   4.604  1.00  0.00     0.000 C 
BRANCH  41  42
HETATM   42  C4  UNL     1      10.842  28.022   5.816  1.00  0.00     0.000 C 
BRANCH  42  43
HETATM   43  C3  UNL     1      11.528  29.238   6.252  1.00  0.00    -0.000 C 
BRANCH  43  44
HETATM   44  C2  UNL     1      13.002  29.258   6.048  1.00  0.00    -0.005 C 
HETATM   45  C1  UNL     1      13.628  30.089   7.214  1.00  0.00     0.005 C 
ENDBRANCH  43  44
ENDBRANCH  42  43
ENDBRANCH  41  42
ENDBRANCH  40  41
ENDBRANCH  39  40
ENDBRANCH  38  39
ENDBRANCH  37  38
ENDBRANCH  36  37
ENDBRANCH   1  35
TORSDOF 16
ENDMDL
MODEL 2
REMARK VINA RESULT: -7.565931119      1.198      1.348
REMARK  16 active torsions:
REMARK  status: ('A' for Active; 'I' for Inactive)
REMARK    1  A    between atoms: C2_2  and  C3_3 
REMARK    2  A    between atoms: C3_3  and  C4_4 
REMARK    3  A    between atoms: C4_4  and  C5_5 
REMARK    4  A    between atoms: C5_5  and  C6_6 
REMARK    5  A    between atoms: C6_6  and  C7_7 
REMARK    6  A    between atoms: C7_7  and  C8_8 
REMARK    7  A    between atoms: C8_8  and  C9_9 
REMARK    8  A    between atoms: C9_9  and  C10_10 
REMARK    9  A    between atoms: C11_11  and  N1_12 
REMARK   10  A    between atoms: C14_15  and  C15_16 
REMARK   11  A    between atoms: C15_16  and  O1_17 
REMARK   12  A    between atoms: C15_16  and  C16_19 
REMARK   13  A    between atoms: C16_19  and  O2_20 
REMARK   14  A    between atoms: C16_19  and  C17_22 
REMARK   15  A    between atoms: C17_22  and  N2_23 
REMARK       I    between atoms: N2_23  and  C18_25 
REMARK       I    between atoms: C18_25  and  N3_27 
REMARK   16  A    between atoms: C26_37  and  O6_38 
ROOT
HETATM    1  N1  UNL     1       8.715  32.916   1.722  1.00  0.00    -0.039 N 
HETATM    2  C12 UNL     1       8.498  33.209   3.139  1.00  0.00     0.279 C 
HETATM    3  C13 UNL     1      10.190  33.162   1.637  1.00  0.00     0.253 C 
HETATM    4  C14 UNL     1      10.525  33.501   0.255  1.00  0.00     0.075 C 
HETATM    5  C26 UNL     1       9.268  34.262  -0.172  1.00  0.00     0.163 C 
HETATM    6  C27 UNL     1       8.197  33.868   0.828  1.00  0.00     0.160 C 
HETATM    7  C28 UNL     1       7.721  35.158   1.498  1.00  0.00     0.042 C 
HETATM    8  C29 UNL     1       6.224  35.230   1.633  1.00  0.00     0.003 C 
HETATM    9  C30 UNL     1       5.553  35.432   0.268  1.00  0.00     0.000 C 
HETATM   10  C31 UNL     1       6.502  34.746  -0.711  1.00  0.00     0.003 C 
HETATM   11  C32 UNL     1       7.018  33.477  -0.030  1.00  0.00     0.042 C 
ENDROOT
BRANCH   4  12
HETATM   12  C15 UNL     1      11.746  34.364   0.117  1.00  0.00     0.156 C 
BRANCH  12  13
HETATM   13  O1  UNL     1      12.559  34.324   1.244  1.00  0.00    -0.392 OA
ATOM     14  H1  UNL     1      12.499  35.116   1.765  1.00  0.00     0.210 HD
ENDBRANCH  12  13
BRANCH  12  15
HETATM   15  C16 UNL     1      12.590  33.961  -1.066  1.00  0.00     0.165 C 
BRANCH  15  16
HETATM   16  O2  UNL     1      11.805  33.051  -1.812  1.00  0.00    -0.391 OA
ATOM     17  H2  UNL     1      12.056  32.185  -1.514  1.00  0.00     0.210 HD
ENDBRANCH  15  16
BRANCH  15  18
HETATM   18  C17 UNL     1      12.893  35.096  -2.001  1.00  0.00     0.158 C 
BRANCH  18  19
HETATM   19  N2  UNL     1      11.978  36.204  -1.902  1.00  0.00    -0.340 N 
HETATM   20  C18 UNL     1      10.875  36.328  -2.757  1.00  0.00     0.318 C 
HETATM   21  O3  UNL     1      10.681  35.425  -3.643  1.00  0.00    -0.247 OA
HETATM   22  N3  UNL     1       9.935  37.379  -2.731  1.00  0.00    -0.334 N 
HETATM   23  C19 UNL     1      10.007  38.447  -1.787  1.00  0.00     0.133 C 
HETATM   24  C23 UNL     1       8.821  37.432  -3.694  1.00  0.00     0.133 C 
HETATM   25  C20 UNL     1       8.675  38.485  -1.021  1.00  0.00     0.088 C 
HETATM   26  C21 UNL     1       7.591  38.812  -2.020  1.00  0.00     0.167 C 
HETATM   27  C22 UNL     1       8.080  38.723  -3.441  1.00  0.00     0.088 C 
HETATM   28  O4  UNL     1       6.475  37.990  -1.857  1.00  0.00    -0.353 OA
HETATM   29  O5  UNL     1       7.150  40.119  -1.784  1.00  0.00    -0.353 OA
HETATM   30  C24 UNL     1       5.382  38.772  -2.146  1.00  0.00     0.197 C 
HETATM   31  C25 UNL     1       5.925  40.163  -2.442  1.00  0.00     0.197 C 
ATOM     32  H2  UNL     1      12.138  36.917  -1.191  1.00  0.00     0.164 HD
ENDBRANCH  18  19
ENDBRANCH  15  18
ENDBRANCH  12  15
ENDBRANCH   4  12
BRANCH   5  33
HETATM   33  O6  UNL     1       9.005  33.823  -1.473  1.00  0.00    -0.392 OA
ATOM     34  H6  UNL     1       8.137  34.153  -1.673  1.00  0.00     0.210 HD
ENDBRANCH   5  33
BRANCH   1  35
HETATM   35  C11 UNL     1       8.636  31.547   1.453  1.00  0.00     0.199 C 
HETATM   36  C10 UNL     1       8.860  30.444   2.346  1.00  0.00    -0.002 C 
BRANCH  36  37
HETATM   37  C9  UNL     1      10.113  30.150   3.035  1.00  0.00     0.028 C 
BRANCH  37  38
HETATM   38  C8  UNL     1      11.242  29.618   2.178  1.00  0.00     0.004 C 
BRANCH  38  39
HETATM   39  C7  UNL     1      11.841  28.379   2.756  1.00  0.00     0.000 C 
BRANCH  39  40
HETATM   40  C6  UNL     1      10.764  27.567   3.492  1.00  0.00     0.000 C 
BRANCH  40  41
HETATM   41  C5  UNL     1      11.213  27.241   4.849  1.00  0.00     0.000 C 
BRANCH  41  42
HETATM   42  C4  UNL     1      10.853  28.136   5.959  1.00  0.00     0.000 C 
BRANCH  42  43
HETATM   43  C3  UNL     1      11.637  29.319   6.313  1.00  0.00    -0.000 C 
BRANCH  43  44
HETATM   44  C2  UNL     1      13.112  29.185   6.167  1.00  0.00    -0.005 C 
HETATM   45  C1  UNL     1      13.778  30.113   7.234  1.00  0.00     0.005 C 
ENDBRANCH  43  44
ENDBRANCH  42  43
ENDBRANCH  41  42
ENDBRANCH  40  41
ENDBRANCH  39  40
ENDBRANCH  38  39
ENDBRANCH  37  38
ENDBRANCH  36  37
ENDBRANCH   1  35
TORSDOF 16
ENDMDL
MODEL 3
REMARK VINA RESULT: -7.521722394      1.617      1.984
REMARK  16 active torsions:
REMARK  status: ('A' for Active; 'I' for Inactive)
REMARK    1  A    between atoms: C2_2  and  C3_3 
REMARK    2  A    between atoms: C3_3  and  C4_4 
REMARK    3  A    between atoms: C4_4  and  C5_5 
REMARK    4  A    between atoms: C5_5  and  C6_6 
REMARK    5  A    between atoms: C6_6  and  C7_7 
REMARK    6  A    between atoms: C7_7  and  C8_8 
REMARK    7  A    between atoms: C8_8  and  C9_9 
REMARK    8  A    between atoms: C9_9  and  C10_10 
REMARK    9  A    between atoms: C11_11  and  N1_12 
REMARK   10  A    between atoms: C14_15  and  C15_16 
REMARK   11  A    between atoms: C15_16  and  O1_17 
REMARK   12  A    between atoms: C15_16  and  C16_19 
REMARK   13  A    between atoms: C16_19  and  O2_20 
REMARK   14  A    between atoms: C16_19  and  C17_22 
REMARK   15  A    between atoms: C17_22  and  N2_23 
REMARK       I    between atoms: N2_23  and  C18_25 
REMARK       I    between atoms: C18_25  and  N3_27 
REMARK   16  A    between atoms: C26_37  and  O6_38 
ROOT
HETATM    1  N1  UNL     1       8.515  32.966   1.352  1.00  0.00    -0.039 N 
HETATM    2  C12 UNL     1       8.786  33.570   2.656  1.00  0.00     0.279 C 
HETATM    3  C13 UNL     1       9.890  33.021   0.759  1.00  0.00     0.253 C 
HETATM    4  C14 UNL     1       9.767  33.025  -0.697  1.00  0.00     0.075 C 
HETATM    5  C26 UNL     1       8.471  33.817  -0.880  1.00  0.00     0.163 C 
HETATM    6  C27 UNL     1       7.772  33.765   0.466  1.00  0.00     0.160 C 
HETATM    7  C28 UNL     1       7.594  35.211   0.929  1.00  0.00     0.042 C 
HETATM    8  C29 UNL     1       6.228  35.479   1.501  1.00  0.00     0.003 C 
HETATM    9  C30 UNL     1       5.156  35.467   0.403  1.00  0.00     0.000 C 
HETATM   10  C31 UNL     1       5.704  34.490  -0.633  1.00  0.00     0.003 C 
HETATM   11  C32 UNL     1       6.362  33.340   0.131  1.00  0.00     0.042 C 
ENDROOT
BRANCH   4  12
HETATM   12  C15 UNL     1      10.909  33.695  -1.405  1.00  0.00     0.156 C 
BRANCH  12  13
HETATM   13  O1  UNL     1      10.503  34.387  -2.540  1.00  0.00    -0.392 OA
ATOM     14  H1  UNL     1      11.202  34.490  -3.175  1.00  0.00     0.210 HD
ENDBRANCH  12  13
BRANCH  12  15
HETATM   15  C16 UNL     1      11.630  34.673  -0.511  1.00  0.00     0.165 C 
BRANCH  15  16
HETATM   16  O2  UNL     1      12.977  34.242  -0.470  1.00  0.00    -0.391 OA
ATOM     17  H2  UNL     1      12.972  33.419   0.004  1.00  0.00     0.210 HD
ENDBRANCH  15  16
BRANCH  15  18
HETATM   18  C17 UNL     1      11.668  36.070  -1.061  1.00  0.00     0.158 C 
BRANCH  18  19
HETATM   19  N2  UNL     1      10.410  36.767  -0.994  1.00  0.00    -0.340 N 
HETATM   20  C18 UNL     1      10.122  37.852  -1.834  1.00  0.00     0.318 C 
HETATM   21  O3  UNL     1      11.006  38.223  -2.682  1.00  0.00    -0.247 OA
HETATM   22  N3  UNL     1       8.921  38.589  -1.832  1.00  0.00    -0.334 N 
HETATM   23  C19 UNL     1       7.835  38.283  -0.958  1.00  0.00     0.133 C 
HETATM   24  C23 UNL     1       8.726  39.734  -2.740  1.00  0.00     0.133 C 
HETATM   25  C20 UNL     1       6.590  38.036  -1.826  1.00  0.00     0.088 C 
HETATM   26  C21 UNL     1       6.273  39.331  -2.535  1.00  0.00     0.167 C 
HETATM   27  C22 UNL     1       7.383  40.339  -2.404  1.00  0.00     0.088 C 
HETATM   28  O4  UNL     1       5.986  39.123  -3.884  1.00  0.00    -0.353 OA
HETATM   29  O5  UNL     1       5.113  39.872  -1.968  1.00  0.00    -0.353 OA
HETATM   30  C24 UNL     1       5.017  40.041  -4.212  1.00  0.00     0.197 C 
HETATM   31  C25 UNL     1       4.693  40.789  -2.926  1.00  0.00     0.197 C 
ATOM     32  H2  UNL     1       9.710  36.463  -0.318  1.00  0.00     0.164 HD
ENDBRANCH  18  19
ENDBRANCH  15  18
ENDBRANCH  12  15
ENDBRANCH   4  12
BRANCH   5  33
HETATM   33  O6  UNL     1       7.780  33.150  -1.894  1.00  0.00    -0.392 OA
ATOM     34  H6  UNL     1       6.957  32.886  -1.499  1.00  0.00     0.210 HD
ENDBRANCH   5  33
BRANCH   1  35
HETATM   35  C11 UNL     1       8.297  31.589   1.448  1.00  0.00     0.199 C 
HETATM   36  C10 UNL     1       8.612  30.707   2.537  1.00  0.00    -0.002 C 
BRANCH  36  37
HETATM   37  C9  UNL     1       9.950  30.445   3.060  1.00  0.00     0.028 C 
BRANCH  37  38
HETATM   38  C8  UNL     1      10.967  29.919   2.070  1.00  0.00     0.004 C 
BRANCH  38  39
HETATM   39  C7  UNL     1      11.700  28.734   2.606  1.00  0.00     0.000 C 
BRANCH  39  40
HETATM   40  C6  UNL     1      10.715  27.766   3.280  1.00  0.00     0.000 C 
BRANCH  40  41
HETATM   41  C5  UNL     1      11.245  27.320   4.573  1.00  0.00     0.000 C 
BRANCH  41  42
HETATM   42  C4  UNL     1      10.871  28.052   5.792  1.00  0.00     0.000 C 
BRANCH  42  43
HETATM   43  C3  UNL     1      11.559  29.265   6.234  1.00  0.00    -0.000 C 
BRANCH  43  44
HETATM   44  C2  UNL     1      13.033  29.282   6.034  1.00  0.00    -0.005 C 
HETATM   45  C1  UNL     1      13.664  30.053   7.238  1.00  0.00     0.005 C 
ENDBRANCH  43  44
ENDBRANCH  42  43
ENDBRANCH  41  42
ENDBRANCH  40  41
ENDBRANCH  39  40
ENDBRANCH  38  39
ENDBRANCH  37  38
ENDBRANCH  36  37
ENDBRANCH   1  35
TORSDOF 16
ENDMDL
MODEL 4
REMARK VINA RESULT: -7.496012100      1.150      1.657
REMARK  16 active torsions:
REMARK  status: ('A' for Active; 'I' for Inactive)
REMARK    1  A    between atoms: C2_2  and  C3_3 
REMARK    2  A    between atoms: C3_3  and  C4_4 
REMARK    3  A    between atoms: C4_4  and  C5_5 
REMARK    4  A    between atoms: C5_5  and  C6_6 
REMARK    5  A    between atoms: C6_6  and  C7_7 
REMARK    6  A    between atoms: C7_7  and  C8_8 
REMARK    7  A    between atoms: C8_8  and  C9_9 
REMARK    8  A    between atoms: C9_9  and  C10_10 
REMARK    9  A    between atoms: C11_11  and  N1_12 
REMARK   10  A    between atoms: C14_15  and  C15_16 
REMARK   11  A    between atoms: C15_16  and  O1_17 
REMARK   12  A    between atoms: C15_16  and  C16_19 
REMARK   13  A    between atoms: C16_19  and  O2_20 
REMARK   14  A    between atoms: C16_19  and  C17_22 
REMARK   15  A    between atoms: C17_22  and  N2_23 
REMARK       I    between atoms: N2_23  and  C18_25 
REMARK       I    between atoms: C18_25  and  N3_27 
REMARK   16  A    between atoms: C26_37  and  O6_38 
ROOT
HETATM    1  N1  UNL     1       7.056  34.129   1.136  1.00  0.00    -0.039 N 
HETATM    2  C12 UNL     1       6.420  34.870   2.225  1.00  0.00     0.279 C 
HETATM    3  C13 UNL     1       8.481  34.182   1.594  1.00  0.00     0.253 C 
HETATM    4  C14 UNL     1       9.349  34.036   0.428  1.00  0.00     0.075 C 
HETATM    5  C26 UNL     1       8.524  34.751  -0.643  1.00  0.00     0.163 C 
HETATM    6  C27 UNL     1       7.110  34.803  -0.096  1.00  0.00     0.160 C 
HETATM    7  C28 UNL     1       6.719  36.279  -0.016  1.00  0.00     0.042 C 
HETATM    8  C29 UNL     1       5.326  36.545  -0.518  1.00  0.00     0.003 C 
HETATM    9  C30 UNL     1       5.244  36.379  -2.041  1.00  0.00     0.000 C 
HETATM   10  C31 UNL     1       6.306  35.327  -2.352  1.00  0.00     0.003 C 
HETATM   11  C32 UNL     1       6.257  34.288  -1.231  1.00  0.00     0.042 C 
ENDROOT
BRANCH   4  12
HETATM   12  C15 UNL     1      10.697  34.680   0.585  1.00  0.00     0.156 C 
BRANCH  12  13
HETATM   13  O1  UNL     1      11.031  34.903   1.916  1.00  0.00    -0.392 OA
ATOM     14  H1  UNL     1      10.601  35.670   2.277  1.00  0.00     0.210 HD
ENDBRANCH  12  13
BRANCH  12  15
HETATM   15  C16 UNL     1      11.795  33.846  -0.025  1.00  0.00     0.165 C 
BRANCH  15  16
HETATM   16  O2  UNL     1      11.151  32.761  -0.663  1.00  0.00    -0.391 OA
ATOM     17  H2  UNL     1      10.224  32.865  -0.481  1.00  0.00     0.210 HD
ENDBRANCH  15  16
BRANCH  15  18
HETATM   18  C17 UNL     1      12.558  34.558  -1.105  1.00  0.00     0.158 C 
BRANCH  18  19
HETATM   19  N2  UNL     1      11.822  35.612  -1.753  1.00  0.00    -0.340 N 
HETATM   20  C18 UNL     1      11.459  35.536  -3.104  1.00  0.00     0.318 C 
HETATM   21  O3  UNL     1      11.792  34.494  -3.771  1.00  0.00    -0.247 OA
HETATM   22  N3  UNL     1      10.744  36.521  -3.815  1.00  0.00    -0.334 N 
HETATM   23  C19 UNL     1      10.287  37.727  -3.203  1.00  0.00     0.133 C 
HETATM   24  C23 UNL     1      10.434  36.357  -5.247  1.00  0.00     0.133 C 
HETATM   25  C20 UNL     1       8.765  37.807  -3.405  1.00  0.00     0.088 C 
HETATM   26  C21 UNL     1       8.515  37.909  -4.891  1.00  0.00     0.167 C 
HETATM   27  C22 UNL     1       9.752  37.627  -5.698  1.00  0.00     0.088 C 
HETATM   28  O4  UNL     1       7.485  37.060  -5.299  1.00  0.00    -0.353 OA
HETATM   29  O5  UNL     1       8.084  39.209  -5.179  1.00  0.00    -0.353 OA
HETATM   30  C24 UNL     1       6.824  37.722  -6.306  1.00  0.00     0.197 C 
HETATM   31  C25 UNL     1       7.503  39.078  -6.436  1.00  0.00     0.197 C 
ATOM     32  H2  UNL     1      11.558  36.436  -1.213  1.00  0.00     0.164 HD
ENDBRANCH  18  19
ENDBRANCH  15  18
ENDBRANCH  12  15
ENDBRANCH   4  12
BRANCH   5  33
HETATM   33  O6  UNL     1       8.651  33.957  -1.786  1.00  0.00    -0.392 OA
ATOM     34  H6  UNL     1       9.492  34.195  -2.159  1.00  0.00     0.210 HD
ENDBRANCH   5  33
BRANCH   1  35
HETATM   35  C11 UNL     1       6.782  32.760   1.206  1.00  0.00     0.199 C 
HETATM   36  C10 UNL     1       6.936  31.872   2.323  1.00  0.00    -0.002 C 
BRANCH  36  37
HETATM   37  C9  UNL     1       8.194  31.567   3.000  1.00  0.00     0.028 C 
BRANCH  37  38
HETATM   38  C8  UNL     1       8.978  30.390   2.461  1.00  0.00     0.004 C 
BRANCH  38  39
HETATM   39  C7  UNL     1      10.400  30.751   2.187  1.00  0.00     0.000 C 
BRANCH  39  40
HETATM   40  C6  UNL     1      11.299  29.515   2.349  1.00  0.00     0.000 C 
BRANCH  40  41
HETATM   41  C5  UNL     1      10.543  28.414   2.955  1.00  0.00     0.000 C 
BRANCH  41  42
HETATM   42  C4  UNL     1      11.195  27.564   3.963  1.00  0.00     0.000 C 
BRANCH  42  43
HETATM   43  C3  UNL     1      10.863  27.621   5.385  1.00  0.00    -0.000 C 
BRANCH  43  44
HETATM   44  C2  UNL     1      10.962  28.963   6.020  1.00  0.00    -0.005 C 
HETATM   45  C1  UNL     1      12.480  29.297   6.186  1.00  0.00     0.005 C 
ENDBRANCH  43  44
ENDBRANCH  42  43
ENDBRANCH  41  42
ENDBRANCH  40  41
ENDBRANCH  39  40
ENDBRANCH  38  39
ENDBRANCH  37  38
ENDBRANCH  36  37
ENDBRANCH   1  35
TORSDOF 16
ENDMDL
MODEL 5
REMARK VINA RESULT: -7.465482357      0.870      1.163
REMARK  16 active torsions:
REMARK  status: ('A' for Active; 'I' for Inactive)
REMARK    1  A    between atoms: C2_2  and  C3_3 
REMARK    2  A    between atoms: C3_3  and  C4_4 
REMARK    3  A    between atoms: C4_4  and  C5_5 
REMARK    4  A    between atoms: C5_5  and  C6_6 
REMARK    5  A    between atoms: C6_6  and  C7_7 
REMARK    6  A    between atoms: C7_7  and  C8_8 
REMARK    7  A    between atoms: C8_8  and  C9_9 
REMARK    8  A    between atoms: C9_9  and  C10_10 
REMARK    9  A    between atoms: C11_11  and  N1_12 
REMARK   10  A    between atoms: C14_15  and  C15_16 
REMARK   11  A    between atoms: C15_16  and  O1_17 
REMARK   12  A    between atoms: C15_16  and  C16_19 
REMARK   13  A    between atoms: C16_19  and  O2_20 
REMARK   14  A    between atoms: C16_19  and  C17_22 
REMARK   15  A    between atoms: C17_22  and  N2_23 
REMARK       I    between atoms: N2_23  and  C18_25 
REMARK       I    between atoms: C18_25  and  N3_27 
REMARK   16  A    between atoms: C26_37  and  O6_38 
ROOT
HETATM    1  N1  UNL     1       8.520  33.067   1.508  1.00  0.00    -0.039 N 
HETATM    2  C12 UNL     1       8.620  33.681   2.832  1.00  0.00     0.279 C 
HETATM    3  C13 UNL     1       9.971  33.034   1.135  1.00  0.00     0.253 C 
HETATM    4  C14 UNL     1      10.076  33.016  -0.322  1.00  0.00     0.075 C 
HETATM    5  C26 UNL     1       8.871  33.874  -0.713  1.00  0.00     0.163 C 
HETATM    6  C27 UNL     1       7.970  33.887   0.508  1.00  0.00     0.160 C 
HETATM    7  C28 UNL     1       7.805  35.350   0.922  1.00  0.00     0.042 C 
HETATM    8  C29 UNL     1       6.385  35.703   1.270  1.00  0.00     0.003 C 
HETATM    9  C30 UNL     1       5.497  35.728   0.019  1.00  0.00     0.000 C 
HETATM   10  C31 UNL     1       6.142  34.702  -0.908  1.00  0.00     0.003 C 
HETATM   11  C32 UNL     1       6.607  33.533  -0.037  1.00  0.00     0.042 C 
ENDROOT
BRANCH   4  12
HETATM   12  C15 UNL     1      11.350  33.608  -0.851  1.00  0.00     0.156 C 
BRANCH  12  13
HETATM   13  O1  UNL     1      11.364  33.695  -2.238  1.00  0.00    -0.392 OA
ATOM     14  H1  UNL     1      11.826  32.971  -2.645  1.00  0.00     0.210 HD
ENDBRANCH  12  13
BRANCH  12  15
HETATM   15  C16 UNL     1      11.596  34.994  -0.307  1.00  0.00     0.165 C 
BRANCH  15  16
HETATM   16  O2  UNL     1      12.770  34.901   0.476  1.00  0.00    -0.391 OA
ATOM     17  H2  UNL     1      12.621  35.451   1.235  1.00  0.00     0.210 HD
ENDBRANCH  15  16
BRANCH  15  18
HETATM   18  C17 UNL     1      11.897  36.009  -1.372  1.00  0.00     0.158 C 
BRANCH  18  19
HETATM   19  N2  UNL     1      10.769  36.816  -1.756  1.00  0.00    -0.340 N 
HETATM   20  C18 UNL     1      10.246  36.782  -3.057  1.00  0.00     0.318 C 
HETATM   21  O3  UNL     1      10.792  36.007  -3.917  1.00  0.00    -0.247 OA
HETATM   22  N3  UNL     1       9.150  37.540  -3.516  1.00  0.00    -0.334 N 
HETATM   23  C19 UNL     1       8.427  38.433  -2.670  1.00  0.00     0.133 C 
HETATM   24  C23 UNL     1       8.693  37.452  -4.915  1.00  0.00     0.133 C 
HETATM   25  C20 UNL     1       6.949  38.010  -2.696  1.00  0.00     0.088 C 
HETATM   26  C21 UNL     1       6.454  38.196  -4.110  1.00  0.00     0.167 C 
HETATM   27  C22 UNL     1       7.576  38.455  -5.078  1.00  0.00     0.088 C 
HETATM   28  O4  UNL     1       5.705  37.101  -4.542  1.00  0.00    -0.353 OA
HETATM   29  O5  UNL     1       5.586  39.294  -4.133  1.00  0.00    -0.353 OA
HETATM   30  C24 UNL     1       4.718  37.610  -5.351  1.00  0.00     0.197 C 
HETATM   31  C25 UNL     1       4.892  39.122  -5.327  1.00  0.00     0.197 C 
ATOM     32  H2  UNL     1      10.338  37.429  -1.064  1.00  0.00     0.164 HD
ENDBRANCH  18  19
ENDBRANCH  15  18
ENDBRANCH  12  15
ENDBRANCH   4  12
BRANCH   5  33
HETATM   33  O6  UNL     1       8.308  33.226  -1.815  1.00  0.00    -0.392 OA
ATOM     34  H6  UNL     1       7.735  33.871  -2.215  1.00  0.00     0.210 HD
ENDBRANCH   5  33
BRANCH   1  35
HETATM   35  C11 UNL     1       8.212  31.706   1.585  1.00  0.00     0.199 C 
HETATM   36  C10 UNL     1       8.501  30.781   2.645  1.00  0.00    -0.002 C 
BRANCH  36  37
HETATM   37  C9  UNL     1       9.834  30.418   3.117  1.00  0.00     0.028 C 
BRANCH  37  38
HETATM   38  C8  UNL     1      10.795  29.889   2.075  1.00  0.00     0.004 C 
BRANCH  38  39
HETATM   39  C7  UNL     1      11.632  28.774   2.608  1.00  0.00     0.000 C 
BRANCH  39  40
HETATM   40  C6  UNL     1      10.737  27.701   3.245  1.00  0.00     0.000 C 
BRANCH  40  41
HETATM   41  C5  UNL     1      11.266  27.310   4.555  1.00  0.00     0.000 C 
BRANCH  41  42
HETATM   42  C4  UNL     1      10.811  28.026   5.756  1.00  0.00     0.000 C 
BRANCH  42  43
HETATM   43  C3  UNL     1      11.496  29.203   6.288  1.00  0.00    -0.000 C 
BRANCH  43  44
HETATM   44  C2  UNL     1      12.964  29.259   6.051  1.00  0.00    -0.005 C 
HETATM   45  C1  UNL     1      13.593  30.131   7.185  1.00  0.00     0.005 C 
ENDBRANCH  43  44
ENDBRANCH  42  43
ENDBRANCH  41  42
ENDBRANCH  40  41
ENDBRANCH  39  40
ENDBRANCH  38  39
ENDBRANCH  37  38
ENDBRANCH  36  37
ENDBRANCH   1  35
TORSDOF 16
ENDMDL
