MODEL 1
REMARK VINA RESULT: -7.569726383      0.000      0.000
REMARK  3 active torsions:
REMARK  status: ('A' for Active; 'I' for Inactive)
REMARK    1  A    between atoms: C4_4  and  C5_5 
REMARK    2  A    between atoms: N2_18  and  C13_19 
REMARK    3  A    between atoms: C13_19  and  C14_20 
ROOT
HETATM    1  C1  UNL     1      28.942  51.179   3.807  1.00  0.00     0.017 C 
HETATM    2  C2  UNL     1      28.274  51.058   2.796  1.00  0.00    -0.090 C 
HETATM    3  C3  UNL     1      27.475  50.893   1.610  1.00  0.00     0.060 C 
HETATM    4  C4  UNL     1      26.831  49.774   1.344  1.00  0.00    -0.009 C 
ENDROOT
BRANCH   4   5
HETATM    5  C5  UNL     1      26.031  49.611   0.154  1.00  0.00     0.065 C 
HETATM    6  C6  UNL     1      25.978  50.981  -0.584  1.00  0.00     0.166 C 
HETATM    7  O1  UNL     1      26.138  50.808  -1.957  1.00  0.00    -0.347 OA
HETATM    8  C10 UNL     1      24.566  51.481  -0.449  1.00  0.00     0.179 C 
HETATM    9  C7  UNL     1      25.161  51.634  -2.522  1.00  0.00     0.158 C 
HETATM   10  C8  UNL     1      25.534  53.078  -2.408  1.00  0.00     0.078 C 
HETATM   11  C9  UNL     1      24.910  51.282  -3.966  1.00  0.00     0.078 C 
HETATM   12  O2  UNL     1      24.060  51.340  -1.720  1.00  0.00    -0.346 OA
HETATM   13  C11 UNL     1      23.949  50.545   0.520  1.00  0.00     0.141 C 
HETATM   14  N1  UNL     1      22.598  50.143   0.215  1.00  0.00    -0.334 N 
HETATM   15  C17 UNL     1      24.661  49.256   0.138  1.00  0.00     0.124 C 
HETATM   16  C12 UNL     1      22.551  48.755   0.504  1.00  0.00     0.319 C 
ATOM     17  H1  UNL     1      21.840  50.730  -0.132  1.00  0.00     0.164 HD
HETATM   18  O3  UNL     1      21.531  47.987   0.457  1.00  0.00    -0.247 OA
HETATM   19  N2  UNL     1      23.923  48.337   0.879  1.00  0.00    -0.326 N 
BRANCH  19  20
HETATM   20  C13 UNL     1      24.052  47.200   1.721  1.00  0.00     0.132 C 
BRANCH  20  21
HETATM   21  C14 UNL     1      24.084  47.411   3.195  1.00  0.00    -0.005 C 
HETATM   22  C15 UNL     1      25.341  47.190   3.926  1.00  0.00     0.011 C 
HETATM   23  C16 UNL     1      23.024  46.509   3.858  1.00  0.00     0.011 C 
ENDBRANCH  20  21
ENDBRANCH  19  20
ENDBRANCH   4   5
TORSDOF 3
ENDMDL
MODEL 2
REMARK VINA RESULT: -7.478836632      2.225      3.259
REMARK  3 active torsions:
REMARK  status: ('A' for Active; 'I' for Inactive)
REMARK    1  A    between atoms: C4_4  and  C5_5 
REMARK    2  A    between atoms: N2_18  and  C13_19 
REMARK    3  A    between atoms: C13_19  and  C14_20 
ROOT
HETATM    1  C1  UNL     1      30.278  52.294   0.473  1.00  0.00     0.017 C 
HETATM    2  C2  UNL     1      29.459  51.675  -0.182  1.00  0.00    -0.090 C 
HETATM    3  C3  UNL     1      28.483  50.965  -0.967  1.00  0.00     0.060 C 
HETATM    4  C4  UNL     1      27.594  51.587  -1.715  1.00  0.00    -0.009 C 
ENDROOT
BRANCH   4   5
HETATM    5  C5  UNL     1      26.616  50.873  -2.501  1.00  0.00     0.065 C 
HETATM    6  C6  UNL     1      26.472  51.602  -3.869  1.00  0.00     0.166 C 
HETATM    7  O1  UNL     1      26.412  50.681  -4.914  1.00  0.00    -0.347 OA
HETATM    8  C10 UNL     1      25.107  52.233  -3.872  1.00  0.00     0.179 C 
HETATM    9  C7  UNL     1      25.373  51.150  -5.724  1.00  0.00     0.158 C 
HETATM   10  C8  UNL     1      25.785  52.369  -6.489  1.00  0.00     0.078 C 
HETATM   11  C9  UNL     1      24.895  50.085  -6.677  1.00  0.00     0.078 C 
HETATM   12  O2  UNL     1      24.406  51.464  -4.772  1.00  0.00    -0.346 OA
HETATM   13  C11 UNL     1      24.633  52.059  -2.479  1.00  0.00     0.141 C 
HETATM   14  N1  UNL     1      23.244  51.696  -2.341  1.00  0.00    -0.334 N 
HETATM   15  C17 UNL     1      25.253  50.710  -2.150  1.00  0.00     0.124 C 
HETATM   16  C12 UNL     1      23.218  50.714  -1.318  1.00  0.00     0.319 C 
ATOM     17  H1  UNL     1      22.451  52.065  -2.865  1.00  0.00     0.164 HD
HETATM   18  O3  UNL     1      22.191  50.158  -0.802  1.00  0.00    -0.247 OA
HETATM   19  N2  UNL     1      24.625  50.438  -0.939  1.00  0.00    -0.326 N 
BRANCH  19  20
HETATM   20  C13 UNL     1      24.864  49.952   0.375  1.00  0.00     0.132 C 
BRANCH  20  21
HETATM   21  C14 UNL     1      25.042  48.485   0.565  1.00  0.00    -0.005 C 
HETATM   22  C15 UNL     1      24.003  47.720   1.269  1.00  0.00     0.011 C 
HETATM   23  C16 UNL     1      26.364  48.231   1.318  1.00  0.00     0.011 C 
ENDBRANCH  20  21
ENDBRANCH  19  20
ENDBRANCH   4   5
TORSDOF 3
ENDMDL
MODEL 3
REMARK VINA RESULT: -7.216412774      2.555      3.270
REMARK  3 active torsions:
REMARK  status: ('A' for Active; 'I' for Inactive)
REMARK    1  A    between atoms: C4_4  and  C5_5 
REMARK    2  A    between atoms: N2_18  and  C13_19 
REMARK    3  A    between atoms: C13_19  and  C14_20 
ROOT
HETATM    1  C1  UNL     1      29.743  52.418   3.891  1.00  0.00     0.017 C 
HETATM    2  C2  UNL     1      29.565  51.919   2.795  1.00  0.00    -0.090 C 
HETATM    3  C3  UNL     1      29.330  51.329   1.502  1.00  0.00     0.060 C 
HETATM    4  C4  UNL     1      28.130  50.951   1.109  1.00  0.00    -0.009 C 
ENDROOT
BRANCH   4   5
HETATM    5  C5  UNL     1      27.897  50.359  -0.187  1.00  0.00     0.065 C 
HETATM    6  C6  UNL     1      28.789  51.101  -1.224  1.00  0.00     0.166 C 
HETATM    7  O1  UNL     1      29.381  50.196  -2.103  1.00  0.00    -0.347 OA
HETATM    8  C10 UNL     1      27.856  51.890  -2.100  1.00  0.00     0.179 C 
HETATM    9  C7  UNL     1      29.222  50.786  -3.361  1.00  0.00     0.158 C 
HETATM   10  C8  UNL     1      30.147  51.948  -3.540  1.00  0.00     0.078 C 
HETATM   11  C9  UNL     1      29.434  49.786  -4.469  1.00  0.00     0.078 C 
HETATM   12  O2  UNL     1      27.896  51.211  -3.296  1.00  0.00    -0.346 OA
HETATM   13  C11 UNL     1      26.545  51.772  -1.419  1.00  0.00     0.141 C 
HETATM   14  N1  UNL     1      25.412  51.575  -2.289  1.00  0.00    -0.334 N 
HETATM   15  C17 UNL     1      26.655  50.359  -0.868  1.00  0.00     0.124 C 
HETATM   16  C12 UNL     1      24.611  50.602  -1.640  1.00  0.00     0.319 C 
ATOM     17  H1  UNL     1      25.227  52.037  -3.180  1.00  0.00     0.164 HD
HETATM   18  O3  UNL     1      23.465  50.171  -2.006  1.00  0.00    -0.247 OA
HETATM   19  N2  UNL     1      25.349  50.160  -0.432  1.00  0.00    -0.326 N 
BRANCH  19  20
HETATM   20  C13 UNL     1      24.583  49.648   0.649  1.00  0.00     0.132 C 
BRANCH  20  21
HETATM   21  C14 UNL     1      24.690  48.197   0.967  1.00  0.00    -0.005 C 
HETATM   22  C15 UNL     1      23.565  47.521   1.629  1.00  0.00     0.011 C 
HETATM   23  C16 UNL     1      25.929  47.964   1.855  1.00  0.00     0.011 C 
ENDBRANCH  20  21
ENDBRANCH  19  20
ENDBRANCH   4   5
TORSDOF 3
ENDMDL
MODEL 4
REMARK VINA RESULT: -6.737276276      3.138      6.172
REMARK  3 active torsions:
REMARK  status: ('A' for Active; 'I' for Inactive)
REMARK    1  A    between atoms: C4_4  and  C5_5 
REMARK    2  A    between atoms: N2_18  and  C13_19 
REMARK    3  A    between atoms: C13_19  and  C14_20 
ROOT
HETATM    1  C1  UNL     1      28.934  48.695  -5.573  1.00  0.00     0.017 C 
HETATM    2  C2  UNL     1      28.678  49.513  -4.709  1.00  0.00    -0.090 C 
HETATM    3  C3  UNL     1      28.392  50.471  -3.672  1.00  0.00     0.060 C 
HETATM    4  C4  UNL     1      28.910  50.376  -2.464  1.00  0.00    -0.009 C 
ENDROOT
BRANCH   4   5
HETATM    5  C5  UNL     1      28.622  51.336  -1.426  1.00  0.00     0.065 C 
HETATM    6  C6  UNL     1      29.685  51.163  -0.300  1.00  0.00     0.166 C 
HETATM    7  O1  UNL     1      30.128  52.404   0.154  1.00  0.00    -0.347 OA
HETATM    8  C10 UNL     1      28.958  50.588   0.884  1.00  0.00     0.179 C 
HETATM    9  C7  UNL     1      30.138  52.274   1.547  1.00  0.00     0.158 C 
HETATM   10  C8  UNL     1      31.277  51.419   2.007  1.00  0.00     0.078 C 
HETATM   11  C9  UNL     1      30.201  53.619   2.225  1.00  0.00     0.078 C 
HETATM   12  O2  UNL     1      28.918  51.640   1.770  1.00  0.00    -0.346 OA
HETATM   13  C11 UNL     1      27.622  50.241   0.346  1.00  0.00     0.141 C 
HETATM   14  N1  UNL     1      26.510  50.539   1.216  1.00  0.00    -0.334 N 
HETATM   15  C17 UNL     1      27.434  51.369  -0.656  1.00  0.00     0.124 C 
HETATM   16  C12 UNL     1      25.510  51.076   0.366  1.00  0.00     0.319 C 
ATOM     17  H1  UNL     1      26.455  50.395   2.224  1.00  0.00     0.164 HD
HETATM   18  O3  UNL     1      24.319  51.412   0.685  1.00  0.00    -0.247 OA
HETATM   19  N2  UNL     1      26.097  51.183  -0.991  1.00  0.00    -0.326 N 
BRANCH  19  20
HETATM   20  C13 UNL     1      25.201  51.150  -2.094  1.00  0.00     0.132 C 
BRANCH  20  21
HETATM   21  C14 UNL     1      25.147  52.332  -2.998  1.00  0.00    -0.005 C 
HETATM   22  C15 UNL     1      25.683  53.619  -2.530  1.00  0.00     0.011 C 
HETATM   23  C16 UNL     1      23.683  52.587  -3.410  1.00  0.00     0.011 C 
ENDBRANCH  20  21
ENDBRANCH  19  20
ENDBRANCH   4   5
TORSDOF 3
ENDMDL
MODEL 5
REMARK VINA RESULT: -6.666714792      2.854      5.077
REMARK  3 active torsions:
REMARK  status: ('A' for Active; 'I' for Inactive)
REMARK    1  A    between atoms: C4_4  and  C5_5 
REMARK    2  A    between atoms: N2_18  and  C13_19 
REMARK    3  A    between atoms: C13_19  and  C14_20 
ROOT
HETATM    1  C1  UNL     1      22.240  48.284   0.812  1.00  0.00     0.017 C 
HETATM    2  C2  UNL     1      22.833  49.263   0.396  1.00  0.00    -0.090 C 
HETATM    3  C3  UNL     1      23.541  50.408  -0.117  1.00  0.00     0.060 C 
HETATM    4  C4  UNL     1      24.261  50.354  -1.219  1.00  0.00    -0.009 C 
ENDROOT
BRANCH   4   5
HETATM    5  C5  UNL     1      24.969  51.502  -1.732  1.00  0.00     0.065 C 
HETATM    6  C6  UNL     1      24.298  51.925  -3.071  1.00  0.00     0.166 C 
HETATM    7  O1  UNL     1      24.169  53.311  -3.142  1.00  0.00    -0.347 OA
HETATM    8  C10 UNL     1      25.284  51.603  -4.160  1.00  0.00     0.179 C 
HETATM    9  C7  UNL     1      24.577  53.626  -4.442  1.00  0.00     0.158 C 
HETATM   10  C8  UNL     1      23.547  53.228  -5.451  1.00  0.00     0.078 C 
HETATM   11  C9  UNL     1      24.888  55.095  -4.580  1.00  0.00     0.078 C 
HETATM   12  O2  UNL     1      25.723  52.842  -4.565  1.00  0.00    -0.346 OA
HETATM   13  C11 UNL     1      26.335  50.822  -3.467  1.00  0.00     0.141 C 
HETATM   14  N1  UNL     1      27.690  51.125  -3.860  1.00  0.00    -0.334 N 
HETATM   15  C17 UNL     1      26.333  51.512  -2.112  1.00  0.00     0.124 C 
HETATM   16  C12 UNL     1      28.432  51.138  -2.652  1.00  0.00     0.319 C 
ATOM     17  H1  UNL     1      28.038  51.293  -4.804  1.00  0.00     0.164 HD
HETATM   18  O3  UNL     1      29.693  51.287  -2.517  1.00  0.00    -0.247 OA
HETATM   19  N2  UNL     1      27.468  50.942  -1.542  1.00  0.00    -0.326 N 
BRANCH  19  20
HETATM   20  C13 UNL     1      27.964  50.372  -0.339  1.00  0.00     0.132 C 
BRANCH  20  21
HETATM   21  C14 UNL     1      27.072  50.348   0.853  1.00  0.00    -0.005 C 
HETATM   22  C15 UNL     1      27.557  50.901   2.126  1.00  0.00     0.011 C 
HETATM   23  C16 UNL     1      26.649  48.892   1.137  1.00  0.00     0.011 C 
ENDBRANCH  20  21
ENDBRANCH  19  20
ENDBRANCH   4   5
TORSDOF 3
ENDMDL
