MODEL 1
REMARK VINA RESULT: -7.240959558      0.000      0.000
REMARK  2 active torsions:
REMARK  status: ('A' for Active; 'I' for Inactive)
REMARK       I    between atoms: C1_2  and  N1_3 
REMARK    1  A    between atoms: C1_2  and  C7_13 
REMARK    2  A    between atoms: N1_3  and  C2_5 
ROOT
HETATM    1  O1  UNL     1      29.036  50.925  -0.690  1.00  0.00    -0.273 OA
HETATM    2  C1  UNL     1      29.071  51.106   0.562  1.00  0.00     0.226 C 
HETATM    3  N1  UNL     1      28.013  50.509   1.322  1.00  0.00    -0.356 N 
ATOM      4  H1  UNL     1      28.003  50.632   2.334  1.00  0.00     0.162 HD
ENDROOT
BRANCH   2   5
HETATM    5  C7  UNL     1      30.146  51.890   1.176  1.00  0.00     0.042 C 
HETATM    6  C8  UNL     1      29.592  52.684   2.348  1.00  0.00     0.024 C 
HETATM    7  C9  UNL     1      30.655  53.578   2.917  1.00  0.00    -0.013 C 
HETATM    8  C10 UNL     1      31.744  52.693   3.498  1.00  0.00     0.009 C 
HETATM    9  C14 UNL     1      31.191  54.481   1.835  1.00  0.00     0.009 C 
HETATM   10  C11 UNL     1      32.299  51.875   2.353  1.00  0.00    -0.013 C 
HETATM   11  C12 UNL     1      32.933  52.808   1.358  1.00  0.00     0.009 C 
HETATM   12  C16 UNL     1      31.245  51.000   1.748  1.00  0.00     0.024 C 
HETATM   13  C13 UNL     1      31.845  53.660   0.763  1.00  0.00    -0.013 C 
HETATM   14  C15 UNL     1      30.780  52.770   0.145  1.00  0.00     0.024 C 
ENDBRANCH   2   5
BRANCH   3  15
HETATM   15  C2  UNL     1      26.957  49.737   0.703  1.00  0.00     0.086 C 
HETATM   16  C3  UNL     1      26.848  48.363   1.299  1.00  0.00     0.040 C 
HETATM   17  C4  UNL     1      25.568  48.137   2.056  1.00  0.00     0.142 C 
HETATM   18  S1  UNL     1      24.154  48.359   0.978  1.00  0.00     0.144 S 
HETATM   19  O2  UNL     1      23.832  47.134   0.215  1.00  0.00    -0.228 OA
HETATM   20  O3  UNL     1      22.973  48.862   1.772  1.00  0.00    -0.228 OA
HETATM   21  C5  UNL     1      24.645  49.713  -0.104  1.00  0.00     0.142 C 
HETATM   22  C6  UNL     1      25.655  50.495   0.724  1.00  0.00     0.040 C 
ENDBRANCH   3  15
TORSDOF 2
ENDMDL
MODEL 2
REMARK VINA RESULT: -7.103228131      0.095      1.603
REMARK  2 active torsions:
REMARK  status: ('A' for Active; 'I' for Inactive)
REMARK       I    between atoms: C1_2  and  N1_3 
REMARK    1  A    between atoms: C1_2  and  C7_13 
REMARK    2  A    between atoms: N1_3  and  C2_5 
ROOT
HETATM    1  O1  UNL     1      29.121  50.853  -0.662  1.00  0.00    -0.273 OA
HETATM    2  C1  UNL     1      29.108  51.101   0.579  1.00  0.00     0.226 C 
HETATM    3  N1  UNL     1      28.010  50.561   1.325  1.00  0.00    -0.356 N 
ATOM      4  H1  UNL     1      27.961  50.739   2.328  1.00  0.00     0.162 HD
ENDROOT
BRANCH   2   5
HETATM    5  C7  UNL     1      30.169  51.903   1.194  1.00  0.00     0.042 C 
HETATM    6  C8  UNL     1      30.730  52.878   0.173  1.00  0.00     0.024 C 
HETATM    7  C9  UNL     1      31.893  53.627   0.754  1.00  0.00    -0.013 C 
HETATM    8  C10 UNL     1      31.371  54.483   1.896  1.00  0.00     0.009 C 
HETATM    9  C14 UNL     1      32.940  52.650   1.226  1.00  0.00     0.009 C 
HETATM   10  C11 UNL     1      30.787  53.534   2.920  1.00  0.00    -0.013 C 
HETATM   11  C12 UNL     1      31.891  52.663   3.453  1.00  0.00     0.009 C 
HETATM   12  C16 UNL     1      29.645  52.751   2.348  1.00  0.00     0.024 C 
HETATM   13  C13 UNL     1      32.382  51.796   2.326  1.00  0.00    -0.013 C 
HETATM   14  C15 UNL     1      31.223  50.998   1.752  1.00  0.00     0.024 C 
ENDBRANCH   2   5
BRANCH   3  15
HETATM   15  C2  UNL     1      26.968  49.771   0.705  1.00  0.00     0.086 C 
HETATM   16  C3  UNL     1      26.873  48.400   1.311  1.00  0.00     0.040 C 
HETATM   17  C4  UNL     1      25.591  48.163   2.062  1.00  0.00     0.142 C 
HETATM   18  S1  UNL     1      24.182  48.359   0.973  1.00  0.00     0.144 S 
HETATM   19  O2  UNL     1      23.880  47.125   0.218  1.00  0.00    -0.228 OA
HETATM   20  O3  UNL     1      22.990  48.853   1.756  1.00  0.00    -0.228 OA
HETATM   21  C5  UNL     1      24.662  49.711  -0.116  1.00  0.00     0.142 C 
HETATM   22  C6  UNL     1      25.656  50.513   0.713  1.00  0.00     0.040 C 
ENDBRANCH   3  15
TORSDOF 2
ENDMDL
MODEL 3
REMARK VINA RESULT: -6.855287467      5.284      6.353
REMARK  2 active torsions:
REMARK  status: ('A' for Active; 'I' for Inactive)
REMARK       I    between atoms: C1_2  and  N1_3 
REMARK    1  A    between atoms: C1_2  and  C7_13 
REMARK    2  A    between atoms: N1_3  and  C2_5 
ROOT
HETATM    1  O1  UNL     1      24.792  51.981   0.169  1.00  0.00    -0.273 OA
HETATM    2  C1  UNL     1      24.821  51.209  -0.832  1.00  0.00     0.226 C 
HETATM    3  N1  UNL     1      24.622  49.814  -0.567  1.00  0.00    -0.356 N 
ATOM      4  H1  UNL     1      24.640  49.157  -1.347  1.00  0.00     0.162 HD
ENDROOT
BRANCH   2   5
HETATM    5  C7  UNL     1      25.051  51.736  -2.180  1.00  0.00     0.042 C 
HETATM    6  C8  UNL     1      23.733  51.807  -2.932  1.00  0.00     0.024 C 
HETATM    7  C9  UNL     1      23.967  52.237  -4.350  1.00  0.00    -0.013 C 
HETATM    8  C10 UNL     1      24.500  53.660  -4.322  1.00  0.00     0.009 C 
HETATM    9  C14 UNL     1      24.938  51.293  -5.013  1.00  0.00     0.009 C 
HETATM   10  C11 UNL     1      25.806  53.620  -3.559  1.00  0.00    -0.013 C 
HETATM   11  C12 UNL     1      26.783  52.768  -4.320  1.00  0.00     0.009 C 
HETATM   12  C16 UNL     1      25.599  53.159  -2.149  1.00  0.00     0.024 C 
HETATM   13  C13 UNL     1      26.265  51.355  -4.317  1.00  0.00    -0.013 C 
HETATM   14  C15 UNL     1      26.062  50.888  -2.886  1.00  0.00     0.024 C 
ENDBRANCH   2   5
BRANCH   3  15
HETATM   15  C2  UNL     1      24.396  49.305   0.769  1.00  0.00     0.086 C 
HETATM   16  C3  UNL     1      22.932  49.226   1.094  1.00  0.00     0.040 C 
HETATM   17  C4  UNL     1      22.431  47.818   1.265  1.00  0.00     0.142 C 
HETATM   18  S1  UNL     1      23.313  46.995   2.590  1.00  0.00     0.144 S 
HETATM   19  O2  UNL     1      22.730  47.284   3.917  1.00  0.00    -0.228 OA
HETATM   20  O3  UNL     1      23.393  45.513   2.315  1.00  0.00    -0.228 OA
HETATM   21  C5  UNL     1      24.995  47.624   2.445  1.00  0.00     0.142 C 
HETATM   22  C6  UNL     1      25.119  48.000   0.975  1.00  0.00     0.040 C 
ENDBRANCH   3  15
TORSDOF 2
ENDMDL
MODEL 4
REMARK VINA RESULT: -6.817720293      5.209      6.220
REMARK  2 active torsions:
REMARK  status: ('A' for Active; 'I' for Inactive)
REMARK       I    between atoms: C1_2  and  N1_3 
REMARK    1  A    between atoms: C1_2  and  C7_13 
REMARK    2  A    between atoms: N1_3  and  C2_5 
ROOT
HETATM    1  O1  UNL     1      25.114  51.905   0.134  1.00  0.00    -0.273 OA
HETATM    2  C1  UNL     1      25.017  51.131  -0.862  1.00  0.00     0.226 C 
HETATM    3  N1  UNL     1      24.694  49.764  -0.577  1.00  0.00    -0.356 N 
ATOM      4  H1  UNL     1      24.608  49.107  -1.352  1.00  0.00     0.162 HD
ENDROOT
BRANCH   2   5
HETATM    5  C7  UNL     1      25.229  51.631  -2.223  1.00  0.00     0.042 C 
HETATM    6  C8  UNL     1      25.647  53.091  -2.172  1.00  0.00     0.024 C 
HETATM    7  C9  UNL     1      25.758  53.647  -3.561  1.00  0.00    -0.013 C 
HETATM    8  C10 UNL     1      26.892  52.921  -4.264  1.00  0.00     0.009 C 
HETATM    9  C14 UNL     1      24.449  53.467  -4.286  1.00  0.00     0.009 C 
HETATM   10  C11 UNL     1      26.509  51.457  -4.310  1.00  0.00    -0.013 C 
HETATM   11  C12 UNL     1      25.267  51.311  -5.146  1.00  0.00     0.009 C 
HETATM   12  C16 UNL     1      26.359  50.890  -2.931  1.00  0.00     0.024 C 
HETATM   13  C13 UNL     1      24.142  52.006  -4.429  1.00  0.00    -0.013 C 
HETATM   14  C15 UNL     1      23.988  51.424  -3.034  1.00  0.00     0.024 C 
ENDBRANCH   2   5
BRANCH   3  15
HETATM   15  C2  UNL     1      24.487  49.283   0.772  1.00  0.00     0.086 C 
HETATM   16  C3  UNL     1      23.031  49.260   1.138  1.00  0.00     0.040 C 
HETATM   17  C4  UNL     1      22.486  47.873   1.344  1.00  0.00     0.142 C 
HETATM   18  S1  UNL     1      23.374  47.039   2.657  1.00  0.00     0.144 S 
HETATM   19  O2  UNL     1      22.838  47.368   3.994  1.00  0.00    -0.228 OA
HETATM   20  O3  UNL     1      23.396  45.551   2.403  1.00  0.00    -0.228 OA
HETATM   21  C5  UNL     1      25.073  47.606   2.458  1.00  0.00     0.142 C 
HETATM   22  C6  UNL     1      25.170  47.956   0.979  1.00  0.00     0.040 C 
ENDBRANCH   3  15
TORSDOF 2
ENDMDL
MODEL 5
REMARK VINA RESULT: -6.749712798      5.184      6.250
REMARK  2 active torsions:
REMARK  status: ('A' for Active; 'I' for Inactive)
REMARK       I    between atoms: C1_2  and  N1_3 
REMARK    1  A    between atoms: C1_2  and  C7_13 
REMARK    2  A    between atoms: N1_3  and  C2_5 
ROOT
HETATM    1  O1  UNL     1      25.117  51.906   0.142  1.00  0.00    -0.273 OA
HETATM    2  C1  UNL     1      25.041  51.130  -0.854  1.00  0.00     0.226 C 
HETATM    3  N1  UNL     1      24.718  49.762  -0.574  1.00  0.00    -0.356 N 
ATOM      4  H1  UNL     1      24.649  49.103  -1.349  1.00  0.00     0.162 HD
ENDROOT
BRANCH   2   5
HETATM    5  C7  UNL     1      25.277  51.628  -2.212  1.00  0.00     0.042 C 
HETATM    6  C8  UNL     1      26.424  50.859  -2.846  1.00  0.00     0.024 C 
HETATM    7  C9  UNL     1      26.752  51.432  -4.193  1.00  0.00    -0.013 C 
HETATM    8  C10 UNL     1      25.554  51.205  -5.099  1.00  0.00     0.009 C 
HETATM    9  C14 UNL     1      27.073  52.899  -4.055  1.00  0.00     0.009 C 
HETATM   10  C11 UNL     1      24.390  51.946  -4.478  1.00  0.00    -0.013 C 
HETATM   11  C12 UNL     1      24.703  53.417  -4.474  1.00  0.00     0.009 C 
HETATM   12  C16 UNL     1      24.068  51.411  -3.117  1.00  0.00     0.024 C 
HETATM   13  C13 UNL     1      25.870  53.640  -3.550  1.00  0.00    -0.013 C 
HETATM   14  C15 UNL     1      25.539  53.101  -2.169  1.00  0.00     0.024 C 
ENDBRANCH   2   5
BRANCH   3  15
HETATM   15  C2  UNL     1      24.488  49.282   0.772  1.00  0.00     0.086 C 
HETATM   16  C3  UNL     1      23.024  49.232   1.103  1.00  0.00     0.040 C 
HETATM   17  C4  UNL     1      22.501  47.835   1.301  1.00  0.00     0.142 C 
HETATM   18  S1  UNL     1      23.374  47.024   2.639  1.00  0.00     0.144 S 
HETATM   19  O2  UNL     1      22.799  47.347   3.962  1.00  0.00    -0.228 OA
HETATM   20  O3  UNL     1      23.430  45.536   2.392  1.00  0.00    -0.228 OA
HETATM   21  C5  UNL     1      25.065  47.624   2.479  1.00  0.00     0.142 C 
HETATM   22  C6  UNL     1      25.192  47.969   1.001  1.00  0.00     0.040 C 
ENDBRANCH   3  15
TORSDOF 2
ENDMDL
