MODEL 1
REMARK VINA RESULT: -7.238489712      0.000      0.000
REMARK  4 active torsions:
REMARK  status: ('A' for Active; 'I' for Inactive)
REMARK    1  A    between atoms: C7_8  and  O1_9 
REMARK    2  A    between atoms: C8_11  and  O2_12 
REMARK    3  A    between atoms: O2_12  and  C9_13 
REMARK    4  A    between atoms: C9_13  and  C10_15 
ROOT
HETATM    1  C1  UNL     1      32.246  54.574   0.164  1.00  0.00     0.272 C 
HETATM    2  N1  UNL     1      31.853  53.938   1.433  1.00  0.00    -0.068 N 
HETATM    3  C2  UNL     1      33.095  53.542   2.070  1.00  0.00     0.237 C 
HETATM    4  C3  UNL     1      32.859  52.829   3.357  1.00  0.00     0.035 C 
HETATM    5  C4  UNL     1      31.533  53.278   3.915  1.00  0.00     0.020 C 
HETATM    6  C5  UNL     1      31.279  54.743   3.656  1.00  0.00     0.035 C 
HETATM    7  C6  UNL     1      31.145  54.941   2.183  1.00  0.00     0.237 C 
HETATM    8  C7  UNL     1      30.393  52.394   3.521  1.00  0.00     0.153 C 
HETATM    9  C8  UNL     1      30.012  52.442   2.095  1.00  0.00     0.187 C 
HETATM   10  C18 UNL     1      31.103  52.771   1.137  1.00  0.00     0.272 C 
ENDROOT
BRANCH   9  11
HETATM   11  O2  UNL     1      29.505  51.160   1.727  1.00  0.00    -0.308 OA
BRANCH  11  12
HETATM   12  C9  UNL     1      28.179  50.840   1.687  1.00  0.00     0.289 C 
HETATM   13  O3  UNL     1      27.530  50.799   2.757  1.00  0.00    -0.260 OA
BRANCH  12  14
HETATM   14  C10 UNL     1      27.472  50.538   0.423  1.00  0.00     0.013 C 
HETATM   15  C11 UNL     1      27.904  51.241  -0.609  1.00  0.00    -0.013 C 
HETATM   16  C12 UNL     1      27.530  51.298  -2.029  1.00  0.00     0.028 C 
HETATM   17  C13 UNL     1      26.124  50.803  -2.271  1.00  0.00     0.004 C 
HETATM   18  C14 UNL     1      25.079  51.640  -1.592  1.00  0.00     0.000 C 
HETATM   19  C15 UNL     1      24.963  51.432  -0.120  1.00  0.00     0.000 C 
HETATM   20  C16 UNL     1      25.043  49.974   0.290  1.00  0.00     0.005 C 
HETATM   21  C17 UNL     1      26.422  49.504   0.585  1.00  0.00     0.044 C 
ENDBRANCH  12  14
ENDBRANCH  11  12
ENDBRANCH   9  11
BRANCH   8  22
HETATM   22  O1  UNL     1      29.279  52.793   4.284  1.00  0.00    -0.393 OA
ATOM     23  H1  UNL     1      28.860  52.001   4.600  1.00  0.00     0.210 HD
ENDBRANCH   8  22
TORSDOF 4
ENDMDL
MODEL 2
REMARK VINA RESULT: -7.136815821      1.641      2.635
REMARK  4 active torsions:
REMARK  status: ('A' for Active; 'I' for Inactive)
REMARK    1  A    between atoms: C7_8  and  O1_9 
REMARK    2  A    between atoms: C8_11  and  O2_12 
REMARK    3  A    between atoms: O2_12  and  C9_13 
REMARK    4  A    between atoms: C9_13  and  C10_15 
ROOT
HETATM    1  C1  UNL     1      31.716  54.307   0.120  1.00  0.00     0.272 C 
HETATM    2  N1  UNL     1      31.199  53.189   0.927  1.00  0.00    -0.068 N 
HETATM    3  C2  UNL     1      32.364  52.417   1.314  1.00  0.00     0.237 C 
HETATM    4  C3  UNL     1      31.996  51.208   2.103  1.00  0.00     0.035 C 
HETATM    5  C4  UNL     1      30.680  51.470   2.791  1.00  0.00     0.020 C 
HETATM    6  C5  UNL     1      30.562  52.900   3.257  1.00  0.00     0.035 C 
HETATM    7  C6  UNL     1      30.533  53.784   2.055  1.00  0.00     0.237 C 
HETATM    8  C7  UNL     1      29.497  50.997   2.009  1.00  0.00     0.153 C 
HETATM    9  C8  UNL     1      29.205  51.750   0.773  1.00  0.00     0.187 C 
HETATM   10  C18 UNL     1      30.375  52.382   0.102  1.00  0.00     0.272 C 
ENDROOT
BRANCH   9  11
HETATM   11  O2  UNL     1      28.618  50.853  -0.167  1.00  0.00    -0.308 OA
BRANCH  11  12
HETATM   12  C9  UNL     1      27.310  50.893  -0.555  1.00  0.00     0.289 C 
HETATM   13  O3  UNL     1      27.016  51.431  -1.646  1.00  0.00    -0.260 OA
BRANCH  12  14
HETATM   14  C10 UNL     1      26.220  50.322   0.265  1.00  0.00     0.013 C 
HETATM   15  C11 UNL     1      26.415  49.060   0.605  1.00  0.00    -0.013 C 
HETATM   16  C12 UNL     1      25.642  48.087   1.388  1.00  0.00     0.028 C 
HETATM   17  C13 UNL     1      24.173  48.434   1.444  1.00  0.00     0.004 C 
HETATM   18  C14 UNL     1      23.511  48.415   0.098  1.00  0.00     0.000 C 
HETATM   19  C15 UNL     1      23.817  49.588  -0.771  1.00  0.00     0.000 C 
HETATM   20  C16 UNL     1      23.810  50.908  -0.025  1.00  0.00     0.005 C 
HETATM   21  C17 UNL     1      25.132  51.294   0.532  1.00  0.00     0.044 C 
ENDBRANCH  12  14
ENDBRANCH  11  12
ENDBRANCH   9  11
BRANCH   8  22
HETATM   22  O1  UNL     1      28.376  51.096   2.856  1.00  0.00    -0.393 OA
ATOM     23  H1  UNL     1      27.773  51.707   2.450  1.00  0.00     0.210 HD
ENDBRANCH   8  22
TORSDOF 4
ENDMDL
MODEL 3
REMARK VINA RESULT: -6.878166446      5.039      7.428
REMARK  4 active torsions:
REMARK  status: ('A' for Active; 'I' for Inactive)
REMARK    1  A    between atoms: C7_8  and  O1_9 
REMARK    2  A    between atoms: C8_11  and  O2_12 
REMARK    3  A    between atoms: O2_12  and  C9_13 
REMARK    4  A    between atoms: C9_13  and  C10_15 
ROOT
HETATM    1  C1  UNL     1      27.528  51.814  -5.961  1.00  0.00     0.272 C 
HETATM    2  N1  UNL     1      26.263  52.019  -5.237  1.00  0.00    -0.068 N 
HETATM    3  C2  UNL     1      25.770  53.312  -5.673  1.00  0.00     0.237 C 
HETATM    4  C3  UNL     1      24.505  53.689  -4.982  1.00  0.00     0.035 C 
HETATM    5  C4  UNL     1      23.798  52.427  -4.557  1.00  0.00     0.020 C 
HETATM    6  C5  UNL     1      23.956  51.323  -5.574  1.00  0.00     0.035 C 
HETATM    7  C6  UNL     1      25.397  50.939  -5.629  1.00  0.00     0.237 C 
HETATM    8  C7  UNL     1      24.126  52.005  -3.161  1.00  0.00     0.153 C 
HETATM    9  C8  UNL     1      25.504  51.519  -2.947  1.00  0.00     0.187 C 
HETATM   10  C18 UNL     1      26.544  52.087  -3.848  1.00  0.00     0.272 C 
ENDROOT
BRANCH   9  11
HETATM   11  O2  UNL     1      25.888  51.840  -1.611  1.00  0.00    -0.308 OA
BRANCH  11  12
HETATM   12  C9  UNL     1      26.523  50.979  -0.765  1.00  0.00     0.289 C 
HETATM   13  O3  UNL     1      27.760  50.820  -0.875  1.00  0.00    -0.260 OA
BRANCH  12  14
HETATM   14  C10 UNL     1      25.806  50.223   0.285  1.00  0.00     0.013 C 
HETATM   15  C11 UNL     1      26.444  49.138   0.689  1.00  0.00    -0.013 C 
HETATM   16  C12 UNL     1      26.149  48.094   1.679  1.00  0.00     0.028 C 
HETATM   17  C13 UNL     1      24.672  47.985   1.972  1.00  0.00     0.004 C 
HETATM   18  C14 UNL     1      23.861  47.582   0.776  1.00  0.00     0.000 C 
HETATM   19  C15 UNL     1      23.642  48.661  -0.230  1.00  0.00     0.000 C 
HETATM   20  C16 UNL     1      23.321  50.007   0.391  1.00  0.00     0.005 C 
HETATM   21  C17 UNL     1      24.515  50.848   0.663  1.00  0.00     0.044 C 
ENDBRANCH  12  14
ENDBRANCH  11  12
ENDBRANCH   9  11
BRANCH   8  22
HETATM   22  O1  UNL     1      23.239  50.964  -2.826  1.00  0.00    -0.393 OA
ATOM     23  H1  UNL     1      22.477  51.365  -2.425  1.00  0.00     0.210 HD
ENDBRANCH   8  22
TORSDOF 4
ENDMDL
MODEL 4
REMARK VINA RESULT: -6.838038619      4.734      6.853
REMARK  4 active torsions:
REMARK  status: ('A' for Active; 'I' for Inactive)
REMARK    1  A    between atoms: C7_8  and  O1_9 
REMARK    2  A    between atoms: C8_11  and  O2_12 
REMARK    3  A    between atoms: O2_12  and  C9_13 
REMARK    4  A    between atoms: C9_13  and  C10_15 
ROOT
HETATM    1  C1  UNL     1      25.178  55.253  -3.994  1.00  0.00     0.272 C 
HETATM    2  N1  UNL     1      25.320  53.793  -3.870  1.00  0.00    -0.068 N 
HETATM    3  C2  UNL     1      23.971  53.263  -3.944  1.00  0.00     0.237 C 
HETATM    4  C3  UNL     1      23.943  51.782  -3.781  1.00  0.00     0.035 C 
HETATM    5  C4  UNL     1      25.274  51.228  -4.222  1.00  0.00     0.020 C 
HETATM    6  C5  UNL     1      25.832  51.978  -5.407  1.00  0.00     0.035 C 
HETATM    7  C6  UNL     1      26.138  53.374  -4.977  1.00  0.00     0.237 C 
HETATM    8  C7  UNL     1      26.251  51.069  -3.101  1.00  0.00     0.153 C 
HETATM    9  C8  UNL     1      26.764  52.325  -2.518  1.00  0.00     0.187 C 
HETATM   10  C18 UNL     1      25.851  53.499  -2.588  1.00  0.00     0.272 C 
ENDROOT
BRANCH   9  11
HETATM   11  O2  UNL     1      27.044  52.094  -1.139  1.00  0.00    -0.308 OA
BRANCH  11  12
HETATM   12  C9  UNL     1      27.087  50.860  -0.559  1.00  0.00     0.289 C 
HETATM   13  O3  UNL     1      28.112  50.155  -0.702  1.00  0.00    -0.260 OA
BRANCH  12  14
HETATM   14  C10 UNL     1      25.966  50.317   0.240  1.00  0.00     0.013 C 
HETATM   15  C11 UNL     1      26.132  49.057   0.603  1.00  0.00    -0.013 C 
HETATM   16  C12 UNL     1      25.324  48.108   1.379  1.00  0.00     0.028 C 
HETATM   17  C13 UNL     1      23.860  48.478   1.391  1.00  0.00     0.004 C 
HETATM   18  C14 UNL     1      23.233  48.450   0.028  1.00  0.00     0.000 C 
HETATM   19  C15 UNL     1      23.580  49.605  -0.849  1.00  0.00     0.000 C 
HETATM   20  C16 UNL     1      23.574  50.936  -0.122  1.00  0.00     0.005 C 
HETATM   21  C17 UNL     1      24.887  51.310   0.465  1.00  0.00     0.044 C 
ENDBRANCH  12  14
ENDBRANCH  11  12
ENDBRANCH   9  11
BRANCH   8  22
HETATM   22  O1  UNL     1      27.346  50.343  -3.609  1.00  0.00    -0.393 OA
ATOM     23  H1  UNL     1      27.936  50.184  -2.882  1.00  0.00     0.210 HD
ENDBRANCH   8  22
TORSDOF 4
ENDMDL
MODEL 5
REMARK VINA RESULT: -6.745419160      5.340      8.627
REMARK  4 active torsions:
REMARK  status: ('A' for Active; 'I' for Inactive)
REMARK    1  A    between atoms: C7_8  and  O1_9 
REMARK    2  A    between atoms: C8_11  and  O2_12 
REMARK    3  A    between atoms: O2_12  and  C9_13 
REMARK    4  A    between atoms: C9_13  and  C10_15 
ROOT
HETATM    1  C1  UNL     1      25.515  49.965  -7.377  1.00  0.00     0.272 C 
HETATM    2  N1  UNL     1      24.860  51.058  -6.640  1.00  0.00    -0.068 N 
HETATM    3  C2  UNL     1      25.434  52.281  -7.167  1.00  0.00     0.237 C 
HETATM    4  C3  UNL     1      24.903  53.490  -6.476  1.00  0.00     0.035 C 
HETATM    5  C4  UNL     1      23.535  53.166  -5.931  1.00  0.00     0.020 C 
HETATM    6  C5  UNL     1      22.758  52.263  -6.858  1.00  0.00     0.035 C 
HETATM    7  C6  UNL     1      23.453  50.944  -6.919  1.00  0.00     0.237 C 
HETATM    8  C7  UNL     1      23.559  52.689  -4.513  1.00  0.00     0.153 C 
HETATM    9  C8  UNL     1      24.158  51.358  -4.297  1.00  0.00     0.187 C 
HETATM   10  C18 UNL     1      25.209  50.948  -5.269  1.00  0.00     0.272 C 
ENDROOT
BRANCH   9  11
HETATM   11  O2  UNL     1      24.756  51.343  -3.003  1.00  0.00    -0.308 OA
BRANCH  11  12
HETATM   12  C9  UNL     1      24.154  50.852  -1.882  1.00  0.00     0.289 C 
HETATM   13  O3  UNL     1      22.932  50.579  -1.918  1.00  0.00    -0.260 OA
BRANCH  12  14
HETATM   14  C10 UNL     1      24.889  50.626  -0.618  1.00  0.00     0.013 C 
HETATM   15  C11 UNL     1      26.197  50.529  -0.774  1.00  0.00    -0.013 C 
HETATM   16  C12 UNL     1      27.318  50.311   0.151  1.00  0.00     0.028 C 
HETATM   17  C13 UNL     1      26.881  49.641   1.432  1.00  0.00     0.004 C 
HETATM   18  C14 UNL     1      26.322  48.265   1.217  1.00  0.00     0.000 C 
HETATM   19  C15 UNL     1      24.941  48.226   0.656  1.00  0.00     0.000 C 
HETATM   20  C16 UNL     1      24.011  49.252   1.273  1.00  0.00     0.005 C 
HETATM   21  C17 UNL     1      23.994  50.557   0.563  1.00  0.00     0.044 C 
ENDBRANCH  12  14
ENDBRANCH  11  12
ENDBRANCH   9  11
BRANCH   8  22
HETATM   22  O1  UNL     1      22.222  52.645  -4.071  1.00  0.00    -0.393 OA
ATOM     23  H1  UNL     1      22.116  53.343  -3.437  1.00  0.00     0.210 HD
ENDBRANCH   8  22
TORSDOF 4
ENDMDL
