MODEL 1
REMARK VINA RESULT: -6.271774173      0.000      0.000
REMARK  7 active torsions:
REMARK  status: ('A' for Active; 'I' for Inactive)
REMARK    1  A    between atoms: O1_1  and  N1_3 
REMARK    2  A    between atoms: N1_3  and  C1_4 
REMARK    3  A    between atoms: C4_7  and  O2_8 
REMARK    4  A    between atoms: C5_10  and  O3_11 
REMARK    5  A    between atoms: C6_13  and  O4_14 
REMARK    6  A    between atoms: C7_16  and  N2_17 
REMARK    7  A    between atoms: N2_17  and  C8_19 
ROOT
HETATM    1  C1  UNL     1      -0.785   2.145  54.578  1.00  0.00     0.131 C 
HETATM    2  C2  UNL     1      -0.610   1.544  55.900  1.00  0.00     0.028 C 
HETATM    3  C3  UNL     1       0.692   1.680  56.568  1.00  0.00     0.036 C 
HETATM    4  C4  UNL     1       1.410   2.964  56.398  1.00  0.00     0.149 C 
HETATM    5  C5  UNL     1       2.261   2.981  55.124  1.00  0.00     0.177 C 
HETATM    6  C6  UNL     1       1.322   3.388  54.007  1.00  0.00     0.173 C 
HETATM    7  C7  UNL     1       0.438   2.203  53.709  1.00  0.00     0.134 C 
ENDROOT
BRANCH   7   8
HETATM    8  N2  UNL     1       1.157   0.955  53.680  1.00  0.00    -0.381 N 
ATOM      9  H2  UNL     1       1.105   0.330  54.484  1.00  0.00     0.160 HD
BRANCH   8  10
HETATM   10  C8  UNL     1       1.853   0.618  52.676  1.00  0.00     0.166 C 
HETATM   11  S1  UNL     1       3.021   0.543  51.567  1.00  0.00    -0.075 SA
ENDBRANCH   8  10
ENDBRANCH   7   8
BRANCH   1  12
HETATM   12  N1  UNL     1      -1.780   1.371  53.833  1.00  0.00    -0.097 NA
BRANCH  12  13
HETATM   13  O1  UNL     1      -2.923   1.218  54.496  1.00  0.00    -0.296 OA
ATOM     14  H1  UNL     1      -3.676   1.129  53.923  1.00  0.00     0.238 HD
ENDBRANCH  12  13
ENDBRANCH   1  12
BRANCH   6  15
HETATM   15  O4  UNL     1       2.091   3.663  52.861  1.00  0.00    -0.391 OA
ATOM     16  H4  UNL     1       2.963   3.914  53.141  1.00  0.00     0.210 HD
ENDBRANCH   6  15
BRANCH   5  17
HETATM   17  O3  UNL     1       3.233   3.961  55.231  1.00  0.00    -0.390 OA
ATOM     18  H3  UNL     1       3.983   3.613  55.699  1.00  0.00     0.210 HD
ENDBRANCH   5  17
BRANCH   4  19
HETATM   19  O2  UNL     1       0.618   4.089  56.433  1.00  0.00    -0.393 OA
ATOM     20  H2  UNL     1       0.536   4.553  55.609  1.00  0.00     0.210 HD
ENDBRANCH   4  19
TORSDOF 7
ENDMDL
MODEL 2
REMARK VINA RESULT: -6.185604254      2.979      3.928
REMARK  7 active torsions:
REMARK  status: ('A' for Active; 'I' for Inactive)
REMARK    1  A    between atoms: O1_1  and  N1_3 
REMARK    2  A    between atoms: N1_3  and  C1_4 
REMARK    3  A    between atoms: C4_7  and  O2_8 
REMARK    4  A    between atoms: C5_10  and  O3_11 
REMARK    5  A    between atoms: C6_13  and  O4_14 
REMARK    6  A    between atoms: C7_16  and  N2_17 
REMARK    7  A    between atoms: N2_17  and  C8_19 
ROOT
HETATM    1  C1  UNL     1       0.842   2.040  56.060  1.00  0.00     0.131 C 
HETATM    2  C2  UNL     1      -0.358   2.030  55.224  1.00  0.00     0.028 C 
HETATM    3  C3  UNL     1      -0.224   2.345  53.795  1.00  0.00     0.036 C 
HETATM    4  C4  UNL     1       0.987   1.848  53.103  1.00  0.00     0.149 C 
HETATM    5  C5  UNL     1       2.166   2.817  53.246  1.00  0.00     0.177 C 
HETATM    6  C6  UNL     1       2.818   2.479  54.571  1.00  0.00     0.173 C 
HETATM    7  C7  UNL     1       1.919   3.009  55.661  1.00  0.00     0.134 C 
ENDROOT
BRANCH   7   8
HETATM    8  N2  UNL     1       1.405   4.325  55.380  1.00  0.00    -0.381 N 
ATOM      9  H2  UNL     1       0.668   4.435  54.684  1.00  0.00     0.160 HD
BRANCH   8  10
HETATM   10  C8  UNL     1       1.850   5.348  55.979  1.00  0.00     0.166 C 
HETATM   11  S1  UNL     1       1.956   6.785  56.703  1.00  0.00    -0.075 SA
ENDBRANCH   8  10
ENDBRANCH   7   8
BRANCH   1  12
HETATM   12  N1  UNL     1       0.464   2.392  57.430  1.00  0.00    -0.097 NA
BRANCH  12  13
HETATM   13  O1  UNL     1      -0.622   3.156  57.490  1.00  0.00    -0.296 OA
ATOM     14  H1  UNL     1      -0.423   4.078  57.607  1.00  0.00     0.238 HD
ENDBRANCH  12  13
ENDBRANCH   1  12
BRANCH   6  15
HETATM   15  O4  UNL     1       4.047   3.160  54.646  1.00  0.00    -0.391 OA
ATOM     16  H4  UNL     1       3.883   4.035  54.977  1.00  0.00     0.210 HD
ENDBRANCH   6  15
BRANCH   5  17
HETATM   17  O3  UNL     1       3.094   2.566  52.249  1.00  0.00    -0.390 OA
ATOM     18  H3  UNL     1       2.929   1.708  51.873  1.00  0.00     0.210 HD
ENDBRANCH   5  17
BRANCH   4  19
HETATM   19  O2  UNL     1       1.391   0.583  53.460  1.00  0.00    -0.393 OA
ATOM     20  H2  UNL     1       1.682   0.488  54.359  1.00  0.00     0.210 HD
ENDBRANCH   4  19
TORSDOF 7
ENDMDL
MODEL 3
REMARK VINA RESULT: -5.939300795      2.901      4.626
REMARK  7 active torsions:
REMARK  status: ('A' for Active; 'I' for Inactive)
REMARK    1  A    between atoms: O1_1  and  N1_3 
REMARK    2  A    between atoms: N1_3  and  C1_4 
REMARK    3  A    between atoms: C4_7  and  O2_8 
REMARK    4  A    between atoms: C5_10  and  O3_11 
REMARK    5  A    between atoms: C6_13  and  O4_14 
REMARK    6  A    between atoms: C7_16  and  N2_17 
REMARK    7  A    between atoms: N2_17  and  C8_19 
ROOT
HETATM    1  C1  UNL     1       2.213   4.110  54.442  1.00  0.00     0.131 C 
HETATM    2  C2  UNL     1       3.587   3.618  54.538  1.00  0.00     0.028 C 
HETATM    3  C3  UNL     1       3.866   2.228  54.153  1.00  0.00     0.036 C 
HETATM    4  C4  UNL     1       3.117   1.681  52.998  1.00  0.00     0.149 C 
HETATM    5  C5  UNL     1       1.759   1.107  53.415  1.00  0.00     0.177 C 
HETATM    6  C6  UNL     1       0.806   2.284  53.441  1.00  0.00     0.173 C 
HETATM    7  C7  UNL     1       1.129   3.096  54.672  1.00  0.00     0.134 C 
ENDROOT
BRANCH   7   8
HETATM    8  N2  UNL     1       1.367   2.284  55.837  1.00  0.00    -0.381 N 
ATOM      9  H2  UNL     1       2.194   1.689  55.871  1.00  0.00     0.160 HD
BRANCH   8  10
HETATM   10  C8  UNL     1       0.569   2.293  56.822  1.00  0.00     0.166 C 
HETATM   11  S1  UNL     1      -0.316   2.768  58.083  1.00  0.00    -0.075 SA
ENDBRANCH   8  10
ENDBRANCH   7   8
BRANCH   1  12
HETATM   12  N1  UNL     1       2.012   5.157  55.445  1.00  0.00    -0.097 NA
BRANCH  12  13
HETATM   13  O1  UNL     1       3.019   6.023  55.502  1.00  0.00    -0.296 OA
ATOM     14  H1  UNL     1       2.806   6.867  55.123  1.00  0.00     0.238 HD
ENDBRANCH  12  13
ENDBRANCH   1  12
BRANCH   6  15
HETATM   15  O4  UNL     1      -0.504   1.789  53.573  1.00  0.00    -0.391 OA
ATOM     16  H4  UNL     1      -0.996   2.387  54.123  1.00  0.00     0.210 HD
ENDBRANCH   6  15
BRANCH   5  17
HETATM   17  O3  UNL     1       1.311   0.229  52.442  1.00  0.00    -0.390 OA
ATOM     18  H3  UNL     1       0.753  -0.427  52.842  1.00  0.00     0.210 HD
ENDBRANCH   5  17
BRANCH   4  19
HETATM   19  O2  UNL     1       2.942   2.551  51.947  1.00  0.00    -0.393 OA
ATOM     20  H2  UNL     1       2.379   3.295  52.125  1.00  0.00     0.210 HD
ENDBRANCH   4  19
TORSDOF 7
ENDMDL
MODEL 4
REMARK VINA RESULT: -5.763405648      2.741      4.206
REMARK  7 active torsions:
REMARK  status: ('A' for Active; 'I' for Inactive)
REMARK    1  A    between atoms: O1_1  and  N1_3 
REMARK    2  A    between atoms: N1_3  and  C1_4 
REMARK    3  A    between atoms: C4_7  and  O2_8 
REMARK    4  A    between atoms: C5_10  and  O3_11 
REMARK    5  A    between atoms: C6_13  and  O4_14 
REMARK    6  A    between atoms: C7_16  and  N2_17 
REMARK    7  A    between atoms: N2_17  and  C8_19 
ROOT
HETATM    1  C1  UNL     1       1.215   3.853  55.357  1.00  0.00     0.131 C 
HETATM    2  C2  UNL     1       2.652   3.585  55.386  1.00  0.00     0.028 C 
HETATM    3  C3  UNL     1       3.171   2.439  54.627  1.00  0.00     0.036 C 
HETATM    4  C4  UNL     1       2.538   2.150  53.319  1.00  0.00     0.149 C 
HETATM    5  C5  UNL     1       1.295   1.265  53.467  1.00  0.00     0.177 C 
HETATM    6  C6  UNL     1       0.153   2.209  53.782  1.00  0.00     0.173 C 
HETATM    7  C7  UNL     1       0.320   2.655  55.213  1.00  0.00     0.134 C 
ENDROOT
BRANCH   7   8
HETATM    8  N2  UNL     1       0.685   1.580  56.100  1.00  0.00    -0.381 N 
ATOM      9  H2  UNL     1       1.642   1.226  56.089  1.00  0.00     0.160 HD
BRANCH   8  10
HETATM   10  C8  UNL     1      -0.157   1.065  56.894  1.00  0.00     0.166 C 
HETATM   11  S1  UNL     1      -0.996   0.009  57.778  1.00  0.00    -0.075 SA
ENDBRANCH   8  10
ENDBRANCH   7   8
BRANCH   1  12
HETATM   12  N1  UNL     1       0.827   4.503  56.610  1.00  0.00    -0.097 NA
BRANCH  12  13
HETATM   13  O1  UNL     1       1.260   5.757  56.700  1.00  0.00    -0.296 OA
ATOM     14  H1  UNL     1       1.370   6.049  57.598  1.00  0.00     0.238 HD
ENDBRANCH  12  13
ENDBRANCH   1  12
BRANCH   6  15
HETATM   15  O4  UNL     1      -1.053   1.490  53.683  1.00  0.00    -0.391 OA
ATOM     16  H4  UNL     1      -1.735   1.993  54.112  1.00  0.00     0.210 HD
ENDBRANCH   6  15
BRANCH   5  17
HETATM   17  O3  UNL     1       1.014   0.658  52.254  1.00  0.00    -0.390 OA
ATOM     18  H3  UNL     1       0.755  -0.243  52.404  1.00  0.00     0.210 HD
ENDBRANCH   5  17
BRANCH   4  19
HETATM   19  O2  UNL     1       2.224   3.255  52.562  1.00  0.00    -0.393 OA
ATOM     20  H2  UNL     1       2.947   3.844  52.385  1.00  0.00     0.210 HD
ENDBRANCH   4  19
TORSDOF 7
ENDMDL
MODEL 5
REMARK VINA RESULT: -5.525849999      2.060      2.673
REMARK  7 active torsions:
REMARK  status: ('A' for Active; 'I' for Inactive)
REMARK    1  A    between atoms: O1_1  and  N1_3 
REMARK    2  A    between atoms: N1_3  and  C1_4 
REMARK    3  A    between atoms: C4_7  and  O2_8 
REMARK    4  A    between atoms: C5_10  and  O3_11 
REMARK    5  A    between atoms: C6_13  and  O4_14 
REMARK    6  A    between atoms: C7_16  and  N2_17 
REMARK    7  A    between atoms: N2_17  and  C8_19 
ROOT
HETATM    1  C1  UNL     1       0.025   1.658  54.979  1.00  0.00     0.131 C 
HETATM    2  C2  UNL     1       0.076   0.683  56.068  1.00  0.00     0.028 C 
HETATM    3  C3  UNL     1       0.419   1.151  57.418  1.00  0.00     0.036 C 
HETATM    4  C4  UNL     1      -0.101   2.476  57.828  1.00  0.00     0.149 C 
HETATM    5  C5  UNL     1       0.824   3.616  57.388  1.00  0.00     0.177 C 
HETATM    6  C6  UNL     1       0.433   3.935  55.960  1.00  0.00     0.173 C 
HETATM    7  C7  UNL     1       0.966   2.823  55.090  1.00  0.00     0.134 C 
ENDROOT
BRANCH   7   8
HETATM    8  N2  UNL     1       2.305   2.425  55.441  1.00  0.00    -0.381 N 
ATOM      9  H2  UNL     1       2.456   1.870  56.284  1.00  0.00     0.160 HD
BRANCH   8  10
HETATM   10  C8  UNL     1       3.299   2.748  54.725  1.00  0.00     0.166 C 
HETATM   11  S1  UNL     1       4.234   3.120  53.465  1.00  0.00    -0.075 SA
ENDBRANCH   8  10
ENDBRANCH   7   8
BRANCH   1  12
HETATM   12  N1  UNL     1       0.357   0.983  53.723  1.00  0.00    -0.097 NA
BRANCH  12  13
HETATM   13  O1  UNL     1       0.721   1.826  52.761  1.00  0.00    -0.296 OA
ATOM     14  H1  UNL     1       1.103   1.389  52.009  1.00  0.00     0.238 HD
ENDBRANCH  12  13
ENDBRANCH   1  12
BRANCH   6  15
HETATM   15  O4  UNL     1       1.070   5.132  55.584  1.00  0.00    -0.391 OA
ATOM     16  H4  UNL     1       2.006   5.022  55.706  1.00  0.00     0.210 HD
ENDBRANCH   6  15
BRANCH   5  17
HETATM   17  O3  UNL     1       0.565   4.741  58.153  1.00  0.00    -0.390 OA
ATOM     18  H3  UNL     1      -0.070   5.288  57.706  1.00  0.00     0.210 HD
ENDBRANCH   5  17
BRANCH   4  19
HETATM   19  O2  UNL     1      -1.388   2.751  57.428  1.00  0.00    -0.393 OA
ATOM     20  H2  UNL     1      -1.504   2.875  56.493  1.00  0.00     0.210 HD
ENDBRANCH   4  19
TORSDOF 7
ENDMDL
