MODEL 1
REMARK VINA RESULT: -6.875560250      0.000      0.000
REMARK  8 active torsions:
REMARK  status: ('A' for Active; 'I' for Inactive)
REMARK    1  A    between atoms: O1_1  and  N1_3 
REMARK    2  A    between atoms: C1_5  and  O2_6 
REMARK    3  A    between atoms: C1_5  and  N2_8 
REMARK    4  A    between atoms: N2_8  and  N3_10 
REMARK    5  A    between atoms: C2_12  and  C3_13 
REMARK    6  A    between atoms: C5_15  and  O3_16 
REMARK    7  A    between atoms: C6_18  and  O4_19 
REMARK    8  A    between atoms: C7_21  and  O5_22 
ROOT
HETATM    1  C3  UNL     1       0.090   1.330  55.051  1.00  0.00     0.018 C 
HETATM    2  C4  UNL     1      -0.201   0.340  55.841  1.00  0.00     0.027 C 
HETATM    3  C5  UNL     1      -0.251   0.274  57.298  1.00  0.00     0.174 C 
HETATM    4  C6  UNL     1       0.466   1.335  58.048  1.00  0.00     0.189 C 
HETATM    5  C7  UNL     1       0.106   2.728  57.582  1.00  0.00     0.216 C 
HETATM    6  S1  UNL     1       0.513   2.913  55.831  1.00  0.00    -0.094 SA
ENDROOT
BRANCH   1   7
HETATM    7  C2  UNL     1       0.111   1.291  53.599  1.00  0.00     0.125 C 
HETATM    8  N3  UNL     1       0.960   1.731  52.797  1.00  0.00    -0.307 N 
ATOM      9  H3  UNL     1       0.686   1.548  51.832  1.00  0.00     0.186 HD
BRANCH   8  10
HETATM   10  N2  UNL     1       2.137   2.379  52.853  1.00  0.00    -0.264 N 
ATOM     11  H2  UNL     1       2.142   3.391  52.982  1.00  0.00     0.190 HD
BRANCH  10  12
HETATM   12  C1  UNL     1       3.361   1.695  52.738  1.00  0.00     0.256 C 
HETATM   13  N1  UNL     1       3.595   0.964  51.722  1.00  0.00    -0.232 N 
ATOM     14  H1  UNL     1       4.486   0.474  51.653  1.00  0.00     0.198 HD
BRANCH  13  15
HETATM   15  O1  UNL     1       2.682   0.828  50.736  1.00  0.00    -0.287 OA
ATOM     16  H1  UNL     1       2.793   1.269  49.901  1.00  0.00     0.244 HD
ENDBRANCH  13  15
BRANCH  12  17
HETATM   17  O2  UNL     1       4.309   1.816  53.727  1.00  0.00    -0.330 OA
ATOM     18  H2  UNL     1       4.231   2.508  54.373  1.00  0.00     0.221 HD
ENDBRANCH  12  17
ENDBRANCH  10  12
ENDBRANCH   8  10
ENDBRANCH   1   7
BRANCH   3  19
HETATM   19  O3  UNL     1      -1.578   0.175  57.764  1.00  0.00    -0.389 OA
ATOM     20  H3  UNL     1      -1.810   0.916  58.313  1.00  0.00     0.210 HD
ENDBRANCH   3  19
BRANCH   5  21
HETATM   21  O5  UNL     1      -1.208   3.060  57.859  1.00  0.00    -0.382 OA
ATOM     22  H5  UNL     1      -1.604   3.586  57.174  1.00  0.00     0.211 HD
ENDBRANCH   5  21
BRANCH   4  23
HETATM   23  O4  UNL     1       0.099   1.249  59.390  1.00  0.00    -0.389 OA
ATOM     24  H4  UNL     1       0.874   1.046  59.900  1.00  0.00     0.210 HD
ENDBRANCH   4  23
TORSDOF 8
ENDMDL
MODEL 2
REMARK VINA RESULT: -6.767828736      1.330      1.816
REMARK  8 active torsions:
REMARK  status: ('A' for Active; 'I' for Inactive)
REMARK    1  A    between atoms: O1_1  and  N1_3 
REMARK    2  A    between atoms: C1_5  and  O2_6 
REMARK    3  A    between atoms: C1_5  and  N2_8 
REMARK    4  A    between atoms: N2_8  and  N3_10 
REMARK    5  A    between atoms: C2_12  and  C3_13 
REMARK    6  A    between atoms: C5_15  and  O3_16 
REMARK    7  A    between atoms: C6_18  and  O4_19 
REMARK    8  A    between atoms: C7_21  and  O5_22 
ROOT
HETATM    1  C3  UNL     1       0.071   2.115  55.044  1.00  0.00     0.018 C 
HETATM    2  C4  UNL     1      -0.848   1.198  55.005  1.00  0.00     0.027 C 
HETATM    3  C5  UNL     1      -1.599   0.563  56.083  1.00  0.00     0.174 C 
HETATM    4  C6  UNL     1      -1.035   0.665  57.452  1.00  0.00     0.189 C 
HETATM    5  C7  UNL     1      -0.682   2.085  57.836  1.00  0.00     0.216 C 
HETATM    6  S1  UNL     1       0.539   2.747  56.680  1.00  0.00    -0.094 SA
ENDROOT
BRANCH   1   7
HETATM    7  C2  UNL     1       0.763   2.686  53.902  1.00  0.00     0.125 C 
HETATM    8  N3  UNL     1       1.682   2.212  53.202  1.00  0.00    -0.307 N 
ATOM      9  H3  UNL     1       1.958   2.862  52.466  1.00  0.00     0.186 HD
BRANCH   8  10
HETATM   10  N2  UNL     1       2.408   1.081  53.149  1.00  0.00    -0.264 N 
ATOM     11  H2  UNL     1       2.740   0.662  54.018  1.00  0.00     0.190 HD
BRANCH  10  12
HETATM   12  C1  UNL     1       2.721   0.463  51.925  1.00  0.00     0.256 C 
HETATM   13  N1  UNL     1       3.724   0.855  51.245  1.00  0.00    -0.232 N 
ATOM     14  H1  UNL     1       3.939   0.398  50.359  1.00  0.00     0.198 HD
BRANCH  13  15
HETATM   15  O1  UNL     1       4.509   1.865  51.679  1.00  0.00    -0.287 OA
ATOM     16  H1  UNL     1       5.202   2.218  51.133  1.00  0.00     0.244 HD
ENDBRANCH  13  15
BRANCH  12  17
HETATM   17  O2  UNL     1       1.940  -0.568  51.458  1.00  0.00    -0.330 OA
ATOM     18  H2  UNL     1       2.351  -1.357  51.126  1.00  0.00     0.221 HD
ENDBRANCH  12  17
ENDBRANCH  10  12
ENDBRANCH   8  10
ENDBRANCH   1   7
BRANCH   3  19
HETATM   19  O3  UNL     1      -2.945   0.981  56.090  1.00  0.00    -0.389 OA
ATOM     20  H3  UNL     1      -3.513   0.334  55.688  1.00  0.00     0.210 HD
ENDBRANCH   3  19
BRANCH   5  21
HETATM   21  O5  UNL     1      -1.795   2.897  57.954  1.00  0.00    -0.382 OA
ATOM     22  H5  UNL     1      -2.508   2.475  58.419  1.00  0.00     0.211 HD
ENDBRANCH   5  21
BRANCH   4  23
HETATM   23  O4  UNL     1      -1.999   0.228  58.358  1.00  0.00    -0.389 OA
ATOM     24  H4  UNL     1      -2.439  -0.528  57.987  1.00  0.00     0.210 HD
ENDBRANCH   4  23
TORSDOF 8
ENDMDL
MODEL 3
REMARK VINA RESULT: -6.741435500      4.185      6.019
REMARK  8 active torsions:
REMARK  status: ('A' for Active; 'I' for Inactive)
REMARK    1  A    between atoms: O1_1  and  N1_3 
REMARK    2  A    between atoms: C1_5  and  O2_6 
REMARK    3  A    between atoms: C1_5  and  N2_8 
REMARK    4  A    between atoms: N2_8  and  N3_10 
REMARK    5  A    between atoms: C2_12  and  C3_13 
REMARK    6  A    between atoms: C5_15  and  O3_16 
REMARK    7  A    between atoms: C6_18  and  O4_19 
REMARK    8  A    between atoms: C7_21  and  O5_22 
ROOT
HETATM    1  C3  UNL     1       1.337   3.456  55.772  1.00  0.00     0.018 C 
HETATM    2  C4  UNL     1       2.275   3.487  54.873  1.00  0.00     0.027 C 
HETATM    3  C5  UNL     1       2.464   2.676  53.674  1.00  0.00     0.174 C 
HETATM    4  C6  UNL     1       1.727   1.389  53.604  1.00  0.00     0.189 C 
HETATM    5  C7  UNL     1       0.252   1.541  53.898  1.00  0.00     0.216 C 
HETATM    6  S1  UNL     1       0.022   2.224  55.554  1.00  0.00    -0.094 SA
ENDROOT
BRANCH   1   7
HETATM    7  C2  UNL     1       1.240   4.315  56.940  1.00  0.00     0.125 C 
HETATM    8  N3  UNL     1       1.515   5.526  57.069  1.00  0.00    -0.307 N 
ATOM      9  H3  UNL     1       1.338   5.845  58.022  1.00  0.00     0.186 HD
BRANCH   8  10
HETATM   10  N2  UNL     1       1.978   6.528  56.300  1.00  0.00    -0.264 N 
ATOM     11  H2  UNL     1       2.223   6.338  55.329  1.00  0.00     0.190 HD
BRANCH  10  12
HETATM   12  C1  UNL     1       2.134   7.832  56.805  1.00  0.00     0.256 C 
HETATM   13  N1  UNL     1       2.251   8.819  56.009  1.00  0.00    -0.232 N 
ATOM     14  H1  UNL     1       2.363   9.758  56.389  1.00  0.00     0.198 HD
BRANCH  13  15
HETATM   15  O1  UNL     1       2.228   8.642  54.670  1.00  0.00    -0.287 OA
ATOM     16  H1  UNL     1       2.005   9.357  54.085  1.00  0.00     0.244 HD
ENDBRANCH  13  15
BRANCH  12  17
HETATM   17  O2  UNL     1       2.160   8.042  58.163  1.00  0.00    -0.330 OA
ATOM     18  H2  UNL     1       1.369   8.315  58.614  1.00  0.00     0.221 HD
ENDBRANCH  12  17
ENDBRANCH  10  12
ENDBRANCH   8  10
ENDBRANCH   1   7
BRANCH   3  19
HETATM   19  O3  UNL     1       2.226   3.424  52.503  1.00  0.00    -0.389 OA
ATOM     20  H3  UNL     1       2.686   3.057  51.757  1.00  0.00     0.210 HD
ENDBRANCH   3  19
BRANCH   5  21
HETATM   21  O5  UNL     1      -0.412   2.270  52.927  1.00  0.00    -0.382 OA
ATOM     22  H5  UNL     1      -1.350   2.124  52.938  1.00  0.00     0.211 HD
ENDBRANCH   5  21
BRANCH   4  23
HETATM   23  O4  UNL     1       1.835   0.892  52.307  1.00  0.00    -0.389 OA
ATOM     24  H4  UNL     1       2.502   0.215  52.300  1.00  0.00     0.210 HD
ENDBRANCH   4  23
TORSDOF 8
ENDMDL
MODEL 4
REMARK VINA RESULT: -6.680664794      4.538      6.518
REMARK  8 active torsions:
REMARK  status: ('A' for Active; 'I' for Inactive)
REMARK    1  A    between atoms: O1_1  and  N1_3 
REMARK    2  A    between atoms: C1_5  and  O2_6 
REMARK    3  A    between atoms: C1_5  and  N2_8 
REMARK    4  A    between atoms: N2_8  and  N3_10 
REMARK    5  A    between atoms: C2_12  and  C3_13 
REMARK    6  A    between atoms: C5_15  and  O3_16 
REMARK    7  A    between atoms: C6_18  and  O4_19 
REMARK    8  A    between atoms: C7_21  and  O5_22 
ROOT
HETATM    1  C3  UNL     1       1.653   4.124  55.746  1.00  0.00     0.018 C 
HETATM    2  C4  UNL     1       2.464   4.269  54.741  1.00  0.00     0.027 C 
HETATM    3  C5  UNL     1       2.721   3.398  53.598  1.00  0.00     0.174 C 
HETATM    4  C6  UNL     1       2.306   1.978  53.723  1.00  0.00     0.189 C 
HETATM    5  C7  UNL     1       0.872   1.824  54.178  1.00  0.00     0.216 C 
HETATM    6  S1  UNL     1       0.651   2.611  55.789  1.00  0.00    -0.094 SA
ENDROOT
BRANCH   1   7
HETATM    7  C2  UNL     1       1.471   5.060  56.842  1.00  0.00     0.125 C 
HETATM    8  N3  UNL     1       1.762   6.271  56.920  1.00  0.00    -0.307 N 
ATOM      9  H3  UNL     1       1.507   6.654  57.830  1.00  0.00     0.186 HD
BRANCH   8  10
HETATM   10  N2  UNL     1       2.319   7.211  56.136  1.00  0.00    -0.264 N 
ATOM     11  H2  UNL     1       3.099   6.956  55.530  1.00  0.00     0.190 HD
BRANCH  10  12
HETATM   12  C1  UNL     1       1.851   8.538  56.131  1.00  0.00     0.256 C 
HETATM   13  N1  UNL     1       1.733   9.181  57.224  1.00  0.00    -0.232 N 
ATOM     14  H1  UNL     1       1.392  10.142  57.206  1.00  0.00     0.198 HD
BRANCH  13  15
HETATM   15  O1  UNL     1       2.053   8.612  58.407  1.00  0.00    -0.287 OA
ATOM     16  H1  UNL     1       2.307   7.698  58.458  1.00  0.00     0.244 HD
ENDBRANCH  13  15
BRANCH  12  17
HETATM   17  O2  UNL     1       1.518   9.143  54.943  1.00  0.00    -0.330 OA
ATOM     18  H2  UNL     1       2.204   9.458  54.365  1.00  0.00     0.221 HD
ENDBRANCH  12  17
ENDBRANCH  10  12
ENDBRANCH   8  10
ENDBRANCH   1   7
BRANCH   3  19
HETATM   19  O3  UNL     1       2.199   3.943  52.407  1.00  0.00    -0.389 OA
ATOM     20  H3  UNL     1       2.598   3.548  51.641  1.00  0.00     0.210 HD
ENDBRANCH   3  19
BRANCH   5  21
HETATM   21  O5  UNL     1      -0.036   2.276  53.238  1.00  0.00    -0.382 OA
ATOM     22  H5  UNL     1      -0.833   1.759  53.222  1.00  0.00     0.211 HD
ENDBRANCH   5  21
BRANCH   4  23
HETATM   23  O4  UNL     1       2.400   1.381  52.467  1.00  0.00    -0.389 OA
ATOM     24  H4  UNL     1       3.299   1.104  52.334  1.00  0.00     0.210 HD
ENDBRANCH   4  23
TORSDOF 8
ENDMDL
MODEL 5
REMARK VINA RESULT: -6.658985415      0.615      1.395
REMARK  8 active torsions:
REMARK  status: ('A' for Active; 'I' for Inactive)
REMARK    1  A    between atoms: O1_1  and  N1_3 
REMARK    2  A    between atoms: C1_5  and  O2_6 
REMARK    3  A    between atoms: C1_5  and  N2_8 
REMARK    4  A    between atoms: N2_8  and  N3_10 
REMARK    5  A    between atoms: C2_12  and  C3_13 
REMARK    6  A    between atoms: C5_15  and  O3_16 
REMARK    7  A    between atoms: C6_18  and  O4_19 
REMARK    8  A    between atoms: C7_21  and  O5_22 
ROOT
HETATM    1  C3  UNL     1      -0.036   1.298  55.090  1.00  0.00     0.018 C 
HETATM    2  C4  UNL     1      -0.396   0.352  55.905  1.00  0.00     0.027 C 
HETATM    3  C5  UNL     1      -0.427   0.319  57.363  1.00  0.00     0.174 C 
HETATM    4  C6  UNL     1       0.390   1.330  58.080  1.00  0.00     0.189 C 
HETATM    5  C7  UNL     1       0.142   2.738  57.591  1.00  0.00     0.216 C 
HETATM    6  S1  UNL     1       0.533   2.855  55.831  1.00  0.00    -0.094 SA
ENDROOT
BRANCH   1   7
HETATM    7  C2  UNL     1      -0.043   1.229  53.639  1.00  0.00     0.125 C 
HETATM    8  N3  UNL     1       0.887   0.983  52.844  1.00  0.00    -0.307 N 
ATOM      9  H3  UNL     1       0.562   1.010  51.877  1.00  0.00     0.186 HD
BRANCH   8  10
HETATM   10  N2  UNL     1       2.198   0.692  52.907  1.00  0.00    -0.264 N 
ATOM     11  H2  UNL     1       2.552   0.155  53.699  1.00  0.00     0.190 HD
BRANCH  10  12
HETATM   12  C1  UNL     1       3.095   1.111  51.907  1.00  0.00     0.256 C 
HETATM   13  N1  UNL     1       4.168   1.721  52.220  1.00  0.00    -0.232 N 
ATOM     14  H1  UNL     1       4.808   2.019  51.485  1.00  0.00     0.198 HD
BRANCH  13  15
HETATM   15  O1  UNL     1       4.472   1.980  53.511  1.00  0.00    -0.287 OA
ATOM     16  H1  UNL     1       4.592   2.871  53.817  1.00  0.00     0.244 HD
ENDBRANCH  13  15
BRANCH  12  17
HETATM   17  O2  UNL     1       2.812   0.861  50.585  1.00  0.00    -0.330 OA
ATOM     18  H2  UNL     1       2.056   0.333  50.356  1.00  0.00     0.221 HD
ENDBRANCH  12  17
ENDBRANCH  10  12
ENDBRANCH   8  10
ENDBRANCH   1   7
BRANCH   3  19
HETATM   19  O3  UNL     1      -1.749   0.342  57.852  1.00  0.00    -0.389 OA
ATOM     20  H3  UNL     1      -2.212  -0.460  57.639  1.00  0.00     0.210 HD
ENDBRANCH   3  19
BRANCH   5  21
HETATM   21  O5  UNL     1      -1.134   3.186  57.881  1.00  0.00    -0.382 OA
ATOM     22  H5  UNL     1      -1.396   2.991  58.773  1.00  0.00     0.211 HD
ENDBRANCH   5  21
BRANCH   4  23
HETATM   23  O4  UNL     1       0.040   1.301  59.429  1.00  0.00    -0.389 OA
ATOM     24  H4  UNL     1       0.338   0.478  59.799  1.00  0.00     0.210 HD
ENDBRANCH   4  23
TORSDOF 8
ENDMDL
