MODEL 1
REMARK VINA RESULT: -6.229765759      0.000      0.000
REMARK  8 active torsions:
REMARK  status: ('A' for Active; 'I' for Inactive)
REMARK    1  A    between atoms: N1_1  and  N2_4 
REMARK    2  A    between atoms: N2_4  and  N3_5 
REMARK    3  A    between atoms: N3_5  and  C1_7 
REMARK    4  A    between atoms: C1_7  and  C2_8 
REMARK    5  A    between atoms: C3_9  and  O1_10 
REMARK    6  A    between atoms: C4_12  and  O2_13 
REMARK    7  A    between atoms: C6_17  and  O3_18 
REMARK    8  A    between atoms: C7_20  and  O4_21 
ROOT
HETATM    1  C2  UNL     1       0.980   1.823  53.416  1.00  0.00     0.068 C 
HETATM    2  C3  UNL     1       2.263   2.572  53.458  1.00  0.00     0.156 C 
HETATM    3  C4  UNL     1       2.924   2.589  54.810  1.00  0.00     0.164 C 
HETATM    4  C5  UNL     1       1.952   3.087  55.842  1.00  0.00     0.121 C 
HETATM    5  S1  UNL     1       1.586   4.849  55.664  1.00  0.00    -0.087 SA
HETATM    6  C6  UNL     1       0.690   2.275  55.899  1.00  0.00     0.164 C 
HETATM    7  C7  UNL     1       0.138   1.831  54.613  1.00  0.00     0.156 C 
ENDROOT
BRANCH   1   8
HETATM    8  C1  UNL     1       1.323   0.387  52.978  1.00  0.00     0.165 C 
BRANCH   8   9
HETATM    9  N3  UNL     1       1.775   0.359  51.622  1.00  0.00    -0.252 N 
ATOM     10  H3  UNL     1       1.117   0.267  50.848  1.00  0.00     0.196 HD
BRANCH   9  11
HETATM   11  N2  UNL     1       2.998   0.451  51.419  1.00  0.00    -0.249 NA
BRANCH  11  12
HETATM   12  N1  UNL     1       4.161   0.696  51.037  1.00  0.00    -0.261 N 
ATOM     13  H12 UNL     1       4.517   0.410  51.949  1.00  0.00     0.193 HD
ATOM     14  H11 UNL     1       5.024   0.948  50.555  1.00  0.00     0.193 HD
ENDBRANCH  11  12
ENDBRANCH   9  11
ENDBRANCH   8   9
ENDBRANCH   1   8
BRANCH   2  15
HETATM   15  O1  UNL     1       2.073   3.878  52.966  1.00  0.00    -0.392 OA
ATOM     16  H1  UNL     1       2.793   4.435  53.239  1.00  0.00     0.210 HD
ENDBRANCH   2  15
BRANCH   7  17
HETATM   17  O4  UNL     1      -1.035   2.587  54.357  1.00  0.00    -0.392 OA
ATOM     18  H4  UNL     1      -1.298   3.038  55.151  1.00  0.00     0.210 HD
ENDBRANCH   7  17
BRANCH   3  19
HETATM   19  O2  UNL     1       4.043   3.377  54.786  1.00  0.00    -0.392 OA
ATOM     20  H2  UNL     1       3.820   4.262  54.522  1.00  0.00     0.210 HD
ENDBRANCH   3  19
BRANCH   6  21
HETATM   21  O3  UNL     1      -0.231   3.053  56.629  1.00  0.00    -0.392 OA
ATOM     22  H3  UNL     1      -0.957   2.473  56.827  1.00  0.00     0.210 HD
ENDBRANCH   6  21
TORSDOF 8
ENDMDL
MODEL 2
REMARK VINA RESULT: -5.709890906      4.322      4.955
REMARK  8 active torsions:
REMARK  status: ('A' for Active; 'I' for Inactive)
REMARK    1  A    between atoms: N1_1  and  N2_4 
REMARK    2  A    between atoms: N2_4  and  N3_5 
REMARK    3  A    between atoms: N3_5  and  C1_7 
REMARK    4  A    between atoms: C1_7  and  C2_8 
REMARK    5  A    between atoms: C3_9  and  O1_10 
REMARK    6  A    between atoms: C4_12  and  O2_13 
REMARK    7  A    between atoms: C6_17  and  O3_18 
REMARK    8  A    between atoms: C7_20  and  O4_21 
ROOT
HETATM    1  C2  UNL     1       2.214   3.994  55.732  1.00  0.00     0.068 C 
HETATM    2  C3  UNL     1       2.970   3.571  54.524  1.00  0.00     0.156 C 
HETATM    3  C4  UNL     1       2.129   3.447  53.281  1.00  0.00     0.164 C 
HETATM    4  C5  UNL     1       0.958   2.547  53.551  1.00  0.00     0.121 C 
HETATM    5  S1  UNL     1       1.440   0.817  53.761  1.00  0.00    -0.087 SA
HETATM    6  C6  UNL     1       0.110   3.016  54.698  1.00  0.00     0.164 C 
HETATM    7  C7  UNL     1       0.823   3.559  55.861  1.00  0.00     0.156 C 
ENDROOT
BRANCH   1   8
HETATM    8  C1  UNL     1       2.335   5.528  55.812  1.00  0.00     0.165 C 
BRANCH   8   9
HETATM    9  N3  UNL     1       1.628   6.040  56.943  1.00  0.00    -0.252 N 
ATOM     10  H3  UNL     1       0.859   5.518  57.365  1.00  0.00     0.196 HD
BRANCH   9  11
HETATM   11  N2  UNL     1       1.981   7.143  57.394  1.00  0.00    -0.249 NA
BRANCH  11  12
HETATM   12  N1  UNL     1       2.161   8.212  58.013  1.00  0.00    -0.261 N 
ATOM     13  H12 UNL     1       1.276   8.567  57.649  1.00  0.00     0.193 HD
ATOM     14  H11 UNL     1       2.475   9.001  58.578  1.00  0.00     0.193 HD
ENDBRANCH  11  12
ENDBRANCH   9  11
ENDBRANCH   8   9
ENDBRANCH   1   8
BRANCH   2  15
HETATM   15  O1  UNL     1       3.670   2.377  54.788  1.00  0.00    -0.392 OA
ATOM     16  H1  UNL     1       3.506   2.097  55.681  1.00  0.00     0.210 HD
ENDBRANCH   2  15
BRANCH   7  17
HETATM   17  O4  UNL     1       0.723   2.614  56.915  1.00  0.00    -0.392 OA
ATOM     18  H4  UNL     1       0.095   2.926  57.558  1.00  0.00     0.210 HD
ENDBRANCH   7  17
BRANCH   3  19
HETATM   19  O2  UNL     1       2.878   2.962  52.243  1.00  0.00    -0.392 OA
ATOM     20  H2  UNL     1       3.351   2.183  52.511  1.00  0.00     0.210 HD
ENDBRANCH   3  19
BRANCH   6  21
HETATM   21  O3  UNL     1      -0.704   1.919  55.043  1.00  0.00    -0.392 OA
ATOM     22  H3  UNL     1      -0.434   1.663  55.918  1.00  0.00     0.210 HD
ENDBRANCH   6  21
TORSDOF 8
ENDMDL
MODEL 3
REMARK VINA RESULT: -5.691795967      3.051      3.976
REMARK  8 active torsions:
REMARK  status: ('A' for Active; 'I' for Inactive)
REMARK    1  A    between atoms: N1_1  and  N2_4 
REMARK    2  A    between atoms: N2_4  and  N3_5 
REMARK    3  A    between atoms: N3_5  and  C1_7 
REMARK    4  A    between atoms: C1_7  and  C2_8 
REMARK    5  A    between atoms: C3_9  and  O1_10 
REMARK    6  A    between atoms: C4_12  and  O2_13 
REMARK    7  A    between atoms: C6_17  and  O3_18 
REMARK    8  A    between atoms: C7_20  and  O4_21 
ROOT
HETATM    1  C2  UNL     1       4.020   3.006  52.968  1.00  0.00     0.068 C 
HETATM    2  C3  UNL     1       3.234   3.717  54.010  1.00  0.00     0.156 C 
HETATM    3  C4  UNL     1       2.632   2.814  55.053  1.00  0.00     0.164 C 
HETATM    4  C5  UNL     1       1.828   1.736  54.386  1.00  0.00     0.121 C 
HETATM    5  S1  UNL     1       0.314   2.364  53.623  1.00  0.00    -0.087 SA
HETATM    6  C6  UNL     1       2.630   0.925  53.408  1.00  0.00     0.164 C 
HETATM    7  C7  UNL     1       3.588   1.664  52.576  1.00  0.00     0.156 C 
ENDROOT
BRANCH   1   8
HETATM    8  C1  UNL     1       5.485   3.011  53.442  1.00  0.00     0.165 C 
BRANCH   8   9
HETATM    9  N3  UNL     1       5.692   2.049  54.479  1.00  0.00    -0.252 N 
ATOM     10  H3  UNL     1       4.989   1.341  54.689  1.00  0.00     0.196 HD
BRANCH   9  11
HETATM   11  N2  UNL     1       6.758   2.105  55.115  1.00  0.00    -0.249 NA
BRANCH  11  12
HETATM   12  N1  UNL     1       7.929   2.203  55.536  1.00  0.00    -0.261 N 
ATOM     13  H12 UNL     1       8.221   2.569  54.630  1.00  0.00     0.193 HD
ATOM     14  H11 UNL     1       8.811   2.210  56.049  1.00  0.00     0.193 HD
ENDBRANCH  11  12
ENDBRANCH   9  11
ENDBRANCH   8   9
ENDBRANCH   1   8
BRANCH   2  15
HETATM   15  O1  UNL     1       2.250   4.523  53.403  1.00  0.00    -0.392 OA
ATOM     16  H1  UNL     1       1.544   4.689  54.017  1.00  0.00     0.210 HD
ENDBRANCH   2  15
BRANCH   7  17
HETATM   17  O4  UNL     1       3.077   1.703  51.252  1.00  0.00    -0.392 OA
ATOM     18  H4  UNL     1       2.571   2.498  51.134  1.00  0.00     0.210 HD
ENDBRANCH   7  17
BRANCH   3  19
HETATM   19  O2  UNL     1       1.849   3.534  55.914  1.00  0.00    -0.392 OA
ATOM     20  H2  UNL     1       2.387   4.067  56.487  1.00  0.00     0.210 HD
ENDBRANCH   3  19
BRANCH   6  21
HETATM   21  O3  UNL     1       1.687   0.223  52.632  1.00  0.00    -0.392 OA
ATOM     22  H3  UNL     1       1.150  -0.257  53.251  1.00  0.00     0.210 HD
ENDBRANCH   6  21
TORSDOF 8
ENDMDL
MODEL 4
REMARK VINA RESULT: -5.574121728      3.079      4.075
REMARK  8 active torsions:
REMARK  status: ('A' for Active; 'I' for Inactive)
REMARK    1  A    between atoms: N1_1  and  N2_4 
REMARK    2  A    between atoms: N2_4  and  N3_5 
REMARK    3  A    between atoms: N3_5  and  C1_7 
REMARK    4  A    between atoms: C1_7  and  C2_8 
REMARK    5  A    between atoms: C3_9  and  O1_10 
REMARK    6  A    between atoms: C4_12  and  O2_13 
REMARK    7  A    between atoms: C6_17  and  O3_18 
REMARK    8  A    between atoms: C7_20  and  O4_21 
ROOT
HETATM    1  C2  UNL     1       1.517   1.902  53.996  1.00  0.00     0.068 C 
HETATM    2  C3  UNL     1       2.092   3.083  54.691  1.00  0.00     0.156 C 
HETATM    3  C4  UNL     1       2.757   4.076  53.775  1.00  0.00     0.164 C 
HETATM    4  C5  UNL     1       3.779   3.375  52.927  1.00  0.00     0.121 C 
HETATM    5  S1  UNL     1       5.218   2.828  53.875  1.00  0.00    -0.087 SA
HETATM    6  C6  UNL     1       3.200   2.245  52.123  1.00  0.00     0.164 C 
HETATM    7  C7  UNL     1       2.196   1.411  52.796  1.00  0.00     0.156 C 
ENDROOT
BRANCH   1   8
HETATM    8  C1  UNL     1       0.040   2.235  53.711  1.00  0.00     0.165 C 
BRANCH   8   9
HETATM    9  N3  UNL     1      -0.826   1.246  54.271  1.00  0.00    -0.252 N 
ATOM     10  H3  UNL     1      -1.651   0.921  53.767  1.00  0.00     0.196 HD
BRANCH   9  11
HETATM   11  N2  UNL     1      -0.539   0.796  55.394  1.00  0.00    -0.249 NA
BRANCH  11  12
HETATM   12  N1  UNL     1      -0.441   0.194  56.483  1.00  0.00    -0.261 N 
ATOM     13  H12 UNL     1       0.405  -0.267  56.148  1.00  0.00     0.193 HD
ATOM     14  H11 UNL     1      -0.525  -0.198  57.421  1.00  0.00     0.193 HD
ENDBRANCH  11  12
ENDBRANCH   9  11
ENDBRANCH   8   9
ENDBRANCH   1   8
BRANCH   2  15
HETATM   15  O1  UNL     1       2.968   2.661  55.710  1.00  0.00    -0.392 OA
ATOM     16  H1  UNL     1       2.792   3.144  56.510  1.00  0.00     0.210 HD
ENDBRANCH   2  15
BRANCH   7  17
HETATM   17  O4  UNL     1       2.791   0.153  53.076  1.00  0.00    -0.392 OA
ATOM     18  H4  UNL     1       3.339   0.228  53.848  1.00  0.00     0.210 HD
ENDBRANCH   7  17
BRANCH   3  19
HETATM   19  O2  UNL     1       3.342   5.078  54.500  1.00  0.00    -0.392 OA
ATOM     20  H2  UNL     1       2.690   5.542  55.013  1.00  0.00     0.210 HD
ENDBRANCH   3  19
BRANCH   6  21
HETATM   21  O3  UNL     1       4.302   1.490  51.678  1.00  0.00    -0.392 OA
ATOM     22  H3  UNL     1       3.964   0.917  51.000  1.00  0.00     0.210 HD
ENDBRANCH   6  21
TORSDOF 8
ENDMDL
MODEL 5
REMARK VINA RESULT: -5.549998555      4.205      4.835
REMARK  8 active torsions:
REMARK  status: ('A' for Active; 'I' for Inactive)
REMARK    1  A    between atoms: N1_1  and  N2_4 
REMARK    2  A    between atoms: N2_4  and  N3_5 
REMARK    3  A    between atoms: N3_5  and  C1_7 
REMARK    4  A    between atoms: C1_7  and  C2_8 
REMARK    5  A    between atoms: C3_9  and  O1_10 
REMARK    6  A    between atoms: C4_12  and  O2_13 
REMARK    7  A    between atoms: C6_17  and  O3_18 
REMARK    8  A    between atoms: C7_20  and  O4_21 
ROOT
HETATM    1  C2  UNL     1       2.716   3.573  55.039  1.00  0.00     0.068 C 
HETATM    2  C3  UNL     1       3.933   3.195  54.272  1.00  0.00     0.156 C 
HETATM    3  C4  UNL     1       3.718   3.094  52.785  1.00  0.00     0.164 C 
HETATM    4  C5  UNL     1       2.570   2.169  52.502  1.00  0.00     0.121 C 
HETATM    5  S1  UNL     1       2.957   0.441  52.868  1.00  0.00    -0.087 SA
HETATM    6  C6  UNL     1       1.295   2.592  53.175  1.00  0.00     0.164 C 
HETATM    7  C7  UNL     1       1.419   3.113  54.543  1.00  0.00     0.156 C 
ENDROOT
BRANCH   1   8
HETATM    8  C1  UNL     1       2.751   5.105  55.192  1.00  0.00     0.165 C 
BRANCH   8   9
HETATM    9  N3  UNL     1       1.964   5.527  56.308  1.00  0.00    -0.252 N 
ATOM     10  H3  UNL     1       1.283   4.901  56.739  1.00  0.00     0.196 HD
BRANCH   9  11
HETATM   11  N2  UNL     1       2.137   6.681  56.734  1.00  0.00    -0.249 NA
BRANCH  11  12
HETATM   12  N1  UNL     1       2.224   7.751  57.371  1.00  0.00    -0.261 N 
ATOM     13  H12 UNL     1       2.580   7.238  58.178  1.00  0.00     0.193 HD
ATOM     14  H11 UNL     1       2.225   8.708  57.726  1.00  0.00     0.193 HD
ENDBRANCH  11  12
ENDBRANCH   9  11
ENDBRANCH   8   9
ENDBRANCH   1   8
BRANCH   2  15
HETATM   15  O1  UNL     1       4.479   2.005  54.792  1.00  0.00    -0.392 OA
ATOM     16  H1  UNL     1       3.798   1.349  54.884  1.00  0.00     0.210 HD
ENDBRANCH   2  15
BRANCH   7  17
HETATM   17  O4  UNL     1       0.895   2.138  55.430  1.00  0.00    -0.392 OA
ATOM     18  H4  UNL     1       0.156   2.505  55.901  1.00  0.00     0.210 HD
ENDBRANCH   7  17
BRANCH   3  19
HETATM   19  O2  UNL     1       4.856   2.650  52.167  1.00  0.00    -0.392 OA
ATOM     20  H2  UNL     1       5.348   3.381  51.812  1.00  0.00     0.210 HD
ENDBRANCH   3  19
BRANCH   6  21
HETATM   21  O3  UNL     1       0.441   1.473  53.111  1.00  0.00    -0.392 OA
ATOM     22  H3  UNL     1      -0.294   1.741  52.572  1.00  0.00     0.210 HD
ENDBRANCH   6  21
TORSDOF 8
ENDMDL
