MODEL 1
REMARK VINA RESULT: -6.400548375      0.000      0.000
REMARK  9 active torsions:
REMARK  status: ('A' for Active; 'I' for Inactive)
REMARK    1  A    between atoms: C2_2  and  C3_3 
REMARK    2  A    between atoms: C3_3  and  N1_5 
REMARK       I    between atoms: N1_5  and  C5_7 
REMARK    3  A    between atoms: C5_7  and  C6_9 
REMARK    4  A    between atoms: C9_12  and  C10_13 
REMARK       I    between atoms: C10_13  and  N2_15 
REMARK    5  A    between atoms: N2_15  and  C11_17 
REMARK       I    between atoms: N3_23  and  C17_24 
REMARK    6  A    between atoms: C17_24  and  C18_26 
REMARK    7  A    between atoms: C18_26  and  C19_27 
REMARK    8  A    between atoms: C18_26  and  N4_31 
REMARK    9  A    between atoms: C19_27  and  C20_28 
ROOT
HETATM    1  C6  UNL     1      77.031  36.530  -2.556  1.00  0.00     0.180 C 
HETATM    2  C7  UNL     1      76.050  36.717  -3.660  1.00  0.00     0.037 C 
HETATM    3  C8  UNL     1      76.656  37.751  -4.549  1.00  0.00     0.037 C 
HETATM    4  C9  UNL     1      77.511  38.552  -3.600  1.00  0.00     0.180 C 
HETATM    5  N3  UNL     1      77.935  37.625  -2.574  1.00  0.00    -0.323 N 
HETATM    6  C17 UNL     1      79.121  37.846  -1.802  1.00  0.00     0.243 C 
HETATM    7  O3  UNL     1      79.681  38.989  -2.003  1.00  0.00    -0.271 OA
ENDROOT
BRANCH   4   8
HETATM    8  C10 UNL     1      76.786  39.723  -3.158  1.00  0.00     0.241 C 
HETATM    9  O2  UNL     1      75.949  40.275  -3.931  1.00  0.00    -0.271 OA
HETATM   10  N2  UNL     1      76.929  40.340  -1.888  1.00  0.00    -0.355 N 
ATOM     11  H2  UNL     1      77.601  39.920  -1.245  1.00  0.00     0.162 HD
BRANCH  10  12
HETATM   12  C11 UNL     1      76.228  41.484  -1.425  1.00  0.00     0.084 C 
HETATM   13  C12 UNL     1      77.107  42.394  -0.581  1.00  0.00     0.025 C 
HETATM   14  C13 UNL     1      76.616  42.462   0.837  1.00  0.00     0.002 C 
HETATM   15  C14 UNL     1      75.231  43.076   0.853  1.00  0.00     0.000 C 
HETATM   16  C15 UNL     1      74.344  42.425  -0.176  1.00  0.00     0.002 C 
HETATM   17  C16 UNL     1      74.986  41.134  -0.631  1.00  0.00     0.025 C 
ENDBRANCH  10  12
ENDBRANCH   4   8
BRANCH   1  18
HETATM   18  C5  UNL     1      76.337  36.289  -1.263  1.00  0.00     0.241 C 
HETATM   19  N1  UNL     1      76.798  35.233  -0.440  1.00  0.00    -0.355 N 
ATOM     20  H1  UNL     1      77.591  34.682  -0.772  1.00  0.00     0.162 HD
HETATM   21  O1  UNL     1      75.375  36.946  -0.840  1.00  0.00    -0.271 OA
BRANCH  19  22
HETATM   22  C3  UNL     1      76.225  34.886   0.827  1.00  0.00     0.080 C 
HETATM   23  C4  UNL     1      77.159  35.143   1.992  1.00  0.00     0.032 C 
BRANCH  22  24
HETATM   24  C2  UNL     1      75.903  33.413   0.825  1.00  0.00     0.020 C 
HETATM   25  C1  UNL     1      74.407  33.168   0.776  1.00  0.00     0.007 C 
ENDBRANCH  22  24
ENDBRANCH  19  22
ENDBRANCH   1  18
BRANCH   6  26
HETATM   26  C18 UNL     1      79.772  36.986  -0.844  1.00  0.00     0.169 C 
BRANCH  26  27
HETATM   27  C19 UNL     1      80.697  35.922  -1.457  1.00  0.00     0.038 C 
BRANCH  27  28
HETATM   28  C20 UNL     1      80.756  34.809  -0.393  1.00  0.00    -0.020 C 
HETATM   29  C21 UNL     1      79.881  33.649  -0.801  1.00  0.00     0.009 C 
HETATM   30  C22 UNL     1      82.176  34.342  -0.281  1.00  0.00     0.009 C 
ENDBRANCH  27  28
ENDBRANCH  26  27
BRANCH  26  31
HETATM   31  N4  UNL     1      80.638  37.705   0.081  1.00  0.00    -0.413 N 
HETATM   32  C23 UNL     1      80.093  37.955   1.364  1.00  0.00     0.140 C 
ATOM     33  H4  UNL     1      81.577  38.010  -0.180  1.00  0.00     0.153 HD
ENDBRANCH  26  31
ENDBRANCH   6  26
TORSDOF 9
ENDMDL
MODEL 2
REMARK VINA RESULT: -6.194526353      3.489      7.262
REMARK  9 active torsions:
REMARK  status: ('A' for Active; 'I' for Inactive)
REMARK    1  A    between atoms: C2_2  and  C3_3 
REMARK    2  A    between atoms: C3_3  and  N1_5 
REMARK       I    between atoms: N1_5  and  C5_7 
REMARK    3  A    between atoms: C5_7  and  C6_9 
REMARK    4  A    between atoms: C9_12  and  C10_13 
REMARK       I    between atoms: C10_13  and  N2_15 
REMARK    5  A    between atoms: N2_15  and  C11_17 
REMARK       I    between atoms: N3_23  and  C17_24 
REMARK    6  A    between atoms: C17_24  and  C18_26 
REMARK    7  A    between atoms: C18_26  and  C19_27 
REMARK    8  A    between atoms: C18_26  and  N4_31 
REMARK    9  A    between atoms: C19_27  and  C20_28 
ROOT
HETATM    1  C6  UNL     1      79.999  37.422  -0.097  1.00  0.00     0.180 C 
HETATM    2  C7  UNL     1      79.928  38.004   1.272  1.00  0.00     0.037 C 
HETATM    3  C8  UNL     1      81.345  38.251   1.665  1.00  0.00     0.037 C 
HETATM    4  C9  UNL     1      82.100  37.208   0.879  1.00  0.00     0.180 C 
HETATM    5  N3  UNL     1      81.334  36.996  -0.329  1.00  0.00    -0.323 N 
HETATM    6  C17 UNL     1      81.938  36.489  -1.524  1.00  0.00     0.243 C 
HETATM    7  O3  UNL     1      83.163  36.114  -1.384  1.00  0.00    -0.271 OA
ENDROOT
BRANCH   4   8
HETATM    8  C10 UNL     1      82.338  36.048   1.710  1.00  0.00     0.241 C 
HETATM    9  O2  UNL     1      83.211  36.097   2.625  1.00  0.00    -0.271 OA
HETATM   10  N2  UNL     1      81.660  34.807   1.591  1.00  0.00    -0.355 N 
ATOM     11  H2  UNL     1      80.954  34.736   0.858  1.00  0.00     0.162 HD
BRANCH  10  12
HETATM   12  C11 UNL     1      81.868  33.654   2.394  1.00  0.00     0.084 C 
HETATM   13  C12 UNL     1      82.624  32.564   1.650  1.00  0.00     0.025 C 
HETATM   14  C13 UNL     1      81.771  31.343   1.460  1.00  0.00     0.002 C 
HETATM   15  C14 UNL     1      81.423  30.766   2.818  1.00  0.00     0.000 C 
HETATM   16  C15 UNL     1      80.925  31.844   3.747  1.00  0.00     0.002 C 
HETATM   17  C16 UNL     1      80.578  33.071   2.933  1.00  0.00     0.025 C 
ENDBRANCH  10  12
ENDBRANCH   4   8
BRANCH   1  18
HETATM   18  C5  UNL     1      78.950  36.384  -0.289  1.00  0.00     0.241 C 
HETATM   19  N1  UNL     1      77.886  36.663  -1.181  1.00  0.00    -0.355 N 
ATOM     20  H1  UNL     1      77.888  37.567  -1.656  1.00  0.00     0.162 HD
HETATM   21  O1  UNL     1      78.930  35.282   0.275  1.00  0.00    -0.271 OA
BRANCH  19  22
HETATM   22  C3  UNL     1      76.808  35.761  -1.461  1.00  0.00     0.080 C 
HETATM   23  C4  UNL     1      76.173  35.996  -2.817  1.00  0.00     0.032 C 
BRANCH  22  24
HETATM   24  C2  UNL     1      75.734  35.955  -0.421  1.00  0.00     0.020 C 
HETATM   25  C1  UNL     1      75.455  34.675   0.340  1.00  0.00     0.007 C 
ENDBRANCH  22  24
ENDBRANCH  19  22
ENDBRANCH   1  18
BRANCH   6  26
HETATM   26  C18 UNL     1      81.382  36.338  -2.847  1.00  0.00     0.169 C 
BRANCH  26  27
HETATM   27  C19 UNL     1      81.362  37.624  -3.689  1.00  0.00     0.038 C 
BRANCH  27  28
HETATM   28  C20 UNL     1      79.870  37.999  -3.779  1.00  0.00    -0.020 C 
HETATM   29  C21 UNL     1      79.656  39.411  -3.290  1.00  0.00     0.009 C 
HETATM   30  C22 UNL     1      79.449  37.903  -5.213  1.00  0.00     0.009 C 
ENDBRANCH  27  28
ENDBRANCH  26  27
BRANCH  26  31
HETATM   31  N4  UNL     1      82.118  35.393  -3.678  1.00  0.00    -0.413 N 
HETATM   32  C23 UNL     1      82.625  35.911  -4.894  1.00  0.00     0.140 C 
ATOM     33  H4  UNL     1      82.258  34.421  -3.400  1.00  0.00     0.153 HD
ENDBRANCH  26  31
ENDBRANCH   6  26
TORSDOF 9
ENDMDL
MODEL 3
REMARK VINA RESULT: -6.172933018      2.982      6.571
REMARK  9 active torsions:
REMARK  status: ('A' for Active; 'I' for Inactive)
REMARK    1  A    between atoms: C2_2  and  C3_3 
REMARK    2  A    between atoms: C3_3  and  N1_5 
REMARK       I    between atoms: N1_5  and  C5_7 
REMARK    3  A    between atoms: C5_7  and  C6_9 
REMARK    4  A    between atoms: C9_12  and  C10_13 
REMARK       I    between atoms: C10_13  and  N2_15 
REMARK    5  A    between atoms: N2_15  and  C11_17 
REMARK       I    between atoms: N3_23  and  C17_24 
REMARK    6  A    between atoms: C17_24  and  C18_26 
REMARK    7  A    between atoms: C18_26  and  C19_27 
REMARK    8  A    between atoms: C18_26  and  N4_31 
REMARK    9  A    between atoms: C19_27  and  C20_28 
ROOT
HETATM    1  C6  UNL     1      80.487  37.581  -0.728  1.00  0.00     0.180 C 
HETATM    2  C7  UNL     1      80.380  37.472   0.753  1.00  0.00     0.037 C 
HETATM    3  C8  UNL     1      81.345  36.401   1.136  1.00  0.00     0.037 C 
HETATM    4  C9  UNL     1      81.393  35.534  -0.097  1.00  0.00     0.180 C 
HETATM    5  N3  UNL     1      81.150  36.422  -1.212  1.00  0.00    -0.323 N 
HETATM    6  C17 UNL     1      81.599  36.110  -2.535  1.00  0.00     0.243 C 
HETATM    7  O3  UNL     1      82.100  34.929  -2.662  1.00  0.00    -0.271 OA
ENDROOT
BRANCH   4   8
HETATM    8  C10 UNL     1      80.485  34.418   0.055  1.00  0.00     0.241 C 
HETATM    9  O2  UNL     1      80.600  33.406  -0.697  1.00  0.00    -0.271 OA
HETATM   10  N2  UNL     1      79.434  34.345   1.006  1.00  0.00    -0.355 N 
ATOM     11  H2  UNL     1      79.315  35.148   1.623  1.00  0.00     0.162 HD
BRANCH  10  12
HETATM   12  C11 UNL     1      78.533  33.262   1.182  1.00  0.00     0.084 C 
HETATM   13  C12 UNL     1      77.215  33.487   0.457  1.00  0.00     0.025 C 
HETATM   14  C13 UNL     1      76.073  33.599   1.426  1.00  0.00     0.002 C 
HETATM   15  C14 UNL     1      75.928  32.289   2.174  1.00  0.00     0.000 C 
HETATM   16  C15 UNL     1      77.261  31.819   2.697  1.00  0.00     0.002 C 
HETATM   17  C16 UNL     1      78.243  32.967   2.639  1.00  0.00     0.025 C 
ENDBRANCH  10  12
ENDBRANCH   4   8
BRANCH   1  18
HETATM   18  C5  UNL     1      79.160  37.866  -1.338  1.00  0.00     0.241 C 
HETATM   19  N1  UNL     1      78.110  36.940  -1.121  1.00  0.00    -0.355 N 
ATOM     20  H1  UNL     1      78.311  36.116  -0.554  1.00  0.00     0.162 HD
HETATM   21  O1  UNL     1      78.893  38.859  -2.028  1.00  0.00    -0.271 OA
BRANCH  19  22
HETATM   22  C3  UNL     1      76.785  37.083  -1.648  1.00  0.00     0.080 C 
HETATM   23  C4  UNL     1      75.718  36.512  -0.736  1.00  0.00     0.032 C 
BRANCH  22  24
HETATM   24  C2  UNL     1      76.702  36.341  -2.957  1.00  0.00     0.020 C 
HETATM   25  C1  UNL     1      76.350  37.268  -4.104  1.00  0.00     0.007 C 
ENDBRANCH  22  24
ENDBRANCH  19  22
ENDBRANCH   1  18
BRANCH   6  26
HETATM   26  C18 UNL     1      81.572  36.915  -3.733  1.00  0.00     0.169 C 
BRANCH  26  27
HETATM   27  C19 UNL     1      82.353  36.330  -4.920  1.00  0.00     0.038 C 
BRANCH  27  28
HETATM   28  C20 UNL     1      83.737  37.002  -4.835  1.00  0.00    -0.020 C 
HETATM   29  C21 UNL     1      84.825  35.955  -4.824  1.00  0.00     0.009 C 
HETATM   30  C22 UNL     1      83.907  37.879  -6.038  1.00  0.00     0.009 C 
ENDBRANCH  27  28
ENDBRANCH  26  27
BRANCH  26  31
HETATM   31  N4  UNL     1      80.229  37.110  -4.265  1.00  0.00    -0.413 N 
HETATM   32  C23 UNL     1      80.150  37.840  -5.476  1.00  0.00     0.140 C 
ATOM     33  H4  UNL     1      79.400  36.745  -3.795  1.00  0.00     0.153 HD
ENDBRANCH  26  31
ENDBRANCH   6  26
TORSDOF 9
ENDMDL
MODEL 4
REMARK VINA RESULT: -6.164349097      5.021     10.048
REMARK  9 active torsions:
REMARK  status: ('A' for Active; 'I' for Inactive)
REMARK    1  A    between atoms: C2_2  and  C3_3 
REMARK    2  A    between atoms: C3_3  and  N1_5 
REMARK       I    between atoms: N1_5  and  C5_7 
REMARK    3  A    between atoms: C5_7  and  C6_9 
REMARK    4  A    between atoms: C9_12  and  C10_13 
REMARK       I    between atoms: C10_13  and  N2_15 
REMARK    5  A    between atoms: N2_15  and  C11_17 
REMARK       I    between atoms: N3_23  and  C17_24 
REMARK    6  A    between atoms: C17_24  and  C18_26 
REMARK    7  A    between atoms: C18_26  and  C19_27 
REMARK    8  A    between atoms: C18_26  and  N4_31 
REMARK    9  A    between atoms: C19_27  and  C20_28 
ROOT
HETATM    1  C6  UNL     1      81.200  33.626   0.674  1.00  0.00     0.180 C 
HETATM    2  C7  UNL     1      82.463  32.911   0.340  1.00  0.00     0.037 C 
HETATM    3  C8  UNL     1      82.125  31.460   0.432  1.00  0.00     0.037 C 
HETATM    4  C9  UNL     1      81.004  31.439   1.440  1.00  0.00     0.180 C 
HETATM    5  N3  UNL     1      80.315  32.702   1.290  1.00  0.00    -0.323 N 
HETATM    6  C17 UNL     1      78.947  32.865   1.680  1.00  0.00     0.243 C 
HETATM    7  O3  UNL     1      78.443  31.849   2.293  1.00  0.00    -0.271 OA
ENDROOT
BRANCH   4   8
HETATM    8  C10 UNL     1      81.532  31.139   2.753  1.00  0.00     0.241 C 
HETATM    9  O2  UNL     1      81.294  31.919   3.721  1.00  0.00    -0.271 OA
HETATM   10  N2  UNL     1      82.325  30.006   3.074  1.00  0.00    -0.355 N 
ATOM     11  H2  UNL     1      82.537  29.362   2.311  1.00  0.00     0.162 HD
BRANCH  10  12
HETATM   12  C11 UNL     1      82.851  29.682   4.351  1.00  0.00     0.084 C 
HETATM   13  C12 UNL     1      84.295  29.211   4.276  1.00  0.00     0.025 C 
HETATM   14  C13 UNL     1      84.422  27.777   4.704  1.00  0.00     0.002 C 
HETATM   15  C14 UNL     1      84.012  27.655   6.158  1.00  0.00     0.000 C 
HETATM   16  C15 UNL     1      82.702  28.359   6.406  1.00  0.00     0.002 C 
HETATM   17  C16 UNL     1      82.034  28.634   5.078  1.00  0.00     0.025 C 
ENDBRANCH  10  12
ENDBRANCH   4   8
BRANCH   1  18
HETATM   18  C5  UNL     1      81.480  34.865   1.449  1.00  0.00     0.241 C 
HETATM   19  N1  UNL     1      81.078  36.106   0.899  1.00  0.00    -0.355 N 
ATOM     20  H1  UNL     1      80.610  36.096  -0.008  1.00  0.00     0.162 HD
HETATM   21  O1  UNL     1      82.044  34.900   2.552  1.00  0.00    -0.271 OA
BRANCH  19  22
HETATM   22  C3  UNL     1      81.284  37.375   1.531  1.00  0.00     0.080 C 
HETATM   23  C4  UNL     1      80.045  38.248   1.532  1.00  0.00     0.032 C 
BRANCH  22  24
HETATM   24  C2  UNL     1      82.359  38.120   0.781  1.00  0.00     0.020 C 
HETATM   25  C1  UNL     1      82.291  37.849  -0.709  1.00  0.00     0.007 C 
ENDBRANCH  22  24
ENDBRANCH  19  22
ENDBRANCH   1  18
BRANCH   6  26
HETATM   26  C18 UNL     1      78.061  33.988   1.489  1.00  0.00     0.169 C 
BRANCH  26  27
HETATM   27  C19 UNL     1      77.640  34.236   0.032  1.00  0.00     0.038 C 
BRANCH  27  28
HETATM   28  C20 UNL     1      77.469  35.765  -0.062  1.00  0.00    -0.020 C 
HETATM   29  C21 UNL     1      78.377  36.327  -1.129  1.00  0.00     0.009 C 
HETATM   30  C22 UNL     1      76.044  36.056  -0.421  1.00  0.00     0.009 C 
ENDBRANCH  27  28
ENDBRANCH  26  27
BRANCH  26  31
HETATM   31  N4  UNL     1      76.794  33.849   2.195  1.00  0.00    -0.413 N 
HETATM   32  C23 UNL     1      75.815  33.054   1.549  1.00  0.00     0.140 C 
ATOM     33  H4  UNL     1      76.623  34.295   3.097  1.00  0.00     0.153 HD
ENDBRANCH  26  31
ENDBRANCH   6  26
TORSDOF 9
ENDMDL
MODEL 5
REMARK VINA RESULT: -6.154507262      4.280      6.267
REMARK  9 active torsions:
REMARK  status: ('A' for Active; 'I' for Inactive)
REMARK    1  A    between atoms: C2_2  and  C3_3 
REMARK    2  A    between atoms: C3_3  and  N1_5 
REMARK       I    between atoms: N1_5  and  C5_7 
REMARK    3  A    between atoms: C5_7  and  C6_9 
REMARK    4  A    between atoms: C9_12  and  C10_13 
REMARK       I    between atoms: C10_13  and  N2_15 
REMARK    5  A    between atoms: N2_15  and  C11_17 
REMARK       I    between atoms: N3_23  and  C17_24 
REMARK    6  A    between atoms: C17_24  and  C18_26 
REMARK    7  A    between atoms: C18_26  and  C19_27 
REMARK    8  A    between atoms: C18_26  and  N4_31 
REMARK    9  A    between atoms: C19_27  and  C20_28 
ROOT
HETATM    1  C6  UNL     1      80.137  33.417  -0.146  1.00  0.00     0.180 C 
HETATM    2  C7  UNL     1      80.111  34.395  -1.268  1.00  0.00     0.037 C 
HETATM    3  C8  UNL     1      81.541  34.596  -1.643  1.00  0.00     0.037 C 
HETATM    4  C9  UNL     1      82.270  34.322  -0.352  1.00  0.00     0.180 C 
HETATM    5  N3  UNL     1      81.464  33.353   0.357  1.00  0.00    -0.323 N 
HETATM    6  C17 UNL     1      82.028  32.481   1.344  1.00  0.00     0.243 C 
HETATM    7  O3  UNL     1      83.258  32.733   1.635  1.00  0.00    -0.271 OA
ENDROOT
BRANCH   4   8
HETATM    8  C10 UNL     1      82.539  35.568   0.332  1.00  0.00     0.241 C 
HETATM    9  O2  UNL     1      83.708  35.819   0.748  1.00  0.00    -0.271 OA
HETATM   10  N2  UNL     1      81.577  36.579   0.592  1.00  0.00    -0.355 N 
ATOM     11  H2  UNL     1      80.625  36.402   0.273  1.00  0.00     0.162 HD
BRANCH  10  12
HETATM   12  C11 UNL     1      81.812  37.812   1.255  1.00  0.00     0.084 C 
HETATM   13  C12 UNL     1      80.553  38.365   1.906  1.00  0.00     0.025 C 
HETATM   14  C13 UNL     1      80.136  39.660   1.270  1.00  0.00     0.002 C 
HETATM   15  C14 UNL     1      81.219  40.695   1.496  1.00  0.00     0.000 C 
HETATM   16  C15 UNL     1      82.576  40.137   1.149  1.00  0.00     0.002 C 
HETATM   17  C16 UNL     1      82.393  38.872   0.340  1.00  0.00     0.025 C 
ENDBRANCH  10  12
ENDBRANCH   4   8
BRANCH   1  18
HETATM   18  C5  UNL     1      79.084  33.732   0.857  1.00  0.00     0.241 C 
HETATM   19  N1  UNL     1      77.851  33.041   0.773  1.00  0.00    -0.355 N 
ATOM     20  H1  UNL     1      77.739  32.354   0.027  1.00  0.00     0.162 HD
HETATM   21  O1  UNL     1      79.198  34.559   1.772  1.00  0.00    -0.271 OA
BRANCH  19  22
HETATM   22  C3  UNL     1      76.749  33.242   1.667  1.00  0.00     0.080 C 
HETATM   23  C4  UNL     1      76.440  32.024   2.515  1.00  0.00     0.032 C 
BRANCH  22  24
HETATM   24  C2  UNL     1      75.516  33.549   0.854  1.00  0.00     0.020 C 
HETATM   25  C1  UNL     1      75.595  34.921   0.215  1.00  0.00     0.007 C 
ENDBRANCH  22  24
ENDBRANCH  19  22
ENDBRANCH   1  18
BRANCH   6  26
HETATM   26  C18 UNL     1      81.426  31.376   2.050  1.00  0.00     0.169 C 
BRANCH  26  27
HETATM   27  C19 UNL     1      82.379  30.611   2.982  1.00  0.00     0.038 C 
BRANCH  27  28
HETATM   28  C20 UNL     1      81.638  29.295   3.290  1.00  0.00    -0.020 C 
HETATM   29  C21 UNL     1      82.249  28.157   2.509  1.00  0.00     0.009 C 
HETATM   30  C22 UNL     1      81.770  29.016   4.756  1.00  0.00     0.009 C 
ENDBRANCH  27  28
ENDBRANCH  26  27
BRANCH  26  31
HETATM   31  N4  UNL     1      80.335  31.779   2.927  1.00  0.00    -0.413 N 
HETATM   32  C23 UNL     1      80.695  32.622   4.008  1.00  0.00     0.140 C 
ATOM     33  H4  UNL     1      79.373  31.474   2.774  1.00  0.00     0.153 HD
ENDBRANCH  26  31
ENDBRANCH   6  26
TORSDOF 9
ENDMDL
