MODEL 1
REMARK VINA RESULT: -7.615280088      0.000      0.000
REMARK  10 active torsions:
REMARK  status: ('A' for Active; 'I' for Inactive)
REMARK    1  A    between atoms: C2_2  and  C4_4 
REMARK    2  A    between atoms: C4_4  and  N1_5 
REMARK       I    between atoms: N1_5  and  C5_7 
REMARK    3  A    between atoms: C5_7  and  C6_9 
REMARK       I    between atoms: N2_13  and  C10_14 
REMARK    4  A    between atoms: C10_14  and  C11_16 
REMARK    5  A    between atoms: C11_16  and  C12_17 
REMARK    6  A    between atoms: C11_16  and  N3_21 
REMARK    7  A    between atoms: C12_17  and  C13_18 
REMARK       I    between atoms: N3_21  and  C16_23 
REMARK    8  A    between atoms: C16_23  and  C17_25 
REMARK    9  A    between atoms: C20_28  and  C21_29 
REMARK   10  A    between atoms: C21_29  and  N4_30 
ROOT
HETATM    1  C11 UNL     1      77.282  34.535  -0.060  1.00  0.00     0.177 C 
ENDROOT
BRANCH   1   2
HETATM    2  C10 UNL     1      77.681  35.908  -0.430  1.00  0.00     0.243 C 
HETATM    3  N2  UNL     1      77.306  36.669  -1.542  1.00  0.00    -0.337 N 
HETATM    4  C6  UNL     1      77.763  38.054  -1.829  1.00  0.00     0.179 C 
HETATM    5  C9  UNL     1      76.440  36.250  -2.620  1.00  0.00     0.127 C 
HETATM    6  C7  UNL     1      76.701  38.557  -2.765  1.00  0.00     0.037 C 
HETATM    7  C8  UNL     1      76.578  37.341  -3.700  1.00  0.00     0.022 C 
HETATM    8  O2  UNL     1      78.504  36.506   0.379  1.00  0.00    -0.271 OA
BRANCH   4   9
HETATM    9  C5  UNL     1      79.089  38.013  -2.480  1.00  0.00     0.240 C 
HETATM   10  N1  UNL     1      79.970  36.915  -2.431  1.00  0.00    -0.359 N 
ATOM     11  H1  UNL     1      79.680  36.086  -1.913  1.00  0.00     0.162 HD
HETATM   12  O1  UNL     1      79.470  39.026  -3.125  1.00  0.00    -0.271 OA
BRANCH  10  13
HETATM   13  C4  UNL     1      81.262  36.901  -3.075  1.00  0.00     0.126 C 
BRANCH  13  14
HETATM   14  C2  UNL     1      81.932  35.573  -2.925  1.00  0.00    -0.005 C 
HETATM   15  C1  UNL     1      82.176  35.184  -1.495  1.00  0.00     0.011 C 
HETATM   16  C3  UNL     1      83.208  35.542  -3.742  1.00  0.00     0.011 C 
ENDBRANCH  13  14
ENDBRANCH  10  13
ENDBRANCH   4   9
ENDBRANCH   1   2
BRANCH   1  17
HETATM   17  C12 UNL     1      75.954  34.425   0.613  1.00  0.00     0.038 C 
BRANCH  17  18
HETATM   18  C13 UNL     1      75.421  33.067   0.869  1.00  0.00    -0.020 C 
HETATM   19  C14 UNL     1      75.862  32.498   2.196  1.00  0.00     0.009 C 
HETATM   20  C15 UNL     1      73.912  33.057   0.842  1.00  0.00     0.009 C 
ENDBRANCH  17  18
ENDBRANCH   1  17
BRANCH   1  21
HETATM   21  N3  UNL     1      78.254  34.091   0.977  1.00  0.00    -0.347 N 
HETATM   22  C16 UNL     1      79.360  33.332   0.545  1.00  0.00     0.222 C 
HETATM   23  O3  UNL     1      79.509  33.044  -0.657  1.00  0.00    -0.273 OA
ATOM     24  H3  UNL     1      78.125  34.328   1.961  1.00  0.00     0.163 HD
BRANCH  22  25
HETATM   25  C17 UNL     1      80.333  32.898   1.603  1.00  0.00     0.078 C 
HETATM   26  C18 UNL     1      81.238  31.841   1.004  1.00  0.00     0.014 C 
HETATM   27  C19 UNL     1      82.060  31.146   2.068  1.00  0.00     0.007 C 
HETATM   28  C20 UNL     1      81.196  30.443   3.078  1.00  0.00     0.011 C 
HETATM   29  C22 UNL     1      79.813  30.994   3.171  1.00  0.00     0.007 C 
HETATM   30  C23 UNL     1      79.667  32.442   2.853  1.00  0.00     0.014 C 
BRANCH  28  31
HETATM   31  C21 UNL     1      81.864  30.622   4.439  1.00  0.00     0.234 C 
BRANCH  31  32
HETATM   32  N4  UNL     1      83.132  29.959   4.481  1.00  0.00    -0.079 N 
ATOM     33  H43 UNL     1      83.028  28.962   4.674  1.00  0.00     0.274 HD
ATOM     34  H42 UNL     1      83.554  29.895   3.555  1.00  0.00     0.274 HD
ATOM     35  H41 UNL     1      83.759  30.407   5.149  1.00  0.00     0.274 HD
ENDBRANCH  31  32
ENDBRANCH  28  31
ENDBRANCH  22  25
ENDBRANCH   1  21
TORSDOF 10
ENDMDL
MODEL 2
REMARK VINA RESULT: -7.522720060      3.147      6.060
REMARK  10 active torsions:
REMARK  status: ('A' for Active; 'I' for Inactive)
REMARK    1  A    between atoms: C2_2  and  C4_4 
REMARK    2  A    between atoms: C4_4  and  N1_5 
REMARK       I    between atoms: N1_5  and  C5_7 
REMARK    3  A    between atoms: C5_7  and  C6_9 
REMARK       I    between atoms: N2_13  and  C10_14 
REMARK    4  A    between atoms: C10_14  and  C11_16 
REMARK    5  A    between atoms: C11_16  and  C12_17 
REMARK    6  A    between atoms: C11_16  and  N3_21 
REMARK    7  A    between atoms: C12_17  and  C13_18 
REMARK       I    between atoms: N3_21  and  C16_23 
REMARK    8  A    between atoms: C16_23  and  C17_25 
REMARK    9  A    between atoms: C20_28  and  C21_29 
REMARK   10  A    between atoms: C21_29  and  N4_30 
ROOT
HETATM    1  C11 UNL     1      81.892  31.825   2.421  1.00  0.00     0.177 C 
ENDROOT
BRANCH   1   2
HETATM    2  C10 UNL     1      82.649  32.521   1.359  1.00  0.00     0.243 C 
HETATM    3  N2  UNL     1      82.868  33.891   1.184  1.00  0.00    -0.337 N 
HETATM    4  C6  UNL     1      83.650  34.500   0.077  1.00  0.00     0.179 C 
HETATM    5  C9  UNL     1      82.361  34.959   2.015  1.00  0.00     0.127 C 
HETATM    6  C7  UNL     1      84.015  35.845   0.641  1.00  0.00     0.037 C 
HETATM    7  C8  UNL     1      82.658  36.256   1.237  1.00  0.00     0.022 C 
HETATM    8  O2  UNL     1      83.187  31.768   0.447  1.00  0.00    -0.271 OA
BRANCH   4   9
HETATM    9  C5  UNL     1      82.796  34.626  -1.123  1.00  0.00     0.240 C 
HETATM   10  N1  UNL     1      83.075  35.470  -2.216  1.00  0.00    -0.359 N 
ATOM     11  H1  UNL     1      83.924  36.035  -2.186  1.00  0.00     0.162 HD
HETATM   12  O1  UNL     1      81.743  33.940  -1.182  1.00  0.00    -0.271 OA
BRANCH  10  13
HETATM   13  C4  UNL     1      82.224  35.577  -3.377  1.00  0.00     0.126 C 
BRANCH  13  14
HETATM   14  C2  UNL     1      83.001  35.404  -4.642  1.00  0.00    -0.005 C 
HETATM   15  C1  UNL     1      84.466  35.163  -4.416  1.00  0.00     0.011 C 
HETATM   16  C3  UNL     1      82.760  36.583  -5.563  1.00  0.00     0.011 C 
ENDBRANCH  13  14
ENDBRANCH  10  13
ENDBRANCH   4   9
ENDBRANCH   1   2
BRANCH   1  17
HETATM   17  C12 UNL     1      81.955  30.335   2.365  1.00  0.00     0.038 C 
BRANCH  17  18
HETATM   18  C13 UNL     1      81.441  29.580   3.531  1.00  0.00    -0.020 C 
HETATM   19  C14 UNL     1      81.741  28.101   3.457  1.00  0.00     0.009 C 
HETATM   20  C15 UNL     1      82.022  30.104   4.822  1.00  0.00     0.009 C 
ENDBRANCH  17  18
ENDBRANCH   1  17
BRANCH   1  21
HETATM   21  N3  UNL     1      80.457  32.140   2.174  1.00  0.00    -0.347 N 
HETATM   22  C16 UNL     1      79.748  32.779   3.209  1.00  0.00     0.222 C 
HETATM   23  O3  UNL     1      80.304  33.063   4.287  1.00  0.00    -0.273 OA
ATOM     24  H3  UNL     1      80.007  31.901   1.290  1.00  0.00     0.163 HD
BRANCH  22  25
HETATM   25  C17 UNL     1      78.304  33.094   2.941  1.00  0.00     0.078 C 
HETATM   26  C18 UNL     1      77.572  31.788   2.712  1.00  0.00     0.014 C 
HETATM   27  C19 UNL     1      76.182  32.019   2.160  1.00  0.00     0.007 C 
HETATM   28  C20 UNL     1      76.214  32.726   0.833  1.00  0.00     0.011 C 
HETATM   29  C22 UNL     1      77.459  33.514   0.603  1.00  0.00     0.007 C 
HETATM   30  C23 UNL     1      78.119  34.059   1.824  1.00  0.00     0.014 C 
BRANCH  28  31
HETATM   31  C21 UNL     1      75.035  33.696   0.815  1.00  0.00     0.234 C 
BRANCH  31  32
HETATM   32  N4  UNL     1      73.805  33.016   1.089  1.00  0.00    -0.079 N 
ATOM     33  H43 UNL     1      73.754  32.121   0.601  1.00  0.00     0.274 HD
ATOM     34  H42 UNL     1      73.771  32.672   2.049  1.00  0.00     0.274 HD
ATOM     35  H41 UNL     1      73.003  33.608   0.874  1.00  0.00     0.274 HD
ENDBRANCH  31  32
ENDBRANCH  28  31
ENDBRANCH  22  25
ENDBRANCH   1  21
TORSDOF 10
ENDMDL
MODEL 3
REMARK VINA RESULT: -7.469443136      2.102      7.217
REMARK  10 active torsions:
REMARK  status: ('A' for Active; 'I' for Inactive)
REMARK    1  A    between atoms: C2_2  and  C4_4 
REMARK    2  A    between atoms: C4_4  and  N1_5 
REMARK       I    between atoms: N1_5  and  C5_7 
REMARK    3  A    between atoms: C5_7  and  C6_9 
REMARK       I    between atoms: N2_13  and  C10_14 
REMARK    4  A    between atoms: C10_14  and  C11_16 
REMARK    5  A    between atoms: C11_16  and  C12_17 
REMARK    6  A    between atoms: C11_16  and  N3_21 
REMARK    7  A    between atoms: C12_17  and  C13_18 
REMARK       I    between atoms: N3_21  and  C16_23 
REMARK    8  A    between atoms: C16_23  and  C17_25 
REMARK    9  A    between atoms: C20_28  and  C21_29 
REMARK   10  A    between atoms: C21_29  and  N4_30 
ROOT
HETATM    1  C11 UNL     1      78.392  34.608   1.491  1.00  0.00     0.177 C 
ENDROOT
BRANCH   1   2
HETATM    2  C10 UNL     1      79.319  33.482   1.259  1.00  0.00     0.243 C 
HETATM    3  N2  UNL     1      79.939  32.642   2.189  1.00  0.00    -0.337 N 
HETATM    4  C6  UNL     1      80.863  31.526   1.857  1.00  0.00     0.179 C 
HETATM    5  C9  UNL     1      79.825  32.716   3.628  1.00  0.00     0.127 C 
HETATM    6  C7  UNL     1      80.792  30.671   3.091  1.00  0.00     0.037 C 
HETATM    7  C8  UNL     1      80.904  31.759   4.172  1.00  0.00     0.022 C 
HETATM    8  O2  UNL     1      79.617  33.226   0.020  1.00  0.00    -0.271 OA
BRANCH   4   9
HETATM    9  C5  UNL     1      82.225  32.057   1.639  1.00  0.00     0.240 C 
HETATM   10  N1  UNL     1      82.526  33.414   1.414  1.00  0.00    -0.359 N 
ATOM     11  H1  UNL     1      81.756  34.084   1.400  1.00  0.00     0.162 HD
HETATM   12  O1  UNL     1      83.190  31.249   1.651  1.00  0.00    -0.271 OA
BRANCH  10  13
HETATM   13  C4  UNL     1      83.865  33.909   1.202  1.00  0.00     0.126 C 
BRANCH  13  14
HETATM   14  C2  UNL     1      83.918  35.400   1.294  1.00  0.00    -0.005 C 
HETATM   15  C1  UNL     1      82.780  35.992   2.075  1.00  0.00     0.011 C 
HETATM   16  C3  UNL     1      84.022  36.001  -0.093  1.00  0.00     0.011 C 
ENDBRANCH  13  14
ENDBRANCH  10  13
ENDBRANCH   4   9
ENDBRANCH   1   2
BRANCH   1  17
HETATM   17  C12 UNL     1      77.033  34.217   1.969  1.00  0.00     0.038 C 
BRANCH  17  18
HETATM   18  C13 UNL     1      76.454  32.958   1.448  1.00  0.00    -0.020 C 
HETATM   19  C14 UNL     1      76.412  31.855   2.480  1.00  0.00     0.009 C 
HETATM   20  C15 UNL     1      75.048  33.169   0.942  1.00  0.00     0.009 C 
ENDBRANCH  17  18
ENDBRANCH   1  17
BRANCH   1  21
HETATM   21  N3  UNL     1      78.146  35.218   0.154  1.00  0.00    -0.347 N 
HETATM   22  C16 UNL     1      78.693  36.494  -0.086  1.00  0.00     0.222 C 
HETATM   23  O3  UNL     1      79.350  37.085   0.792  1.00  0.00    -0.273 OA
ATOM     24  H3  UNL     1      77.604  34.730  -0.560  1.00  0.00     0.163 HD
BRANCH  22  25
HETATM   25  C17 UNL     1      78.441  37.091  -1.440  1.00  0.00     0.078 C 
HETATM   26  C18 UNL     1      78.293  38.590  -1.274  1.00  0.00     0.014 C 
HETATM   27  C19 UNL     1      77.760  39.238  -2.533  1.00  0.00     0.007 C 
HETATM   28  C20 UNL     1      76.399  38.716  -2.903  1.00  0.00     0.011 C 
HETATM   29  C22 UNL     1      76.104  37.365  -2.346  1.00  0.00     0.007 C 
HETATM   30  C23 UNL     1      77.281  36.474  -2.139  1.00  0.00     0.014 C 
BRANCH  28  31
HETATM   31  C21 UNL     1      76.359  38.614  -4.426  1.00  0.00     0.234 C 
BRANCH  31  32
HETATM   32  N4  UNL     1      75.488  37.560  -4.849  1.00  0.00    -0.079 N 
ATOM     33  H43 UNL     1      74.535  37.895  -4.992  1.00  0.00     0.274 HD
ATOM     34  H42 UNL     1      75.693  37.264  -5.804  1.00  0.00     0.274 HD
ATOM     35  H41 UNL     1      75.517  36.776  -4.198  1.00  0.00     0.274 HD
ENDBRANCH  31  32
ENDBRANCH  28  31
ENDBRANCH  22  25
ENDBRANCH   1  21
TORSDOF 10
ENDMDL
MODEL 4
REMARK VINA RESULT: -7.317609039      2.054      4.281
REMARK  10 active torsions:
REMARK  status: ('A' for Active; 'I' for Inactive)
REMARK    1  A    between atoms: C2_2  and  C4_4 
REMARK    2  A    between atoms: C4_4  and  N1_5 
REMARK       I    between atoms: N1_5  and  C5_7 
REMARK    3  A    between atoms: C5_7  and  C6_9 
REMARK       I    between atoms: N2_13  and  C10_14 
REMARK    4  A    between atoms: C10_14  and  C11_16 
REMARK    5  A    between atoms: C11_16  and  C12_17 
REMARK    6  A    between atoms: C11_16  and  N3_21 
REMARK    7  A    between atoms: C12_17  and  C13_18 
REMARK       I    between atoms: N3_21  and  C16_23 
REMARK    8  A    between atoms: C16_23  and  C17_25 
REMARK    9  A    between atoms: C20_28  and  C21_29 
REMARK   10  A    between atoms: C21_29  and  N4_30 
ROOT
HETATM    1  C11 UNL     1      79.461  32.802   1.392  1.00  0.00     0.177 C 
ENDROOT
BRANCH   1   2
HETATM    2  C10 UNL     1      79.921  33.530   0.192  1.00  0.00     0.243 C 
HETATM    3  N2  UNL     1      80.823  34.594   0.096  1.00  0.00    -0.337 N 
HETATM    4  C6  UNL     1      81.228  35.265  -1.167  1.00  0.00     0.179 C 
HETATM    5  C9  UNL     1      81.499  35.253   1.190  1.00  0.00     0.127 C 
HETATM    6  C7  UNL     1      82.534  35.906  -0.787  1.00  0.00     0.037 C 
HETATM    7  C8  UNL     1      82.145  36.509   0.573  1.00  0.00     0.022 C 
HETATM    8  O2  UNL     1      79.422  33.142  -0.944  1.00  0.00    -0.271 OA
BRANCH   4   9
HETATM    9  C5  UNL     1      80.215  36.274  -1.540  1.00  0.00     0.240 C 
HETATM   10  N1  UNL     1      78.826  36.111  -1.370  1.00  0.00    -0.359 N 
ATOM     11  H1  UNL     1      78.488  35.240  -0.960  1.00  0.00     0.162 HD
HETATM   12  O1  UNL     1      80.608  37.356  -2.049  1.00  0.00    -0.271 OA
BRANCH  10  13
HETATM   13  C4  UNL     1      77.855  37.111  -1.745  1.00  0.00     0.126 C 
BRANCH  13  14
HETATM   14  C2  UNL     1      76.563  36.488  -2.166  1.00  0.00    -0.005 C 
HETATM   15  C1  UNL     1      76.226  36.728  -3.609  1.00  0.00     0.011 C 
HETATM   16  C3  UNL     1      75.447  36.938  -1.244  1.00  0.00     0.011 C 
ENDBRANCH  13  14
ENDBRANCH  10  13
ENDBRANCH   4   9
ENDBRANCH   1   2
BRANCH   1  17
HETATM   17  C12 UNL     1      78.873  33.660   2.463  1.00  0.00     0.038 C 
BRANCH  17  18
HETATM   18  C13 UNL     1      77.400  33.804   2.499  1.00  0.00    -0.020 C 
HETATM   19  C14 UNL     1      76.877  34.799   1.490  1.00  0.00     0.009 C 
HETATM   20  C15 UNL     1      76.714  32.484   2.243  1.00  0.00     0.009 C 
ENDBRANCH  17  18
ENDBRANCH   1  17
BRANCH   1  21
HETATM   21  N3  UNL     1      80.685  32.227   2.017  1.00  0.00    -0.347 N 
HETATM   22  C16 UNL     1      80.567  30.963   2.628  1.00  0.00     0.222 C 
HETATM   23  O3  UNL     1      79.479  30.358   2.644  1.00  0.00    -0.273 OA
ATOM     24  H3  UNL     1      81.573  32.729   2.004  1.00  0.00     0.163 HD
BRANCH  22  25
HETATM   25  C17 UNL     1      81.812  30.396   3.247  1.00  0.00     0.078 C 
HETATM   26  C18 UNL     1      82.008  28.993   2.711  1.00  0.00     0.014 C 
HETATM   27  C19 UNL     1      83.069  28.244   3.488  1.00  0.00     0.007 C 
HETATM   28  C20 UNL     1      82.706  28.097   4.939  1.00  0.00     0.011 C 
HETATM   29  C22 UNL     1      81.738  29.123   5.422  1.00  0.00     0.007 C 
HETATM   30  C23 UNL     1      81.793  30.444   4.735  1.00  0.00     0.014 C 
BRANCH  28  31
HETATM   31  C21 UNL     1      83.996  28.255   5.740  1.00  0.00     0.234 C 
BRANCH  31  32
HETATM   32  N4  UNL     1      84.072  27.288   6.792  1.00  0.00    -0.079 N 
ATOM     33  H43 UNL     1      83.394  27.481   7.530  1.00  0.00     0.274 HD
ATOM     34  H42 UNL     1      83.720  26.378   6.492  1.00  0.00     0.274 HD
ATOM     35  H41 UNL     1      85.020  27.220   7.162  1.00  0.00     0.274 HD
ENDBRANCH  31  32
ENDBRANCH  28  31
ENDBRANCH  22  25
ENDBRANCH   1  21
TORSDOF 10
ENDMDL
MODEL 5
REMARK VINA RESULT: -7.242380835      2.499      6.164
REMARK  10 active torsions:
REMARK  status: ('A' for Active; 'I' for Inactive)
REMARK    1  A    between atoms: C2_2  and  C4_4 
REMARK    2  A    between atoms: C4_4  and  N1_5 
REMARK       I    between atoms: N1_5  and  C5_7 
REMARK    3  A    between atoms: C5_7  and  C6_9 
REMARK       I    between atoms: N2_13  and  C10_14 
REMARK    4  A    between atoms: C10_14  and  C11_16 
REMARK    5  A    between atoms: C11_16  and  C12_17 
REMARK    6  A    between atoms: C11_16  and  N3_21 
REMARK    7  A    between atoms: C12_17  and  C13_18 
REMARK       I    between atoms: N3_21  and  C16_23 
REMARK    8  A    between atoms: C16_23  and  C17_25 
REMARK    9  A    between atoms: C20_28  and  C21_29 
REMARK   10  A    between atoms: C21_29  and  N4_30 
ROOT
HETATM    1  C11 UNL     1      82.033  31.807   2.275  1.00  0.00     0.177 C 
ENDROOT
BRANCH   1   2
HETATM    2  C10 UNL     1      82.560  32.469   1.065  1.00  0.00     0.243 C 
HETATM    3  N2  UNL     1      83.025  33.778   0.905  1.00  0.00    -0.337 N 
HETATM    4  C6  UNL     1      83.542  34.357  -0.363  1.00  0.00     0.179 C 
HETATM    5  C9  UNL     1      83.064  34.809   1.917  1.00  0.00     0.127 C 
HETATM    6  C7  UNL     1      84.366  35.516   0.124  1.00  0.00     0.037 C 
HETATM    7  C8  UNL     1      83.397  36.110   1.160  1.00  0.00     0.022 C 
HETATM    8  O2  UNL     1      82.598  31.748  -0.016  1.00  0.00    -0.271 OA
BRANCH   4   9
HETATM    9  C5  UNL     1      82.411  34.806  -1.201  1.00  0.00     0.240 C 
HETATM   10  N1  UNL     1      81.159  35.214  -0.700  1.00  0.00    -0.359 N 
ATOM     11  H1  UNL     1      81.016  35.202   0.309  1.00  0.00     0.162 HD
HETATM   12  O1  UNL     1      82.564  34.828  -2.450  1.00  0.00    -0.271 OA
BRANCH  10  13
HETATM   13  C4  UNL     1      80.068  35.648  -1.540  1.00  0.00     0.126 C 
BRANCH  13  14
HETATM   14  C2  UNL     1      79.282  36.741  -0.893  1.00  0.00    -0.005 C 
HETATM   15  C1  UNL     1      79.546  36.877   0.580  1.00  0.00     0.011 C 
HETATM   16  C3  UNL     1      77.806  36.561  -1.186  1.00  0.00     0.011 C 
ENDBRANCH  13  14
ENDBRANCH  10  13
ENDBRANCH   4   9
ENDBRANCH   1   2
BRANCH   1  17
HETATM   17  C12 UNL     1      82.264  30.334   2.340  1.00  0.00     0.038 C 
BRANCH  17  18
HETATM   18  C13 UNL     1      81.579  29.575   3.410  1.00  0.00    -0.020 C 
HETATM   19  C14 UNL     1      81.778  28.082   3.298  1.00  0.00     0.009 C 
HETATM   20  C15 UNL     1      82.057  30.002   4.777  1.00  0.00     0.009 C 
ENDBRANCH  17  18
ENDBRANCH   1  17
BRANCH   1  21
HETATM   21  N3  UNL     1      80.551  31.941   2.202  1.00  0.00    -0.347 N 
HETATM   22  C16 UNL     1      79.919  32.703   3.204  1.00  0.00     0.222 C 
HETATM   23  O3  UNL     1      80.580  33.238   4.115  1.00  0.00    -0.273 OA
ATOM     24  H3  UNL     1      80.015  31.498   1.455  1.00  0.00     0.163 HD
BRANCH  22  25
HETATM   25  C17 UNL     1      78.427  32.833   3.112  1.00  0.00     0.078 C 
HETATM   26  C18 UNL     1      77.861  31.485   2.712  1.00  0.00     0.014 C 
HETATM   27  C19 UNL     1      76.402  31.588   2.321  1.00  0.00     0.007 C 
HETATM   28  C20 UNL     1      76.199  32.500   1.143  1.00  0.00     0.011 C 
HETATM   29  C22 UNL     1      77.292  33.497   0.960  1.00  0.00     0.007 C 
HETATM   30  C23 UNL     1      77.994  33.928   2.202  1.00  0.00     0.014 C 
BRANCH  28  31
HETATM   31  C21 UNL     1      74.902  33.267   1.392  1.00  0.00     0.234 C 
BRANCH  31  32
HETATM   32  N4  UNL     1      73.891  32.887   0.452  1.00  0.00    -0.079 N 
ATOM     33  H43 UNL     1      73.707  31.884   0.483  1.00  0.00     0.274 HD
ATOM     34  H42 UNL     1      72.970  33.223   0.735  1.00  0.00     0.274 HD
ATOM     35  H41 UNL     1      74.130  33.197  -0.490  1.00  0.00     0.274 HD
ENDBRANCH  31  32
ENDBRANCH  28  31
ENDBRANCH  22  25
ENDBRANCH   1  21
TORSDOF 10
ENDMDL
