MODEL 1
REMARK VINA RESULT: -7.603470044      0.000      0.000
REMARK  9 active torsions:
REMARK  status: ('A' for Active; 'I' for Inactive)
REMARK       I    between atoms: N1_2  and  C2_4 
REMARK    1  A    between atoms: C2_4  and  C3_6 
REMARK    2  A    between atoms: C3_6  and  C4_7 
REMARK    3  A    between atoms: C3_6  and  C12_15 
REMARK    4  A    between atoms: C4_7  and  C5_8 
REMARK    5  A    between atoms: C12_15  and  N2_16 
REMARK    6  A    between atoms: C16_20  and  C17_21 
REMARK       I    between atoms: C17_21  and  N3_23 
REMARK    7  A    between atoms: N3_23  and  C18_25 
REMARK    8  A    between atoms: C18_25  and  C19_26 
REMARK    9  A    between atoms: C18_25  and  C21_31 
REMARK       I    between atoms: C19_26  and  N4_28 
ROOT
HETATM    1  N2  UNL     1      81.651  33.425   1.267  1.00  0.00     0.103 N 
HETATM    2  C13 UNL     1      83.041  33.795   1.388  1.00  0.00     0.273 C 
HETATM    3  C14 UNL     1      83.364  34.217  -0.032  1.00  0.00     0.033 C 
HETATM    4  C15 UNL     1      82.052  34.668  -0.632  1.00  0.00     0.047 C 
HETATM    5  C16 UNL     1      81.086  34.530   0.554  1.00  0.00     0.314 C 
ENDROOT
BRANCH   1   6
HETATM    6  C12 UNL     1      81.016  33.146   2.512  1.00  0.00     0.287 C 
BRANCH   6   7
HETATM    7  C3  UNL     1      80.739  31.651   2.705  1.00  0.00     0.106 C 
BRANCH   7   8
HETATM    8  C2  UNL     1      79.313  31.362   2.653  1.00  0.00     0.223 C 
HETATM    9  N1  UNL     1      78.295  32.367   2.669  1.00  0.00    -0.365 N 
HETATM   10  C1  UNL     1      76.890  32.101   2.626  1.00  0.00     0.149 C 
ATOM     11  H1  UNL     1      78.591  33.342   2.715  1.00  0.00     0.161 HD
HETATM   12  O1  UNL     1      78.931  30.144   2.595  1.00  0.00    -0.273 OA
ENDBRANCH   7   8
BRANCH   7  13
HETATM   13  C4  UNL     1      81.408  31.299   3.968  1.00  0.00     0.020 C 
BRANCH  13  14
HETATM   14  C5  UNL     1      82.327  30.141   4.088  1.00  0.00    -0.014 C 
HETATM   15  C6  UNL     1      81.783  29.380   5.319  1.00  0.00     0.005 C 
HETATM   16  C7  UNL     1      82.731  28.388   5.824  1.00  0.00     0.000 C 
HETATM   17  C8  UNL     1      84.118  28.626   5.366  1.00  0.00     0.000 C 
HETATM   18  C9  UNL     1      84.369  28.260   3.939  1.00  0.00     0.000 C 
HETATM   19  C10 UNL     1      83.131  27.963   3.159  1.00  0.00     0.000 C 
HETATM   20  C11 UNL     1      82.240  29.182   2.968  1.00  0.00     0.005 C 
ENDBRANCH  13  14
ENDBRANCH   7  13
ENDBRANCH   6   7
ENDBRANCH   1   6
BRANCH   5  21
HETATM   21  C17 UNL     1      79.745  34.313   0.011  1.00  0.00     0.252 C 
HETATM   22  O2  UNL     1      79.295  33.183  -0.344  1.00  0.00    -0.271 OA
HETATM   23  N3  UNL     1      78.865  35.414  -0.142  1.00  0.00    -0.346 N 
ATOM     24  H3  UNL     1      79.193  36.340   0.134  1.00  0.00     0.163 HD
BRANCH  23  25
HETATM   25  C18 UNL     1      77.525  35.287  -0.670  1.00  0.00     0.180 C 
BRANCH  25  26
HETATM   26  C19 UNL     1      77.341  36.376  -1.689  1.00  0.00     0.240 C 
HETATM   27  O3  UNL     1      77.720  37.545  -1.447  1.00  0.00    -0.271 OA
HETATM   28  N4  UNL     1      76.737  36.107  -2.941  1.00  0.00    -0.364 N 
HETATM   29  C20 UNL     1      76.568  37.162  -3.908  1.00  0.00     0.149 C 
ATOM     30  H4  UNL     1      76.421  35.162  -3.160  1.00  0.00     0.161 HD
ENDBRANCH  25  26
BRANCH  25  31
HETATM   31  C21 UNL     1      76.481  35.551   0.404  1.00  0.00     0.009 C 
HETATM   32  C22 UNL     1      75.406  34.498   0.351  1.00  0.00     0.012 C 
HETATM   33  C23 UNL     1      77.110  35.557   1.775  1.00  0.00     0.012 C 
ENDBRANCH  25  31
ENDBRANCH  23  25
ENDBRANCH   5  21
TORSDOF 9
ENDMDL
MODEL 2
REMARK VINA RESULT: -7.420581927      1.810      4.864
REMARK  9 active torsions:
REMARK  status: ('A' for Active; 'I' for Inactive)
REMARK       I    between atoms: N1_2  and  C2_4 
REMARK    1  A    between atoms: C2_4  and  C3_6 
REMARK    2  A    between atoms: C3_6  and  C4_7 
REMARK    3  A    between atoms: C3_6  and  C12_15 
REMARK    4  A    between atoms: C4_7  and  C5_8 
REMARK    5  A    between atoms: C12_15  and  N2_16 
REMARK    6  A    between atoms: C16_20  and  C17_21 
REMARK       I    between atoms: C17_21  and  N3_23 
REMARK    7  A    between atoms: N3_23  and  C18_25 
REMARK    8  A    between atoms: C18_25  and  C19_26 
REMARK    9  A    between atoms: C18_25  and  C21_31 
REMARK       I    between atoms: C19_26  and  N4_28 
ROOT
HETATM    1  N2  UNL     1      78.331  33.229   2.114  1.00  0.00     0.103 N 
HETATM    2  C13 UNL     1      77.632  32.294   2.962  1.00  0.00     0.273 C 
HETATM    3  C14 UNL     1      76.207  32.446   2.466  1.00  0.00     0.033 C 
HETATM    4  C15 UNL     1      76.321  32.908   1.031  1.00  0.00     0.047 C 
HETATM    5  C16 UNL     1      77.841  32.906   0.808  1.00  0.00     0.314 C 
ENDROOT
BRANCH   1   6
HETATM    6  C12 UNL     1      79.750  33.173   2.235  1.00  0.00     0.287 C 
BRANCH   6   7
HETATM    7  C3  UNL     1      80.316  31.802   1.851  1.00  0.00     0.106 C 
BRANCH   7   8
HETATM    8  C2  UNL     1      80.883  31.117   3.005  1.00  0.00     0.223 C 
HETATM    9  N1  UNL     1      81.169  29.715   3.038  1.00  0.00    -0.365 N 
HETATM   10  C1  UNL     1      81.719  29.025   4.164  1.00  0.00     0.149 C 
ATOM     11  H1  UNL     1      80.968  29.170   2.200  1.00  0.00     0.161 HD
HETATM   12  O1  UNL     1      81.141  31.791   4.059  1.00  0.00    -0.273 OA
ENDBRANCH   7   8
BRANCH   7  13
HETATM   13  C4  UNL     1      81.257  32.071   0.752  1.00  0.00     0.020 C 
BRANCH  13  14
HETATM   14  C5  UNL     1      81.931  33.380   0.582  1.00  0.00    -0.014 C 
HETATM   15  C6  UNL     1      83.378  33.100   1.050  1.00  0.00     0.005 C 
HETATM   16  C7  UNL     1      84.135  34.329   1.284  1.00  0.00     0.000 C 
HETATM   17  C8  UNL     1      83.271  35.517   1.462  1.00  0.00     0.000 C 
HETATM   18  C9  UNL     1      82.664  36.035   0.198  1.00  0.00     0.000 C 
HETATM   19  C10 UNL     1      82.825  35.123  -0.973  1.00  0.00     0.000 C 
HETATM   20  C11 UNL     1      82.055  33.819  -0.823  1.00  0.00     0.005 C 
ENDBRANCH  13  14
ENDBRANCH   7  13
ENDBRANCH   6   7
ENDBRANCH   1   6
BRANCH   5  21
HETATM   21  C17 UNL     1      78.136  33.885  -0.239  1.00  0.00     0.252 C 
HETATM   22  O2  UNL     1      78.697  33.603  -1.339  1.00  0.00    -0.271 OA
HETATM   23  N3  UNL     1      77.786  35.245  -0.044  1.00  0.00    -0.346 N 
ATOM     24  H3  UNL     1      77.333  35.509   0.831  1.00  0.00     0.163 HD
BRANCH  23  25
HETATM   25  C18 UNL     1      78.042  36.275  -1.025  1.00  0.00     0.180 C 
BRANCH  25  26
HETATM   26  C19 UNL     1      78.827  37.359  -0.342  1.00  0.00     0.240 C 
HETATM   27  O3  UNL     1      79.025  38.457  -0.912  1.00  0.00    -0.271 OA
HETATM   28  N4  UNL     1      79.358  37.166   0.956  1.00  0.00    -0.364 N 
HETATM   29  C20 UNL     1      80.109  38.215   1.597  1.00  0.00     0.149 C 
ATOM     30  H4  UNL     1      79.209  36.280   1.439  1.00  0.00     0.161 HD
ENDBRANCH  25  26
BRANCH  25  31
HETATM   31  C21 UNL     1      76.750  36.933  -1.485  1.00  0.00     0.009 C 
HETATM   32  C22 UNL     1      76.571  36.742  -2.968  1.00  0.00     0.012 C 
HETATM   33  C23 UNL     1      75.563  36.352  -0.758  1.00  0.00     0.012 C 
ENDBRANCH  25  31
ENDBRANCH  23  25
ENDBRANCH   5  21
TORSDOF 9
ENDMDL
MODEL 3
REMARK VINA RESULT: -7.383416246      1.823      9.284
REMARK  9 active torsions:
REMARK  status: ('A' for Active; 'I' for Inactive)
REMARK       I    between atoms: N1_2  and  C2_4 
REMARK    1  A    between atoms: C2_4  and  C3_6 
REMARK    2  A    between atoms: C3_6  and  C4_7 
REMARK    3  A    between atoms: C3_6  and  C12_15 
REMARK    4  A    between atoms: C4_7  and  C5_8 
REMARK    5  A    between atoms: C12_15  and  N2_16 
REMARK    6  A    between atoms: C16_20  and  C17_21 
REMARK       I    between atoms: C17_21  and  N3_23 
REMARK    7  A    between atoms: N3_23  and  C18_25 
REMARK    8  A    between atoms: C18_25  and  C19_26 
REMARK    9  A    between atoms: C18_25  and  C21_31 
REMARK       I    between atoms: C19_26  and  N4_28 
ROOT
HETATM    1  N2  UNL     1      77.318  35.165   0.034  1.00  0.00     0.103 N 
HETATM    2  C13 UNL     1      75.944  35.485   0.342  1.00  0.00     0.273 C 
HETATM    3  C14 UNL     1      75.329  34.102   0.436  1.00  0.00     0.033 C 
HETATM    4  C15 UNL     1      76.460  33.177   0.824  1.00  0.00     0.047 C 
HETATM    5  C16 UNL     1      77.634  34.152   0.994  1.00  0.00     0.314 C 
ENDROOT
BRANCH   1   6
HETATM    6  C12 UNL     1      78.193  36.289   0.061  1.00  0.00     0.287 C 
BRANCH   6   7
HETATM    7  C3  UNL     1      78.699  36.671  -1.334  1.00  0.00     0.106 C 
BRANCH   7   8
HETATM    8  C2  UNL     1      80.140  36.494  -1.446  1.00  0.00     0.223 C 
HETATM    9  N1  UNL     1      80.767  35.253  -1.784  1.00  0.00    -0.365 N 
HETATM   10  C1  UNL     1      82.180  35.060  -1.891  1.00  0.00     0.149 C 
ATOM     11  H1  UNL     1      80.164  34.450  -1.963  1.00  0.00     0.161 HD
HETATM   12  O1  UNL     1      80.904  37.494  -1.226  1.00  0.00    -0.273 OA
ENDBRANCH   7   8
BRANCH   7  13
HETATM   13  C4  UNL     1      78.212  38.042  -1.556  1.00  0.00     0.020 C 
BRANCH  13  14
HETATM   14  C5  UNL     1      77.538  38.457  -2.810  1.00  0.00    -0.014 C 
HETATM   15  C6  UNL     1      76.426  37.397  -2.985  1.00  0.00     0.005 C 
HETATM   16  C7  UNL     1      75.849  37.412  -4.328  1.00  0.00     0.000 C 
HETATM   17  C8  UNL     1      76.714  38.083  -5.323  1.00  0.00     0.000 C 
HETATM   18  C9  UNL     1      76.730  39.575  -5.224  1.00  0.00     0.000 C 
HETATM   19  C10 UNL     1      76.080  40.110  -3.991  1.00  0.00     0.000 C 
HETATM   20  C11 UNL     1      76.832  39.751  -2.717  1.00  0.00     0.005 C 
ENDBRANCH  13  14
ENDBRANCH   7  13
ENDBRANCH   6   7
ENDBRANCH   1   6
BRANCH   5  21
HETATM   21  C17 UNL     1      78.869  33.407   0.744  1.00  0.00     0.252 C 
HETATM   22  O2  UNL     1      79.279  33.076  -0.408  1.00  0.00    -0.271 OA
HETATM   23  N3  UNL     1      79.683  33.014   1.836  1.00  0.00    -0.346 N 
ATOM     24  H3  UNL     1      79.383  33.263   2.779  1.00  0.00     0.163 HD
BRANCH  23  25
HETATM   25  C18 UNL     1      80.916  32.277   1.677  1.00  0.00     0.180 C 
BRANCH  25  26
HETATM   26  C19 UNL     1      80.932  31.201   2.726  1.00  0.00     0.240 C 
HETATM   27  O3  UNL     1      80.047  30.315   2.744  1.00  0.00    -0.271 OA
HETATM   28  N4  UNL     1      81.945  31.164   3.715  1.00  0.00    -0.364 N 
HETATM   29  C20 UNL     1      81.947  30.125   4.714  1.00  0.00     0.149 C 
ATOM     30  H4  UNL     1      82.676  31.874   3.720  1.00  0.00     0.161 HD
ENDBRANCH  25  26
BRANCH  25  31
HETATM   31  C21 UNL     1      82.124  33.152   1.970  1.00  0.00     0.009 C 
HETATM   32  C22 UNL     1      83.209  32.893   0.958  1.00  0.00     0.012 C 
HETATM   33  C23 UNL     1      81.749  34.613   1.940  1.00  0.00     0.012 C 
ENDBRANCH  25  31
ENDBRANCH  23  25
ENDBRANCH   5  21
TORSDOF 9
ENDMDL
MODEL 4
REMARK VINA RESULT: -7.301181470      2.514      5.158
REMARK  9 active torsions:
REMARK  status: ('A' for Active; 'I' for Inactive)
REMARK       I    between atoms: N1_2  and  C2_4 
REMARK    1  A    between atoms: C2_4  and  C3_6 
REMARK    2  A    between atoms: C3_6  and  C4_7 
REMARK    3  A    between atoms: C3_6  and  C12_15 
REMARK    4  A    between atoms: C4_7  and  C5_8 
REMARK    5  A    between atoms: C12_15  and  N2_16 
REMARK    6  A    between atoms: C16_20  and  C17_21 
REMARK       I    between atoms: C17_21  and  N3_23 
REMARK    7  A    between atoms: N3_23  and  C18_25 
REMARK    8  A    between atoms: C18_25  and  C19_26 
REMARK    9  A    between atoms: C18_25  and  C21_31 
REMARK       I    between atoms: C19_26  and  N4_28 
ROOT
HETATM    1  N2  UNL     1      78.078  34.344  -0.129  1.00  0.00     0.103 N 
HETATM    2  C13 UNL     1      77.260  33.339   0.506  1.00  0.00     0.273 C 
HETATM    3  C14 UNL     1      76.218  34.195   1.199  1.00  0.00     0.033 C 
HETATM    4  C15 UNL     1      76.138  35.473   0.396  1.00  0.00     0.047 C 
HETATM    5  C16 UNL     1      77.113  35.194  -0.758  1.00  0.00     0.314 C 
ENDROOT
BRANCH   1   6
HETATM    6  C12 UNL     1      79.059  33.815  -1.018  1.00  0.00     0.287 C 
BRANCH   6   7
HETATM    7  C3  UNL     1      80.487  34.031  -0.508  1.00  0.00     0.106 C 
BRANCH   7   8
HETATM    8  C2  UNL     1      81.312  34.705  -1.502  1.00  0.00     0.223 C 
HETATM    9  N1  UNL     1      80.868  35.819  -2.283  1.00  0.00    -0.365 N 
HETATM   10  C1  UNL     1      81.661  36.487  -3.268  1.00  0.00     0.149 C 
ATOM     11  H1  UNL     1      79.920  36.160  -2.126  1.00  0.00     0.161 HD
HETATM   12  O1  UNL     1      82.501  34.286  -1.705  1.00  0.00    -0.273 OA
ENDBRANCH   7   8
BRANCH   7  13
HETATM   13  C4  UNL     1      80.954  32.696  -0.102  1.00  0.00     0.020 C 
BRANCH  13  14
HETATM   14  C5  UNL     1      80.823  32.193   1.288  1.00  0.00    -0.014 C 
HETATM   15  C6  UNL     1      82.158  31.452   1.527  1.00  0.00     0.005 C 
HETATM   16  C7  UNL     1      82.115  30.594   2.710  1.00  0.00     0.000 C 
HETATM   17  C8  UNL     1      80.736  30.273   3.143  1.00  0.00     0.000 C 
HETATM   18  C9  UNL     1      80.027  31.396   3.829  1.00  0.00     0.000 C 
HETATM   19  C10 UNL     1      80.729  32.710   3.733  1.00  0.00     0.000 C 
HETATM   20  C11 UNL     1      80.778  33.256   2.313  1.00  0.00     0.005 C 
ENDBRANCH  13  14
ENDBRANCH   7  13
ENDBRANCH   6   7
ENDBRANCH   1   6
BRANCH   5  21
HETATM   21  C17 UNL     1      77.619  36.482  -1.233  1.00  0.00     0.252 C 
HETATM   22  O2  UNL     1      78.606  37.091  -0.723  1.00  0.00    -0.271 OA
HETATM   23  N3  UNL     1      76.990  37.119  -2.332  1.00  0.00    -0.346 N 
ATOM     24  H3  UNL     1      76.191  36.657  -2.769  1.00  0.00     0.163 HD
BRANCH  23  25
HETATM   25  C18 UNL     1      77.425  38.391  -2.864  1.00  0.00     0.180 C 
BRANCH  25  26
HETATM   26  C19 UNL     1      76.500  39.443  -2.320  1.00  0.00     0.240 C 
HETATM   27  O3  UNL     1      75.823  39.224  -1.290  1.00  0.00    -0.271 OA
HETATM   28  N4  UNL     1      76.374  40.701  -2.958  1.00  0.00    -0.364 N 
HETATM   29  C20 UNL     1      75.482  41.700  -2.424  1.00  0.00     0.149 C 
ATOM     30  H4  UNL     1      76.916  40.901  -3.798  1.00  0.00     0.161 HD
ENDBRANCH  25  26
BRANCH  25  31
HETATM   31  C21 UNL     1      77.261  38.443  -4.375  1.00  0.00     0.009 C 
HETATM   32  C22 UNL     1      78.479  37.867  -5.048  1.00  0.00     0.012 C 
HETATM   33  C23 UNL     1      76.038  37.674  -4.810  1.00  0.00     0.012 C 
ENDBRANCH  25  31
ENDBRANCH  23  25
ENDBRANCH   5  21
TORSDOF 9
ENDMDL
MODEL 5
REMARK VINA RESULT: -7.295056943      1.544      2.346
REMARK  9 active torsions:
REMARK  status: ('A' for Active; 'I' for Inactive)
REMARK       I    between atoms: N1_2  and  C2_4 
REMARK    1  A    between atoms: C2_4  and  C3_6 
REMARK    2  A    between atoms: C3_6  and  C4_7 
REMARK    3  A    between atoms: C3_6  and  C12_15 
REMARK    4  A    between atoms: C4_7  and  C5_8 
REMARK    5  A    between atoms: C12_15  and  N2_16 
REMARK    6  A    between atoms: C16_20  and  C17_21 
REMARK       I    between atoms: C17_21  and  N3_23 
REMARK    7  A    between atoms: N3_23  and  C18_25 
REMARK    8  A    between atoms: C18_25  and  C19_26 
REMARK    9  A    between atoms: C18_25  and  C21_31 
REMARK       I    between atoms: C19_26  and  N4_28 
ROOT
HETATM    1  N2  UNL     1      81.408  34.052   1.094  1.00  0.00     0.103 N 
HETATM    2  C13 UNL     1      82.761  33.830   0.643  1.00  0.00     0.273 C 
HETATM    3  C14 UNL     1      82.719  34.443  -0.743  1.00  0.00     0.033 C 
HETATM    4  C15 UNL     1      81.630  35.490  -0.694  1.00  0.00     0.047 C 
HETATM    5  C16 UNL     1      81.186  35.430   0.775  1.00  0.00     0.314 C 
ENDROOT
BRANCH   1   6
HETATM    6  C12 UNL     1      81.195  33.728   2.465  1.00  0.00     0.287 C 
BRANCH   6   7
HETATM    7  C3  UNL     1      80.546  32.353   2.647  1.00  0.00     0.106 C 
BRANCH   7   8
HETATM    8  C2  UNL     1      79.095  32.455   2.733  1.00  0.00     0.223 C 
HETATM    9  N1  UNL     1      78.208  31.340   2.591  1.00  0.00    -0.365 N 
HETATM   10  C1  UNL     1      76.782  31.423   2.664  1.00  0.00     0.149 C 
ATOM     11  H1  UNL     1      78.622  30.423   2.426  1.00  0.00     0.161 HD
HETATM   12  O1  UNL     1      78.567  33.599   2.940  1.00  0.00    -0.273 OA
ENDBRANCH   7   8
BRANCH   7  13
HETATM   13  C4  UNL     1      81.207  31.770   3.826  1.00  0.00     0.020 C 
BRANCH  13  14
HETATM   14  C5  UNL     1      81.912  30.466   3.783  1.00  0.00    -0.014 C 
HETATM   15  C6  UNL     1      82.056  30.089   5.275  1.00  0.00     0.005 C 
HETATM   16  C7  UNL     1      83.014  29.004   5.485  1.00  0.00     0.000 C 
HETATM   17  C8  UNL     1      83.937  28.817   4.343  1.00  0.00     0.000 C 
HETATM   18  C9  UNL     1      83.322  28.155   3.153  1.00  0.00     0.000 C 
HETATM   19  C10 UNL     1      81.836  28.029   3.225  1.00  0.00     0.000 C 
HETATM   20  C11 UNL     1      81.122  29.373   3.180  1.00  0.00     0.005 C 
ENDBRANCH  13  14
ENDBRANCH   7  13
ENDBRANCH   6   7
ENDBRANCH   1   6
BRANCH   5  21
HETATM   21  C17 UNL     1      79.794  35.877   0.837  1.00  0.00     0.252 C 
HETATM   22  O2  UNL     1      79.378  36.807   1.589  1.00  0.00    -0.271 OA
HETATM   23  N3  UNL     1      78.822  35.252   0.016  1.00  0.00    -0.346 N 
ATOM     24  H3  UNL     1      79.121  34.498  -0.603  1.00  0.00     0.163 HD
BRANCH  23  25
HETATM   25  C18 UNL     1      77.427  35.631   0.015  1.00  0.00     0.180 C 
BRANCH  25  26
HETATM   26  C19 UNL     1      76.621  34.376   0.191  1.00  0.00     0.240 C 
HETATM   27  O3  UNL     1      77.149  33.252   0.024  1.00  0.00    -0.271 OA
HETATM   28  N4  UNL     1      75.252  34.433   0.550  1.00  0.00    -0.364 N 
HETATM   29  C20 UNL     1      74.493  33.219   0.715  1.00  0.00     0.149 C 
ATOM     30  H4  UNL     1      74.802  35.337   0.692  1.00  0.00     0.161 HD
ENDBRANCH  25  26
BRANCH  25  31
HETATM   31  C21 UNL     1      77.010  36.199  -1.334  1.00  0.00     0.009 C 
HETATM   32  C22 UNL     1      75.786  37.062  -1.176  1.00  0.00     0.012 C 
HETATM   33  C23 UNL     1      78.124  37.015  -1.941  1.00  0.00     0.012 C 
ENDBRANCH  25  31
ENDBRANCH  23  25
ENDBRANCH   5  21
TORSDOF 9
ENDMDL
