MODEL 1
REMARK VINA RESULT: -7.808062291      0.000      0.000
REMARK  10 active torsions:
REMARK  status: ('A' for Active; 'I' for Inactive)
REMARK    1  A    between atoms: C2_2  and  C3_4 
REMARK    2  A    between atoms: C3_4  and  C4_5 
REMARK    3  A    between atoms: C4_5  and  N1_6 
REMARK    4  A    between atoms: C4_5  and  C7_11 
REMARK       I    between atoms: N1_6  and  C5_8 
REMARK       I    between atoms: C7_11  and  N2_13 
REMARK    5  A    between atoms: N2_13  and  C8_15 
REMARK    6  A    between atoms: C8_15  and  C9_16 
REMARK    7  A    between atoms: C8_15  and  C22_31 
REMARK       I    between atoms: C9_16  and  N3_18 
REMARK    8  A    between atoms: C14_23  and  C15_24 
REMARK    9  A    between atoms: C15_24  and  C16_25 
REMARK   10  A    between atoms: C22_31  and  N4_33 
ROOT
HETATM    1  C8  UNL     1      77.803  33.880   2.411  1.00  0.00     0.206 C 
ENDROOT
BRANCH   1   2
HETATM    2  N2  UNL     1      78.874  32.951   2.001  1.00  0.00    -0.344 N 
HETATM    3  C7  UNL     1      79.524  32.116   2.918  1.00  0.00     0.241 C 
HETATM    4  O3  UNL     1      79.171  32.166   4.127  1.00  0.00    -0.271 OA
ATOM      5  H2  UNL     1      79.149  32.916   1.020  1.00  0.00     0.163 HD
BRANCH   3   6
HETATM    6  C4  UNL     1      80.607  31.173   2.558  1.00  0.00     0.183 C 
BRANCH   6   7
HETATM    7  C3  UNL     1      81.712  31.869   1.809  1.00  0.00     0.112 C 
BRANCH   7   8
HETATM    8  C2  UNL     1      81.770  31.560   0.370  1.00  0.00     0.125 C 
HETATM    9  C1  UNL     1      81.108  32.442  -0.620  1.00  0.00     0.091 C 
HETATM   10  O1  UNL     1      82.359  30.579  -0.013  1.00  0.00    -0.298 OA
ENDBRANCH   7   8
ENDBRANCH   6   7
BRANCH   6  11
HETATM   11  N1  UNL     1      81.098  30.469   3.740  1.00  0.00    -0.348 N 
HETATM   12  C5  UNL     1      81.513  29.114   3.676  1.00  0.00     0.214 C 
HETATM   13  C6  UNL     1      82.003  28.426   4.892  1.00  0.00     0.117 C 
HETATM   14  O2  UNL     1      81.469  28.488   2.593  1.00  0.00    -0.274 OA
ATOM     15  H1  UNL     1      81.144  30.962   4.632  1.00  0.00     0.163 HD
ENDBRANCH   6  11
ENDBRANCH   3   6
ENDBRANCH   1   2
BRANCH   1  16
HETATM   16  C9  UNL     1      77.888  35.125   1.635  1.00  0.00     0.245 C 
HETATM   17  O4  UNL     1      76.793  35.729   1.439  1.00  0.00    -0.271 OA
HETATM   18  N3  UNL     1      79.072  35.692   1.099  1.00  0.00    -0.345 N 
HETATM   19  C10 UNL     1      80.441  35.232   1.122  1.00  0.00     0.127 C 
HETATM   20  C14 UNL     1      79.150  36.966   0.364  1.00  0.00     0.091 C 
HETATM   21  C11 UNL     1      81.134  36.548   1.513  1.00  0.00     0.026 C 
HETATM   22  C12 UNL     1      80.554  37.417   0.379  1.00  0.00     0.006 C 
HETATM   23  C13 UNL     1      81.372  37.088  -0.827  1.00  0.00     0.012 C 
BRANCH  20  24
HETATM   24  C15 UNL     1      78.496  36.782  -0.945  1.00  0.00     0.030 C 
BRANCH  24  25
HETATM   25  C16 UNL     1      78.056  38.049  -1.617  1.00  0.00    -0.013 C 
HETATM   26  C17 UNL     1      78.458  37.936  -3.082  1.00  0.00     0.005 C 
HETATM   27  C18 UNL     1      77.914  39.029  -3.934  1.00  0.00     0.000 C 
HETATM   28  C19 UNL     1      76.484  39.400  -3.645  1.00  0.00     0.000 C 
HETATM   29  C20 UNL     1      76.188  39.500  -2.171  1.00  0.00     0.000 C 
HETATM   30  C21 UNL     1      76.524  38.147  -1.569  1.00  0.00     0.005 C 
ENDBRANCH  24  25
ENDBRANCH  20  24
ENDBRANCH   1  16
BRANCH   1  31
HETATM   31  C22 UNL     1      76.476  33.166   2.124  1.00  0.00     0.211 C 
HETATM   32  C23 UNL     1      76.393  32.761   0.684  1.00  0.00     0.042 C 
BRANCH  31  33
HETATM   33  N4  UNL     1      76.303  32.020   2.956  1.00  0.00    -0.073 N 
ATOM     34  H43 UNL     1      77.200  31.638   3.255  1.00  0.00     0.274 HD
ATOM     35  H42 UNL     1      75.928  32.277   3.870  1.00  0.00     0.274 HD
ATOM     36  H41 UNL     1      75.728  31.309   2.505  1.00  0.00     0.274 HD
ENDBRANCH  31  33
ENDBRANCH   1  31
TORSDOF 10
ENDMDL
MODEL 2
REMARK VINA RESULT: -7.700043746      4.036      7.128
REMARK  10 active torsions:
REMARK  status: ('A' for Active; 'I' for Inactive)
REMARK    1  A    between atoms: C2_2  and  C3_4 
REMARK    2  A    between atoms: C3_4  and  C4_5 
REMARK    3  A    between atoms: C4_5  and  N1_6 
REMARK    4  A    between atoms: C4_5  and  C7_11 
REMARK       I    between atoms: N1_6  and  C5_8 
REMARK       I    between atoms: C7_11  and  N2_13 
REMARK    5  A    between atoms: N2_13  and  C8_15 
REMARK    6  A    between atoms: C8_15  and  C9_16 
REMARK    7  A    between atoms: C8_15  and  C22_31 
REMARK       I    between atoms: C9_16  and  N3_18 
REMARK    8  A    between atoms: C14_23  and  C15_24 
REMARK    9  A    between atoms: C15_24  and  C16_25 
REMARK   10  A    between atoms: C22_31  and  N4_33 
ROOT
HETATM    1  C8  UNL     1      83.003  35.184   1.894  1.00  0.00     0.206 C 
ENDROOT
BRANCH   1   2
HETATM    2  N2  UNL     1      83.240  36.627   1.698  1.00  0.00    -0.344 N 
HETATM    3  C7  UNL     1      83.497  37.490   2.770  1.00  0.00     0.241 C 
HETATM    4  O3  UNL     1      83.528  37.005   3.933  1.00  0.00    -0.271 OA
ATOM      5  H2  UNL     1      83.217  37.007   0.752  1.00  0.00     0.163 HD
BRANCH   3   6
HETATM    6  C4  UNL     1      83.735  38.944   2.626  1.00  0.00     0.183 C 
BRANCH   6   7
HETATM    7  C3  UNL     1      82.704  39.581   1.732  1.00  0.00     0.112 C 
BRANCH   7   8
HETATM    8  C2  UNL     1      81.350  39.649   2.306  1.00  0.00     0.125 C 
HETATM    9  C1  UNL     1      80.230  38.894   1.694  1.00  0.00     0.091 C 
HETATM   10  O1  UNL     1      81.142  40.325   3.283  1.00  0.00    -0.298 OA
ENDBRANCH   7   8
ENDBRANCH   6   7
BRANCH   6  11
HETATM   11  N1  UNL     1      83.808  39.591   3.934  1.00  0.00    -0.348 N 
HETATM   12  C5  UNL     1      84.731  40.636   4.193  1.00  0.00     0.214 C 
HETATM   13  C6  UNL     1      84.785  41.270   5.529  1.00  0.00     0.117 C 
HETATM   14  O2  UNL     1      85.510  41.030   3.296  1.00  0.00    -0.274 OA
ATOM     15  H1  UNL     1      83.180  39.285   4.678  1.00  0.00     0.163 HD
ENDBRANCH   6  11
ENDBRANCH   3   6
ENDBRANCH   1   2
BRANCH   1  16
HETATM   16  C9  UNL     1      81.679  34.813   1.372  1.00  0.00     0.245 C 
HETATM   17  O4  UNL     1      81.312  35.417   0.321  1.00  0.00    -0.271 OA
HETATM   18  N3  UNL     1      80.799  33.856   1.938  1.00  0.00    -0.345 N 
HETATM   19  C10 UNL     1      80.916  33.045   3.128  1.00  0.00     0.127 C 
HETATM   20  C14 UNL     1      79.496  33.460   1.378  1.00  0.00     0.091 C 
HETATM   21  C11 UNL     1      80.469  31.693   2.546  1.00  0.00     0.026 C 
HETATM   22  C12 UNL     1      79.118  32.165   1.973  1.00  0.00     0.006 C 
HETATM   23  C13 UNL     1      78.191  32.217   3.144  1.00  0.00     0.012 C 
BRANCH  20  24
HETATM   24  C15 UNL     1      78.565  34.593   1.534  1.00  0.00     0.030 C 
BRANCH  24  25
HETATM   25  C16 UNL     1      77.749  34.914   0.317  1.00  0.00    -0.013 C 
HETATM   26  C17 UNL     1      76.287  34.889   0.746  1.00  0.00     0.005 C 
HETATM   27  C18 UNL     1      75.352  35.385  -0.302  1.00  0.00     0.000 C 
HETATM   28  C19 UNL     1      75.826  36.607  -1.042  1.00  0.00     0.000 C 
HETATM   29  C20 UNL     1      77.279  36.531  -1.433  1.00  0.00     0.000 C 
HETATM   30  C21 UNL     1      78.066  36.343  -0.148  1.00  0.00     0.005 C 
ENDBRANCH  24  25
ENDBRANCH  20  24
ENDBRANCH   1  16
BRANCH   1  31
HETATM   31  C22 UNL     1      84.104  34.453   1.115  1.00  0.00     0.211 C 
HETATM   32  C23 UNL     1      83.842  32.978   1.085  1.00  0.00     0.042 C 
BRANCH  31  33
HETATM   33  N4  UNL     1      84.223  34.948  -0.218  1.00  0.00    -0.073 N 
ATOM     34  H43 UNL     1      83.622  35.759  -0.369  1.00  0.00     0.274 HD
ATOM     35  H42 UNL     1      85.128  35.392  -0.371  1.00  0.00     0.274 HD
ATOM     36  H41 UNL     1      84.044  34.219  -0.908  1.00  0.00     0.274 HD
ENDBRANCH  31  33
ENDBRANCH   1  31
TORSDOF 10
ENDMDL
MODEL 3
REMARK VINA RESULT: -7.504226950      3.622      7.316
REMARK  10 active torsions:
REMARK  status: ('A' for Active; 'I' for Inactive)
REMARK    1  A    between atoms: C2_2  and  C3_4 
REMARK    2  A    between atoms: C3_4  and  C4_5 
REMARK    3  A    between atoms: C4_5  and  N1_6 
REMARK    4  A    between atoms: C4_5  and  C7_11 
REMARK       I    between atoms: N1_6  and  C5_8 
REMARK       I    between atoms: C7_11  and  N2_13 
REMARK    5  A    between atoms: N2_13  and  C8_15 
REMARK    6  A    between atoms: C8_15  and  C9_16 
REMARK    7  A    between atoms: C8_15  and  C22_31 
REMARK       I    between atoms: C9_16  and  N3_18 
REMARK    8  A    between atoms: C14_23  and  C15_24 
REMARK    9  A    between atoms: C15_24  and  C16_25 
REMARK   10  A    between atoms: C22_31  and  N4_33 
ROOT
HETATM    1  C8  UNL     1      82.025  35.660   0.035  1.00  0.00     0.206 C 
ENDROOT
BRANCH   1   2
HETATM    2  N2  UNL     1      82.194  36.916   0.791  1.00  0.00    -0.344 N 
HETATM    3  C7  UNL     1      83.062  37.014   1.885  1.00  0.00     0.241 C 
HETATM    4  O3  UNL     1      83.717  35.991   2.220  1.00  0.00    -0.271 OA
ATOM      5  H2  UNL     1      81.661  37.739   0.507  1.00  0.00     0.163 HD
BRANCH   3   6
HETATM    6  C4  UNL     1      83.263  38.248   2.677  1.00  0.00     0.183 C 
BRANCH   6   7
HETATM    7  C3  UNL     1      84.673  38.342   3.195  1.00  0.00     0.112 C 
BRANCH   7   8
HETATM    8  C2  UNL     1      84.785  38.447   4.661  1.00  0.00     0.125 C 
HETATM    9  C1  UNL     1      85.404  39.638   5.288  1.00  0.00     0.091 C 
HETATM   10  O1  UNL     1      84.371  37.557   5.362  1.00  0.00    -0.298 OA
ENDBRANCH   7   8
ENDBRANCH   6   7
BRANCH   6  11
HETATM   11  N1  UNL     1      82.876  39.429   1.909  1.00  0.00    -0.348 N 
HETATM   12  C5  UNL     1      81.985  40.397   2.437  1.00  0.00     0.214 C 
HETATM   13  C6  UNL     1      81.608  41.581   1.634  1.00  0.00     0.117 C 
HETATM   14  O2  UNL     1      81.508  40.259   3.587  1.00  0.00    -0.274 OA
ATOM     15  H1  UNL     1      83.255  39.560   0.971  1.00  0.00     0.163 HD
ENDBRANCH   6  11
ENDBRANCH   3   6
ENDBRANCH   1   2
BRANCH   1  16
HETATM   16  C9  UNL     1      80.758  35.013   0.407  1.00  0.00     0.245 C 
HETATM   17  O4  UNL     1      79.714  35.503  -0.116  1.00  0.00    -0.271 OA
HETATM   18  N3  UNL     1      80.613  33.909   1.284  1.00  0.00    -0.345 N 
HETATM   19  C10 UNL     1      81.591  33.167   2.047  1.00  0.00     0.127 C 
HETATM   20  C14 UNL     1      79.343  33.239   1.611  1.00  0.00     0.091 C 
HETATM   21  C11 UNL     1      81.123  31.739   1.720  1.00  0.00     0.026 C 
HETATM   22  C12 UNL     1      79.656  31.909   2.164  1.00  0.00     0.006 C 
HETATM   23  C13 UNL     1      79.680  31.796   3.653  1.00  0.00     0.012 C 
BRANCH  20  24
HETATM   24  C15 UNL     1      78.537  34.160   2.435  1.00  0.00     0.030 C 
BRANCH  24  25
HETATM   25  C16 UNL     1      77.061  34.124   2.166  1.00  0.00    -0.013 C 
HETATM   26  C17 UNL     1      76.824  34.936   0.899  1.00  0.00     0.005 C 
HETATM   27  C18 UNL     1      75.432  34.835   0.381  1.00  0.00     0.000 C 
HETATM   28  C19 UNL     1      74.842  33.450   0.426  1.00  0.00     0.000 C 
HETATM   29  C20 UNL     1      75.120  32.734   1.721  1.00  0.00     0.000 C 
HETATM   30  C21 UNL     1      76.631  32.680   1.872  1.00  0.00     0.005 C 
ENDBRANCH  24  25
ENDBRANCH  20  24
ENDBRANCH   1  16
BRANCH   1  31
HETATM   31  C22 UNL     1      82.007  36.046  -1.449  1.00  0.00     0.211 C 
HETATM   32  C23 UNL     1      83.389  36.372  -1.929  1.00  0.00     0.042 C 
BRANCH  31  33
HETATM   33  N4  UNL     1      81.450  35.009  -2.256  1.00  0.00    -0.073 N 
ATOM     34  H43 UNL     1      81.636  34.088  -1.860  1.00  0.00     0.274 HD
ATOM     35  H42 UNL     1      80.431  35.002  -2.202  1.00  0.00     0.274 HD
ATOM     36  H41 UNL     1      81.770  35.070  -3.223  1.00  0.00     0.274 HD
ENDBRANCH  31  33
ENDBRANCH   1  31
TORSDOF 10
ENDMDL
MODEL 4
REMARK VINA RESULT: -7.462648037      1.753      3.311
REMARK  10 active torsions:
REMARK  status: ('A' for Active; 'I' for Inactive)
REMARK    1  A    between atoms: C2_2  and  C3_4 
REMARK    2  A    between atoms: C3_4  and  C4_5 
REMARK    3  A    between atoms: C4_5  and  N1_6 
REMARK    4  A    between atoms: C4_5  and  C7_11 
REMARK       I    between atoms: N1_6  and  C5_8 
REMARK       I    between atoms: C7_11  and  N2_13 
REMARK    5  A    between atoms: N2_13  and  C8_15 
REMARK    6  A    between atoms: C8_15  and  C9_16 
REMARK    7  A    between atoms: C8_15  and  C22_31 
REMARK       I    between atoms: C9_16  and  N3_18 
REMARK    8  A    between atoms: C14_23  and  C15_24 
REMARK    9  A    between atoms: C15_24  and  C16_25 
REMARK   10  A    between atoms: C22_31  and  N4_33 
ROOT
HETATM    1  C8  UNL     1      78.429  32.902   1.994  1.00  0.00     0.206 C 
ENDROOT
BRANCH   1   2
HETATM    2  N2  UNL     1      79.435  31.828   2.113  1.00  0.00    -0.344 N 
HETATM    3  C7  UNL     1      80.485  31.894   3.038  1.00  0.00     0.241 C 
HETATM    4  O3  UNL     1      80.557  32.903   3.788  1.00  0.00    -0.271 OA
ATOM      5  H2  UNL     1      79.364  31.014   1.503  1.00  0.00     0.163 HD
BRANCH   3   6
HETATM    6  C4  UNL     1      81.520  30.847   3.192  1.00  0.00     0.183 C 
BRANCH   6   7
HETATM    7  C3  UNL     1      82.768  31.196   2.424  1.00  0.00     0.112 C 
BRANCH   7   8
HETATM    8  C2  UNL     1      82.544  31.535   1.008  1.00  0.00     0.125 C 
HETATM    9  C1  UNL     1      82.944  32.859   0.475  1.00  0.00     0.091 C 
HETATM   10  O1  UNL     1      82.029  30.732   0.270  1.00  0.00    -0.298 OA
ENDBRANCH   7   8
ENDBRANCH   6   7
BRANCH   6  11
HETATM   11  N1  UNL     1      81.794  30.590   4.604  1.00  0.00    -0.348 N 
HETATM   12  C5  UNL     1      81.955  29.271   5.099  1.00  0.00     0.214 C 
HETATM   13  C6  UNL     1      82.228  29.041   6.535  1.00  0.00     0.117 C 
HETATM   14  O2  UNL     1      81.867  28.289   4.327  1.00  0.00    -0.274 OA
ATOM     15  H1  UNL     1      81.871  31.377   5.248  1.00  0.00     0.163 HD
ENDBRANCH   6  11
ENDBRANCH   3   6
ENDBRANCH   1   2
BRANCH   1  16
HETATM   16  C9  UNL     1      78.564  33.579   0.696  1.00  0.00     0.245 C 
HETATM   17  O4  UNL     1      79.474  33.137  -0.066  1.00  0.00    -0.271 OA
HETATM   18  N3  UNL     1      77.776  34.665   0.237  1.00  0.00    -0.345 N 
HETATM   19  C10 UNL     1      76.708  35.400   0.876  1.00  0.00     0.127 C 
HETATM   20  C14 UNL     1      77.890  35.304  -1.084  1.00  0.00     0.091 C 
HETATM   21  C11 UNL     1      75.703  35.429  -0.289  1.00  0.00     0.026 C 
HETATM   22  C12 UNL     1      76.645  36.049  -1.342  1.00  0.00     0.006 C 
HETATM   23  C13 UNL     1      76.668  37.511  -1.036  1.00  0.00     0.012 C 
BRANCH  20  24
HETATM   24  C15 UNL     1      79.163  36.047  -1.128  1.00  0.00     0.030 C 
BRANCH  24  25
HETATM   25  C16 UNL     1      79.683  36.493   0.208  1.00  0.00    -0.013 C 
HETATM   26  C17 UNL     1      81.141  36.058   0.282  1.00  0.00     0.005 C 
HETATM   27  C18 UNL     1      81.862  36.600   1.466  1.00  0.00     0.000 C 
HETATM   28  C19 UNL     1      81.562  38.041   1.781  1.00  0.00     0.000 C 
HETATM   29  C20 UNL     1      80.095  38.370   1.692  1.00  0.00     0.000 C 
HETATM   30  C21 UNL     1      79.657  38.026   0.279  1.00  0.00     0.005 C 
ENDBRANCH  24  25
ENDBRANCH  20  24
ENDBRANCH   1  16
BRANCH   1  31
HETATM   31  C22 UNL     1      77.057  32.224   2.098  1.00  0.00     0.211 C 
HETATM   32  C23 UNL     1      77.204  30.788   2.500  1.00  0.00     0.042 C 
BRANCH  31  33
HETATM   33  N4  UNL     1      76.206  32.898   3.023  1.00  0.00    -0.073 N 
ATOM     34  H43 UNL     1      75.470  32.282   3.369  1.00  0.00     0.274 HD
ATOM     35  H42 UNL     1      76.685  33.083   3.904  1.00  0.00     0.274 HD
ATOM     36  H41 UNL     1      75.817  33.753   2.625  1.00  0.00     0.274 HD
ENDBRANCH  31  33
ENDBRANCH   1  31
TORSDOF 10
ENDMDL
MODEL 5
REMARK VINA RESULT: -7.439997787      3.770      7.042
REMARK  10 active torsions:
REMARK  status: ('A' for Active; 'I' for Inactive)
REMARK    1  A    between atoms: C2_2  and  C3_4 
REMARK    2  A    between atoms: C3_4  and  C4_5 
REMARK    3  A    between atoms: C4_5  and  N1_6 
REMARK    4  A    between atoms: C4_5  and  C7_11 
REMARK       I    between atoms: N1_6  and  C5_8 
REMARK       I    between atoms: C7_11  and  N2_13 
REMARK    5  A    between atoms: N2_13  and  C8_15 
REMARK    6  A    between atoms: C8_15  and  C9_16 
REMARK    7  A    between atoms: C8_15  and  C22_31 
REMARK       I    between atoms: C9_16  and  N3_18 
REMARK    8  A    between atoms: C14_23  and  C15_24 
REMARK    9  A    between atoms: C15_24  and  C16_25 
REMARK   10  A    between atoms: C22_31  and  N4_33 
ROOT
HETATM    1  C8  UNL     1      82.987  35.187   1.862  1.00  0.00     0.206 C 
ENDROOT
BRANCH   1   2
HETATM    2  N2  UNL     1      83.220  36.621   1.600  1.00  0.00    -0.344 N 
HETATM    3  C7  UNL     1      83.490  37.530   2.629  1.00  0.00     0.241 C 
HETATM    4  O3  UNL     1      83.538  37.096   3.812  1.00  0.00    -0.271 OA
ATOM      5  H2  UNL     1      83.183  36.959   0.638  1.00  0.00     0.163 HD
BRANCH   3   6
HETATM    6  C4  UNL     1      83.725  38.976   2.418  1.00  0.00     0.183 C 
BRANCH   6   7
HETATM    7  C3  UNL     1      84.999  39.217   1.652  1.00  0.00     0.112 C 
BRANCH   7   8
HETATM    8  C2  UNL     1      84.808  39.534   0.226  1.00  0.00     0.125 C 
HETATM    9  C1  UNL     1      85.191  40.861  -0.311  1.00  0.00     0.091 C 
HETATM   10  O1  UNL     1      84.336  38.709  -0.517  1.00  0.00    -0.298 OA
ENDBRANCH   7   8
ENDBRANCH   6   7
BRANCH   6  11
HETATM   11  N1  UNL     1      82.570  39.604   1.781  1.00  0.00    -0.348 N 
HETATM   12  C5  UNL     1      81.560  40.244   2.544  1.00  0.00     0.214 C 
HETATM   13  C6  UNL     1      80.398  40.867   1.871  1.00  0.00     0.117 C 
HETATM   14  O2  UNL     1      81.640  40.286   3.793  1.00  0.00    -0.274 OA
ATOM     15  H1  UNL     1      82.487  39.581   0.765  1.00  0.00     0.163 HD
ENDBRANCH   6  11
ENDBRANCH   3   6
ENDBRANCH   1   2
BRANCH   1  16
HETATM   16  C9  UNL     1      81.664  34.789   1.358  1.00  0.00     0.245 C 
HETATM   17  O4  UNL     1      81.276  35.376   0.304  1.00  0.00    -0.271 OA
HETATM   18  N3  UNL     1      80.806  33.824   1.942  1.00  0.00    -0.345 N 
HETATM   19  C10 UNL     1      80.948  33.027   3.139  1.00  0.00     0.127 C 
HETATM   20  C14 UNL     1      79.505  33.400   1.399  1.00  0.00     0.091 C 
HETATM   21  C11 UNL     1      80.519  31.662   2.575  1.00  0.00     0.026 C 
HETATM   22  C12 UNL     1      79.154  32.105   2.012  1.00  0.00     0.006 C 
HETATM   23  C13 UNL     1      78.238  32.154   3.191  1.00  0.00     0.012 C 
BRANCH  20  24
HETATM   24  C15 UNL     1      78.556  34.518   1.553  1.00  0.00     0.030 C 
BRANCH  24  25
HETATM   25  C16 UNL     1      77.698  34.792   0.352  1.00  0.00    -0.013 C 
HETATM   26  C17 UNL     1      76.251  34.756   0.826  1.00  0.00     0.005 C 
HETATM   27  C18 UNL     1      75.277  35.206  -0.207  1.00  0.00     0.000 C 
HETATM   28  C19 UNL     1      75.708  36.414  -0.995  1.00  0.00     0.000 C 
HETATM   29  C20 UNL     1      77.150  36.351  -1.427  1.00  0.00     0.000 C 
HETATM   30  C21 UNL     1      77.977  36.212  -0.161  1.00  0.00     0.005 C 
ENDBRANCH  24  25
ENDBRANCH  20  24
ENDBRANCH   1  16
BRANCH   1  31
HETATM   31  C22 UNL     1      84.090  34.425   1.118  1.00  0.00     0.211 C 
HETATM   32  C23 UNL     1      83.798  32.955   1.099  1.00  0.00     0.042 C 
BRANCH  31  33
HETATM   33  N4  UNL     1      84.250  34.901  -0.217  1.00  0.00    -0.073 N 
ATOM     34  H43 UNL     1      83.975  34.194  -0.900  1.00  0.00     0.274 HD
ATOM     35  H42 UNL     1      83.559  35.616  -0.443  1.00  0.00     0.274 HD
ATOM     36  H41 UNL     1      85.199  35.233  -0.388  1.00  0.00     0.274 HD
ENDBRANCH  31  33
ENDBRANCH   1  31
TORSDOF 10
ENDMDL
