MODEL 1
REMARK VINA RESULT: -7.108818916      0.000      0.000
REMARK  11 active torsions:
REMARK  status: ('A' for Active; 'I' for Inactive)
REMARK       I    between atoms: N2_3  and  C2_5 
REMARK       I    between atoms: C2_5  and  N3_7 
REMARK    1  A    between atoms: N3_7  and  C3_9 
REMARK    2  A    between atoms: C3_9  and  C4_10 
REMARK    3  A    between atoms: C4_10  and  C5_11 
REMARK    4  A    between atoms: C5_11  and  C6_12 
REMARK    5  A    between atoms: C6_12  and  C7_13 
REMARK    6  A    between atoms: C7_13  and  N4_14 
REMARK    7  A    between atoms: C10_17  and  C11_18 
REMARK    8  A    between atoms: C11_18  and  C12_19 
REMARK    9  A    between atoms: C12_19  and  C13_20 
REMARK       I    between atoms: C13_20  and  N5_22 
REMARK   10  A    between atoms: N5_22  and  C14_24 
REMARK   11  A    between atoms: C22_32  and  N6_33 
ROOT
HETATM    1  C1  UNL     1      31.867 -35.472   2.438  1.00  0.00     0.258 C 
HETATM    2  N1  UNL     1      32.067 -34.342   2.424  1.00  0.00    -0.346 NA
HETATM    3  N2  UNL     1      32.296 -33.015   2.412  1.00  0.00    -0.186 N 
ATOM      4  H2  UNL     1      33.035 -32.627   2.998  1.00  0.00     0.206 HD
HETATM    5  C2  UNL     1      31.501 -32.127   1.571  1.00  0.00     0.348 C 
HETATM    6  O1  UNL     1      30.621 -32.674   0.884  1.00  0.00    -0.244 OA
HETATM    7  N3  UNL     1      31.735 -30.754   1.557  1.00  0.00    -0.321 N 
ATOM      8  H3  UNL     1      32.473 -30.460   2.197  1.00  0.00     0.169 HD
ENDROOT
BRANCH   7   9
HETATM    9  C3  UNL     1      31.159 -29.693   0.838  1.00  0.00     0.065 C 
BRANCH   9  10
HETATM   10  C4  UNL     1      31.591 -29.448  -0.559  1.00  0.00     0.044 C 
BRANCH  10  11
HETATM   11  C5  UNL     1      31.713 -28.054  -0.965  1.00  0.00     0.007 C 
BRANCH  11  12
HETATM   12  C6  UNL     1      33.084 -27.567  -1.382  1.00  0.00     0.030 C 
BRANCH  12  13
HETATM   13  C7  UNL     1      33.294 -27.200  -2.781  1.00  0.00     0.272 C 
BRANCH  13  14
HETATM   14  N4  UNL     1      34.385 -26.377  -3.146  1.00  0.00     0.088 N 
HETATM   15  C8  UNL     1      34.610 -26.523  -4.572  1.00  0.00     0.272 C 
HETATM   16  C9  UNL     1      35.103 -27.883  -4.946  1.00  0.00     0.035 C 
HETATM   17  C10 UNL     1      36.326 -28.281  -4.126  1.00  0.00    -0.011 C 
HETATM   18  C27 UNL     1      36.749 -27.132  -3.277  1.00  0.00     0.035 C 
HETATM   19  C28 UNL     1      35.602 -26.634  -2.456  1.00  0.00     0.272 C 
BRANCH  17  20
HETATM   20  C11 UNL     1      37.401 -28.855  -4.996  1.00  0.00     0.014 C 
BRANCH  20  21
HETATM   21  C12 UNL     1      37.113 -30.265  -5.419  1.00  0.00     0.103 C 
BRANCH  21  22
HETATM   22  C13 UNL     1      36.949 -31.127  -4.203  1.00  0.00     0.218 C 
HETATM   23  O2  UNL     1      37.967 -31.489  -3.593  1.00  0.00    -0.274 OA
HETATM   24  N5  UNL     1      35.676 -31.519  -3.761  1.00  0.00    -0.352 N 
ATOM     25  H5  UNL     1      34.876 -31.192  -4.303  1.00  0.00     0.163 HD
BRANCH  24  26
HETATM   26  C14 UNL     1      35.395 -32.348  -2.603  1.00  0.00     0.035 C 
HETATM   27  C15 UNL     1      33.957 -32.117  -2.229  1.00  0.00     0.031 C 
HETATM   28  C16 UNL     1      33.314 -33.251  -1.510  1.00  0.00     0.007 C 
HETATM   29  C17 UNL     1      34.158 -33.939  -0.500  1.00  0.00    -0.012 C 
HETATM   30  C18 UNL     1      34.851 -35.147  -1.134  1.00  0.00     0.009 C 
HETATM   31  C25 UNL     1      35.099 -33.080   0.261  1.00  0.00     0.046 C 
HETATM   32  C19 UNL     1      36.059 -34.697  -1.918  1.00  0.00    -0.009 C 
HETATM   33  C20 UNL     1      35.666 -33.773  -3.004  1.00  0.00     0.035 C 
HETATM   34  C21 UNL     1      37.054 -34.108  -0.954  1.00  0.00     0.046 C 
HETATM   35  C22 UNL     1      36.448 -32.876  -0.375  1.00  0.00     0.162 C 
HETATM   36  C26 UNL     1      36.279 -31.859  -1.487  1.00  0.00     0.072 C 
BRANCH  35  37
HETATM   37  N6  UNL     1      37.307 -32.292   0.607  1.00  0.00     0.089 N 
HETATM   38  C23 UNL     1      38.246 -33.180   1.214  1.00  0.00     0.310 C 
HETATM   39  C24 UNL     1      37.988 -31.094   0.174  1.00  0.00     0.310 C 
ENDBRANCH  35  37
ENDBRANCH  24  26
ENDBRANCH  21  22
ENDBRANCH  20  21
ENDBRANCH  17  20
ENDBRANCH  13  14
ENDBRANCH  12  13
ENDBRANCH  11  12
ENDBRANCH  10  11
ENDBRANCH   9  10
ENDBRANCH   7   9
TORSDOF 11
ENDMDL
MODEL 2
REMARK VINA RESULT: -7.075901105      1.923      4.521
REMARK  11 active torsions:
REMARK  status: ('A' for Active; 'I' for Inactive)
REMARK       I    between atoms: N2_3  and  C2_5 
REMARK       I    between atoms: C2_5  and  N3_7 
REMARK    1  A    between atoms: N3_7  and  C3_9 
REMARK    2  A    between atoms: C3_9  and  C4_10 
REMARK    3  A    between atoms: C4_10  and  C5_11 
REMARK    4  A    between atoms: C5_11  and  C6_12 
REMARK    5  A    between atoms: C6_12  and  C7_13 
REMARK    6  A    between atoms: C7_13  and  N4_14 
REMARK    7  A    between atoms: C10_17  and  C11_18 
REMARK    8  A    between atoms: C11_18  and  C12_19 
REMARK    9  A    between atoms: C12_19  and  C13_20 
REMARK       I    between atoms: C13_20  and  N5_22 
REMARK   10  A    between atoms: N5_22  and  C14_24 
REMARK   11  A    between atoms: C22_32  and  N6_33 
ROOT
HETATM    1  C1  UNL     1      30.172 -36.043   4.261  1.00  0.00     0.258 C 
HETATM    2  N1  UNL     1      31.138 -35.895   3.659  1.00  0.00    -0.346 NA
HETATM    3  N2  UNL     1      32.270 -35.714   2.953  1.00  0.00    -0.186 N 
ATOM      4  H2  UNL     1      33.170 -35.720   3.435  1.00  0.00     0.206 HD
HETATM    5  C2  UNL     1      32.228 -35.512   1.509  1.00  0.00     0.348 C 
HETATM    6  O1  UNL     1      31.096 -35.519   0.994  1.00  0.00    -0.244 OA
HETATM    7  N3  UNL     1      33.397 -35.324   0.777  1.00  0.00    -0.321 N 
ATOM      8  H3  UNL     1      34.240 -35.317   1.351  1.00  0.00     0.169 HD
ENDROOT
BRANCH   7   9
HETATM    9  C3  UNL     1      33.648 -35.143  -0.594  1.00  0.00     0.065 C 
BRANCH   9  10
HETATM   10  C4  UNL     1      32.763 -34.250  -1.379  1.00  0.00     0.044 C 
BRANCH  10  11
HETATM   11  C5  UNL     1      33.021 -32.821  -1.270  1.00  0.00     0.007 C 
BRANCH  11  12
HETATM   12  C6  UNL     1      33.063 -32.223   0.120  1.00  0.00     0.030 C 
BRANCH  12  13
HETATM   13  C7  UNL     1      31.908 -31.456   0.580  1.00  0.00     0.272 C 
BRANCH  13  14
HETATM   14  N4  UNL     1      32.086 -30.168   1.141  1.00  0.00     0.088 N 
HETATM   15  C8  UNL     1      31.143 -29.263   0.511  1.00  0.00     0.272 C 
HETATM   16  C9  UNL     1      31.444 -29.021  -0.931  1.00  0.00     0.035 C 
HETATM   17  C10 UNL     1      32.890 -28.581  -1.136  1.00  0.00    -0.011 C 
HETATM   18  C27 UNL     1      33.544 -28.395   0.189  1.00  0.00     0.035 C 
HETATM   19  C28 UNL     1      33.396 -29.627   1.026  1.00  0.00     0.272 C 
BRANCH  17  20
HETATM   20  C11 UNL     1      32.975 -27.402  -2.055  1.00  0.00     0.014 C 
BRANCH  20  21
HETATM   21  C12 UNL     1      33.771 -27.688  -3.293  1.00  0.00     0.103 C 
BRANCH  21  22
HETATM   22  C13 UNL     1      35.026 -28.420  -2.922  1.00  0.00     0.218 C 
HETATM   23  O2  UNL     1      35.994 -27.762  -2.511  1.00  0.00    -0.274 OA
HETATM   24  N5  UNL     1      35.107 -29.816  -3.035  1.00  0.00    -0.352 N 
ATOM     25  H5  UNL     1      34.280 -30.303  -3.379  1.00  0.00     0.163 HD
BRANCH  24  26
HETATM   26  C14 UNL     1      36.264 -30.630  -2.706  1.00  0.00     0.035 C 
HETATM   27  C15 UNL     1      37.433 -30.074  -3.472  1.00  0.00     0.031 C 
HETATM   28  C16 UNL     1      38.760 -30.337  -2.854  1.00  0.00     0.007 C 
HETATM   29  C17 UNL     1      38.941 -31.687  -2.260  1.00  0.00    -0.012 C 
HETATM   30  C18 UNL     1      38.607 -31.649  -0.768  1.00  0.00     0.009 C 
HETATM   31  C25 UNL     1      38.269 -32.807  -2.964  1.00  0.00     0.046 C 
HETATM   32  C19 UNL     1      37.111 -31.703  -0.571  1.00  0.00    -0.009 C 
HETATM   33  C20 UNL     1      36.456 -30.545  -1.216  1.00  0.00     0.035 C 
HETATM   34  C21 UNL     1      36.617 -33.033  -1.072  1.00  0.00     0.046 C 
HETATM   35  C22 UNL     1      36.848 -33.076  -2.544  1.00  0.00     0.162 C 
HETATM   36  C26 UNL     1      35.973 -32.024  -3.196  1.00  0.00     0.072 C 
BRANCH  35  37
HETATM   37  N6  UNL     1      36.468 -34.341  -3.088  1.00  0.00     0.089 N 
HETATM   38  C23 UNL     1      36.771 -34.539  -4.469  1.00  0.00     0.310 C 
HETATM   39  C24 UNL     1      36.922 -35.484  -2.328  1.00  0.00     0.310 C 
ENDBRANCH  35  37
ENDBRANCH  24  26
ENDBRANCH  21  22
ENDBRANCH  20  21
ENDBRANCH  17  20
ENDBRANCH  13  14
ENDBRANCH  12  13
ENDBRANCH  11  12
ENDBRANCH  10  11
ENDBRANCH   9  10
ENDBRANCH   7   9
TORSDOF 11
ENDMDL
MODEL 3
REMARK VINA RESULT: -7.020107995      2.381      6.286
REMARK  11 active torsions:
REMARK  status: ('A' for Active; 'I' for Inactive)
REMARK       I    between atoms: N2_3  and  C2_5 
REMARK       I    between atoms: C2_5  and  N3_7 
REMARK    1  A    between atoms: N3_7  and  C3_9 
REMARK    2  A    between atoms: C3_9  and  C4_10 
REMARK    3  A    between atoms: C4_10  and  C5_11 
REMARK    4  A    between atoms: C5_11  and  C6_12 
REMARK    5  A    between atoms: C6_12  and  C7_13 
REMARK    6  A    between atoms: C7_13  and  N4_14 
REMARK    7  A    between atoms: C10_17  and  C11_18 
REMARK    8  A    between atoms: C11_18  and  C12_19 
REMARK    9  A    between atoms: C12_19  and  C13_20 
REMARK       I    between atoms: C13_20  and  N5_22 
REMARK   10  A    between atoms: N5_22  and  C14_24 
REMARK   11  A    between atoms: C22_32  and  N6_33 
ROOT
HETATM    1  C1  UNL     1      35.996 -34.748  -2.879  1.00  0.00     0.258 C 
HETATM    2  N1  UNL     1      34.947 -34.699  -2.415  1.00  0.00    -0.346 NA
HETATM    3  N2  UNL     1      33.717 -34.635  -1.872  1.00  0.00    -0.186 N 
ATOM      4  H2  UNL     1      32.906 -34.894  -2.433  1.00  0.00     0.206 HD
HETATM    5  C2  UNL     1      33.530 -34.199  -0.492  1.00  0.00     0.348 C 
HETATM    6  O1  UNL     1      34.566 -33.901   0.127  1.00  0.00    -0.244 OA
HETATM    7  N3  UNL     1      32.259 -34.132   0.072  1.00  0.00    -0.321 N 
ATOM      8  H3  UNL     1      31.512 -34.383  -0.576  1.00  0.00     0.169 HD
ENDROOT
BRANCH   7   9
HETATM    9  C3  UNL     1      31.799 -33.787   1.354  1.00  0.00     0.065 C 
BRANCH   9  10
HETATM   10  C4  UNL     1      31.734 -32.356   1.738  1.00  0.00     0.044 C 
BRANCH  10  11
HETATM   11  C5  UNL     1      30.785 -31.530   1.005  1.00  0.00     0.007 C 
BRANCH  11  12
HETATM   12  C6  UNL     1      30.837 -30.035   1.236  1.00  0.00     0.030 C 
BRANCH  12  13
HETATM   13  C7  UNL     1      31.037 -29.161   0.083  1.00  0.00     0.272 C 
BRANCH  13  14
HETATM   14  N4  UNL     1      32.270 -28.491  -0.097  1.00  0.00     0.088 N 
HETATM   15  C8  UNL     1      32.581 -28.481  -1.514  1.00  0.00     0.272 C 
HETATM   16  C9  UNL     1      32.883 -29.841  -2.053  1.00  0.00     0.035 C 
HETATM   17  C10 UNL     1      33.958 -30.543  -1.231  1.00  0.00    -0.011 C 
HETATM   18  C27 UNL     1      34.489 -29.605  -0.203  1.00  0.00     0.035 C 
HETATM   19  C28 UNL     1      33.373 -29.037   0.616  1.00  0.00     0.272 C 
BRANCH  17  20
HETATM   20  C11 UNL     1      34.995 -31.168  -2.113  1.00  0.00     0.014 C 
BRANCH  20  21
HETATM   21  C12 UNL     1      36.348 -30.541  -1.952  1.00  0.00     0.103 C 
BRANCH  21  22
HETATM   22  C13 UNL     1      36.662 -29.715  -3.164  1.00  0.00     0.218 C 
HETATM   23  O2  UNL     1      37.800 -29.793  -3.653  1.00  0.00    -0.274 OA
HETATM   24  N5  UNL     1      35.697 -28.872  -3.733  1.00  0.00    -0.352 N 
ATOM     25  H5  UNL     1      34.780 -28.849  -3.287  1.00  0.00     0.163 HD
BRANCH  24  26
HETATM   26  C14 UNL     1      35.885 -28.029  -4.901  1.00  0.00     0.035 C 
HETATM   27  C15 UNL     1      34.536 -27.479  -5.275  1.00  0.00     0.031 C 
HETATM   28  C16 UNL     1      34.576 -26.184  -6.006  1.00  0.00     0.007 C 
HETATM   29  C17 UNL     1      35.650 -26.047  -7.022  1.00  0.00    -0.012 C 
HETATM   30  C18 UNL     1      36.874 -25.372  -6.400  1.00  0.00     0.009 C 
HETATM   31  C25 UNL     1      36.003 -27.278  -7.772  1.00  0.00     0.046 C 
HETATM   32  C19 UNL     1      37.674 -26.378  -5.608  1.00  0.00    -0.009 C 
HETATM   33  C20 UNL     1      36.861 -26.950  -4.514  1.00  0.00     0.035 C 
HETATM   34  C21 UNL     1      38.212 -27.408  -6.564  1.00  0.00     0.046 C 
HETATM   35  C22 UNL     1      37.050 -28.150  -7.132  1.00  0.00     0.162 C 
HETATM   36  C26 UNL     1      36.380 -28.918  -6.010  1.00  0.00     0.072 C 
BRANCH  35  37
HETATM   37  N6  UNL     1      37.475 -29.104  -8.106  1.00  0.00     0.089 N 
HETATM   38  C23 UNL     1      38.762 -28.874  -8.679  1.00  0.00     0.310 C 
HETATM   39  C24 UNL     1      37.377 -30.482  -7.680  1.00  0.00     0.310 C 
ENDBRANCH  35  37
ENDBRANCH  24  26
ENDBRANCH  21  22
ENDBRANCH  20  21
ENDBRANCH  17  20
ENDBRANCH  13  14
ENDBRANCH  12  13
ENDBRANCH  11  12
ENDBRANCH  10  11
ENDBRANCH   9  10
ENDBRANCH   7   9
TORSDOF 11
ENDMDL
MODEL 4
REMARK VINA RESULT: -6.953844822      2.508      4.896
REMARK  11 active torsions:
REMARK  status: ('A' for Active; 'I' for Inactive)
REMARK       I    between atoms: N2_3  and  C2_5 
REMARK       I    between atoms: C2_5  and  N3_7 
REMARK    1  A    between atoms: N3_7  and  C3_9 
REMARK    2  A    between atoms: C3_9  and  C4_10 
REMARK    3  A    between atoms: C4_10  and  C5_11 
REMARK    4  A    between atoms: C5_11  and  C6_12 
REMARK    5  A    between atoms: C6_12  and  C7_13 
REMARK    6  A    between atoms: C7_13  and  N4_14 
REMARK    7  A    between atoms: C10_17  and  C11_18 
REMARK    8  A    between atoms: C11_18  and  C12_19 
REMARK    9  A    between atoms: C12_19  and  C13_20 
REMARK       I    between atoms: C13_20  and  N5_22 
REMARK   10  A    between atoms: N5_22  and  C14_24 
REMARK   11  A    between atoms: C22_32  and  N6_33 
ROOT
HETATM    1  C1  UNL     1      31.739 -41.387   2.446  1.00  0.00     0.258 C 
HETATM    2  N1  UNL     1      31.292 -40.330   2.415  1.00  0.00    -0.346 NA
HETATM    3  N2  UNL     1      30.769 -39.090   2.373  1.00  0.00    -0.186 N 
ATOM      4  H2  UNL     1      29.817 -38.956   2.033  1.00  0.00     0.206 HD
HETATM    5  C2  UNL     1      31.548 -37.935   2.808  1.00  0.00     0.348 C 
HETATM    6  O1  UNL     1      32.699 -38.178   3.210  1.00  0.00    -0.244 OA
HETATM    7  N3  UNL     1      31.010 -36.651   2.765  1.00  0.00    -0.321 N 
ATOM      8  H3  UNL     1      30.065 -36.618   2.384  1.00  0.00     0.169 HD
ENDROOT
BRANCH   7   9
HETATM    9  C3  UNL     1      31.510 -35.393   3.141  1.00  0.00     0.065 C 
BRANCH   9  10
HETATM   10  C4  UNL     1      32.111 -34.516   2.109  1.00  0.00     0.044 C 
BRANCH  10  11
HETATM   11  C5  UNL     1      31.227 -33.534   1.496  1.00  0.00     0.007 C 
BRANCH  11  12
HETATM   12  C6  UNL     1      31.856 -32.264   0.965  1.00  0.00     0.030 C 
BRANCH  12  13
HETATM   13  C7  UNL     1      31.021 -31.072   0.849  1.00  0.00     0.272 C 
BRANCH  13  14
HETATM   14  N4  UNL     1      31.492 -29.822   1.318  1.00  0.00     0.088 N 
HETATM   15  C8  UNL     1      30.773 -28.773   0.620  1.00  0.00     0.272 C 
HETATM   16  C9  UNL     1      31.108 -28.708  -0.834  1.00  0.00     0.035 C 
HETATM   17  C10 UNL     1      32.613 -28.625  -1.060  1.00  0.00    -0.011 C 
HETATM   18  C27 UNL     1      33.306 -28.500   0.253  1.00  0.00     0.035 C 
HETATM   19  C28 UNL     1      32.890 -29.603   1.174  1.00  0.00     0.272 C 
BRANCH  17  20
HETATM   20  C11 UNL     1      32.955 -27.563  -2.060  1.00  0.00     0.014 C 
BRANCH  20  21
HETATM   21  C12 UNL     1      33.771 -28.087  -3.205  1.00  0.00     0.103 C 
BRANCH  21  22
HETATM   22  C13 UNL     1      34.786 -29.062  -2.690  1.00  0.00     0.218 C 
HETATM   23  O2  UNL     1      35.884 -28.626  -2.310  1.00  0.00    -0.274 OA
HETATM   24  N5  UNL     1      34.507 -30.435  -2.637  1.00  0.00    -0.352 N 
ATOM     25  H5  UNL     1      33.588 -30.735  -2.964  1.00  0.00     0.163 HD
BRANCH  24  26
HETATM   26  C14 UNL     1      35.407 -31.470  -2.161  1.00  0.00     0.035 C 
HETATM   27  C15 UNL     1      36.609 -31.465  -3.065  1.00  0.00     0.031 C 
HETATM   28  C16 UNL     1      37.858 -31.977  -2.438  1.00  0.00     0.007 C 
HETATM   29  C17 UNL     1      37.700 -33.160  -1.554  1.00  0.00    -0.012 C 
HETATM   30  C18 UNL     1      37.532 -32.708  -0.102  1.00  0.00     0.009 C 
HETATM   31  C25 UNL     1      36.673 -34.150  -1.962  1.00  0.00     0.046 C 
HETATM   32  C19 UNL     1      36.109 -32.267   0.141  1.00  0.00    -0.009 C 
HETATM   33  C20 UNL     1      35.754 -31.131  -0.736  1.00  0.00     0.035 C 
HETATM   34  C21 UNL     1      35.211 -33.463  -0.026  1.00  0.00     0.046 C 
HETATM   35  C22 UNL     1      35.281 -33.885  -1.454  1.00  0.00     0.162 C 
HETATM   36  C26 UNL     1      34.686 -32.782  -2.307  1.00  0.00     0.072 C 
BRANCH  35  37
HETATM   37  N6  UNL     1      34.505 -35.064  -1.681  1.00  0.00     0.089 N 
HETATM   38  C23 UNL     1      34.895 -36.216  -0.934  1.00  0.00     0.310 C 
HETATM   39  C24 UNL     1      33.077 -34.875  -1.563  1.00  0.00     0.310 C 
ENDBRANCH  35  37
ENDBRANCH  24  26
ENDBRANCH  21  22
ENDBRANCH  20  21
ENDBRANCH  17  20
ENDBRANCH  13  14
ENDBRANCH  12  13
ENDBRANCH  11  12
ENDBRANCH  10  11
ENDBRANCH   9  10
ENDBRANCH   7   9
TORSDOF 11
ENDMDL
MODEL 5
REMARK VINA RESULT: -6.943368681      1.319      1.891
REMARK  11 active torsions:
REMARK  status: ('A' for Active; 'I' for Inactive)
REMARK       I    between atoms: N2_3  and  C2_5 
REMARK       I    between atoms: C2_5  and  N3_7 
REMARK    1  A    between atoms: N3_7  and  C3_9 
REMARK    2  A    between atoms: C3_9  and  C4_10 
REMARK    3  A    between atoms: C4_10  and  C5_11 
REMARK    4  A    between atoms: C5_11  and  C6_12 
REMARK    5  A    between atoms: C6_12  and  C7_13 
REMARK    6  A    between atoms: C7_13  and  N4_14 
REMARK    7  A    between atoms: C10_17  and  C11_18 
REMARK    8  A    between atoms: C11_18  and  C12_19 
REMARK    9  A    between atoms: C12_19  and  C13_20 
REMARK       I    between atoms: C13_20  and  N5_22 
REMARK   10  A    between atoms: N5_22  and  C14_24 
REMARK   11  A    between atoms: C22_32  and  N6_33 
ROOT
HETATM    1  C1  UNL     1      31.647 -35.175   2.123  1.00  0.00     0.258 C 
HETATM    2  N1  UNL     1      31.240 -34.251   1.578  1.00  0.00    -0.346 NA
HETATM    3  N2  UNL     1      30.768 -33.167   0.935  1.00  0.00    -0.186 N 
ATOM      4  H2  UNL     1      30.153 -33.287   0.130  1.00  0.00     0.206 HD
HETATM    5  C2  UNL     1      31.126 -31.822   1.374  1.00  0.00     0.348 C 
HETATM    6  O1  UNL     1      31.878 -31.757   2.362  1.00  0.00    -0.244 OA
HETATM    7  N3  UNL     1      30.639 -30.698   0.710  1.00  0.00    -0.321 N 
ATOM      8  H3  UNL     1      30.057 -30.922  -0.097  1.00  0.00     0.169 HD
ENDROOT
BRANCH   7   9
HETATM    9  C3  UNL     1      30.790 -29.318   0.930  1.00  0.00     0.065 C 
BRANCH   9  10
HETATM   10  C4  UNL     1      31.148 -28.441  -0.210  1.00  0.00     0.044 C 
BRANCH  10  11
HETATM   11  C5  UNL     1      32.460 -28.653  -0.805  1.00  0.00     0.007 C 
BRANCH  11  12
HETATM   12  C6  UNL     1      33.142 -27.457  -1.435  1.00  0.00     0.030 C 
BRANCH  12  13
HETATM   13  C7  UNL     1      33.374 -27.471  -2.877  1.00  0.00     0.272 C 
BRANCH  13  14
HETATM   14  N4  UNL     1      34.168 -26.467  -3.481  1.00  0.00     0.088 N 
HETATM   15  C8  UNL     1      34.515 -26.904  -4.820  1.00  0.00     0.272 C 
HETATM   16  C9  UNL     1      35.437 -28.079  -4.828  1.00  0.00     0.035 C 
HETATM   17  C10 UNL     1      36.669 -27.831  -3.966  1.00  0.00    -0.011 C 
HETATM   18  C27 UNL     1      36.653 -26.426  -3.470  1.00  0.00     0.035 C 
HETATM   19  C28 UNL     1      35.359 -26.126  -2.781  1.00  0.00     0.272 C 
BRANCH  17  20
HETATM   20  C11 UNL     1      37.922 -28.236  -4.678  1.00  0.00     0.014 C 
BRANCH  20  21
HETATM   21  C12 UNL     1      38.701 -29.281  -3.934  1.00  0.00     0.103 C 
BRANCH  21  22
HETATM   22  C13 UNL     1      37.769 -30.359  -3.468  1.00  0.00     0.218 C 
HETATM   23  O2  UNL     1      37.437 -31.242  -4.273  1.00  0.00    -0.274 OA
HETATM   24  N5  UNL     1      37.280 -30.372  -2.153  1.00  0.00    -0.352 N 
ATOM     25  H5  UNL     1      37.587 -29.620  -1.536  1.00  0.00     0.163 HD
BRANCH  24  26
HETATM   26  C14 UNL     1      36.377 -31.360  -1.590  1.00  0.00     0.035 C 
HETATM   27  C15 UNL     1      35.979 -30.873  -0.224  1.00  0.00     0.031 C 
HETATM   28  C16 UNL     1      34.662 -31.373   0.253  1.00  0.00     0.007 C 
HETATM   29  C17 UNL     1      34.358 -32.794  -0.057  1.00  0.00    -0.012 C 
HETATM   30  C18 UNL     1      33.565 -32.886  -1.362  1.00  0.00     0.009 C 
HETATM   31  C25 UNL     1      35.509 -33.731  -0.025  1.00  0.00     0.046 C 
HETATM   32  C19 UNL     1      34.498 -32.770  -2.543  1.00  0.00    -0.009 C 
HETATM   33  C20 UNL     1      35.205 -31.471  -2.528  1.00  0.00     0.035 C 
HETATM   34  C21 UNL     1      35.419 -33.960  -2.534  1.00  0.00     0.046 C 
HETATM   35  C22 UNL     1      36.272 -33.863  -1.316  1.00  0.00     0.162 C 
HETATM   36  C26 UNL     1      37.157 -32.639  -1.449  1.00  0.00     0.072 C 
BRANCH  35  37
HETATM   37  N6  UNL     1      37.131 -34.998  -1.198  1.00  0.00     0.089 N 
HETATM   38  C23 UNL     1      37.393 -35.706  -2.409  1.00  0.00     0.310 C 
HETATM   39  C24 UNL     1      38.377 -34.741  -0.512  1.00  0.00     0.310 C 
ENDBRANCH  35  37
ENDBRANCH  24  26
ENDBRANCH  21  22
ENDBRANCH  20  21
ENDBRANCH  17  20
ENDBRANCH  13  14
ENDBRANCH  12  13
ENDBRANCH  11  12
ENDBRANCH  10  11
ENDBRANCH   9  10
ENDBRANCH   7   9
TORSDOF 11
ENDMDL
