MODEL 1
REMARK VINA RESULT: -7.503647863      0.000      0.000
REMARK  10 active torsions:
REMARK  status: ('A' for Active; 'I' for Inactive)
REMARK    1  A    between atoms: C2_2  and  C3_3 
REMARK    2  A    between atoms: C3_3  and  N1_5 
REMARK    3  A    between atoms: C7_8  and  C8_9 
REMARK    4  A    between atoms: C8_9  and  C9_10 
REMARK    5  A    between atoms: C12_13  and  N2_14 
REMARK    6  A    between atoms: N2_14  and  S1_16 
REMARK    7  A    between atoms: C15_21  and  C16_22 
REMARK    8  A    between atoms: C15_21  and  C24_30 
REMARK    9  A    between atoms: C16_22  and  C17_23 
REMARK   10  A    between atoms: C17_23  and  C18_24 
REMARK       I    between atoms: C24_30  and  N3_32 
ROOT
HETATM    1  C9  UNL     1      35.113 -33.160  -0.182  1.00  0.00     0.004 C 
HETATM    2  C10 UNL     1      36.525 -33.237   0.334  1.00  0.00     0.008 C 
HETATM    3  C11 UNL     1      37.591 -32.745  -0.581  1.00  0.00     0.026 C 
HETATM    4  C12 UNL     1      37.317 -31.510  -1.355  1.00  0.00     0.094 C 
HETATM    5  C14 UNL     1      35.879 -31.140  -1.297  1.00  0.00     0.045 C 
HETATM    6  C15 UNL     1      34.953 -32.315  -1.380  1.00  0.00     0.046 C 
ENDROOT
BRANCH   6   7
HETATM    7  C16 UNL     1      33.553 -31.810  -1.645  1.00  0.00     0.020 C 
BRANCH   7   8
HETATM    8  C17 UNL     1      33.510 -30.311  -1.821  1.00  0.00     0.006 C 
BRANCH   8   9
HETATM    9  C18 UNL     1      33.162 -29.642  -0.506  1.00  0.00    -0.014 C 
HETATM   10  C19 UNL     1      33.607 -28.233  -0.377  1.00  0.00     0.004 C 
HETATM   11  C20 UNL     1      32.810 -27.259  -1.202  1.00  0.00     0.000 C 
HETATM   12  C21 UNL     1      31.391 -27.682  -1.405  1.00  0.00     0.000 C 
HETATM   13  C22 UNL     1      30.955 -28.487  -0.228  1.00  0.00     0.000 C 
HETATM   14  C23 UNL     1      31.682 -29.810  -0.199  1.00  0.00     0.004 C 
ENDBRANCH   8   9
ENDBRANCH   7   8
ENDBRANCH   6   7
BRANCH   6  15
HETATM   15  C24 UNL     1      35.326 -33.116  -2.605  1.00  0.00     0.226 C 
HETATM   16  O3  UNL     1      35.116 -34.352  -2.605  1.00  0.00    -0.273 OA
HETATM   17  N3  UNL     1      35.904 -32.457  -3.733  1.00  0.00    -0.365 N 
HETATM   18  C25 UNL     1      36.247 -33.236  -4.887  1.00  0.00     0.149 C 
ATOM     19  H3  UNL     1      36.069 -31.451  -3.718  1.00  0.00     0.161 HD
ENDBRANCH   6  15
BRANCH   1  20
HETATM   20  C8  UNL     1      34.266 -32.635   0.968  1.00  0.00     0.011 C 
BRANCH  20  21
HETATM   21  C7  UNL     1      33.348 -33.657   1.544  1.00  0.00     0.003 C 
HETATM   22  C6  UNL     1      31.980 -32.964   1.680  1.00  0.00     0.022 C 
HETATM   23  C5  UNL     1      30.887 -34.027   1.790  1.00  0.00     0.110 C 
HETATM   24  N1  UNL     1      31.531 -35.194   2.359  1.00  0.00    -0.231 NA
HETATM   25  N4  UNL     1      32.302 -35.787   1.383  1.00  0.00    -0.164 NA
HETATM   26  C26 UNL     1      33.086 -34.833   0.624  1.00  0.00     0.133 C 
BRANCH  24  27
HETATM   27  C3  UNL     1      30.631 -36.091   3.009  1.00  0.00     0.071 C 
HETATM   28  C4  UNL     1      31.081 -37.513   2.641  1.00  0.00     0.027 C 
BRANCH  27  29
HETATM   29  C2  UNL     1      30.679 -36.012   4.506  1.00  0.00     0.016 C 
HETATM   30  C1  UNL     1      31.853 -36.856   5.010  1.00  0.00     0.006 C 
ENDBRANCH  27  29
ENDBRANCH  24  27
ENDBRANCH  20  21
ENDBRANCH   1  20
BRANCH   4  31
HETATM   31  N2  UNL     1      38.055 -30.355  -0.819  1.00  0.00    -0.315 N 
ATOM     32  H2  UNL     1      38.191 -30.165   0.174  1.00  0.00     0.172 HD
BRANCH  31  33
HETATM   33  S1  UNL     1      38.664 -29.355  -2.107  1.00  0.00     0.223 S 
HETATM   34  C13 UNL     1      38.964 -30.318  -3.567  1.00  0.00     0.185 C 
HETATM   35  O1  UNL     1      37.616 -28.319  -2.490  1.00  0.00    -0.206 OA
HETATM   36  O2  UNL     1      39.867 -28.594  -1.660  1.00  0.00    -0.206 OA
ENDBRANCH  31  33
ENDBRANCH   4  31
TORSDOF 10
ENDMDL
MODEL 2
REMARK VINA RESULT: -7.348287820      1.910      2.352
REMARK  10 active torsions:
REMARK  status: ('A' for Active; 'I' for Inactive)
REMARK    1  A    between atoms: C2_2  and  C3_3 
REMARK    2  A    between atoms: C3_3  and  N1_5 
REMARK    3  A    between atoms: C7_8  and  C8_9 
REMARK    4  A    between atoms: C8_9  and  C9_10 
REMARK    5  A    between atoms: C12_13  and  N2_14 
REMARK    6  A    between atoms: N2_14  and  S1_16 
REMARK    7  A    between atoms: C15_21  and  C16_22 
REMARK    8  A    between atoms: C15_21  and  C24_30 
REMARK    9  A    between atoms: C16_22  and  C17_23 
REMARK   10  A    between atoms: C17_23  and  C18_24 
REMARK       I    between atoms: C24_30  and  N3_32 
ROOT
HETATM    1  C9  UNL     1      35.989 -32.807  -0.154  1.00  0.00     0.004 C 
HETATM    2  C10 UNL     1      36.956 -32.904   0.995  1.00  0.00     0.008 C 
HETATM    3  C11 UNL     1      38.323 -32.366   0.755  1.00  0.00     0.026 C 
HETATM    4  C12 UNL     1      38.440 -31.098  -0.004  1.00  0.00     0.094 C 
HETATM    5  C14 UNL     1      37.156 -30.735  -0.658  1.00  0.00     0.045 C 
HETATM    6  C15 UNL     1      36.426 -31.908  -1.238  1.00  0.00     0.046 C 
ENDROOT
BRANCH   6   7
HETATM    7  C16 UNL     1      35.332 -31.395  -2.147  1.00  0.00     0.020 C 
BRANCH   7   8
HETATM    8  C17 UNL     1      35.316 -29.887  -2.228  1.00  0.00     0.006 C 
BRANCH   8   9
HETATM    9  C18 UNL     1      33.942 -29.403  -2.641  1.00  0.00    -0.014 C 
HETATM   10  C19 UNL     1      32.805 -30.114  -2.007  1.00  0.00     0.004 C 
HETATM   11  C20 UNL     1      32.601 -29.777  -0.556  1.00  0.00     0.000 C 
HETATM   12  C21 UNL     1      33.026 -28.387  -0.208  1.00  0.00     0.000 C 
HETATM   13  C22 UNL     1      32.849 -27.515  -1.406  1.00  0.00     0.000 C 
HETATM   14  C23 UNL     1      33.838 -27.894  -2.481  1.00  0.00     0.004 C 
ENDBRANCH   8   9
ENDBRANCH   7   8
ENDBRANCH   6   7
BRANCH   6  15
HETATM   15  C24 UNL     1      37.382 -32.650  -2.143  1.00  0.00     0.226 C 
HETATM   16  O3  UNL     1      38.166 -31.989  -2.863  1.00  0.00    -0.273 OA
HETATM   17  N3  UNL     1      37.376 -34.078  -2.159  1.00  0.00    -0.365 N 
HETATM   18  C25 UNL     1      38.293 -34.763  -3.023  1.00  0.00     0.149 C 
ATOM     19  H3  UNL     1      36.731 -34.602  -1.568  1.00  0.00     0.161 HD
ENDBRANCH   6  15
BRANCH   1  20
HETATM   20  C8  UNL     1      34.667 -32.338   0.438  1.00  0.00     0.011 C 
BRANCH  20  21
HETATM   21  C7  UNL     1      33.766 -33.455   0.836  1.00  0.00     0.003 C 
HETATM   22  C6  UNL     1      32.814 -32.870   1.895  1.00  0.00     0.022 C 
HETATM   23  C5  UNL     1      31.576 -33.761   2.004  1.00  0.00     0.110 C 
HETATM   24  N1  UNL     1      32.007 -35.083   1.600  1.00  0.00    -0.231 NA
HETATM   25  N4  UNL     1      32.154 -35.096   0.230  1.00  0.00    -0.164 NA
HETATM   26  C26 UNL     1      32.850 -33.929  -0.275  1.00  0.00     0.133 C 
BRANCH  24  27
HETATM   27  C3  UNL     1      31.186 -36.137   2.103  1.00  0.00     0.071 C 
HETATM   28  C4  UNL     1      32.133 -37.238   2.601  1.00  0.00     0.027 C 
BRANCH  27  29
HETATM   29  C2  UNL     1      30.351 -35.739   3.284  1.00  0.00     0.016 C 
HETATM   30  C1  UNL     1      31.032 -36.234   4.562  1.00  0.00     0.006 C 
ENDBRANCH  27  29
ENDBRANCH  24  27
ENDBRANCH  20  21
ENDBRANCH   1  20
BRANCH   4  31
HETATM   31  N2  UNL     1      38.782 -29.966   0.874  1.00  0.00    -0.315 N 
ATOM     32  H2  UNL     1      38.100 -29.353   1.320  1.00  0.00     0.172 HD
BRANCH  31  33
HETATM   33  S1  UNL     1      40.507 -29.813   1.047  1.00  0.00     0.223 S 
HETATM   34  C13 UNL     1      41.347 -30.519  -0.348  1.00  0.00     0.185 C 
HETATM   35  O1  UNL     1      40.890 -28.340   1.072  1.00  0.00    -0.206 OA
HETATM   36  O2  UNL     1      40.961 -30.390   2.346  1.00  0.00    -0.206 OA
ENDBRANCH  31  33
ENDBRANCH   4  31
TORSDOF 10
ENDMDL
MODEL 3
REMARK VINA RESULT: -7.311764577      2.297      2.954
REMARK  10 active torsions:
REMARK  status: ('A' for Active; 'I' for Inactive)
REMARK    1  A    between atoms: C2_2  and  C3_3 
REMARK    2  A    between atoms: C3_3  and  N1_5 
REMARK    3  A    between atoms: C7_8  and  C8_9 
REMARK    4  A    between atoms: C8_9  and  C9_10 
REMARK    5  A    between atoms: C12_13  and  N2_14 
REMARK    6  A    between atoms: N2_14  and  S1_16 
REMARK    7  A    between atoms: C15_21  and  C16_22 
REMARK    8  A    between atoms: C15_21  and  C24_30 
REMARK    9  A    between atoms: C16_22  and  C17_23 
REMARK   10  A    between atoms: C17_23  and  C18_24 
REMARK       I    between atoms: C24_30  and  N3_32 
ROOT
HETATM    1  C9  UNL     1      35.006 -31.508  -0.769  1.00  0.00     0.004 C 
HETATM    2  C10 UNL     1      36.023 -31.998   0.226  1.00  0.00     0.008 C 
HETATM    3  C11 UNL     1      37.422 -31.530   0.026  1.00  0.00     0.026 C 
HETATM    4  C12 UNL     1      37.624 -30.116  -0.370  1.00  0.00     0.094 C 
HETATM    5  C14 UNL     1      36.348 -29.481  -0.791  1.00  0.00     0.045 C 
HETATM    6  C15 UNL     1      35.469 -30.384  -1.602  1.00  0.00     0.046 C 
ENDROOT
BRANCH   6   7
HETATM    7  C16 UNL     1      34.382 -29.551  -2.244  1.00  0.00     0.020 C 
BRANCH   7   8
HETATM    8  C17 UNL     1      34.357 -28.137  -1.714  1.00  0.00     0.006 C 
BRANCH   8   9
HETATM    9  C18 UNL     1      33.921 -27.180  -2.804  1.00  0.00    -0.014 C 
HETATM   10  C19 UNL     1      34.628 -25.876  -2.819  1.00  0.00     0.004 C 
HETATM   11  C20 UNL     1      36.048 -25.951  -3.310  1.00  0.00     0.000 C 
HETATM   12  C21 UNL     1      36.269 -27.043  -4.306  1.00  0.00     0.000 C 
HETATM   13  C22 UNL     1      35.005 -27.269  -5.063  1.00  0.00     0.000 C 
HETATM   14  C23 UNL     1      33.953 -27.868  -4.160  1.00  0.00     0.004 C 
ENDBRANCH   8   9
ENDBRANCH   7   8
ENDBRANCH   6   7
BRANCH   6  15
HETATM   15  C24 UNL     1      36.288 -30.922  -2.751  1.00  0.00     0.226 C 
HETATM   16  O3  UNL     1      37.156 -30.182  -3.272  1.00  0.00    -0.273 OA
HETATM   17  N3  UNL     1      36.065 -32.254  -3.217  1.00  0.00    -0.365 N 
HETATM   18  C25 UNL     1      36.856 -32.747  -4.306  1.00  0.00     0.149 C 
ATOM     19  H3  UNL     1      35.355 -32.844  -2.783  1.00  0.00     0.161 HD
ENDBRANCH   6  15
BRANCH   1  20
HETATM   20  C8  UNL     1      33.776 -31.114   0.038  1.00  0.00     0.011 C 
BRANCH  20  21
HETATM   21  C7  UNL     1      33.082 -32.273   0.666  1.00  0.00     0.003 C 
HETATM   22  C6  UNL     1      31.742 -31.726   1.191  1.00  0.00     0.022 C 
HETATM   23  C5  UNL     1      30.774 -32.890   1.403  1.00  0.00     0.110 C 
HETATM   24  N1  UNL     1      31.604 -34.049   1.660  1.00  0.00    -0.231 NA
HETATM   25  N4  UNL     1      32.165 -34.458   0.469  1.00  0.00    -0.164 NA
HETATM   26  C26 UNL     1      32.690 -33.358  -0.316  1.00  0.00     0.133 C 
BRANCH  24  27
HETATM   27  C3  UNL     1      30.938 -35.091   2.373  1.00  0.00     0.071 C 
HETATM   28  C4  UNL     1      30.412 -36.080   1.322  1.00  0.00     0.027 C 
BRANCH  27  29
HETATM   29  C2  UNL     1      31.844 -35.880   3.271  1.00  0.00     0.016 C 
HETATM   30  C1  UNL     1      31.073 -36.268   4.536  1.00  0.00     0.006 C 
ENDBRANCH  27  29
ENDBRANCH  24  27
ENDBRANCH  20  21
ENDBRANCH   1  20
BRANCH   4  31
HETATM   31  N2  UNL     1      38.131 -29.303   0.749  1.00  0.00    -0.315 N 
ATOM     32  H2  UNL     1      37.544 -28.878   1.467  1.00  0.00     0.172 HD
BRANCH  31  33
HETATM   33  S1  UNL     1      39.864 -29.164   0.680  1.00  0.00     0.223 S 
HETATM   34  C13 UNL     1      40.351 -27.494   0.329  1.00  0.00     0.185 C 
HETATM   35  O1  UNL     1      40.458 -29.502   2.041  1.00  0.00    -0.206 OA
HETATM   36  O2  UNL     1      40.435 -30.147  -0.286  1.00  0.00    -0.206 OA
ENDBRANCH  31  33
ENDBRANCH   4  31
TORSDOF 10
ENDMDL
MODEL 4
REMARK VINA RESULT: -7.302487572      0.934      1.396
REMARK  10 active torsions:
REMARK  status: ('A' for Active; 'I' for Inactive)
REMARK    1  A    between atoms: C2_2  and  C3_3 
REMARK    2  A    between atoms: C3_3  and  N1_5 
REMARK    3  A    between atoms: C7_8  and  C8_9 
REMARK    4  A    between atoms: C8_9  and  C9_10 
REMARK    5  A    between atoms: C12_13  and  N2_14 
REMARK    6  A    between atoms: N2_14  and  S1_16 
REMARK    7  A    between atoms: C15_21  and  C16_22 
REMARK    8  A    between atoms: C15_21  and  C24_30 
REMARK    9  A    between atoms: C16_22  and  C17_23 
REMARK   10  A    between atoms: C17_23  and  C18_24 
REMARK       I    between atoms: C24_30  and  N3_32 
ROOT
HETATM    1  C9  UNL     1      35.255 -33.466  -0.093  1.00  0.00     0.004 C 
HETATM    2  C10 UNL     1      36.651 -33.561   0.461  1.00  0.00     0.008 C 
HETATM    3  C11 UNL     1      37.752 -33.140  -0.448  1.00  0.00     0.026 C 
HETATM    4  C12 UNL     1      37.533 -31.934  -1.282  1.00  0.00     0.094 C 
HETATM    5  C14 UNL     1      36.106 -31.520  -1.275  1.00  0.00     0.045 C 
HETATM    6  C15 UNL     1      35.148 -32.670  -1.329  1.00  0.00     0.046 C 
ENDROOT
BRANCH   6   7
HETATM    7  C16 UNL     1      33.770 -32.137  -1.650  1.00  0.00     0.020 C 
BRANCH   7   8
HETATM    8  C17 UNL     1      33.824 -30.819  -2.385  1.00  0.00     0.006 C 
BRANCH   8   9
HETATM    9  C18 UNL     1      32.752 -29.886  -1.860  1.00  0.00    -0.014 C 
HETATM   10  C19 UNL     1      32.446 -30.025  -0.414  1.00  0.00     0.004 C 
HETATM   11  C20 UNL     1      33.513 -29.479   0.494  1.00  0.00     0.000 C 
HETATM   12  C21 UNL     1      34.266 -28.335  -0.103  1.00  0.00     0.000 C 
HETATM   13  C22 UNL     1      33.366 -27.600  -1.037  1.00  0.00     0.000 C 
HETATM   14  C23 UNL     1      33.060 -28.448  -2.248  1.00  0.00     0.004 C 
ENDBRANCH   8   9
ENDBRANCH   7   8
ENDBRANCH   6   7
BRANCH   6  15
HETATM   15  C24 UNL     1      35.525 -33.535  -2.509  1.00  0.00     0.226 C 
HETATM   16  O3  UNL     1      35.253 -34.759  -2.471  1.00  0.00    -0.273 OA
HETATM   17  N3  UNL     1      36.176 -32.949  -3.637  1.00  0.00    -0.365 N 
HETATM   18  C25 UNL     1      36.522 -33.788  -4.748  1.00  0.00     0.149 C 
ATOM     19  H3  UNL     1      36.390 -31.952  -3.653  1.00  0.00     0.161 HD
ENDBRANCH   6  15
BRANCH   1  20
HETATM   20  C8  UNL     1      34.397 -32.865   1.013  1.00  0.00     0.011 C 
BRANCH  20  21
HETATM   21  C7  UNL     1      33.410 -33.823   1.584  1.00  0.00     0.003 C 
HETATM   22  C6  UNL     1      32.093 -33.038   1.718  1.00  0.00     0.022 C 
HETATM   23  C5  UNL     1      30.929 -34.024   1.823  1.00  0.00     0.110 C 
HETATM   24  N1  UNL     1      31.489 -35.233   2.391  1.00  0.00    -0.231 NA
HETATM   25  N4  UNL     1      32.221 -35.876   1.415  1.00  0.00    -0.164 NA
HETATM   26  C26 UNL     1      33.070 -34.976   0.660  1.00  0.00     0.133 C 
BRANCH  24  27
HETATM   27  C3  UNL     1      30.528 -36.069   3.036  1.00  0.00     0.071 C 
HETATM   28  C4  UNL     1      30.860 -37.514   2.640  1.00  0.00     0.027 C 
BRANCH  27  29
HETATM   29  C2  UNL     1      30.597 -36.019   4.534  1.00  0.00     0.016 C 
HETATM   30  C1  UNL     1      31.845 -36.775   4.998  1.00  0.00     0.006 C 
ENDBRANCH  27  29
ENDBRANCH  24  27
ENDBRANCH  20  21
ENDBRANCH   1  20
BRANCH   4  31
HETATM   31  N2  UNL     1      38.293 -30.777  -0.779  1.00  0.00    -0.315 N 
ATOM     32  H2  UNL     1      38.486 -30.596   0.206  1.00  0.00     0.172 HD
BRANCH  31  33
HETATM   33  S1  UNL     1      38.818 -29.761  -2.091  1.00  0.00     0.223 S 
HETATM   34  C13 UNL     1      37.711 -28.392  -2.311  1.00  0.00     0.185 C 
HETATM   35  O1  UNL     1      40.177 -29.158  -1.758  1.00  0.00    -0.206 OA
HETATM   36  O2  UNL     1      39.004 -30.560  -3.337  1.00  0.00    -0.206 OA
ENDBRANCH  31  33
ENDBRANCH   4  31
TORSDOF 10
ENDMDL
MODEL 5
REMARK VINA RESULT: -7.297728835      3.636      7.855
REMARK  10 active torsions:
REMARK  status: ('A' for Active; 'I' for Inactive)
REMARK    1  A    between atoms: C2_2  and  C3_3 
REMARK    2  A    between atoms: C3_3  and  N1_5 
REMARK    3  A    between atoms: C7_8  and  C8_9 
REMARK    4  A    between atoms: C8_9  and  C9_10 
REMARK    5  A    between atoms: C12_13  and  N2_14 
REMARK    6  A    between atoms: N2_14  and  S1_16 
REMARK    7  A    between atoms: C15_21  and  C16_22 
REMARK    8  A    between atoms: C15_21  and  C24_30 
REMARK    9  A    between atoms: C16_22  and  C17_23 
REMARK   10  A    between atoms: C17_23  and  C18_24 
REMARK       I    between atoms: C24_30  and  N3_32 
ROOT
HETATM    1  C9  UNL     1      32.232 -32.395   0.542  1.00  0.00     0.004 C 
HETATM    2  C10 UNL     1      30.846 -32.778   0.985  1.00  0.00     0.008 C 
HETATM    3  C11 UNL     1      30.662 -34.185   1.436  1.00  0.00     0.026 C 
HETATM    4  C12 UNL     1      31.732 -34.785   2.271  1.00  0.00     0.094 C 
HETATM    5  C14 UNL     1      32.961 -33.951   2.262  1.00  0.00     0.045 C 
HETATM    6  C15 UNL     1      33.278 -33.363   0.920  1.00  0.00     0.046 C 
ENDROOT
BRANCH   6   7
HETATM    7  C16 UNL     1      34.691 -32.827   0.949  1.00  0.00     0.020 C 
BRANCH   7   8
HETATM    8  C17 UNL     1      35.643 -33.682   0.147  1.00  0.00     0.006 C 
BRANCH   8   9
HETATM    9  C18 UNL     1      36.589 -32.803  -0.646  1.00  0.00    -0.014 C 
HETATM   10  C19 UNL     1      36.783 -33.201  -2.062  1.00  0.00     0.004 C 
HETATM   11  C20 UNL     1      35.603 -32.911  -2.949  1.00  0.00     0.000 C 
HETATM   12  C21 UNL     1      34.812 -31.722  -2.507  1.00  0.00     0.000 C 
HETATM   13  C22 UNL     1      35.725 -30.764  -1.820  1.00  0.00     0.000 C 
HETATM   14  C23 UNL     1      36.199 -31.340  -0.507  1.00  0.00     0.004 C 
ENDBRANCH   8   9
ENDBRANCH   7   8
ENDBRANCH   6   7
BRANCH   6  15
HETATM   15  C24 UNL     1      33.299 -34.489  -0.087  1.00  0.00     0.226 C 
HETATM   16  O3  UNL     1      33.857 -35.567   0.225  1.00  0.00    -0.273 OA
HETATM   17  N3  UNL     1      32.686 -34.307  -1.365  1.00  0.00    -0.365 N 
HETATM   18  C25 UNL     1      32.714 -35.390  -2.304  1.00  0.00     0.149 C 
ATOM     19  H3  UNL     1      32.235 -33.424  -1.603  1.00  0.00     0.161 HD
ENDBRANCH   6  15
BRANCH   1  20
HETATM   20  C8  UNL     1      32.513 -31.029   1.153  1.00  0.00     0.011 C 
BRANCH  20  21
HETATM   21  C7  UNL     1      32.876 -29.992   0.147  1.00  0.00     0.003 C 
HETATM   22  C6  UNL     1      31.543 -29.398  -0.343  1.00  0.00     0.022 C 
HETATM   23  C5  UNL     1      31.806 -28.036  -0.985  1.00  0.00     0.110 C 
HETATM   24  N1  UNL     1      33.170 -28.088  -1.470  1.00  0.00    -0.231 NA
HETATM   25  N4  UNL     1      34.023 -27.979  -0.392  1.00  0.00    -0.164 NA
HETATM   26  C26 UNL     1      33.626 -28.810   0.728  1.00  0.00     0.133 C 
BRANCH  24  27
HETATM   27  C3  UNL     1      33.447 -27.161  -2.520  1.00  0.00     0.071 C 
HETATM   28  C4  UNL     1      34.855 -26.606  -2.263  1.00  0.00     0.027 C 
BRANCH  27  29
HETATM   29  C2  UNL     1      33.488 -27.789  -3.882  1.00  0.00     0.016 C 
HETATM   30  C1  UNL     1      34.507 -27.039  -4.743  1.00  0.00     0.006 C 
ENDBRANCH  27  29
ENDBRANCH  24  27
ENDBRANCH  20  21
ENDBRANCH   1  20
BRANCH   4  31
HETATM   31  N2  UNL     1      31.326 -34.895   3.682  1.00  0.00    -0.315 N 
ATOM     32  H2  UNL     1      31.149 -34.100   4.296  1.00  0.00     0.172 HD
BRANCH  31  33
HETATM   33  S1  UNL     1      31.190 -36.562   4.162  1.00  0.00     0.223 S 
HETATM   34  C13 UNL     1      31.895 -37.632   2.934  1.00  0.00     0.185 C 
HETATM   35  O1  UNL     1      31.989 -36.794   5.437  1.00  0.00    -0.206 OA
HETATM   36  O2  UNL     1      29.774 -36.905   4.482  1.00  0.00    -0.206 OA
ENDBRANCH  31  33
ENDBRANCH   4  31
TORSDOF 10
ENDMDL
