MODEL 1
REMARK VINA RESULT: -6.929513007      0.000      0.000
REMARK  10 active torsions:
REMARK  status: ('A' for Active; 'I' for Inactive)
REMARK    1  A    between atoms: C2_2  and  C4_4 
REMARK    2  A    between atoms: C4_4  and  N1_5 
REMARK    3  A    between atoms: C4_4  and  C13_16 
REMARK       I    between atoms: N1_5  and  C5_6 
REMARK       I    between atoms: C5_6  and  N2_8 
REMARK    4  A    between atoms: N2_8  and  C7_10 
REMARK       I    between atoms: C13_16  and  N3_18 
REMARK    5  A    between atoms: N3_18  and  C14_19 
REMARK    6  A    between atoms: C14_19  and  C15_20 
REMARK       I    between atoms: C15_20  and  N4_22 
REMARK    7  A    between atoms: N4_22  and  C16_23 
REMARK    8  A    between atoms: N4_22  and  C24_33 
REMARK    9  A    between atoms: C16_23  and  C17_24 
REMARK   10  A    between atoms: C16_23  and  C18_27 
ROOT
HETATM    1  C13 UNL     1      36.452 -29.186  -4.300  1.00  0.00     0.352 C 
HETATM    2  O2  UNL     1      36.366 -28.805  -5.438  1.00  0.00    -0.248 OA
HETATM    3  N3  UNL     1      37.041 -30.393  -3.819  1.00  0.00    -0.372 NA
ENDROOT
BRANCH   3   4
HETATM    4  C14 UNL     1      37.646 -31.588  -3.647  1.00  0.00     0.260 C 
BRANCH   4   5
HETATM    5  C15 UNL     1      37.433 -32.262  -2.292  1.00  0.00     0.273 C 
HETATM    6  O3  UNL     1      37.441 -31.417  -1.369  1.00  0.00    -0.266 OA
HETATM    7  N4  UNL     1      37.240 -33.611  -2.099  1.00  0.00    -0.325 N 
BRANCH   7   8
HETATM    8  C16 UNL     1      36.673 -34.116  -0.832  1.00  0.00     0.181 C 
BRANCH   8   9
HETATM    9  C17 UNL     1      37.567 -33.805   0.334  1.00  0.00     0.254 C 
HETATM   10  N5  UNL     1      38.733 -34.649   0.522  1.00  0.00    -0.060 NA
HETATM   11  O4  UNL     1      37.415 -32.903   1.148  1.00  0.00    -0.275 OA
ENDBRANCH   8   9
BRANCH   8  12
HETATM   12  C18 UNL     1      35.319 -33.526  -0.625  1.00  0.00     0.017 C 
HETATM   13  C19 UNL     1      34.582 -34.040   0.546  1.00  0.00     0.007 C 
HETATM   14  C20 UNL     1      33.714 -35.257   0.161  1.00  0.00     0.000 C 
HETATM   15  C21 UNL     1      32.566 -34.720  -0.657  1.00  0.00     0.000 C 
HETATM   16  C22 UNL     1      33.052 -33.698  -1.627  1.00  0.00     0.000 C 
HETATM   17  C23 UNL     1      34.495 -33.719  -1.902  1.00  0.00     0.007 C 
ENDBRANCH   8  12
ENDBRANCH   7   8
BRANCH   7  18
HETATM   18  C24 UNL     1      37.684 -34.644  -3.031  1.00  0.00     0.025 C 
HETATM   19  C25 UNL     1      37.436 -36.058  -2.518  1.00  0.00     0.037 C 
HETATM   20  C26 UNL     1      39.230 -34.583  -3.083  1.00  0.00     0.037 C 
HETATM   21  C27 UNL     1      37.149 -34.577  -4.406  1.00  0.00     0.037 C 
ENDBRANCH   7  18
ENDBRANCH   4   5
ENDBRANCH   3   4
BRANCH   1  22
HETATM   22  C4  UNL     1      35.873 -28.312  -3.174  1.00  0.00     0.175 C 
BRANCH  22  23
HETATM   23  C2  UNL     1      35.736 -26.916  -3.616  1.00  0.00     0.049 C 
HETATM   24  C1  UNL     1      34.602 -26.106  -3.145  1.00  0.00     0.017 C 
HETATM   25  C3  UNL     1      37.041 -26.150  -3.298  1.00  0.00     0.017 C 
ENDBRANCH  22  23
BRANCH  22  26
HETATM   26  N1  UNL     1      34.881 -28.949  -2.495  1.00  0.00    -0.349 NA
HETATM   27  C5  UNL     1      33.879 -29.606  -1.863  1.00  0.00     0.396 C 
HETATM   28  O1  UNL     1      33.019 -30.372  -2.440  1.00  0.00    -0.230 OA
HETATM   29  N2  UNL     1      33.620 -29.540  -0.463  1.00  0.00    -0.322 N 
HETATM   30  C6  UNL     1      34.492 -28.763   0.382  1.00  0.00     0.156 C 
BRANCH  29  31
HETATM   31  C7  UNL     1      32.505 -30.161   0.205  1.00  0.00     0.089 C 
HETATM   32  C8  UNL     1      31.324 -29.325   0.490  1.00  0.00     0.025 C 
HETATM   33  C9  UNL     1      30.220 -30.271   0.991  1.00  0.00     0.002 C 
HETATM   34  C10 UNL     1      30.631 -31.703   0.985  1.00  0.00     0.000 C 
HETATM   35  C11 UNL     1      31.922 -32.004   1.672  1.00  0.00     0.002 C 
HETATM   36  C12 UNL     1      32.900 -30.846   1.504  1.00  0.00     0.025 C 
ENDBRANCH  29  31
ENDBRANCH  22  26
ENDBRANCH   1  22
TORSDOF 10
ENDMDL
MODEL 2
REMARK VINA RESULT: -6.634177353      2.521      5.426
REMARK  10 active torsions:
REMARK  status: ('A' for Active; 'I' for Inactive)
REMARK    1  A    between atoms: C2_2  and  C4_4 
REMARK    2  A    between atoms: C4_4  and  N1_5 
REMARK    3  A    between atoms: C4_4  and  C13_16 
REMARK       I    between atoms: N1_5  and  C5_6 
REMARK       I    between atoms: C5_6  and  N2_8 
REMARK    4  A    between atoms: N2_8  and  C7_10 
REMARK       I    between atoms: C13_16  and  N3_18 
REMARK    5  A    between atoms: N3_18  and  C14_19 
REMARK    6  A    between atoms: C14_19  and  C15_20 
REMARK       I    between atoms: C15_20  and  N4_22 
REMARK    7  A    between atoms: N4_22  and  C16_23 
REMARK    8  A    between atoms: N4_22  and  C24_33 
REMARK    9  A    between atoms: C16_23  and  C17_24 
REMARK   10  A    between atoms: C16_23  and  C18_27 
ROOT
HETATM    1  C13 UNL     1      38.714 -32.316   1.049  1.00  0.00     0.352 C 
HETATM    2  O2  UNL     1      39.286 -32.878   1.946  1.00  0.00    -0.248 OA
HETATM    3  N3  UNL     1      37.628 -32.799   0.260  1.00  0.00    -0.372 NA
ENDROOT
BRANCH   3   4
HETATM    4  C14 UNL     1      36.632 -33.497  -0.328  1.00  0.00     0.260 C 
BRANCH   4   5
HETATM    5  C15 UNL     1      35.240 -33.325   0.277  1.00  0.00     0.273 C 
HETATM    6  O3  UNL     1      35.310 -32.802   1.411  1.00  0.00    -0.266 OA
HETATM    7  N4  UNL     1      34.059 -33.676  -0.338  1.00  0.00    -0.325 N 
BRANCH   7   8
HETATM    8  C16 UNL     1      32.772 -33.135   0.143  1.00  0.00     0.181 C 
BRANCH   8   9
HETATM    9  C17 UNL     1      32.214 -33.958   1.269  1.00  0.00     0.254 C 
HETATM   10  N5  UNL     1      30.807 -34.308   1.204  1.00  0.00    -0.060 NA
HETATM   11  O4  UNL     1      32.830 -34.372   2.243  1.00  0.00    -0.275 OA
ENDBRANCH   8   9
BRANCH   8  12
HETATM   12  C18 UNL     1      32.957 -31.720   0.571  1.00  0.00     0.017 C 
HETATM   13  C19 UNL     1      32.032 -31.254   1.624  1.00  0.00     0.007 C 
HETATM   14  C20 UNL     1      30.761 -30.634   1.006  1.00  0.00     0.000 C 
HETATM   15  C21 UNL     1      31.177 -29.308   0.417  1.00  0.00     0.000 C 
HETATM   16  C22 UNL     1      32.477 -29.443  -0.300  1.00  0.00     0.000 C 
HETATM   17  C23 UNL     1      32.865 -30.813  -0.660  1.00  0.00     0.007 C 
ENDBRANCH   8  12
ENDBRANCH   7   8
BRANCH   7  18
HETATM   18  C24 UNL     1      33.952 -34.680  -1.392  1.00  0.00     0.025 C 
HETATM   19  C25 UNL     1      34.591 -36.012  -1.017  1.00  0.00     0.037 C 
HETATM   20  C26 UNL     1      34.844 -34.211  -2.568  1.00  0.00     0.037 C 
HETATM   21  C27 UNL     1      32.596 -34.974  -1.900  1.00  0.00     0.037 C 
ENDBRANCH   7  18
ENDBRANCH   4   5
ENDBRANCH   3   4
BRANCH   1  22
HETATM   22  C4  UNL     1      39.160 -30.899   0.651  1.00  0.00     0.175 C 
BRANCH  22  23
HETATM   23  C2  UNL     1      40.503 -30.924   0.054  1.00  0.00     0.049 C 
HETATM   24  C1  UNL     1      40.707 -31.546  -1.264  1.00  0.00     0.017 C 
HETATM   25  C3  UNL     1      41.064 -29.484   0.000  1.00  0.00     0.017 C 
ENDBRANCH  22  23
BRANCH  22  26
HETATM   26  N1  UNL     1      38.143 -30.183   0.099  1.00  0.00    -0.349 NA
HETATM   27  C5  UNL     1      37.105 -29.475  -0.408  1.00  0.00     0.396 C 
HETATM   28  O1  UNL     1      36.001 -29.237   0.213  1.00  0.00    -0.230 OA
HETATM   29  N2  UNL     1      37.076 -28.892  -1.708  1.00  0.00    -0.322 N 
HETATM   30  C6  UNL     1      38.233 -29.006  -2.561  1.00  0.00     0.156 C 
BRANCH  29  31
HETATM   31  C7  UNL     1      35.945 -28.215  -2.289  1.00  0.00     0.089 C 
HETATM   32  C8  UNL     1      35.035 -29.006  -3.140  1.00  0.00     0.025 C 
HETATM   33  C9  UNL     1      33.818 -28.114  -3.438  1.00  0.00     0.002 C 
HETATM   34  C10 UNL     1      33.884 -26.790  -2.758  1.00  0.00     0.000 C 
HETATM   35  C11 UNL     1      35.150 -26.024  -2.964  1.00  0.00     0.002 C 
HETATM   36  C12 UNL     1      36.337 -26.974  -3.075  1.00  0.00     0.025 C 
ENDBRANCH  29  31
ENDBRANCH  22  26
ENDBRANCH   1  22
TORSDOF 10
ENDMDL
MODEL 3
REMARK VINA RESULT: -6.627371118      1.223      1.555
REMARK  10 active torsions:
REMARK  status: ('A' for Active; 'I' for Inactive)
REMARK    1  A    between atoms: C2_2  and  C4_4 
REMARK    2  A    between atoms: C4_4  and  N1_5 
REMARK    3  A    between atoms: C4_4  and  C13_16 
REMARK       I    between atoms: N1_5  and  C5_6 
REMARK       I    between atoms: C5_6  and  N2_8 
REMARK    4  A    between atoms: N2_8  and  C7_10 
REMARK       I    between atoms: C13_16  and  N3_18 
REMARK    5  A    between atoms: N3_18  and  C14_19 
REMARK    6  A    between atoms: C14_19  and  C15_20 
REMARK       I    between atoms: C15_20  and  N4_22 
REMARK    7  A    between atoms: N4_22  and  C16_23 
REMARK    8  A    between atoms: N4_22  and  C24_33 
REMARK    9  A    between atoms: C16_23  and  C17_24 
REMARK   10  A    between atoms: C16_23  and  C18_27 
ROOT
HETATM    1  C13 UNL     1      36.821 -29.745  -5.376  1.00  0.00     0.352 C 
HETATM    2  O2  UNL     1      36.860 -29.654  -6.575  1.00  0.00    -0.248 OA
HETATM    3  N3  UNL     1      37.097 -30.891  -4.572  1.00  0.00    -0.372 NA
ENDROOT
BRANCH   3   4
HETATM    4  C14 UNL     1      37.399 -32.107  -4.067  1.00  0.00     0.260 C 
BRANCH   4   5
HETATM    5  C15 UNL     1      37.229 -32.272  -2.558  1.00  0.00     0.273 C 
HETATM    6  O3  UNL     1      37.257 -31.160  -1.983  1.00  0.00    -0.266 OA
HETATM    7  N4  UNL     1      37.050 -33.471  -1.906  1.00  0.00    -0.325 N 
BRANCH   7   8
HETATM    8  C16 UNL     1      36.522 -33.506  -0.527  1.00  0.00     0.181 C 
BRANCH   8   9
HETATM    9  C17 UNL     1      37.497 -32.916   0.451  1.00  0.00     0.254 C 
HETATM   10  N5  UNL     1      38.429 -33.826   1.093  1.00  0.00    -0.060 NA
HETATM   11  O4  UNL     1      37.592 -31.736   0.764  1.00  0.00    -0.275 OA
ENDBRANCH   8   9
BRANCH   8  12
HETATM   12  C18 UNL     1      35.223 -32.778  -0.475  1.00  0.00     0.017 C 
HETATM   13  C19 UNL     1      34.679 -32.558   0.880  1.00  0.00     0.007 C 
HETATM   14  C20 UNL     1      33.753 -33.721   1.297  1.00  0.00     0.000 C 
HETATM   15  C21 UNL     1      32.492 -33.575   0.481  1.00  0.00     0.000 C 
HETATM   16  C22 UNL     1      32.824 -33.235  -0.932  1.00  0.00     0.000 C 
HETATM   17  C23 UNL     1      34.204 -33.519  -1.347  1.00  0.00     0.007 C 
ENDBRANCH   8  12
ENDBRANCH   7   8
BRANCH   7  18
HETATM   18  C24 UNL     1      37.475 -34.763  -2.438  1.00  0.00     0.025 C 
HETATM   19  C25 UNL     1      37.129 -35.930  -1.520  1.00  0.00     0.037 C 
HETATM   20  C26 UNL     1      39.023 -34.782  -2.419  1.00  0.00     0.037 C 
HETATM   21  C27 UNL     1      37.002 -35.117  -3.791  1.00  0.00     0.037 C 
ENDBRANCH   7  18
ENDBRANCH   4   5
ENDBRANCH   3   4
BRANCH   1  22
HETATM   22  C4  UNL     1      36.431 -28.510  -4.545  1.00  0.00     0.175 C 
BRANCH  22  23
HETATM   23  C2  UNL     1      36.353 -27.314  -5.397  1.00  0.00     0.049 C 
HETATM   24  C1  UNL     1      35.047 -26.854  -5.895  1.00  0.00     0.017 C 
HETATM   25  C3  UNL     1      37.038 -26.130  -4.676  1.00  0.00     0.017 C 
ENDBRANCH  22  23
BRANCH  22  26
HETATM   26  N1  UNL     1      35.471 -28.799  -3.626  1.00  0.00    -0.349 NA
HETATM   27  C5  UNL     1      34.524 -29.137  -2.717  1.00  0.00     0.396 C 
HETATM   28  O1  UNL     1      34.167 -30.342  -2.436  1.00  0.00    -0.230 OA
HETATM   29  N2  UNL     1      33.772 -28.207  -1.942  1.00  0.00    -0.322 N 
HETATM   30  C6  UNL     1      34.041 -26.796  -2.074  1.00  0.00     0.156 C 
BRANCH  29  31
HETATM   31  C7  UNL     1      32.702 -28.550  -1.041  1.00  0.00     0.089 C 
HETATM   32  C8  UNL     1      31.557 -27.625  -0.954  1.00  0.00     0.025 C 
HETATM   33  C9  UNL     1      30.480 -28.329  -0.110  1.00  0.00     0.002 C 
HETATM   34  C10 UNL     1      30.871 -29.706   0.303  1.00  0.00     0.000 C 
HETATM   35  C11 UNL     1      32.205 -29.825   0.963  1.00  0.00     0.002 C 
HETATM   36  C12 UNL     1      33.183 -28.812   0.377  1.00  0.00     0.025 C 
ENDBRANCH  29  31
ENDBRANCH  22  26
ENDBRANCH   1  22
TORSDOF 10
ENDMDL
MODEL 4
REMARK VINA RESULT: -6.572429833      1.988      6.040
REMARK  10 active torsions:
REMARK  status: ('A' for Active; 'I' for Inactive)
REMARK    1  A    between atoms: C2_2  and  C4_4 
REMARK    2  A    between atoms: C4_4  and  N1_5 
REMARK    3  A    between atoms: C4_4  and  C13_16 
REMARK       I    between atoms: N1_5  and  C5_6 
REMARK       I    between atoms: C5_6  and  N2_8 
REMARK    4  A    between atoms: N2_8  and  C7_10 
REMARK       I    between atoms: C13_16  and  N3_18 
REMARK    5  A    between atoms: N3_18  and  C14_19 
REMARK    6  A    between atoms: C14_19  and  C15_20 
REMARK       I    between atoms: C15_20  and  N4_22 
REMARK    7  A    between atoms: N4_22  and  C16_23 
REMARK    8  A    between atoms: N4_22  and  C24_33 
REMARK    9  A    between atoms: C16_23  and  C17_24 
REMARK   10  A    between atoms: C16_23  and  C18_27 
ROOT
HETATM    1  C13 UNL     1      36.367 -34.100  -3.453  1.00  0.00     0.352 C 
HETATM    2  O2  UNL     1      36.397 -34.736  -4.474  1.00  0.00    -0.248 OA
HETATM    3  N3  UNL     1      37.070 -32.897  -3.147  1.00  0.00    -0.372 NA
ENDROOT
BRANCH   3   4
HETATM    4  C14 UNL     1      37.848 -31.792  -3.123  1.00  0.00     0.260 C 
BRANCH   4   5
HETATM    5  C15 UNL     1      37.371 -30.613  -3.970  1.00  0.00     0.273 C 
HETATM    6  O3  UNL     1      36.771 -31.015  -4.993  1.00  0.00    -0.266 OA
HETATM    7  N4  UNL     1      37.552 -29.286  -3.656  1.00  0.00    -0.325 N 
BRANCH   7   8
HETATM    8  C16 UNL     1      36.745 -28.240  -4.315  1.00  0.00     0.181 C 
BRANCH   8   9
HETATM    9  C17 UNL     1      36.904 -28.279  -5.808  1.00  0.00     0.254 C 
HETATM   10  N5  UNL     1      38.210 -27.946  -6.347  1.00  0.00    -0.060 NA
HETATM   11  O4  UNL     1      36.040 -28.571  -6.625  1.00  0.00    -0.275 OA
ENDBRANCH   8   9
BRANCH   8  12
HETATM   12  C18 UNL     1      35.313 -28.407  -3.936  1.00  0.00     0.017 C 
HETATM   13  C19 UNL     1      34.431 -27.278  -4.295  1.00  0.00     0.007 C 
HETATM   14  C20 UNL     1      34.353 -26.252  -3.144  1.00  0.00     0.000 C 
HETATM   15  C21 UNL     1      33.526 -26.896  -2.057  1.00  0.00     0.000 C 
HETATM   16  C22 UNL     1      33.918 -28.323  -1.882  1.00  0.00     0.000 C 
HETATM   17  C23 UNL     1      35.227 -28.695  -2.434  1.00  0.00     0.007 C 
ENDBRANCH   8  12
ENDBRANCH   7   8
BRANCH   7  18
HETATM   18  C24 UNL     1      38.609 -28.789  -2.779  1.00  0.00     0.025 C 
HETATM   19  C25 UNL     1      38.671 -27.267  -2.720  1.00  0.00     0.037 C 
HETATM   20  C26 UNL     1      39.962 -29.145  -3.442  1.00  0.00     0.037 C 
HETATM   21  C27 UNL     1      38.608 -29.281  -1.386  1.00  0.00     0.037 C 
ENDBRANCH   7  18
ENDBRANCH   4   5
ENDBRANCH   3   4
BRANCH   1  22
HETATM   22  C4  UNL     1      35.484 -34.590  -2.293  1.00  0.00     0.175 C 
BRANCH  22  23
HETATM   23  C2  UNL     1      36.264 -35.410  -1.355  1.00  0.00     0.049 C 
HETATM   24  C1  UNL     1      36.914 -34.780  -0.195  1.00  0.00     0.017 C 
HETATM   25  C3  UNL     1      35.384 -36.574  -0.842  1.00  0.00     0.017 C 
ENDBRANCH  22  23
BRANCH  22  26
HETATM   26  N1  UNL     1      34.632 -33.622  -1.860  1.00  0.00    -0.349 NA
HETATM   27  C5  UNL     1      33.781 -32.639  -1.477  1.00  0.00     0.396 C 
HETATM   28  O1  UNL     1      33.327 -31.713  -2.249  1.00  0.00    -0.230 OA
HETATM   29  N2  UNL     1      33.266 -32.478  -0.158  1.00  0.00    -0.322 N 
HETATM   30  C6  UNL     1      33.619 -33.436   0.861  1.00  0.00     0.156 C 
BRANCH  29  31
HETATM   31  C7  UNL     1      32.434 -31.388   0.282  1.00  0.00     0.089 C 
HETATM   32  C8  UNL     1      33.092 -30.246   0.943  1.00  0.00     0.025 C 
HETATM   33  C9  UNL     1      32.026 -29.149   1.101  1.00  0.00     0.002 C 
HETATM   34  C10 UNL     1      30.711 -29.523   0.510  1.00  0.00     0.000 C 
HETATM   35  C11 UNL     1      30.163 -30.843   0.944  1.00  0.00     0.002 C 
HETATM   36  C12 UNL     1      31.294 -31.839   1.182  1.00  0.00     0.025 C 
ENDBRANCH  29  31
ENDBRANCH  22  26
ENDBRANCH   1  22
TORSDOF 10
ENDMDL
MODEL 5
REMARK VINA RESULT: -6.530853927      2.561      5.636
REMARK  10 active torsions:
REMARK  status: ('A' for Active; 'I' for Inactive)
REMARK    1  A    between atoms: C2_2  and  C4_4 
REMARK    2  A    between atoms: C4_4  and  N1_5 
REMARK    3  A    between atoms: C4_4  and  C13_16 
REMARK       I    between atoms: N1_5  and  C5_6 
REMARK       I    between atoms: C5_6  and  N2_8 
REMARK    4  A    between atoms: N2_8  and  C7_10 
REMARK       I    between atoms: C13_16  and  N3_18 
REMARK    5  A    between atoms: N3_18  and  C14_19 
REMARK    6  A    between atoms: C14_19  and  C15_20 
REMARK       I    between atoms: C15_20  and  N4_22 
REMARK    7  A    between atoms: N4_22  and  C16_23 
REMARK    8  A    between atoms: N4_22  and  C24_33 
REMARK    9  A    between atoms: C16_23  and  C17_24 
REMARK   10  A    between atoms: C16_23  and  C18_27 
ROOT
HETATM    1  C13 UNL     1      33.239 -27.970  -1.760  1.00  0.00     0.352 C 
HETATM    2  O2  UNL     1      32.565 -26.977  -1.672  1.00  0.00    -0.248 OA
HETATM    3  N3  UNL     1      32.973 -29.264  -1.223  1.00  0.00    -0.372 NA
ENDROOT
BRANCH   3   4
HETATM    4  C14 UNL     1      32.483 -30.361  -0.605  1.00  0.00     0.260 C 
BRANCH   4   5
HETATM    5  C15 UNL     1      33.116 -31.695  -0.998  1.00  0.00     0.273 C 
HETATM    6  O3  UNL     1      33.442 -31.694  -2.206  1.00  0.00    -0.266 OA
HETATM    7  N4  UNL     1      33.323 -32.756  -0.145  1.00  0.00    -0.325 N 
BRANCH   7   8
HETATM    8  C16 UNL     1      34.266 -33.835  -0.503  1.00  0.00     0.181 C 
BRANCH   8   9
HETATM    9  C17 UNL     1      33.897 -34.479  -1.808  1.00  0.00     0.254 C 
HETATM   10  N5  UNL     1      32.585 -35.095  -1.899  1.00  0.00    -0.060 NA
HETATM   11  O4  UNL     1      34.592 -34.536  -2.815  1.00  0.00    -0.275 OA
ENDBRANCH   8   9
BRANCH   8  12
HETATM   12  C18 UNL     1      35.650 -33.284  -0.564  1.00  0.00     0.017 C 
HETATM   13  C19 UNL     1      36.633 -34.130  -1.269  1.00  0.00     0.007 C 
HETATM   14  C20 UNL     1      37.333 -35.095  -0.289  1.00  0.00     0.000 C 
HETATM   15  C21 UNL     1      38.264 -34.251   0.547  1.00  0.00     0.000 C 
HETATM   16  C22 UNL     1      37.593 -32.984   0.955  1.00  0.00     0.000 C 
HETATM   17  C23 UNL     1      36.127 -32.983   0.860  1.00  0.00     0.007 C 
ENDBRANCH   8  12
ENDBRANCH   7   8
BRANCH   7  18
HETATM   18  C24 UNL     1      32.563 -32.982   1.081  1.00  0.00     0.025 C 
HETATM   19  C25 UNL     1      33.058 -32.143   2.254  1.00  0.00     0.037 C 
HETATM   20  C26 UNL     1      32.874 -34.422   1.556  1.00  0.00     0.037 C 
HETATM   21  C27 UNL     1      31.099 -32.802   1.003  1.00  0.00     0.037 C 
ENDBRANCH   7  18
ENDBRANCH   4   5
ENDBRANCH   3   4
BRANCH   1  22
HETATM   22  C4  UNL     1      34.566 -27.905  -2.535  1.00  0.00     0.175 C 
BRANCH  22  23
HETATM   23  C2  UNL     1      34.710 -26.608  -3.214  1.00  0.00     0.049 C 
HETATM   24  C1  UNL     1      35.939 -25.819  -3.034  1.00  0.00     0.017 C 
HETATM   25  C3  UNL     1      34.477 -26.799  -4.731  1.00  0.00     0.017 C 
ENDBRANCH  22  23
BRANCH  22  26
HETATM   26  N1  UNL     1      35.590 -28.465  -1.837  1.00  0.00    -0.349 NA
HETATM   27  C5  UNL     1      36.577 -29.037  -1.105  1.00  0.00     0.396 C 
HETATM   28  O1  UNL     1      36.413 -29.602   0.041  1.00  0.00    -0.230 OA
HETATM   29  N2  UNL     1      37.948 -29.092  -1.490  1.00  0.00    -0.322 N 
HETATM   30  C6  UNL     1      38.347 -28.548  -2.765  1.00  0.00     0.156 C 
BRANCH  29  31
HETATM   31  C7  UNL     1      39.017 -29.617  -0.682  1.00  0.00     0.089 C 
HETATM   32  C8  UNL     1      39.654 -28.707   0.289  1.00  0.00     0.025 C 
HETATM   33  C9  UNL     1      40.587 -29.566   1.159  1.00  0.00     0.002 C 
HETATM   34  C10 UNL     1      40.531 -31.016   0.819  1.00  0.00     0.000 C 
HETATM   35  C11 UNL     1      40.721 -31.345  -0.626  1.00  0.00     0.002 C 
HETATM   36  C12 UNL     1      40.128 -30.250  -1.506  1.00  0.00     0.025 C 
ENDBRANCH  29  31
ENDBRANCH  22  26
ENDBRANCH   1  22
TORSDOF 10
ENDMDL
