MODEL 1
REMARK VINA RESULT: -7.083306889      0.000      0.000
REMARK  7 active torsions:
REMARK  status: ('A' for Active; 'I' for Inactive)
REMARK    1  A    between atoms: C2_2  and  N1_3 
REMARK    2  A    between atoms: N1_3  and  C3_5 
REMARK    3  A    between atoms: C4_8  and  N3_9 
REMARK    4  A    between atoms: C5_14  and  N5_15 
REMARK    5  A    between atoms: N5_15  and  C6_17 
REMARK    6  A    between atoms: C6_17  and  C7_18 
REMARK    7  A    between atoms: C7_18  and  O1_20 
ROOT
HETATM    1  C3  UNL     1       2.557  18.102  23.789  1.00  0.00     0.711 A 
HETATM    2  N2  UNL     1       2.616  18.109  25.132  1.00  0.00    -0.021 N 
ATOM      3  H2  UNL     1       2.397  18.966  25.640  1.00  0.00     0.203 HD
HETATM    4  C4  UNL     1       2.961  16.995  25.819  1.00  0.00     0.705 A 
HETATM    5  N4  UNL     1       3.254  15.851  25.161  1.00  0.00    -0.022 N 
ATOM      6  H4  UNL     1       3.515  15.006  25.670  1.00  0.00     0.203 HD
HETATM    7  C5  UNL     1       3.191  15.858  23.828  1.00  0.00     0.707 A 
HETATM    8  N6  UNL     1       2.845  16.974  23.132  1.00  0.00    -0.021 N 
ATOM      9  H6  UNL     1       2.806  16.950  22.113  1.00  0.00     0.203 HD
ENDROOT
BRANCH   7  10
HETATM   10  N5  UNL     1       3.453  14.816  23.147  1.00  0.00    -0.223 N 
ATOM     11  H5  UNL     1       3.971  14.973  22.282  1.00  0.00     0.177 HD
BRANCH  10  12
HETATM   12  C6  UNL     1       3.119  13.457  23.431  1.00  0.00     0.169 C 
BRANCH  12  13
HETATM   13  C7  UNL     1       2.724  12.798  22.102  1.00  0.00     0.132 C 
HETATM   14  C8  UNL     1       2.770  11.308  22.336  1.00  0.00     0.041 C 
BRANCH  13  15
HETATM   15  O1  UNL     1       1.480  13.268  21.765  1.00  0.00    -0.394 OA
ATOM     16  H1  UNL     1       1.301  12.987  20.876  1.00  0.00     0.210 HD
ENDBRANCH  13  15
ENDBRANCH  12  13
ENDBRANCH  10  12
ENDBRANCH   7  10
BRANCH   4  17
HETATM   17  N3  UNL     1       3.010  17.024  27.091  1.00  0.00    -0.234 N 
ATOM     18  H32 UNL     1       3.853  16.711  27.573  1.00  0.00     0.174 HD
ATOM     19  H31 UNL     1       2.208  17.361  27.624  1.00  0.00     0.174 HD
ENDBRANCH   4  17
BRANCH   1  20
HETATM   20  N1  UNL     1       2.223  19.181  23.129  1.00  0.00    -0.202 N 
ATOM     21  H1  UNL     1       2.027  19.132  22.129  1.00  0.00     0.183 HD
BRANCH  20  22
HETATM   22  C2  UNL     1       2.137  20.412  23.812  1.00  0.00     0.096 C 
HETATM   23  C1  UNL     1       1.073  20.774  24.501  1.00  0.00     0.030 C 
ENDBRANCH  20  22
ENDBRANCH   1  20
TORSDOF 7
ENDMDL
MODEL 2
REMARK VINA RESULT: -6.902176636      2.336      3.402
REMARK  7 active torsions:
REMARK  status: ('A' for Active; 'I' for Inactive)
REMARK    1  A    between atoms: C2_2  and  N1_3 
REMARK    2  A    between atoms: N1_3  and  C3_5 
REMARK    3  A    between atoms: C4_8  and  N3_9 
REMARK    4  A    between atoms: C5_14  and  N5_15 
REMARK    5  A    between atoms: N5_15  and  C6_17 
REMARK    6  A    between atoms: C6_17  and  C7_18 
REMARK    7  A    between atoms: C7_18  and  O1_20 
ROOT
HETATM    1  C3  UNL     1       3.808  15.990  24.710  1.00  0.00     0.711 A 
HETATM    2  N2  UNL     1       4.600  16.389  23.701  1.00  0.00    -0.021 N 
ATOM      3  H2  UNL     1       5.160  17.236  23.806  1.00  0.00     0.203 HD
HETATM    4  C4  UNL     1       4.666  15.685  22.547  1.00  0.00     0.705 A 
HETATM    5  N4  UNL     1       3.932  14.561  22.391  1.00  0.00    -0.022 N 
ATOM      6  H4  UNL     1       3.974  14.023  21.526  1.00  0.00     0.203 HD
HETATM    7  C5  UNL     1       3.149  14.175  23.401  1.00  0.00     0.707 A 
HETATM    8  N6  UNL     1       3.078  14.879  24.562  1.00  0.00    -0.021 N 
ATOM      9  H6  UNL     1       2.471  14.560  25.318  1.00  0.00     0.203 HD
ENDROOT
BRANCH   7  10
HETATM   10  N5  UNL     1       2.432  13.127  23.322  1.00  0.00    -0.223 N 
ATOM     11  H5  UNL     1       1.445  13.282  23.115  1.00  0.00     0.177 HD
BRANCH  10  12
HETATM   12  C6  UNL     1       2.825  11.763  23.484  1.00  0.00     0.169 C 
BRANCH  12  13
HETATM   13  C7  UNL     1       1.580  10.981  23.925  1.00  0.00     0.132 C 
HETATM   14  C8  UNL     1       1.445  11.197  25.412  1.00  0.00     0.041 C 
BRANCH  13  15
HETATM   15  O1  UNL     1       0.518  11.453  23.196  1.00  0.00    -0.394 OA
ATOM     16  H1  UNL     1      -0.082  10.729  23.065  1.00  0.00     0.210 HD
ENDBRANCH  13  15
ENDBRANCH  12  13
ENDBRANCH  10  12
ENDBRANCH   7  10
BRANCH   4  17
HETATM   17  N3  UNL     1       5.424  16.082  21.604  1.00  0.00    -0.234 N 
ATOM     18  H32 UNL     1       5.300  15.708  20.663  1.00  0.00     0.174 HD
ATOM     19  H31 UNL     1       6.151  16.773  21.792  1.00  0.00     0.174 HD
ENDBRANCH   4  17
BRANCH   1  20
HETATM   20  N1  UNL     1       3.746  16.674  25.824  1.00  0.00    -0.202 N 
ATOM     21  H1  UNL     1       4.579  17.132  26.193  1.00  0.00     0.183 HD
BRANCH  20  22
HETATM   22  C2  UNL     1       2.517  16.772  26.509  1.00  0.00     0.096 C 
HETATM   23  C1  UNL     1       2.190  17.818  27.242  1.00  0.00     0.030 C 
ENDBRANCH  20  22
ENDBRANCH   1  20
TORSDOF 7
ENDMDL
MODEL 3
REMARK VINA RESULT: -6.885446011      2.053      2.954
REMARK  7 active torsions:
REMARK  status: ('A' for Active; 'I' for Inactive)
REMARK    1  A    between atoms: C2_2  and  N1_3 
REMARK    2  A    between atoms: N1_3  and  C3_5 
REMARK    3  A    between atoms: C4_8  and  N3_9 
REMARK    4  A    between atoms: C5_14  and  N5_15 
REMARK    5  A    between atoms: N5_15  and  C6_17 
REMARK    6  A    between atoms: C6_17  and  C7_18 
REMARK    7  A    between atoms: C7_18  and  O1_20 
ROOT
HETATM    1  C3  UNL     1       3.061  16.566  25.468  1.00  0.00     0.711 A 
HETATM    2  N2  UNL     1       3.688  16.661  24.284  1.00  0.00    -0.021 N 
ATOM      3  H2  UNL     1       3.890  17.583  23.895  1.00  0.00     0.203 HD
HETATM    4  C4  UNL     1       4.055  15.553  23.600  1.00  0.00     0.705 A 
HETATM    5  N4  UNL     1       3.796  14.324  24.101  1.00  0.00    -0.022 N 
ATOM      6  H4  UNL     1       4.069  13.483  23.594  1.00  0.00     0.203 HD
HETATM    7  C5  UNL     1       3.173  14.244  25.279  1.00  0.00     0.707 A 
HETATM    8  N6  UNL     1       2.801  15.354  25.970  1.00  0.00    -0.021 N 
ATOM      9  H6  UNL     1       2.326  15.262  26.868  1.00  0.00     0.203 HD
ENDROOT
BRANCH   7  10
HETATM   10  N5  UNL     1       2.898  13.121  25.809  1.00  0.00    -0.223 N 
ATOM     11  H5  UNL     1       2.692  13.142  26.807  1.00  0.00     0.177 HD
BRANCH  10  12
HETATM   12  C6  UNL     1       2.840  11.834  25.191  1.00  0.00     0.169 C 
BRANCH  12  13
HETATM   13  C7  UNL     1       1.425  11.665  24.622  1.00  0.00     0.132 C 
HETATM   14  C8  UNL     1       1.591  11.141  23.217  1.00  0.00     0.041 C 
BRANCH  13  15
HETATM   15  O1  UNL     1       0.746  10.812  25.455  1.00  0.00    -0.394 OA
ATOM     16  H1  UNL     1       0.145  11.336  25.971  1.00  0.00     0.210 HD
ENDBRANCH  13  15
ENDBRANCH  12  13
ENDBRANCH  10  12
ENDBRANCH   7  10
BRANCH   4  17
HETATM   17  N3  UNL     1       4.648  15.666  22.479  1.00  0.00    -0.234 N 
ATOM     18  H32 UNL     1       5.651  15.490  22.415  1.00  0.00     0.174 HD
ATOM     19  H31 UNL     1       4.119  15.933  21.648  1.00  0.00     0.174 HD
ENDBRANCH   4  17
BRANCH   1  20
HETATM   20  N1  UNL     1       2.706  17.640  26.126  1.00  0.00    -0.202 N 
ATOM     21  H1  UNL     1       2.793  17.674  27.142  1.00  0.00     0.183 HD
BRANCH  20  22
HETATM   22  C2  UNL     1       2.203  18.751  25.418  1.00  0.00     0.096 C 
HETATM   23  C1  UNL     1       1.632  19.780  26.014  1.00  0.00     0.030 C 
ENDBRANCH  20  22
ENDBRANCH   1  20
TORSDOF 7
ENDMDL
MODEL 4
REMARK VINA RESULT: -6.875028988      2.630      4.155
REMARK  7 active torsions:
REMARK  status: ('A' for Active; 'I' for Inactive)
REMARK    1  A    between atoms: C2_2  and  N1_3 
REMARK    2  A    between atoms: N1_3  and  C3_5 
REMARK    3  A    between atoms: C4_8  and  N3_9 
REMARK    4  A    between atoms: C5_14  and  N5_15 
REMARK    5  A    between atoms: N5_15  and  C6_17 
REMARK    6  A    between atoms: C6_17  and  C7_18 
REMARK    7  A    between atoms: C7_18  and  O1_20 
ROOT
HETATM    1  C3  UNL     1       0.808  20.046  26.434  1.00  0.00     0.711 A 
HETATM    2  N2  UNL     1       0.599  20.558  25.210  1.00  0.00    -0.021 N 
ATOM      3  H2  UNL     1      -0.062  21.326  25.093  1.00  0.00     0.203 HD
HETATM    4  C4  UNL     1       1.253  20.070  24.130  1.00  0.00     0.705 A 
HETATM    5  N4  UNL     1       2.132  19.052  24.267  1.00  0.00    -0.022 N 
ATOM      6  H4  UNL     1       2.630  18.677  23.460  1.00  0.00     0.203 HD
HETATM    7  C5  UNL     1       2.331  18.553  25.489  1.00  0.00     0.707 A 
HETATM    8  N6  UNL     1       1.677  19.039  26.578  1.00  0.00    -0.021 N 
ATOM      9  H6  UNL     1       1.849  18.638  27.499  1.00  0.00     0.203 HD
ENDROOT
BRANCH   7  10
HETATM   10  N5  UNL     1       3.144  17.596  25.690  1.00  0.00    -0.223 N 
ATOM     11  H5  UNL     1       4.108  17.868  25.887  1.00  0.00     0.177 HD
BRANCH  10  12
HETATM   12  C6  UNL     1       2.888  16.190  25.678  1.00  0.00     0.169 C 
BRANCH  12  13
HETATM   13  C7  UNL     1       3.589  15.611  24.441  1.00  0.00     0.132 C 
HETATM   14  C8  UNL     1       3.406  14.115  24.511  1.00  0.00     0.041 C 
BRANCH  13  15
HETATM   15  O1  UNL     1       3.016  16.189  23.336  1.00  0.00    -0.394 OA
ATOM     16  H1  UNL     1       3.638  16.113  22.622  1.00  0.00     0.210 HD
ENDBRANCH  13  15
ENDBRANCH  12  13
ENDBRANCH  10  12
ENDBRANCH   7  10
BRANCH   4  17
HETATM   17  N3  UNL     1       1.039  20.570  22.979  1.00  0.00    -0.234 N 
ATOM     18  H32 UNL     1       1.169  19.997  22.145  1.00  0.00     0.174 HD
ATOM     19  H31 UNL     1       0.738  21.541  22.894  1.00  0.00     0.174 HD
ENDBRANCH   4  17
BRANCH   1  20
HETATM   20  N1  UNL     1       0.174  20.521  27.476  1.00  0.00    -0.202 N 
ATOM     21  H1  UNL     1       0.191  21.520  27.677  1.00  0.00     0.183 HD
BRANCH  20  22
HETATM   22  C2  UNL     1      -0.533  19.637  28.318  1.00  0.00     0.096 C 
HETATM   23  C1  UNL     1      -1.836  19.717  28.505  1.00  0.00     0.030 C 
ENDBRANCH  20  22
ENDBRANCH   1  20
TORSDOF 7
ENDMDL
MODEL 5
REMARK VINA RESULT: -6.735196720      2.734      6.201
REMARK  7 active torsions:
REMARK  status: ('A' for Active; 'I' for Inactive)
REMARK    1  A    between atoms: C2_2  and  N1_3 
REMARK    2  A    between atoms: N1_3  and  C3_5 
REMARK    3  A    between atoms: C4_8  and  N3_9 
REMARK    4  A    between atoms: C5_14  and  N5_15 
REMARK    5  A    between atoms: N5_15  and  C6_17 
REMARK    6  A    between atoms: C6_17  and  C7_18 
REMARK    7  A    between atoms: C7_18  and  O1_20 
ROOT
HETATM    1  C3  UNL     1       3.236  14.367  25.204  1.00  0.00     0.711 A 
HETATM    2  N2  UNL     1       3.870  14.424  24.019  1.00  0.00    -0.021 N 
ATOM      3  H2  UNL     1       4.161  13.559  23.564  1.00  0.00     0.203 HD
HETATM    4  C4  UNL     1       4.126  15.612  23.423  1.00  0.00     0.705 A 
HETATM    5  N4  UNL     1       3.746  16.768  24.013  1.00  0.00    -0.022 N 
ATOM      6  H4  UNL     1       3.934  17.668  23.573  1.00  0.00     0.203 HD
HETATM    7  C5  UNL     1       3.118  16.697  25.189  1.00  0.00     0.707 A 
HETATM    8  N6  UNL     1       2.858  15.507  25.793  1.00  0.00    -0.021 N 
ATOM      9  H6  UNL     1       2.376  15.483  26.691  1.00  0.00     0.203 HD
ENDROOT
BRANCH   7  10
HETATM   10  N5  UNL     1       2.733  17.745  25.799  1.00  0.00    -0.223 N 
ATOM     11  H5  UNL     1       2.874  17.745  26.809  1.00  0.00     0.177 HD
BRANCH  10  12
HETATM   12  C6  UNL     1       2.128  18.920  25.258  1.00  0.00     0.169 C 
BRANCH  12  13
HETATM   13  C7  UNL     1       1.645  19.770  26.441  1.00  0.00     0.132 C 
HETATM   14  C8  UNL     1       0.384  20.461  25.983  1.00  0.00     0.041 C 
BRANCH  13  15
HETATM   15  O1  UNL     1       1.459  18.925  27.506  1.00  0.00    -0.394 OA
ATOM     16  H1  UNL     1       0.974  18.172  27.190  1.00  0.00     0.210 HD
ENDBRANCH  13  15
ENDBRANCH  12  13
ENDBRANCH  10  12
ENDBRANCH   7  10
BRANCH   4  17
HETATM   17  N3  UNL     1       4.727  15.642  22.302  1.00  0.00    -0.234 N 
ATOM     18  H32 UNL     1       4.807  14.790  21.746  1.00  0.00     0.174 HD
ATOM     19  H31 UNL     1       5.126  16.518  21.962  1.00  0.00     0.174 HD
ENDBRANCH   4  17
BRANCH   1  20
HETATM   20  N1  UNL     1       2.991  13.217  25.777  1.00  0.00    -0.202 N 
ATOM     21  H1  UNL     1       2.999  13.137  26.794  1.00  0.00     0.183 HD
BRANCH  20  22
HETATM   22  C2  UNL     1       2.717  12.089  24.976  1.00  0.00     0.096 C 
HETATM   23  C1  UNL     1       1.762  11.225  25.262  1.00  0.00     0.030 C 
ENDBRANCH  20  22
ENDBRANCH   1  20
TORSDOF 7
ENDMDL
