MODEL 1
REMARK VINA RESULT: -6.083533489      0.000      0.000
REMARK  6 active torsions:
REMARK  status: ('A' for Active; 'I' for Inactive)
REMARK    1  A    between atoms: N1_2  and  C2_3 
REMARK    2  A    between atoms: N1_2  and  C4_9 
REMARK    3  A    between atoms: C2_3  and  C3_4 
REMARK    4  A    between atoms: C3_4  and  N2_5 
REMARK    5  A    between atoms: C5_12  and  N4_13 
REMARK    6  A    between atoms: C6_18  and  N6_19 
ROOT
HETATM    1  C4  UNL     1       3.186  14.075  23.793  1.00  0.00     0.143 A 
HETATM    2  N3  UNL     1       3.333  13.868  22.443  1.00  0.00    -0.175 N 
ATOM      3  H3  UNL     1       3.580  14.672  21.865  1.00  0.00     0.186 HD
HETATM    4  C5  UNL     1       3.179  12.697  21.835  1.00  0.00     0.679 A 
HETATM    5  N5  UNL     1       2.854  11.620  22.558  1.00  0.00    -0.176 N 
ATOM      6  H5  UNL     1       2.729  10.711  22.112  1.00  0.00     0.186 HD
HETATM    7  C6  UNL     1       2.694  11.760  23.900  1.00  0.00     0.139 A 
HETATM    8  C7  UNL     1       2.857  12.992  24.536  1.00  0.00     0.133 A 
HETATM    9  C8  UNL     1       2.657  13.037  25.948  1.00  0.00     0.107 C 
HETATM   10  N7  UNL     1       2.489  13.045  27.086  1.00  0.00    -0.191 NA
ENDROOT
BRANCH   1  11
HETATM   11  N1  UNL     1       3.382  15.382  24.279  1.00  0.00    -0.368 N 
HETATM   12  C1  UNL     1       3.972  16.324  23.316  1.00  0.00     0.151 C 
BRANCH  11  13
HETATM   13  C2  UNL     1       3.183  15.822  25.607  1.00  0.00     0.151 C 
BRANCH  13  14
HETATM   14  C3  UNL     1       2.755  17.262  25.754  1.00  0.00     0.249 C 
BRANCH  14  15
HETATM   15  N2  UNL     1       2.769  17.533  27.192  1.00  0.00    -0.078 N 
ATOM     16  H23 UNL     1       2.962  16.709  27.762  1.00  0.00     0.274 HD
ATOM     17  H22 UNL     1       3.572  18.082  27.498  1.00  0.00     0.274 HD
ATOM     18  H21 UNL     1       1.871  17.971  27.397  1.00  0.00     0.274 HD
ENDBRANCH  14  15
ENDBRANCH  13  14
ENDBRANCH  11  13
ENDBRANCH   1  11
BRANCH   7  19
HETATM   19  N6  UNL     1       2.378  10.737  24.613  1.00  0.00    -0.384 N 
ATOM     20  H62 UNL     1       2.423   9.812  24.186  1.00  0.00     0.157 HD
ATOM     21  H61 UNL     1       2.095  10.867  25.584  1.00  0.00     0.157 HD
ENDBRANCH   7  19
BRANCH   4  22
HETATM   22  N4  UNL     1       3.330  12.553  20.560  1.00  0.00    -0.234 N 
ATOM     23  H42 UNL     1       4.237  12.783  20.154  1.00  0.00     0.174 HD
ATOM     24  H41 UNL     1       2.580  12.220  19.954  1.00  0.00     0.174 HD
ENDBRANCH   4  22
TORSDOF 6
ENDMDL
MODEL 2
REMARK VINA RESULT: -6.040104100      1.332      5.159
REMARK  6 active torsions:
REMARK  status: ('A' for Active; 'I' for Inactive)
REMARK    1  A    between atoms: N1_2  and  C2_3 
REMARK    2  A    between atoms: N1_2  and  C4_9 
REMARK    3  A    between atoms: C2_3  and  C3_4 
REMARK    4  A    between atoms: C3_4  and  N2_5 
REMARK    5  A    between atoms: C5_12  and  N4_13 
REMARK    6  A    between atoms: C6_18  and  N6_19 
ROOT
HETATM    1  C4  UNL     1       2.929  14.130  25.166  1.00  0.00     0.143 A 
HETATM    2  N3  UNL     1       2.841  15.073  26.161  1.00  0.00    -0.175 N 
ATOM      3  H3  UNL     1       2.563  14.756  27.090  1.00  0.00     0.186 HD
HETATM    4  C5  UNL     1       3.092  16.367  26.003  1.00  0.00     0.679 A 
HETATM    5  N5  UNL     1       3.458  16.822  24.799  1.00  0.00    -0.176 N 
ATOM      6  H5  UNL     1       3.654  17.813  24.654  1.00  0.00     0.186 HD
HETATM    7  C6  UNL     1       3.563  15.938  23.773  1.00  0.00     0.139 A 
HETATM    8  C7  UNL     1       3.299  14.578  23.944  1.00  0.00     0.133 A 
HETATM    9  C8  UNL     1       3.429  13.733  22.801  1.00  0.00     0.107 C 
HETATM   10  N7  UNL     1       3.540  13.075  21.864  1.00  0.00    -0.191 NA
ENDROOT
BRANCH   1  11
HETATM   11  N1  UNL     1       2.626  12.796  25.501  1.00  0.00    -0.368 N 
HETATM   12  C1  UNL     1       2.167  12.587  26.882  1.00  0.00     0.151 C 
BRANCH  11  13
HETATM   13  C2  UNL     1       2.835  11.659  24.688  1.00  0.00     0.151 C 
BRANCH  13  14
HETATM   14  C3  UNL     1       1.604  10.833  24.402  1.00  0.00     0.249 C 
BRANCH  14  15
HETATM   15  N2  UNL     1       0.954  11.478  23.260  1.00  0.00    -0.078 N 
ATOM     16  H23 UNL     1       0.691  10.829  22.519  1.00  0.00     0.274 HD
ATOM     17  H22 UNL     1       0.014  11.818  23.463  1.00  0.00     0.274 HD
ATOM     18  H21 UNL     1       1.597  12.209  22.955  1.00  0.00     0.274 HD
ENDBRANCH  14  15
ENDBRANCH  13  14
ENDBRANCH  11  13
ENDBRANCH   1  11
BRANCH   7  19
HETATM   19  N6  UNL     1       3.911  16.356  22.607  1.00  0.00    -0.384 N 
ATOM     20  H62 UNL     1       4.829  16.786  22.496  1.00  0.00     0.157 HD
ATOM     21  H61 UNL     1       3.270  16.248  21.821  1.00  0.00     0.157 HD
ENDBRANCH   7  19
BRANCH   4  22
HETATM   22  N4  UNL     1       2.996  17.216  26.972  1.00  0.00    -0.234 N 
ATOM     23  H42 UNL     1       3.856  17.535  27.419  1.00  0.00     0.174 HD
ATOM     24  H41 UNL     1       2.099  17.573  27.300  1.00  0.00     0.174 HD
ENDBRANCH   4  22
TORSDOF 6
ENDMDL
MODEL 3
REMARK VINA RESULT: -5.813612861      1.257      4.299
REMARK  6 active torsions:
REMARK  status: ('A' for Active; 'I' for Inactive)
REMARK    1  A    between atoms: N1_2  and  C2_3 
REMARK    2  A    between atoms: N1_2  and  C4_9 
REMARK    3  A    between atoms: C2_3  and  C3_4 
REMARK    4  A    between atoms: C3_4  and  N2_5 
REMARK    5  A    between atoms: C5_12  and  N4_13 
REMARK    6  A    between atoms: C6_18  and  N6_19 
ROOT
HETATM    1  C4  UNL     1       3.104  14.035  23.900  1.00  0.00     0.143 A 
HETATM    2  N3  UNL     1       3.329  15.129  23.101  1.00  0.00    -0.175 N 
ATOM      3  H3  UNL     1       3.491  14.962  22.107  1.00  0.00     0.186 HD
HETATM    4  C5  UNL     1       3.350  16.386  23.525  1.00  0.00     0.679 A 
HETATM    5  N5  UNL     1       3.142  16.645  24.821  1.00  0.00    -0.176 N 
ATOM      6  H5  UNL     1       3.155  17.604  25.170  1.00  0.00     0.186 HD
HETATM    7  C6  UNL     1       2.914  15.605  25.665  1.00  0.00     0.139 A 
HETATM    8  C7  UNL     1       2.892  14.283  25.214  1.00  0.00     0.133 A 
HETATM    9  C8  UNL     1       2.653  13.261  26.181  1.00  0.00     0.107 C 
HETATM   10  N7  UNL     1       2.460  12.457  26.981  1.00  0.00    -0.191 NA
ENDROOT
BRANCH   1  11
HETATM   11  N1  UNL     1       3.118  12.765  23.292  1.00  0.00    -0.368 N 
HETATM   12  C1  UNL     1       3.186  12.778  21.823  1.00  0.00     0.151 C 
BRANCH  11  13
HETATM   13  C2  UNL     1       2.952  11.521  23.941  1.00  0.00     0.151 C 
BRANCH  13  14
HETATM   14  C3  UNL     1       1.705  10.757  23.566  1.00  0.00     0.249 C 
BRANCH  14  15
HETATM   15  N2  UNL     1       0.865  10.761  24.764  1.00  0.00    -0.078 N 
ATOM     16  H23 UNL     1       0.612   9.828  25.090  1.00  0.00     0.274 HD
ATOM     17  H22 UNL     1       1.357  11.054  25.608  1.00  0.00     0.274 HD
ATOM     18  H21 UNL     1       0.062  11.346  24.534  1.00  0.00     0.274 HD
ENDBRANCH  14  15
ENDBRANCH  13  14
ENDBRANCH  11  13
ENDBRANCH   1  11
BRANCH   7  19
HETATM   19  N6  UNL     1       2.715  15.832  26.915  1.00  0.00    -0.384 N 
ATOM     20  H62 UNL     1       1.888  15.431  27.358  1.00  0.00     0.157 HD
ATOM     21  H61 UNL     1       3.382  16.401  27.437  1.00  0.00     0.157 HD
ENDBRANCH   7  19
BRANCH   4  22
HETATM   22  N4  UNL     1       3.564  17.383  22.732  1.00  0.00    -0.234 N 
ATOM     23  H42 UNL     1       3.212  17.322  21.776  1.00  0.00     0.174 HD
ATOM     24  H41 UNL     1       4.069  18.219  23.027  1.00  0.00     0.174 HD
ENDBRANCH   4  22
TORSDOF 6
ENDMDL
MODEL 4
REMARK VINA RESULT: -5.690808749      2.945      4.641
REMARK  6 active torsions:
REMARK  status: ('A' for Active; 'I' for Inactive)
REMARK    1  A    between atoms: N1_2  and  C2_3 
REMARK    2  A    between atoms: N1_2  and  C4_9 
REMARK    3  A    between atoms: C2_3  and  C3_4 
REMARK    4  A    between atoms: C3_4  and  N2_5 
REMARK    5  A    between atoms: C5_12  and  N4_13 
REMARK    6  A    between atoms: C6_18  and  N6_19 
ROOT
HETATM    1  C4  UNL     1       2.380  18.062  24.390  1.00  0.00     0.143 A 
HETATM    2  N3  UNL     1       2.931  17.279  23.404  1.00  0.00    -0.175 N 
ATOM      3  H3  UNL     1       2.890  17.627  22.446  1.00  0.00     0.186 HD
HETATM    4  C5  UNL     1       3.512  16.103  23.607  1.00  0.00     0.679 A 
HETATM    5  N5  UNL     1       3.584  15.612  24.849  1.00  0.00    -0.176 N 
ATOM      6  H5  UNL     1       4.026  14.709  25.027  1.00  0.00     0.186 HD
HETATM    7  C6  UNL     1       3.057  16.338  25.868  1.00  0.00     0.139 A 
HETATM    8  C7  UNL     1       2.447  17.575  25.651  1.00  0.00     0.133 A 
HETATM    9  C8  UNL     1       1.916  18.256  26.787  1.00  0.00     0.107 C 
HETATM   10  N7  UNL     1       1.495  18.783  27.719  1.00  0.00    -0.191 NA
ENDROOT
BRANCH   1  11
HETATM   11  N1  UNL     1       1.798  19.284  24.005  1.00  0.00    -0.368 N 
HETATM   12  C1  UNL     1       1.080  19.258  22.722  1.00  0.00     0.151 C 
BRANCH  11  13
HETATM   13  C2  UNL     1       1.942  20.526  24.664  1.00  0.00     0.151 C 
BRANCH  13  14
HETATM   14  C3  UNL     1       0.652  21.183  25.095  1.00  0.00     0.249 C 
BRANCH  14  15
HETATM   15  N2  UNL     1       0.872  21.612  26.477  1.00  0.00    -0.078 N 
ATOM     16  H23 UNL     1       0.396  21.031  27.167  1.00  0.00     0.274 HD
ATOM     17  H22 UNL     1       1.821  21.443  26.812  1.00  0.00     0.274 HD
ATOM     18  H21 UNL     1       0.595  22.593  26.507  1.00  0.00     0.274 HD
ENDBRANCH  14  15
ENDBRANCH  13  14
ENDBRANCH  11  13
ENDBRANCH   1  11
BRANCH   7  19
HETATM   19  N6  UNL     1       3.114  15.882  27.070  1.00  0.00    -0.384 N 
ATOM     20  H62 UNL     1       2.342  16.084  27.705  1.00  0.00     0.157 HD
ATOM     21  H61 UNL     1       3.919  15.329  27.362  1.00  0.00     0.157 HD
ENDBRANCH   7  19
BRANCH   4  22
HETATM   22  N4  UNL     1       4.018  15.404  22.644  1.00  0.00    -0.234 N 
ATOM     23  H42 UNL     1       3.431  15.207  21.833  1.00  0.00     0.174 HD
ATOM     24  H41 UNL     1       4.973  15.048  22.670  1.00  0.00     0.174 HD
ENDBRANCH   4  22
TORSDOF 6
ENDMDL
MODEL 5
REMARK VINA RESULT: -5.548468779      1.431      4.288
REMARK  6 active torsions:
REMARK  status: ('A' for Active; 'I' for Inactive)
REMARK    1  A    between atoms: N1_2  and  C2_3 
REMARK    2  A    between atoms: N1_2  and  C4_9 
REMARK    3  A    between atoms: C2_3  and  C3_4 
REMARK    4  A    between atoms: C3_4  and  N2_5 
REMARK    5  A    between atoms: C5_12  and  N4_13 
REMARK    6  A    between atoms: C6_18  and  N6_19 
ROOT
HETATM    1  C4  UNL     1       3.362  13.335  23.726  1.00  0.00     0.143 A 
HETATM    2  N3  UNL     1       3.892  14.281  22.883  1.00  0.00    -0.175 N 
ATOM      3  H3  UNL     1       4.163  13.981  21.946  1.00  0.00     0.186 HD
HETATM    4  C5  UNL     1       4.076  15.558  23.197  1.00  0.00     0.679 A 
HETATM    5  N5  UNL     1       3.734  15.990  24.416  1.00  0.00    -0.176 N 
ATOM      6  H5  UNL     1       3.868  16.967  24.679  1.00  0.00     0.186 HD
HETATM    7  C6  UNL     1       3.204  15.102  25.297  1.00  0.00     0.139 A 
HETATM    8  C7  UNL     1       3.012  13.760  24.962  1.00  0.00     0.133 A 
HETATM    9  C8  UNL     1       2.457  12.904  25.961  1.00  0.00     0.107 C 
HETATM   10  N7  UNL     1       2.011  12.238  26.785  1.00  0.00    -0.191 NA
ENDROOT
BRANCH   1  11
HETATM   11  N1  UNL     1       3.236  12.021  23.237  1.00  0.00    -0.368 N 
HETATM   12  C1  UNL     1       3.942  10.994  24.019  1.00  0.00     0.151 C 
BRANCH  11  13
HETATM   13  C2  UNL     1       2.613  11.630  22.031  1.00  0.00     0.151 C 
BRANCH  13  14
HETATM   14  C3  UNL     1       1.105  11.705  22.028  1.00  0.00     0.249 C 
BRANCH  14  15
HETATM   15  N2  UNL     1       0.683  11.182  23.329  1.00  0.00    -0.078 N 
ATOM     16  H23 UNL     1      -0.324  11.046  23.408  1.00  0.00     0.274 HD
ATOM     17  H22 UNL     1       0.949  10.209  23.485  1.00  0.00     0.274 HD
ATOM     18  H21 UNL     1       1.065  11.827  24.021  1.00  0.00     0.274 HD
ENDBRANCH  14  15
ENDBRANCH  13  14
ENDBRANCH  11  13
ENDBRANCH   1  11
BRANCH   7  19
HETATM   19  N6  UNL     1       2.871  15.496  26.475  1.00  0.00    -0.384 N 
ATOM     20  H62 UNL     1       2.401  16.395  26.574  1.00  0.00     0.157 HD
ATOM     21  H61 UNL     1       3.079  14.907  27.281  1.00  0.00     0.157 HD
ENDBRANCH   7  19
BRANCH   4  22
HETATM   22  N4  UNL     1       4.577  16.411  22.366  1.00  0.00    -0.234 N 
ATOM     23  H42 UNL     1       4.417  16.264  21.370  1.00  0.00     0.174 HD
ATOM     24  H41 UNL     1       5.122  17.218  22.672  1.00  0.00     0.174 HD
ENDBRANCH   4  22
TORSDOF 6
ENDMDL
