MODEL 1
REMARK VINA RESULT: -7.332374595      0.000      0.000
REMARK  4 active torsions:
REMARK  status: ('A' for Active; 'I' for Inactive)
REMARK    1  A    between atoms: C3_5  and  N2_6 
REMARK    2  A    between atoms: C4_11  and  N4_12 
REMARK    3  A    between atoms: C5_15  and  C6_16 
REMARK    4  A    between atoms: C6_16  and  N5_17 
ROOT
HETATM    1  C1  UNL     1       2.668  13.725  26.990  1.00  0.00     0.070 C 
HETATM    2  C2  UNL     1       2.902  14.664  25.869  1.00  0.00     0.038 A 
HETATM    3  N1  UNL     1       2.706  15.963  26.064  1.00  0.00    -0.195 N 
ATOM      4  H1  UNL     1       2.399  16.308  26.974  1.00  0.00     0.184 HD
HETATM    5  C3  UNL     1       2.919  16.822  25.041  1.00  0.00     0.677 A 
HETATM    6  N3  UNL     1       3.323  16.341  23.855  1.00  0.00    -0.176 N 
ATOM      7  H3  UNL     1       3.483  16.991  23.086  1.00  0.00     0.186 HD
HETATM    8  C4  UNL     1       3.526  15.000  23.648  1.00  0.00     0.128 A 
HETATM    9  C5  UNL     1       3.323  14.106  24.647  1.00  0.00     0.046 A 
ENDROOT
BRANCH   9  10
HETATM   10  C6  UNL     1       3.537  12.669  24.564  1.00  0.00     0.111 C 
BRANCH  10  11
HETATM   11  N5  UNL     1       2.707  11.821  23.840  1.00  0.00    -0.329 N 
HETATM   12  C7  UNL     1       2.986  11.224  22.524  1.00  0.00     0.150 C 
HETATM   13  C8  UNL     1       1.605  11.564  21.898  1.00  0.00     0.142 C 
HETATM   14  N6  UNL     1       0.756  11.170  22.996  1.00  0.00    -0.363 N 
HETATM   15  C9  UNL     1       1.377  11.315  24.109  1.00  0.00     0.190 C 
ATOM     16  H6  UNL     1      -0.199  10.826  22.901  1.00  0.00     0.162 HD
HETATM   17  N7  UNL     1       0.934  11.067  25.447  1.00  0.00    -0.063 NA
ENDBRANCH  10  11
ENDBRANCH   9  10
BRANCH   8  18
HETATM   18  N4  UNL     1       3.934  14.683  22.486  1.00  0.00    -0.384 N 
ATOM     19  H42 UNL     1       3.340  14.683  21.656  1.00  0.00     0.157 HD
ATOM     20  H41 UNL     1       4.912  14.400  22.427  1.00  0.00     0.157 HD
ENDBRANCH   8  18
BRANCH   5  21
HETATM   21  N2  UNL     1       2.730  18.093  25.224  1.00  0.00    -0.234 N 
ATOM     22  H22 UNL     1       2.427  18.459  26.126  1.00  0.00     0.174 HD
ATOM     23  H21 UNL     1       2.886  18.741  24.452  1.00  0.00     0.174 HD
ENDBRANCH   5  21
TORSDOF 4
ENDMDL
MODEL 2
REMARK VINA RESULT: -6.596216076      0.910      2.102
REMARK  4 active torsions:
REMARK  status: ('A' for Active; 'I' for Inactive)
REMARK    1  A    between atoms: C3_5  and  N2_6 
REMARK    2  A    between atoms: C4_11  and  N4_12 
REMARK    3  A    between atoms: C5_15  and  C6_16 
REMARK    4  A    between atoms: C6_16  and  N5_17 
ROOT
HETATM    1  C1  UNL     1       4.279  14.887  22.983  1.00  0.00     0.070 C 
HETATM    2  C2  UNL     1       3.637  15.130  24.295  1.00  0.00     0.038 A 
HETATM    3  N1  UNL     1       3.368  16.377  24.661  1.00  0.00    -0.195 N 
ATOM      4  H1  UNL     1       3.601  17.157  24.046  1.00  0.00     0.184 HD
HETATM    5  C3  UNL     1       2.781  16.601  25.859  1.00  0.00     0.677 A 
HETATM    6  N3  UNL     1       2.485  15.556  26.648  1.00  0.00    -0.176 N 
ATOM      7  H3  UNL     1       2.043  15.727  27.551  1.00  0.00     0.186 HD
HETATM    8  C4  UNL     1       2.761  14.264  26.275  1.00  0.00     0.128 A 
HETATM    9  C5  UNL     1       3.349  13.998  25.082  1.00  0.00     0.046 A 
ENDROOT
BRANCH   9  10
HETATM   10  C6  UNL     1       3.660  12.677  24.559  1.00  0.00     0.111 C 
BRANCH  10  11
HETATM   11  N5  UNL     1       2.746  11.913  23.841  1.00  0.00    -0.329 N 
HETATM   12  C7  UNL     1       2.910  11.395  22.474  1.00  0.00     0.150 C 
HETATM   13  C8  UNL     1       1.506  11.831  21.969  1.00  0.00     0.142 C 
HETATM   14  N6  UNL     1       0.716  11.399  23.096  1.00  0.00    -0.363 N 
HETATM   15  C9  UNL     1       1.416  11.443  24.170  1.00  0.00     0.190 C 
ATOM     16  H6  UNL     1      -0.258  11.100  23.046  1.00  0.00     0.162 HD
HETATM   17  N7  UNL     1       1.053  11.125  25.517  1.00  0.00    -0.063 NA
ENDBRANCH  10  11
ENDBRANCH   9  10
BRANCH   8  18
HETATM   18  N4  UNL     1       2.405  13.369  27.105  1.00  0.00    -0.384 N 
ATOM     19  H42 UNL     1       1.730  13.525  27.854  1.00  0.00     0.157 HD
ATOM     20  H41 UNL     1       2.859  12.463  26.993  1.00  0.00     0.157 HD
ENDBRANCH   8  18
BRANCH   5  21
HETATM   21  N2  UNL     1       2.515  17.817  26.224  1.00  0.00    -0.234 N 
ATOM     22  H22 UNL     1       1.749  18.021  26.866  1.00  0.00     0.174 HD
ATOM     23  H21 UNL     1       3.080  18.586  25.863  1.00  0.00     0.174 HD
ENDBRANCH   5  21
TORSDOF 4
ENDMDL
MODEL 3
REMARK VINA RESULT: -6.561840356      1.123      1.783
REMARK  4 active torsions:
REMARK  status: ('A' for Active; 'I' for Inactive)
REMARK    1  A    between atoms: C3_5  and  N2_6 
REMARK    2  A    between atoms: C4_11  and  N4_12 
REMARK    3  A    between atoms: C5_15  and  C6_16 
REMARK    4  A    between atoms: C6_16  and  N5_17 
ROOT
HETATM    1  C1  UNL     1       2.578  13.691  26.806  1.00  0.00     0.070 C 
HETATM    2  C2  UNL     1       2.836  14.855  25.928  1.00  0.00     0.038 A 
HETATM    3  N1  UNL     1       2.592  16.077  26.387  1.00  0.00    -0.195 N 
ATOM      4  H1  UNL     1       2.232  16.211  27.332  1.00  0.00     0.184 HD
HETATM    5  C3  UNL     1       2.828  17.141  25.585  1.00  0.00     0.677 A 
HETATM    6  N3  UNL     1       3.302  16.935  24.347  1.00  0.00    -0.176 N 
ATOM      7  H3  UNL     1       3.480  17.739  23.745  1.00  0.00     0.186 HD
HETATM    8  C4  UNL     1       3.556  15.674  23.867  1.00  0.00     0.128 A 
HETATM    9  C5  UNL     1       3.332  14.582  24.639  1.00  0.00     0.046 A 
ENDROOT
BRANCH   9  10
HETATM   10  C6  UNL     1       3.593  13.201  24.260  1.00  0.00     0.111 C 
BRANCH  10  11
HETATM   11  N5  UNL     1       2.732  12.462  23.457  1.00  0.00    -0.329 N 
HETATM   12  C7  UNL     1       1.468  11.830  23.865  1.00  0.00     0.150 C 
HETATM   13  C8  UNL     1       1.750  10.459  23.191  1.00  0.00     0.142 C 
HETATM   14  N6  UNL     1       2.249  10.929  21.922  1.00  0.00    -0.363 N 
HETATM   15  C9  UNL     1       2.812  12.072  22.064  1.00  0.00     0.190 C 
ATOM     16  H6  UNL     1       2.165  10.425  21.039  1.00  0.00     0.162 HD
HETATM   17  N7  UNL     1       3.456  12.907  21.095  1.00  0.00    -0.063 NA
ENDBRANCH  10  11
ENDBRANCH   9  10
BRANCH   8  18
HETATM   18  N4  UNL     1       4.028  15.624  22.688  1.00  0.00    -0.384 N 
ATOM     19  H42 UNL     1       4.434  16.425  22.204  1.00  0.00     0.157 HD
ATOM     20  H41 UNL     1       3.959  14.717  22.227  1.00  0.00     0.157 HD
ENDBRANCH   8  18
BRANCH   5  21
HETATM   21  N2  UNL     1       2.593  18.338  26.026  1.00  0.00    -0.234 N 
ATOM     22  H22 UNL     1       2.725  18.576  27.009  1.00  0.00     0.174 HD
ATOM     23  H21 UNL     1       2.268  19.057  25.380  1.00  0.00     0.174 HD
ENDBRANCH   5  21
TORSDOF 4
ENDMDL
MODEL 4
REMARK VINA RESULT: -6.550940143      1.473      2.263
REMARK  4 active torsions:
REMARK  status: ('A' for Active; 'I' for Inactive)
REMARK    1  A    between atoms: C3_5  and  N2_6 
REMARK    2  A    between atoms: C4_11  and  N4_12 
REMARK    3  A    between atoms: C5_15  and  C6_16 
REMARK    4  A    between atoms: C6_16  and  N5_17 
ROOT
HETATM    1  C1  UNL     1       2.567  15.955  27.174  1.00  0.00     0.070 C 
HETATM    2  C2  UNL     1       2.773  16.545  25.832  1.00  0.00     0.038 A 
HETATM    3  N1  UNL     1       2.436  17.812  25.625  1.00  0.00    -0.195 N 
ATOM      4  H1  UNL     1       2.041  18.371  26.381  1.00  0.00     0.184 HD
HETATM    5  C3  UNL     1       2.624  18.353  24.399  1.00  0.00     0.677 A 
HETATM    6  N3  UNL     1       3.146  17.595  23.423  1.00  0.00    -0.176 N 
ATOM      7  H3  UNL     1       3.287  18.005  22.500  1.00  0.00     0.186 HD
HETATM    8  C4  UNL     1       3.496  16.284  23.631  1.00  0.00     0.128 A 
HETATM    9  C5  UNL     1       3.323  15.705  24.844  1.00  0.00     0.046 A 
ENDROOT
BRANCH   9  10
HETATM   10  C6  UNL     1       3.685  14.341  25.200  1.00  0.00     0.111 C 
BRANCH  10  11
HETATM   11  N5  UNL     1       2.831  13.260  25.015  1.00  0.00    -0.329 N 
HETATM   12  C7  UNL     1       2.147  12.487  26.062  1.00  0.00     0.150 C 
HETATM   13  C8  UNL     1       2.506  11.087  25.488  1.00  0.00     0.142 C 
HETATM   14  N6  UNL     1       2.213  11.331  24.098  1.00  0.00    -0.363 N 
HETATM   15  C9  UNL     1       2.397  12.569  23.818  1.00  0.00     0.190 C 
ATOM     16  H6  UNL     1       1.903  10.623  23.433  1.00  0.00     0.162 HD
HETATM   17  N7  UNL     1       2.247  13.263  22.574  1.00  0.00    -0.063 NA
ENDBRANCH  10  11
ENDBRANCH   9  10
BRANCH   8  18
HETATM   18  N4  UNL     1       4.004  15.690  22.628  1.00  0.00    -0.384 N 
ATOM     19  H42 UNL     1       4.979  15.787  22.344  1.00  0.00     0.157 HD
ATOM     20  H41 UNL     1       3.361  15.108  22.092  1.00  0.00     0.157 HD
ENDBRANCH   8  18
BRANCH   5  21
HETATM   21  N2  UNL     1       2.297  19.591  24.189  1.00  0.00    -0.234 N 
ATOM     22  H22 UNL     1       1.413  19.970  24.527  1.00  0.00     0.174 HD
ATOM     23  H21 UNL     1       2.935  20.199  23.676  1.00  0.00     0.174 HD
ENDBRANCH   5  21
TORSDOF 4
ENDMDL
MODEL 5
REMARK VINA RESULT: -6.319911392      1.666      5.307
REMARK  4 active torsions:
REMARK  status: ('A' for Active; 'I' for Inactive)
REMARK    1  A    between atoms: C3_5  and  N2_6 
REMARK    2  A    between atoms: C4_11  and  N4_12 
REMARK    3  A    between atoms: C5_15  and  C6_16 
REMARK    4  A    between atoms: C6_16  and  N5_17 
ROOT
HETATM    1  C1  UNL     1       2.627  14.249  26.390  1.00  0.00     0.070 C 
HETATM    2  C2  UNL     1       3.020  14.152  24.966  1.00  0.00     0.038 A 
HETATM    3  N1  UNL     1       2.793  13.021  24.309  1.00  0.00    -0.195 N 
ATOM      4  H1  UNL     1       2.354  12.230  24.780  1.00  0.00     0.184 HD
HETATM    5  C3  UNL     1       3.152  12.931  23.008  1.00  0.00     0.677 A 
HETATM    6  N3  UNL     1       3.728  13.987  22.412  1.00  0.00    -0.176 N 
ATOM      7  H3  UNL     1       3.997  13.917  21.432  1.00  0.00     0.186 HD
HETATM    8  C4  UNL     1       3.965  15.159  23.086  1.00  0.00     0.128 A 
HETATM    9  C5  UNL     1       3.621  15.289  24.392  1.00  0.00     0.046 A 
ENDROOT
BRANCH   9  10
HETATM   10  C6  UNL     1       3.787  16.486  25.203  1.00  0.00     0.111 C 
BRANCH  10  11
HETATM   11  N5  UNL     1       2.883  17.542  25.187  1.00  0.00    -0.329 N 
HETATM   12  C7  UNL     1       2.278  18.168  24.000  1.00  0.00     0.150 C 
HETATM   13  C8  UNL     1       2.533  19.635  24.447  1.00  0.00     0.142 C 
HETATM   14  N6  UNL     1       2.113  19.528  25.822  1.00  0.00    -0.363 N 
HETATM   15  C9  UNL     1       2.311  18.337  26.254  1.00  0.00     0.190 C 
ATOM     16  H6  UNL     1       1.717  20.290  26.373  1.00  0.00     0.162 HD
HETATM   17  N7  UNL     1       2.064  17.774  27.547  1.00  0.00    -0.063 NA
ENDBRANCH  10  11
ENDBRANCH   9  10
BRANCH   8  18
HETATM   18  N4  UNL     1       4.491  16.088  22.396  1.00  0.00    -0.384 N 
ATOM     19  H42 UNL     1       4.365  16.189  21.389  1.00  0.00     0.157 HD
ATOM     20  H41 UNL     1       5.083  16.737  22.915  1.00  0.00     0.157 HD
ENDBRANCH   8  18
BRANCH   5  21
HETATM   21  N2  UNL     1       2.934  11.828  22.359  1.00  0.00    -0.234 N 
ATOM     22  H22 UNL     1       3.588  11.491  21.653  1.00  0.00     0.174 HD
ATOM     23  H21 UNL     1       2.092  11.288  22.555  1.00  0.00     0.174 HD
ENDBRANCH   5  21
TORSDOF 4
ENDMDL
