MODEL 1
REMARK VINA RESULT: -8.386596255      0.000      0.000
REMARK  4 active torsions:
REMARK  status: ('A' for Active; 'I' for Inactive)
REMARK    1  A    between atoms: N1_1  and  C1_4 
REMARK    2  A    between atoms: C2_7  and  C3_8 
REMARK    3  A    between atoms: C4_9  and  N3_10 
REMARK    4  A    between atoms: C5_12  and  C6_13 
ROOT
HETATM    1  C3  UNL     1       3.246  16.150  25.269  1.00  0.00     0.067 C 
HETATM    2  C4  UNL     1       3.505  14.991  24.718  1.00  0.00     0.091 C 
ENDROOT
BRANCH   2   3
HETATM    3  N3  UNL     1       3.378  14.760  23.352  1.00  0.00    -0.373 N 
HETATM    4  C5  UNL     1       3.014  13.607  22.909  1.00  0.00     0.124 C 
ATOM      5  H3  UNL     1       3.576  15.514  22.694  1.00  0.00     0.164 HD
BRANCH   4   6
HETATM    6  C6  UNL     1       2.737  12.538  23.841  1.00  0.00     0.134 A 
HETATM    7  N4  UNL     1       3.406  12.032  24.871  1.00  0.00    -0.280 N 
HETATM    8  N5  UNL     1       2.771  11.039  25.450  1.00  0.00    -0.239 N 
ATOM      9  H4  UNL     1       4.315  12.377  25.179  1.00  0.00     0.189 HD
HETATM   10  N6  UNL     1       1.645  10.866  24.800  1.00  0.00    -0.250 N 
ATOM     11  H5  UNL     1       3.093  10.502  26.255  1.00  0.00     0.208 HD
HETATM   12  C7  UNL     1       1.567  11.766  23.792  1.00  0.00     0.290 A 
ATOM     13  H6  UNL     1       0.939  10.164  25.021  1.00  0.00     0.192 HD
HETATM   14  O1  UNL     1       0.635  11.898  22.964  1.00  0.00    -0.264 OA
ENDBRANCH   4   6
ENDBRANCH   2   3
BRANCH   1  15
HETATM   15  C2  UNL     1       2.803  17.370  24.656  1.00  0.00     0.137 A 
HETATM   16  N2  UNL     1       2.561  18.516  25.311  1.00  0.00    -0.174 N 
HETATM   17  C1  UNL     1       2.162  19.422  24.437  1.00  0.00     0.692 A 
ATOM     18  H2  UNL     1       2.668  18.663  26.315  1.00  0.00     0.186 HD
HETATM   19  N8  UNL     1       2.133  18.896  23.212  1.00  0.00    -0.131 N 
HETATM   20  N7  UNL     1       2.536  17.618  23.375  1.00  0.00    -0.271 N 
ATOM     21  H8  UNL     1       1.865  19.357  22.343  1.00  0.00     0.205 HD
ATOM     22  H7  UNL     1       2.624  16.937  22.621  1.00  0.00     0.189 HD
BRANCH  17  23
HETATM   23  N1  UNL     1       1.839  20.653  24.713  1.00  0.00    -0.233 N 
ATOM     24  H12 UNL     1       2.059  21.121  25.592  1.00  0.00     0.174 HD
ATOM     25  H11 UNL     1       1.335  21.289  24.095  1.00  0.00     0.174 HD
ENDBRANCH  17  23
ENDBRANCH   1  15
TORSDOF 4
ENDMDL
MODEL 2
REMARK VINA RESULT: -8.201998123      0.771      1.246
REMARK  4 active torsions:
REMARK  status: ('A' for Active; 'I' for Inactive)
REMARK    1  A    between atoms: N1_1  and  C1_4 
REMARK    2  A    between atoms: C2_7  and  C3_8 
REMARK    3  A    between atoms: C4_9  and  N3_10 
REMARK    4  A    between atoms: C5_12  and  C6_13 
ROOT
HETATM    1  C3  UNL     1       2.834  16.326  26.023  1.00  0.00     0.067 C 
HETATM    2  C4  UNL     1       3.184  15.259  25.350  1.00  0.00     0.091 C 
ENDROOT
BRANCH   2   3
HETATM    3  N3  UNL     1       3.388  15.271  23.974  1.00  0.00    -0.373 N 
HETATM    4  C5  UNL     1       3.286  14.188  23.283  1.00  0.00     0.124 C 
ATOM      5  H3  UNL     1       3.621  16.147  23.506  1.00  0.00     0.164 HD
BRANCH   4   6
HETATM    6  C6  UNL     1       2.959  12.946  23.944  1.00  0.00     0.134 A 
HETATM    7  N4  UNL     1       3.527  12.265  24.933  1.00  0.00    -0.280 N 
HETATM    8  N5  UNL     1       2.883  11.157  25.221  1.00  0.00    -0.239 N 
ATOM      9  H4  UNL     1       4.371  12.569  25.417  1.00  0.00     0.189 HD
HETATM   10  N6  UNL     1       1.855  11.083  24.410  1.00  0.00    -0.250 N 
ATOM     11  H5  UNL     1       3.135  10.480  25.940  1.00  0.00     0.208 HD
HETATM   12  C7  UNL     1       1.848  12.164  23.596  1.00  0.00     0.290 A 
ATOM     13  H6  UNL     1       1.168  10.329  24.396  1.00  0.00     0.192 HD
HETATM   14  O1  UNL     1       1.016  12.431  22.696  1.00  0.00    -0.264 OA
ENDBRANCH   4   6
ENDBRANCH   2   3
BRANCH   1  15
HETATM   15  C2  UNL     1       2.591  17.660  25.554  1.00  0.00     0.137 A 
HETATM   16  N2  UNL     1       2.532  18.022  24.262  1.00  0.00    -0.174 N 
HETATM   17  C1  UNL     1       2.304  19.322  24.201  1.00  0.00     0.692 A 
ATOM     18  H2  UNL     1       2.644  17.397  23.462  1.00  0.00     0.186 HD
HETATM   19  N8  UNL     1       2.213  19.829  25.430  1.00  0.00    -0.131 N 
HETATM   20  N7  UNL     1       2.395  18.775  26.254  1.00  0.00    -0.271 N 
ATOM     21  H8  UNL     1       2.043  20.800  25.691  1.00  0.00     0.205 HD
ATOM     22  H7  UNL     1       2.384  18.826  27.272  1.00  0.00     0.189 HD
BRANCH  17  23
HETATM   23  N1  UNL     1       2.185  20.021  23.108  1.00  0.00    -0.233 N 
ATOM     24  H12 UNL     1       2.643  19.791  22.227  1.00  0.00     0.174 HD
ATOM     25  H11 UNL     1       1.628  20.868  23.003  1.00  0.00     0.174 HD
ENDBRANCH  17  23
ENDBRANCH   1  15
TORSDOF 4
ENDMDL
MODEL 3
REMARK VINA RESULT: -7.928217973      2.092      2.538
REMARK  4 active torsions:
REMARK  status: ('A' for Active; 'I' for Inactive)
REMARK    1  A    between atoms: N1_1  and  C1_4 
REMARK    2  A    between atoms: C2_7  and  C3_8 
REMARK    3  A    between atoms: C4_9  and  N3_10 
REMARK    4  A    between atoms: C5_12  and  C6_13 
ROOT
HETATM    1  C3  UNL     1       3.485  16.817  24.413  1.00  0.00     0.067 C 
HETATM    2  C4  UNL     1       3.641  15.520  24.328  1.00  0.00     0.091 C 
ENDROOT
BRANCH   2   3
HETATM    3  N3  UNL     1       3.183  14.640  25.303  1.00  0.00    -0.373 N 
HETATM    4  C5  UNL     1       2.825  13.442  24.995  1.00  0.00     0.124 C 
ATOM      5  H3  UNL     1       3.129  14.947  26.275  1.00  0.00     0.164 HD
BRANCH   4   6
HETATM    6  C6  UNL     1       2.898  13.006  23.619  1.00  0.00     0.134 A 
HETATM    7  N4  UNL     1       2.649  13.605  22.460  1.00  0.00    -0.280 N 
HETATM    8  N5  UNL     1       2.846  12.816  21.428  1.00  0.00    -0.239 N 
ATOM      9  H4  UNL     1       2.338  14.573  22.380  1.00  0.00     0.189 HD
HETATM   10  N6  UNL     1       3.238  11.656  21.895  1.00  0.00    -0.250 N 
ATOM     11  H5  UNL     1       2.718  13.061  20.447  1.00  0.00     0.208 HD
HETATM   12  C7  UNL     1       3.290  11.712  23.247  1.00  0.00     0.290 A 
ATOM     13  H6  UNL     1       3.468  10.840  21.329  1.00  0.00     0.192 HD
HETATM   14  O1  UNL     1       3.622  10.791  24.032  1.00  0.00    -0.264 OA
ENDBRANCH   4   6
ENDBRANCH   2   3
BRANCH   1  15
HETATM   15  C2  UNL     1       2.857  17.592  25.445  1.00  0.00     0.137 A 
HETATM   16  N2  UNL     1       2.225  18.760  25.253  1.00  0.00    -0.174 N 
HETATM   17  C1  UNL     1       1.780  19.193  26.419  1.00  0.00     0.692 A 
ATOM     18  H2  UNL     1       2.108  19.234  24.357  1.00  0.00     0.186 HD
HETATM   19  N8  UNL     1       2.107  18.331  27.383  1.00  0.00    -0.131 N 
HETATM   20  N7  UNL     1       2.776  17.344  26.751  1.00  0.00    -0.271 N 
ATOM     21  H8  UNL     1       1.898  18.403  28.378  1.00  0.00     0.205 HD
ATOM     22  H7  UNL     1       3.167  16.522  27.211  1.00  0.00     0.189 HD
BRANCH  17  23
HETATM   23  N1  UNL     1       1.118  20.297  26.617  1.00  0.00    -0.233 N 
ATOM     24  H12 UNL     1       1.441  21.063  27.207  1.00  0.00     0.174 HD
ATOM     25  H11 UNL     1       0.210  20.526  26.212  1.00  0.00     0.174 HD
ENDBRANCH  17  23
ENDBRANCH   1  15
TORSDOF 4
ENDMDL
MODEL 4
REMARK VINA RESULT: -7.926533281      1.556      2.017
REMARK  4 active torsions:
REMARK  status: ('A' for Active; 'I' for Inactive)
REMARK    1  A    between atoms: N1_1  and  C1_4 
REMARK    2  A    between atoms: C2_7  and  C3_8 
REMARK    3  A    between atoms: C4_9  and  N3_10 
REMARK    4  A    between atoms: C5_12  and  C6_13 
ROOT
HETATM    1  C3  UNL     1       3.605  15.790  24.180  1.00  0.00     0.067 C 
HETATM    2  C4  UNL     1       3.583  14.489  24.313  1.00  0.00     0.091 C 
ENDROOT
BRANCH   2   3
HETATM    3  N3  UNL     1       3.038  13.854  25.425  1.00  0.00    -0.373 N 
HETATM    4  C5  UNL     1       2.686  12.617  25.371  1.00  0.00     0.124 C 
ATOM      5  H3  UNL     1       2.916  14.376  26.293  1.00  0.00     0.164 HD
BRANCH   4   6
HETATM    6  C6  UNL     1       2.855  11.878  24.141  1.00  0.00     0.134 A 
HETATM    7  N4  UNL     1       3.875  11.209  23.615  1.00  0.00    -0.280 N 
HETATM    8  N5  UNL     1       3.586  10.680  22.447  1.00  0.00    -0.239 N 
ATOM      9  H4  UNL     1       4.784  11.116  24.067  1.00  0.00     0.189 HD
HETATM   10  N6  UNL     1       2.343  10.995  22.175  1.00  0.00    -0.250 N 
ATOM     11  H5  UNL     1       4.211  10.127  21.863  1.00  0.00     0.208 HD
HETATM   12  C7  UNL     1       1.836  11.737  23.188  1.00  0.00     0.290 A 
ATOM     13  H6  UNL     1       1.837  10.724  21.332  1.00  0.00     0.192 HD
HETATM   14  O1  UNL     1       0.680  12.215  23.273  1.00  0.00    -0.264 OA
ENDBRANCH   4   6
ENDBRANCH   2   3
BRANCH   1  15
HETATM   15  C2  UNL     1       3.117  16.805  25.070  1.00  0.00     0.137 A 
HETATM   16  N2  UNL     1       2.538  17.953  24.685  1.00  0.00    -0.174 N 
HETATM   17  C1  UNL     1       2.224  18.647  25.764  1.00  0.00     0.692 A 
ATOM     18  H2  UNL     1       2.368  18.241  23.720  1.00  0.00     0.186 HD
HETATM   19  N8  UNL     1       2.587  17.980  26.859  1.00  0.00    -0.131 N 
HETATM   20  N7  UNL     1       3.140  16.837  26.401  1.00  0.00    -0.271 N 
ATOM     21  H8  UNL     1       2.472  18.269  27.830  1.00  0.00     0.205 HD
ATOM     22  H7  UNL     1       3.522  16.100  26.993  1.00  0.00     0.189 HD
BRANCH  17  23
HETATM   23  N1  UNL     1       1.646  19.815  25.774  1.00  0.00    -0.233 N 
ATOM     24  H12 UNL     1       1.779  20.527  25.057  1.00  0.00     0.174 HD
ATOM     25  H11 UNL     1       1.001  20.152  26.488  1.00  0.00     0.174 HD
ENDBRANCH  17  23
ENDBRANCH   1  15
TORSDOF 4
ENDMDL
MODEL 5
REMARK VINA RESULT: -7.815354145      1.462      1.802
REMARK  4 active torsions:
REMARK  status: ('A' for Active; 'I' for Inactive)
REMARK    1  A    between atoms: N1_1  and  C1_4 
REMARK    2  A    between atoms: C2_7  and  C3_8 
REMARK    3  A    between atoms: C4_9  and  N3_10 
REMARK    4  A    between atoms: C5_12  and  C6_13 
ROOT
HETATM    1  C3  UNL     1       2.582  16.998  26.500  1.00  0.00     0.067 C 
HETATM    2  C4  UNL     1       3.159  16.057  25.797  1.00  0.00     0.091 C 
ENDROOT
BRANCH   2   3
HETATM    3  N3  UNL     1       3.517  16.225  24.463  1.00  0.00    -0.373 N 
HETATM    4  C5  UNL     1       3.599  15.214  23.670  1.00  0.00     0.124 C 
ATOM      5  H3  UNL     1       3.717  17.161  24.109  1.00  0.00     0.164 HD
BRANCH   4   6
HETATM    6  C6  UNL     1       3.319  13.888  24.170  1.00  0.00     0.134 A 
HETATM    7  N4  UNL     1       3.680  13.235  25.269  1.00  0.00    -0.280 N 
HETATM    8  N5  UNL     1       3.190  12.017  25.320  1.00  0.00    -0.239 N 
ATOM      9  H4  UNL     1       4.274  13.635  25.995  1.00  0.00     0.189 HD
HETATM   10  N6  UNL     1       2.480  11.838  24.233  1.00  0.00    -0.250 N 
ATOM     11  H5  UNL     1       3.335  11.338  26.066  1.00  0.00     0.208 HD
HETATM   12  C7  UNL     1       2.522  12.963  23.481  1.00  0.00     0.290 A 
ATOM     13  H6  UNL     1       1.975  10.985  23.992  1.00  0.00     0.192 HD
HETATM   14  O1  UNL     1       1.961  13.157  22.375  1.00  0.00    -0.264 OA
ENDBRANCH   4   6
ENDBRANCH   2   3
BRANCH   1  15
HETATM   15  C2  UNL     1       2.205  18.326  26.107  1.00  0.00     0.137 A 
HETATM   16  N2  UNL     1       1.433  19.152  26.831  1.00  0.00    -0.174 N 
HETATM   17  C1  UNL     1       1.285  20.281  26.162  1.00  0.00     0.692 A 
ATOM     18  H2  UNL     1       1.029  18.942  27.745  1.00  0.00     0.186 HD
HETATM   19  N8  UNL     1       1.946  20.218  25.006  1.00  0.00    -0.131 N 
HETATM   20  N7  UNL     1       2.509  18.992  24.995  1.00  0.00    -0.271 N 
ATOM     21  H8  UNL     1       2.010  20.938  24.286  1.00  0.00     0.205 HD
ATOM     22  H7  UNL     1       3.088  18.626  24.240  1.00  0.00     0.189 HD
BRANCH  17  23
HETATM   23  N1  UNL     1       0.599  21.315  26.559  1.00  0.00    -0.233 N 
ATOM     24  H12 UNL     1      -0.336  21.546  26.224  1.00  0.00     0.174 HD
ATOM     25  H11 UNL     1       0.907  22.006  27.242  1.00  0.00     0.174 HD
ENDBRANCH  17  23
ENDBRANCH   1  15
TORSDOF 4
ENDMDL
