MODEL 1
REMARK VINA RESULT: -7.647359944      0.000      0.000
REMARK  5 active torsions:
REMARK  status: ('A' for Active; 'I' for Inactive)
REMARK    1  A    between atoms: C4_5  and  C5_6 
REMARK    2  A    between atoms: C5_6  and  N2_7 
REMARK    3  A    between atoms: N2_7  and  C6_9 
REMARK    4  A    between atoms: C7_12  and  N4_13 
REMARK    5  A    between atoms: C8_18  and  N6_19 
ROOT
HETATM    1  C6  UNL     1       2.818  17.397  23.914  1.00  0.00     0.707 A 
HETATM    2  N3  UNL     1       2.353  18.521  23.321  1.00  0.00    -0.022 N 
ATOM      3  H3  UNL     1       2.316  18.585  22.304  1.00  0.00     0.203 HD
HETATM    4  C7  UNL     1       1.939  19.556  24.079  1.00  0.00     0.705 A 
HETATM    5  N5  UNL     1       1.983  19.486  25.429  1.00  0.00    -0.022 N 
ATOM      6  H5  UNL     1       1.666  20.280  25.984  1.00  0.00     0.203 HD
HETATM    7  C8  UNL     1       2.439  18.384  26.048  1.00  0.00     0.705 A 
HETATM    8  N7  UNL     1       2.843  17.372  25.256  1.00  0.00    -0.022 N 
ATOM      9  H7  UNL     1       3.192  16.527  25.708  1.00  0.00     0.203 HD
ENDROOT
BRANCH   1  10
HETATM   10  N2  UNL     1       3.201  16.437  23.162  1.00  0.00    -0.219 N 
ATOM     11  H2  UNL     1       2.860  16.414  22.201  1.00  0.00     0.178 HD
BRANCH  10  12
HETATM   12  C5  UNL     1       4.086  15.386  23.590  1.00  0.00     0.196 C 
BRANCH  12  13
HETATM   13  C4  UNL     1       3.350  14.089  23.534  1.00  0.00     0.045 A 
HETATM   14  C3  UNL     1       3.153  13.202  24.577  1.00  0.00     0.047 A 
HETATM   15  C2  UNL     1       2.421  12.124  24.107  1.00  0.00     0.111 A 
HETATM   16  N1  UNL     1       2.195  12.382  22.806  1.00  0.00    -0.308 N 
HETATM   17  C1  UNL     1       1.453  11.514  21.895  1.00  0.00     0.177 C 
HETATM   18  N8  UNL     1       2.737  13.532  22.469  1.00  0.00    -0.302 N 
ATOM     19  H8  UNL     1       2.701  13.943  21.536  1.00  0.00     0.187 HD
ENDBRANCH  12  13
ENDBRANCH  10  12
ENDBRANCH   1  10
BRANCH   4  20
HETATM   20  N4  UNL     1       1.490  20.642  23.520  1.00  0.00    -0.234 N 
ATOM     21  H42 UNL     1       0.506  20.691  23.259  1.00  0.00     0.174 HD
ATOM     22  H41 UNL     1       2.116  21.430  23.349  1.00  0.00     0.174 HD
ENDBRANCH   4  20
BRANCH   7  23
HETATM   23  N6  UNL     1       2.481  18.316  27.335  1.00  0.00    -0.234 N 
ATOM     24  H62 UNL     1       1.643  18.204  27.905  1.00  0.00     0.174 HD
ATOM     25  H61 UNL     1       3.368  18.371  27.834  1.00  0.00     0.174 HD
ENDBRANCH   7  23
TORSDOF 5
ENDMDL
MODEL 2
REMARK VINA RESULT: -7.641303480      0.063      1.992
REMARK  5 active torsions:
REMARK  status: ('A' for Active; 'I' for Inactive)
REMARK    1  A    between atoms: C4_5  and  C5_6 
REMARK    2  A    between atoms: C5_6  and  N2_7 
REMARK    3  A    between atoms: N2_7  and  C6_9 
REMARK    4  A    between atoms: C7_12  and  N4_13 
REMARK    5  A    between atoms: C8_18  and  N6_19 
ROOT
HETATM    1  C6  UNL     1       2.810  17.426  23.865  1.00  0.00     0.707 A 
HETATM    2  N3  UNL     1       2.863  17.332  25.214  1.00  0.00    -0.022 N 
ATOM      3  H3  UNL     1       3.202  16.477  25.655  1.00  0.00     0.203 HD
HETATM    4  C7  UNL     1       2.465  18.371  25.974  1.00  0.00     0.705 A 
HETATM    5  N5  UNL     1       2.012  19.511  25.405  1.00  0.00    -0.022 N 
ATOM      6  H5  UNL     1       1.714  20.286  25.998  1.00  0.00     0.203 HD
HETATM    7  C8  UNL     1       1.947  19.637  24.069  1.00  0.00     0.705 A 
HETATM    8  N7  UNL     1       2.354  18.576  23.345  1.00  0.00    -0.022 N 
ATOM      9  H7  UNL     1       2.312  18.653  22.329  1.00  0.00     0.203 HD
ENDROOT
BRANCH   1  10
HETATM   10  N2  UNL     1       3.197  16.419  23.178  1.00  0.00    -0.219 N 
ATOM     11  H2  UNL     1       2.883  16.351  22.210  1.00  0.00     0.178 HD
BRANCH  10  12
HETATM   12  C5  UNL     1       4.047  15.379  23.689  1.00  0.00     0.196 C 
BRANCH  12  13
HETATM   13  C4  UNL     1       3.325  14.076  23.585  1.00  0.00     0.045 A 
HETATM   14  C3  UNL     1       3.117  13.161  24.600  1.00  0.00     0.047 A 
HETATM   15  C2  UNL     1       2.405  12.089  24.089  1.00  0.00     0.111 A 
HETATM   16  N1  UNL     1       2.201  12.379  22.791  1.00  0.00    -0.308 N 
HETATM   17  C1  UNL     1       1.485  11.528  21.843  1.00  0.00     0.177 C 
HETATM   18  N8  UNL     1       2.739  13.542  22.494  1.00  0.00    -0.302 N 
ATOM     19  H8  UNL     1       2.716  13.977  21.572  1.00  0.00     0.187 HD
ENDBRANCH  12  13
ENDBRANCH  10  12
ENDBRANCH   1  10
BRANCH   4  20
HETATM   20  N4  UNL     1       2.511  18.292  27.272  1.00  0.00    -0.234 N 
ATOM     21  H42 UNL     1       3.230  17.713  27.706  1.00  0.00     0.174 HD
ATOM     22  H41 UNL     1       1.837  18.804  27.844  1.00  0.00     0.174 HD
ENDBRANCH   4  20
BRANCH   7  23
HETATM   23  N6  UNL     1       1.515  20.723  23.525  1.00  0.00    -0.234 N 
ATOM     24  H62 UNL     1       1.859  21.644  23.793  1.00  0.00     0.174 HD
ATOM     25  H61 UNL     1       0.803  20.696  22.795  1.00  0.00     0.174 HD
ENDBRANCH   7  23
TORSDOF 5
ENDMDL
MODEL 3
REMARK VINA RESULT: -7.623398039      1.558      6.208
REMARK  5 active torsions:
REMARK  status: ('A' for Active; 'I' for Inactive)
REMARK    1  A    between atoms: C4_5  and  C5_6 
REMARK    2  A    between atoms: C5_6  and  N2_7 
REMARK    3  A    between atoms: N2_7  and  C6_9 
REMARK    4  A    between atoms: C7_12  and  N4_13 
REMARK    5  A    between atoms: C8_18  and  N6_19 
ROOT
HETATM    1  C6  UNL     1       3.242  14.513  24.206  1.00  0.00     0.707 A 
HETATM    2  N3  UNL     1       3.264  14.276  22.874  1.00  0.00    -0.022 N 
ATOM      3  H3  UNL     1       3.370  15.050  22.217  1.00  0.00     0.203 HD
HETATM    4  C7  UNL     1       3.145  13.014  22.416  1.00  0.00     0.705 A 
HETATM    5  N5  UNL     1       3.003  11.978  23.273  1.00  0.00    -0.022 N 
ATOM      6  H5  UNL     1       2.913  11.030  22.907  1.00  0.00     0.203 HD
HETATM    7  C8  UNL     1       2.978  12.179  24.601  1.00  0.00     0.705 A 
HETATM    8  N7  UNL     1       3.100  13.454  25.019  1.00  0.00    -0.022 N 
ATOM      9  H7  UNL     1       3.084  13.628  26.023  1.00  0.00     0.203 HD
ENDROOT
BRANCH   1  10
HETATM   10  N2  UNL     1       3.359  15.723  24.601  1.00  0.00    -0.219 N 
ATOM     11  H2  UNL     1       3.547  16.441  23.901  1.00  0.00     0.178 HD
BRANCH  10  12
HETATM   12  C5  UNL     1       3.240  16.133  25.974  1.00  0.00     0.196 C 
BRANCH  12  13
HETATM   13  C4  UNL     1       2.642  17.500  26.016  1.00  0.00     0.045 A 
HETATM   14  C3  UNL     1       2.045  18.112  27.103  1.00  0.00     0.047 A 
HETATM   15  C2  UNL     1       1.623  19.375  26.722  1.00  0.00     0.111 A 
HETATM   16  N1  UNL     1       1.971  19.496  25.428  1.00  0.00    -0.308 N 
HETATM   17  C1  UNL     1       1.725  20.674  24.599  1.00  0.00     0.177 C 
HETATM   18  N8  UNL     1       2.568  18.400  25.013  1.00  0.00    -0.302 N 
ATOM     19  H8  UNL     1       2.924  18.251  24.068  1.00  0.00     0.187 HD
ENDBRANCH  12  13
ENDBRANCH  10  12
ENDBRANCH   1  10
BRANCH   4  20
HETATM   20  N4  UNL     1       3.164  12.773  21.137  1.00  0.00    -0.234 N 
ATOM     21  H42 UNL     1       2.443  13.190  20.547  1.00  0.00     0.174 HD
ATOM     22  H41 UNL     1       3.889  12.178  20.735  1.00  0.00     0.174 HD
ENDBRANCH   4  20
BRANCH   7  23
HETATM   23  N6  UNL     1       2.843  11.193  25.420  1.00  0.00    -0.234 N 
ATOM     24  H62 UNL     1       1.991  11.043  25.960  1.00  0.00     0.174 HD
ATOM     25  H61 UNL     1       3.594  10.517  25.557  1.00  0.00     0.174 HD
ENDBRANCH   7  23
TORSDOF 5
ENDMDL
MODEL 4
REMARK VINA RESULT: -7.619503772      1.558      6.490
REMARK  5 active torsions:
REMARK  status: ('A' for Active; 'I' for Inactive)
REMARK    1  A    between atoms: C4_5  and  C5_6 
REMARK    2  A    between atoms: C5_6  and  N2_7 
REMARK    3  A    between atoms: N2_7  and  C6_9 
REMARK    4  A    between atoms: C7_12  and  N4_13 
REMARK    5  A    between atoms: C8_18  and  N6_19 
ROOT
HETATM    1  C6  UNL     1       3.298  14.538  24.181  1.00  0.00     0.707 A 
HETATM    2  N3  UNL     1       3.139  13.507  25.042  1.00  0.00    -0.022 N 
ATOM      3  H3  UNL     1       3.136  13.676  26.048  1.00  0.00     0.203 HD
HETATM    4  C7  UNL     1       2.986  12.255  24.567  1.00  0.00     0.705 A 
HETATM    5  N5  UNL     1       2.989  12.015  23.236  1.00  0.00    -0.022 N 
ATOM      6  H5  UNL     1       2.872  11.060  22.897  1.00  0.00     0.203 HD
HETATM    7  C8  UNL     1       3.143  13.017  22.355  1.00  0.00     0.705 A 
HETATM    8  N7  UNL     1       3.293  14.253  22.869  1.00  0.00    -0.022 N 
ATOM      9  H7  UNL     1       3.412  15.027  22.215  1.00  0.00     0.203 HD
ENDROOT
BRANCH   1  10
HETATM   10  N2  UNL     1       3.440  15.712  24.669  1.00  0.00    -0.219 N 
ATOM     11  H2  UNL     1       3.832  16.437  24.068  1.00  0.00     0.178 HD
BRANCH  10  12
HETATM   12  C5  UNL     1       3.079  16.070  26.014  1.00  0.00     0.196 C 
BRANCH  12  13
HETATM   13  C4  UNL     1       2.569  17.472  26.016  1.00  0.00     0.045 A 
HETATM   14  C3  UNL     1       2.000  18.147  27.081  1.00  0.00     0.047 A 
HETATM   15  C2  UNL     1       1.664  19.424  26.665  1.00  0.00     0.111 A 
HETATM   16  N1  UNL     1       2.033  19.492  25.373  1.00  0.00    -0.308 N 
HETATM   17  C1  UNL     1       1.872  20.662  24.514  1.00  0.00     0.177 C 
HETATM   18  N8  UNL     1       2.564  18.350  24.991  1.00  0.00    -0.302 N 
ATOM     19  H8  UNL     1       2.921  18.156  24.055  1.00  0.00     0.187 HD
ENDBRANCH  12  13
ENDBRANCH  10  12
ENDBRANCH   1  10
BRANCH   4  20
HETATM   20  N4  UNL     1       2.833  11.255  25.385  1.00  0.00    -0.234 N 
ATOM     21  H42 UNL     1       3.146  10.329  25.095  1.00  0.00     0.174 HD
ATOM     22  H41 UNL     1       2.407  11.399  26.302  1.00  0.00     0.174 HD
ENDBRANCH   4  20
BRANCH   7  23
HETATM   23  N6  UNL     1       3.147  12.790  21.085  1.00  0.00    -0.234 N 
ATOM     24  H62 UNL     1       3.824  12.170  20.642  1.00  0.00     0.174 HD
ATOM     25  H61 UNL     1       2.461  13.229  20.472  1.00  0.00     0.174 HD
ENDBRANCH   7  23
TORSDOF 5
ENDMDL
MODEL 5
REMARK VINA RESULT: -7.459417872      1.327      1.686
REMARK  5 active torsions:
REMARK  status: ('A' for Active; 'I' for Inactive)
REMARK    1  A    between atoms: C4_5  and  C5_6 
REMARK    2  A    between atoms: C5_6  and  N2_7 
REMARK    3  A    between atoms: N2_7  and  C6_9 
REMARK    4  A    between atoms: C7_12  and  N4_13 
REMARK    5  A    between atoms: C8_18  and  N6_19 
ROOT
HETATM    1  C6  UNL     1       2.489  18.154  25.655  1.00  0.00     0.707 A 
HETATM    2  N3  UNL     1       2.757  18.933  24.582  1.00  0.00    -0.022 N 
ATOM      3  H3  UNL     1       3.377  18.594  23.845  1.00  0.00     0.203 HD
HETATM    4  C7  UNL     1       2.203  20.158  24.488  1.00  0.00     0.705 A 
HETATM    5  N5  UNL     1       1.380  20.621  25.456  1.00  0.00    -0.022 N 
ATOM      6  H5  UNL     1       0.972  21.551  25.367  1.00  0.00     0.203 HD
HETATM    7  C8  UNL     1       1.093  19.872  26.534  1.00  0.00     0.705 A 
HETATM    8  N7  UNL     1       1.666  18.654  26.590  1.00  0.00    -0.022 N 
ATOM      9  H7  UNL     1       1.460  18.070  27.401  1.00  0.00     0.203 HD
ENDROOT
BRANCH   1  10
HETATM   10  N2  UNL     1       3.032  16.997  25.708  1.00  0.00    -0.219 N 
ATOM     11  H2  UNL     1       2.823  16.405  26.511  1.00  0.00     0.178 HD
BRANCH  10  12
HETATM   12  C5  UNL     1       3.921  16.482  24.701  1.00  0.00     0.196 C 
BRANCH  12  13
HETATM   13  C4  UNL     1       3.487  15.099  24.343  1.00  0.00     0.045 A 
HETATM   14  C3  UNL     1       3.208  14.065  25.217  1.00  0.00     0.047 A 
HETATM   15  C2  UNL     1       2.840  12.951  24.480  1.00  0.00     0.111 A 
HETATM   16  N1  UNL     1       2.904  13.334  23.192  1.00  0.00    -0.308 N 
HETATM   17  C1  UNL     1       2.598  12.482  22.046  1.00  0.00     0.177 C 
HETATM   18  N8  UNL     1       3.282  14.592  23.109  1.00  0.00    -0.302 N 
ATOM     19  H8  UNL     1       3.404  15.109  22.239  1.00  0.00     0.187 HD
ENDBRANCH  12  13
ENDBRANCH  10  12
ENDBRANCH   1  10
BRANCH   4  20
HETATM   20  N4  UNL     1       2.454  20.916  23.461  1.00  0.00    -0.234 N 
ATOM     21  H42 UNL     1       3.424  21.147  23.244  1.00  0.00     0.174 HD
ATOM     22  H41 UNL     1       1.691  21.272  22.884  1.00  0.00     0.174 HD
ENDBRANCH   4  20
BRANCH   7  23
HETATM   23  N6  UNL     1       0.309  20.312  27.458  1.00  0.00    -0.234 N 
ATOM     24  H62 UNL     1       0.356  21.269  27.806  1.00  0.00     0.174 HD
ATOM     25  H61 UNL     1      -0.396  19.708  27.879  1.00  0.00     0.174 HD
ENDBRANCH   7  23
TORSDOF 5
ENDMDL
