MODEL 1
REMARK VINA RESULT: -6.721041332      0.000      0.000
REMARK  4 active torsions:
REMARK  status: ('A' for Active; 'I' for Inactive)
REMARK    1  A    between atoms: O1_2  and  C2_3 
REMARK    2  A    between atoms: C4_5  and  N1_6 
REMARK    3  A    between atoms: C5_13  and  C6_14 
REMARK    4  A    between atoms: N4_15  and  N5_17 
ROOT
HETATM    1  C2  UNL     1       3.197  15.641  25.222  1.00  0.00     0.101 A 
HETATM    2  C3  UNL     1       2.904  16.805  25.905  1.00  0.00     0.088 A 
HETATM    3  C4  UNL     1       2.635  17.950  25.182  1.00  0.00     0.116 A 
HETATM    4  N2  UNL     1       2.676  17.861  23.847  1.00  0.00    -0.285 N 
ATOM      5  H2  UNL     1       2.480  18.700  23.301  1.00  0.00     0.188 HD
HETATM    6  N3  UNL     1       2.959  16.744  23.197  1.00  0.00    -0.295 N 
ATOM      7  H3  UNL     1       2.973  16.755  22.178  1.00  0.00     0.187 HD
HETATM    8  C5  UNL     1       3.231  15.590  23.844  1.00  0.00     0.098 A 
ENDROOT
BRANCH   8   9
HETATM    9  C6  UNL     1       3.536  14.380  23.114  1.00  0.00     0.141 C 
HETATM   10  N4  UNL     1       2.653  13.451  22.971  1.00  0.00    -0.307 N 
ATOM     11  H4  UNL     1       1.729  13.581  23.383  1.00  0.00     0.186 HD
BRANCH  10  12
HETATM   12  N5  UNL     1       2.918  12.285  22.277  1.00  0.00    -0.276 N 
HETATM   13  C7  UNL     1       3.025  11.121  22.780  1.00  0.00     0.215 C 
HETATM   14  N6  UNL     1       2.884  10.825  24.165  1.00  0.00    -0.065 NA
HETATM   15  N7  UNL     1       3.302  10.033  21.911  1.00  0.00    -0.065 NA
ATOM     16  H5  UNL     1       3.039  12.366  21.268  1.00  0.00     0.189 HD
ENDBRANCH  10  12
ENDBRANCH   8   9
BRANCH   1  17
HETATM   17  O1  UNL     1       3.471  14.475  25.906  1.00  0.00    -0.353 OA
HETATM   18  C1  UNL     1       2.482  13.662  26.497  1.00  0.00     0.210 C 
ENDBRANCH   1  17
BRANCH   3  19
HETATM   19  N1  UNL     1       2.350  19.088  25.750  1.00  0.00    -0.384 N 
ATOM     20  H12 UNL     1       1.874  19.102  26.651  1.00  0.00     0.157 HD
ATOM     21  H11 UNL     1       2.585  19.987  25.328  1.00  0.00     0.157 HD
ENDBRANCH   3  19
TORSDOF 4
ENDMDL
MODEL 2
REMARK VINA RESULT: -6.651274008      2.333      3.029
REMARK  4 active torsions:
REMARK  status: ('A' for Active; 'I' for Inactive)
REMARK    1  A    between atoms: O1_2  and  C2_3 
REMARK    2  A    between atoms: C4_5  and  N1_6 
REMARK    3  A    between atoms: C5_13  and  C6_14 
REMARK    4  A    between atoms: N4_15  and  N5_17 
ROOT
HETATM    1  C2  UNL     1       2.417  17.958  24.376  1.00  0.00     0.101 A 
HETATM    2  C3  UNL     1       1.890  18.867  25.272  1.00  0.00     0.088 A 
HETATM    3  C4  UNL     1       2.071  18.650  26.623  1.00  0.00     0.116 A 
HETATM    4  N2  UNL     1       2.755  17.557  26.987  1.00  0.00    -0.285 N 
ATOM      5  H2  UNL     1       2.896  17.385  27.982  1.00  0.00     0.188 HD
HETATM    6  N3  UNL     1       3.257  16.689  26.125  1.00  0.00    -0.295 N 
ATOM      7  H3  UNL     1       3.765  15.879  26.478  1.00  0.00     0.187 HD
HETATM    8  C5  UNL     1       3.115  16.843  24.791  1.00  0.00     0.098 A 
ENDROOT
BRANCH   8   9
HETATM    9  C6  UNL     1       3.674  15.882  23.866  1.00  0.00     0.141 C 
HETATM   10  N4  UNL     1       2.927  15.003  23.291  1.00  0.00    -0.307 N 
ATOM     11  H4  UNL     1       1.928  14.992  23.499  1.00  0.00     0.186 HD
BRANCH  10  12
HETATM   12  N5  UNL     1       3.435  14.074  22.402  1.00  0.00    -0.276 N 
HETATM   13  C7  UNL     1       2.789  13.117  21.866  1.00  0.00     0.215 C 
HETATM   14  N6  UNL     1       1.412  12.844  22.098  1.00  0.00    -0.065 NA
HETATM   15  N7  UNL     1       3.477  12.256  20.972  1.00  0.00    -0.065 NA
ATOM     16  H5  UNL     1       4.419  14.164  22.153  1.00  0.00     0.189 HD
ENDBRANCH  10  12
ENDBRANCH   8   9
BRANCH   1  17
HETATM   17  O1  UNL     1       2.259  18.138  23.018  1.00  0.00    -0.353 OA
HETATM   18  C1  UNL     1       1.120  18.727  22.432  1.00  0.00     0.210 C 
ENDBRANCH   1  17
BRANCH   3  19
HETATM   19  N1  UNL     1       1.605  19.459  27.533  1.00  0.00    -0.384 N 
ATOM     20  H12 UNL     1       0.671  19.312  27.915  1.00  0.00     0.157 HD
ATOM     21  H11 UNL     1       2.141  20.249  27.891  1.00  0.00     0.157 HD
ENDBRANCH   3  19
TORSDOF 4
ENDMDL
MODEL 3
REMARK VINA RESULT: -6.646895211      1.202      5.778
REMARK  4 active torsions:
REMARK  status: ('A' for Active; 'I' for Inactive)
REMARK    1  A    between atoms: O1_2  and  C2_3 
REMARK    2  A    between atoms: C4_5  and  N1_6 
REMARK    3  A    between atoms: C5_13  and  C6_14 
REMARK    4  A    between atoms: N4_15  and  N5_17 
ROOT
HETATM    1  C2  UNL     1       3.240  13.040  24.668  1.00  0.00     0.101 A 
HETATM    2  C3  UNL     1       3.232  11.844  23.978  1.00  0.00     0.088 A 
HETATM    3  C4  UNL     1       3.211  11.872  22.598  1.00  0.00     0.116 A 
HETATM    4  N2  UNL     1       3.199  13.073  22.006  1.00  0.00    -0.285 N 
ATOM      5  H2  UNL     1       3.183  13.108  20.987  1.00  0.00     0.188 HD
HETATM    6  N3  UNL     1       3.204  14.216  22.671  1.00  0.00    -0.295 N 
ATOM      7  H3  UNL     1       3.192  15.092  22.149  1.00  0.00     0.187 HD
HETATM    8  C5  UNL     1       3.225  14.258  24.020  1.00  0.00     0.098 A 
ENDROOT
BRANCH   8   9
HETATM    9  C6  UNL     1       3.233  15.519  24.727  1.00  0.00     0.141 C 
HETATM   10  N4  UNL     1       2.857  16.607  24.146  1.00  0.00    -0.307 N 
ATOM     11  H4  UNL     1       2.554  16.568  23.174  1.00  0.00     0.186 HD
BRANCH  10  12
HETATM   12  N5  UNL     1       2.854  17.826  24.800  1.00  0.00    -0.276 N 
HETATM   13  C7  UNL     1       2.335  18.906  24.370  1.00  0.00     0.215 C 
HETATM   14  N6  UNL     1       1.660  19.036  23.125  1.00  0.00    -0.065 NA
HETATM   15  N7  UNL     1       2.428  20.068  25.180  1.00  0.00    -0.065 NA
ATOM     16  H5  UNL     1       3.310  17.862  25.711  1.00  0.00     0.189 HD
ENDBRANCH  10  12
ENDBRANCH   8   9
BRANCH   1  17
HETATM   17  O1  UNL     1       3.261  13.056  26.047  1.00  0.00    -0.353 OA
HETATM   18  C1  UNL     1       2.199  12.596  26.852  1.00  0.00     0.210 C 
ENDBRANCH   1  17
BRANCH   3  19
HETATM   19  N1  UNL     1       3.203  10.789  21.874  1.00  0.00    -0.384 N 
ATOM     20  H12 UNL     1       3.345   9.880  22.315  1.00  0.00     0.157 HD
ATOM     21  H11 UNL     1       3.057  10.804  20.864  1.00  0.00     0.157 HD
ENDBRANCH   3  19
TORSDOF 4
ENDMDL
MODEL 4
REMARK VINA RESULT: -6.637785773      1.467      1.616
REMARK  4 active torsions:
REMARK  status: ('A' for Active; 'I' for Inactive)
REMARK    1  A    between atoms: O1_2  and  C2_3 
REMARK    2  A    between atoms: C4_5  and  N1_6 
REMARK    3  A    between atoms: C5_13  and  C6_14 
REMARK    4  A    between atoms: N4_15  and  N5_17 
ROOT
HETATM    1  C2  UNL     1       2.916  16.177  25.801  1.00  0.00     0.101 A 
HETATM    2  C3  UNL     1       2.476  17.035  26.790  1.00  0.00     0.088 A 
HETATM    3  C4  UNL     1       2.243  18.356  26.468  1.00  0.00     0.116 A 
HETATM    4  N2  UNL     1       2.459  18.731  25.200  1.00  0.00    -0.285 N 
ATOM      5  H2  UNL     1       2.290  19.704  24.949  1.00  0.00     0.188 HD
HETATM    6  N3  UNL     1       2.882  17.905  24.257  1.00  0.00    -0.295 N 
ATOM      7  H3  UNL     1       3.026  18.264  23.314  1.00  0.00     0.187 HD
HETATM    8  C5  UNL     1       3.129  16.601  24.506  1.00  0.00     0.098 A 
ENDROOT
BRANCH   8   9
HETATM    9  C6  UNL     1       3.589  15.716  23.459  1.00  0.00     0.141 C 
HETATM   10  N4  UNL     1       2.974  14.611  23.208  1.00  0.00    -0.307 N 
ATOM     11  H4  UNL     1       2.153  14.366  23.761  1.00  0.00     0.186 HD
BRANCH  10  12
HETATM   12  N5  UNL     1       3.392  13.748  22.212  1.00  0.00    -0.276 N 
HETATM   13  C7  UNL     1       2.696  12.824  21.678  1.00  0.00     0.215 C 
HETATM   14  N6  UNL     1       1.349  12.528  22.026  1.00  0.00    -0.065 NA
HETATM   15  N7  UNL     1       3.293  12.030  20.664  1.00  0.00    -0.065 NA
ATOM     16  H5  UNL     1       4.347  13.861  21.874  1.00  0.00     0.189 HD
ENDBRANCH  10  12
ENDBRANCH   8   9
BRANCH   1  17
HETATM   17  O1  UNL     1       3.162  14.849  26.081  1.00  0.00    -0.353 OA
HETATM   18  C1  UNL     1       2.392  14.082  26.980  1.00  0.00     0.210 C 
ENDBRANCH   1  17
BRANCH   3  19
HETATM   19  N1  UNL     1       1.827  19.230  27.342  1.00  0.00    -0.384 N 
ATOM     20  H12 UNL     1       2.354  20.090  27.492  1.00  0.00     0.157 HD
ATOM     21  H11 UNL     1       0.982  19.093  27.896  1.00  0.00     0.157 HD
ENDBRANCH   3  19
TORSDOF 4
ENDMDL
MODEL 5
REMARK VINA RESULT: -6.581476451      1.732      2.361
REMARK  4 active torsions:
REMARK  status: ('A' for Active; 'I' for Inactive)
REMARK    1  A    between atoms: O1_2  and  C2_3 
REMARK    2  A    between atoms: C4_5  and  N1_6 
REMARK    3  A    between atoms: C5_13  and  C6_14 
REMARK    4  A    between atoms: N4_15  and  N5_17 
ROOT
HETATM    1  C2  UNL     1       3.125  16.152  24.362  1.00  0.00     0.101 A 
HETATM    2  C3  UNL     1       2.909  17.465  24.732  1.00  0.00     0.088 A 
HETATM    3  C4  UNL     1       2.572  17.740  26.042  1.00  0.00     0.116 A 
HETATM    4  N2  UNL     1       2.475  16.705  26.885  1.00  0.00    -0.285 N 
ATOM      5  H2  UNL     1       2.228  16.894  27.856  1.00  0.00     0.188 HD
HETATM    6  N3  UNL     1       2.683  15.448  26.526  1.00  0.00    -0.295 N 
ATOM      7  H3  UNL     1       2.589  14.712  27.226  1.00  0.00     0.187 HD
HETATM    8  C5  UNL     1       3.015  15.112  25.262  1.00  0.00     0.098 A 
ENDROOT
BRANCH   8   9
HETATM    9  C6  UNL     1       3.238  13.732  24.891  1.00  0.00     0.141 C 
HETATM   10  N4  UNL     1       2.686  13.229  23.841  1.00  0.00    -0.307 N 
ATOM     11  H4  UNL     1       2.083  13.821  23.269  1.00  0.00     0.186 HD
BRANCH  10  12
HETATM   12  N5  UNL     1       2.884  11.914  23.464  1.00  0.00    -0.276 N 
HETATM   13  C7  UNL     1       3.041  11.489  22.274  1.00  0.00     0.215 C 
HETATM   14  N6  UNL     1       3.040  12.317  21.117  1.00  0.00    -0.065 NA
HETATM   15  N7  UNL     1       3.234  10.097  22.074  1.00  0.00    -0.065 NA
ATOM     16  H5  UNL     1       2.907  11.219  24.209  1.00  0.00     0.189 HD
ENDBRANCH  10  12
ENDBRANCH   8   9
BRANCH   1  17
HETATM   17  O1  UNL     1       3.463  15.834  23.064  1.00  0.00    -0.353 OA
HETATM   18  C1  UNL     1       4.777  15.902  22.556  1.00  0.00     0.210 C 
ENDBRANCH   1  17
BRANCH   3  19
HETATM   19  N1  UNL     1       2.351  18.951  26.471  1.00  0.00    -0.384 N 
ATOM     20  H12 UNL     1       2.303  19.135  27.472  1.00  0.00     0.157 HD
ATOM     21  H11 UNL     1       2.222  19.742  25.840  1.00  0.00     0.157 HD
ENDBRANCH   3  19
TORSDOF 4
ENDMDL
