MODEL 1
REMARK VINA RESULT: -7.336032227      0.000      0.000
REMARK  8 active torsions:
REMARK  status: ('A' for Active; 'I' for Inactive)
REMARK    1  A    between atoms: C2_2  and  C3_3 
REMARK    2  A    between atoms: C3_3  and  O1_4 
REMARK    3  A    between atoms: C3_3  and  C5_6 
REMARK    4  A    between atoms: C5_6  and  O2_7 
REMARK    5  A    between atoms: C5_6  and  C11_20 
REMARK    6  A    between atoms: O2_7  and  C6_8 
REMARK    7  A    between atoms: C6_8  and  C7_9 
REMARK    8  A    between atoms: N4_24  and  C15_25 
ROOT
HETATM    1  C5  UNL     1     -11.687  44.859  -1.338  1.00  0.00     0.164 C 
ENDROOT
BRANCH   1   2
HETATM    2  C3  UNL     1     -11.730  46.351  -1.234  1.00  0.00     0.150 C 
BRANCH   2   3
HETATM    3  C2  UNL     1     -13.072  46.785  -0.608  1.00  0.00     0.030 C 
HETATM    4  C1  UNL     1     -13.613  45.761   0.333  1.00  0.00     0.007 C 
ENDBRANCH   2   3
BRANCH   2   5
HETATM    5  O1  UNL     1     -11.660  47.020  -2.439  1.00  0.00    -0.388 OA
HETATM    6  C4  UNL     1     -11.057  48.252  -2.400  1.00  0.00     0.202 C 
ENDBRANCH   2   5
ENDBRANCH   1   2
BRANCH   1   7
HETATM    7  O2  UNL     1     -12.075  44.486  -2.628  1.00  0.00    -0.375 OA
BRANCH   7   8
HETATM    8  C6  UNL     1     -13.108  43.623  -2.742  1.00  0.00     0.245 C 
BRANCH   8   9
HETATM    9  C7  UNL     1     -14.366  44.153  -3.307  1.00  0.00     0.106 A 
HETATM   10  N1  UNL     1     -14.563  44.244  -4.629  1.00  0.00    -0.331 N 
HETATM   11  C8  UNL     1     -15.675  44.721  -5.188  1.00  0.00     0.101 A 
ATOM     12  H1  UNL     1     -13.815  43.928  -5.247  1.00  0.00     0.168 HD
HETATM   13  N2  UNL     1     -15.765  44.767  -6.463  1.00  0.00    -0.385 N 
HETATM   14  C9  UNL     1     -16.700  45.153  -4.387  1.00  0.00     0.065 A 
ATOM     15  H22 UNL     1     -15.002  44.445  -7.060  1.00  0.00     0.157 HD
ATOM     16  H21 UNL     1     -16.616  45.132  -6.890  1.00  0.00     0.157 HD
HETATM   17  C10 UNL     1     -16.520  45.069  -3.020  1.00  0.00     0.093 A 
HETATM   18  N3  UNL     1     -15.363  44.573  -2.515  1.00  0.00    -0.354 N 
ATOM     19  H3  UNL     1     -15.247  44.519  -1.503  1.00  0.00     0.166 HD
ENDBRANCH   8   9
ENDBRANCH   7   8
ENDBRANCH   1   7
BRANCH   1  20
HETATM   20  C11 UNL     1     -10.424  44.180  -1.044  1.00  0.00     0.109 C 
HETATM   21  C12 UNL     1      -9.219  44.538  -1.853  1.00  0.00     0.018 C 
HETATM   22  C13 UNL     1      -8.260  43.351  -1.828  1.00  0.00     0.021 C 
HETATM   23  C14 UNL     1      -8.338  42.595  -0.528  1.00  0.00     0.126 C 
HETATM   24  N4  UNL     1      -8.705  43.526   0.538  1.00  0.00    -0.347 N 
HETATM   25  C21 UNL     1      -9.981  44.163   0.375  1.00  0.00     0.227 C 
HETATM   26  O3  UNL     1     -10.567  44.614   1.352  1.00  0.00    -0.273 OA
BRANCH  24  27
HETATM   27  C15 UNL     1      -7.852  43.793   1.678  1.00  0.00     0.087 C 
HETATM   28  C16 UNL     1      -7.187  45.138   1.614  1.00  0.00     0.025 C 
HETATM   29  C17 UNL     1      -5.686  45.066   1.725  1.00  0.00     0.002 C 
HETATM   30  C18 UNL     1      -5.355  44.384   3.032  1.00  0.00     0.000 C 
HETATM   31  C19 UNL     1      -5.880  42.968   2.943  1.00  0.00     0.002 C 
HETATM   32  C20 UNL     1      -6.741  42.744   1.744  1.00  0.00     0.025 C 
ENDBRANCH  24  27
ENDBRANCH   1  20
TORSDOF 8
ENDMDL
MODEL 2
REMARK VINA RESULT: -6.836787185      1.224      1.507
REMARK  8 active torsions:
REMARK  status: ('A' for Active; 'I' for Inactive)
REMARK    1  A    between atoms: C2_2  and  C3_3 
REMARK    2  A    between atoms: C3_3  and  O1_4 
REMARK    3  A    between atoms: C3_3  and  C5_6 
REMARK    4  A    between atoms: C5_6  and  O2_7 
REMARK    5  A    between atoms: C5_6  and  C11_20 
REMARK    6  A    between atoms: O2_7  and  C6_8 
REMARK    7  A    between atoms: C6_8  and  C7_9 
REMARK    8  A    between atoms: N4_24  and  C15_25 
ROOT
HETATM    1  C5  UNL     1     -11.714  45.708  -1.156  1.00  0.00     0.164 C 
ENDROOT
BRANCH   1   2
HETATM    2  C3  UNL     1     -12.530  46.914  -0.812  1.00  0.00     0.150 C 
BRANCH   2   3
HETATM    3  C2  UNL     1     -13.648  46.517   0.174  1.00  0.00     0.030 C 
HETATM    4  C1  UNL     1     -13.296  45.303   0.967  1.00  0.00     0.007 C 
ENDBRANCH   2   3
BRANCH   2   5
HETATM    5  O1  UNL     1     -13.180  47.500  -1.879  1.00  0.00    -0.388 OA
HETATM    6  C4  UNL     1     -14.004  48.552  -1.569  1.00  0.00     0.202 C 
ENDBRANCH   2   5
ENDBRANCH   1   2
BRANCH   1   7
HETATM    7  O2  UNL     1     -11.948  45.373  -2.492  1.00  0.00    -0.375 OA
BRANCH   7   8
HETATM    8  C6  UNL     1     -12.694  44.273  -2.737  1.00  0.00     0.245 C 
BRANCH   8   9
HETATM    9  C7  UNL     1     -14.056  44.490  -3.267  1.00  0.00     0.106 A 
HETATM   10  N1  UNL     1     -14.332  44.373  -4.573  1.00  0.00    -0.331 N 
HETATM   11  C8  UNL     1     -15.541  44.566  -5.101  1.00  0.00     0.101 A 
ATOM     12  H1  UNL     1     -13.570  44.120  -5.202  1.00  0.00     0.168 HD
HETATM   13  N2  UNL     1     -15.701  44.429  -6.363  1.00  0.00    -0.385 N 
HETATM   14  C9  UNL     1     -16.587  44.906  -4.283  1.00  0.00     0.065 A 
ATOM     15  H22 UNL     1     -14.923  44.177  -6.972  1.00  0.00     0.157 HD
ATOM     16  H21 UNL     1     -16.626  44.577  -6.766  1.00  0.00     0.157 HD
HETATM   17  C10 UNL     1     -16.326  45.032  -2.933  1.00  0.00     0.093 A 
HETATM   18  N3  UNL     1     -15.073  44.822  -2.459  1.00  0.00    -0.354 N 
ATOM     19  H3  UNL     1     -14.898  44.920  -1.459  1.00  0.00     0.166 HD
ENDBRANCH   8   9
ENDBRANCH   7   8
ENDBRANCH   1   7
BRANCH   1  20
HETATM   20  C11 UNL     1     -10.265  45.773  -0.964  1.00  0.00     0.109 C 
HETATM   21  C12 UNL     1      -9.661  47.075  -0.541  1.00  0.00     0.018 C 
HETATM   22  C13 UNL     1      -8.205  47.094  -0.997  1.00  0.00     0.021 C 
HETATM   23  C14 UNL     1      -7.595  45.717  -0.982  1.00  0.00     0.126 C 
HETATM   24  N4  UNL     1      -8.238  44.927   0.068  1.00  0.00    -0.347 N 
HETATM   25  C21 UNL     1      -9.650  44.731  -0.099  1.00  0.00     0.227 C 
HETATM   26  O3  UNL     1     -10.203  43.783   0.446  1.00  0.00    -0.273 OA
BRANCH  24  27
HETATM   27  C15 UNL     1      -7.513  44.379   1.196  1.00  0.00     0.087 C 
HETATM   28  C16 UNL     1      -6.738  45.416   1.957  1.00  0.00     0.025 C 
HETATM   29  C17 UNL     1      -5.273  45.087   2.086  1.00  0.00     0.002 C 
HETATM   30  C18 UNL     1      -5.163  43.746   2.774  1.00  0.00     0.000 C 
HETATM   31  C19 UNL     1      -5.788  42.719   1.855  1.00  0.00     0.002 C 
HETATM   32  C20 UNL     1      -6.510  43.337   0.702  1.00  0.00     0.025 C 
ENDBRANCH  24  27
ENDBRANCH   1  20
TORSDOF 8
ENDMDL
MODEL 3
REMARK VINA RESULT: -6.547457890      1.770      2.476
REMARK  8 active torsions:
REMARK  status: ('A' for Active; 'I' for Inactive)
REMARK    1  A    between atoms: C2_2  and  C3_3 
REMARK    2  A    between atoms: C3_3  and  O1_4 
REMARK    3  A    between atoms: C3_3  and  C5_6 
REMARK    4  A    between atoms: C5_6  and  O2_7 
REMARK    5  A    between atoms: C5_6  and  C11_20 
REMARK    6  A    between atoms: O2_7  and  C6_8 
REMARK    7  A    between atoms: C6_8  and  C7_9 
REMARK    8  A    between atoms: N4_24  and  C15_25 
ROOT
HETATM    1  C5  UNL     1     -13.096  46.742  -1.170  1.00  0.00     0.164 C 
ENDROOT
BRANCH   1   2
HETATM    2  C3  UNL     1     -12.461  48.086  -1.327  1.00  0.00     0.150 C 
BRANCH   2   3
HETATM    3  C2  UNL     1     -12.023  48.615   0.054  1.00  0.00     0.030 C 
HETATM    4  C1  UNL     1     -10.569  48.395   0.306  1.00  0.00     0.007 C 
ENDBRANCH   2   3
BRANCH   2   5
HETATM    5  O1  UNL     1     -13.289  49.064  -1.843  1.00  0.00    -0.388 OA
HETATM    6  C4  UNL     1     -12.842  50.354  -1.704  1.00  0.00     0.202 C 
ENDBRANCH   2   5
ENDBRANCH   1   2
BRANCH   1   7
HETATM    7  O2  UNL     1     -14.241  46.688  -1.969  1.00  0.00    -0.375 OA
BRANCH   7   8
HETATM    8  C6  UNL     1     -14.749  45.467  -2.250  1.00  0.00     0.245 C 
BRANCH   8   9
HETATM    9  C7  UNL     1     -15.653  45.368  -3.413  1.00  0.00     0.106 A 
HETATM   10  N1  UNL     1     -15.332  44.650  -4.498  1.00  0.00    -0.331 N 
HETATM   11  C8  UNL     1     -16.109  44.534  -5.576  1.00  0.00     0.101 A 
ATOM     12  H1  UNL     1     -14.437  44.160  -4.499  1.00  0.00     0.168 HD
HETATM   13  N2  UNL     1     -15.710  43.824  -6.561  1.00  0.00    -0.385 N 
HETATM   14  C9  UNL     1     -17.318  45.179  -5.606  1.00  0.00     0.065 A 
ATOM     15  H22 UNL     1     -14.809  43.345  -6.539  1.00  0.00     0.157 HD
ATOM     16  H21 UNL     1     -16.304  43.736  -7.385  1.00  0.00     0.157 HD
HETATM   17  C10 UNL     1     -17.672  45.925  -4.499  1.00  0.00     0.093 A 
HETATM   18  N3  UNL     1     -16.835  46.002  -3.434  1.00  0.00    -0.354 N 
ATOM     19  H3  UNL     1     -17.111  46.558  -2.625  1.00  0.00     0.166 HD
ENDBRANCH   8   9
ENDBRANCH   7   8
ENDBRANCH   1   7
BRANCH   1  20
HETATM   20  C11 UNL     1     -12.293  45.556  -1.470  1.00  0.00     0.109 C 
HETATM   21  C12 UNL     1     -11.297  45.635  -2.583  1.00  0.00     0.018 C 
HETATM   22  C13 UNL     1     -11.060  44.222  -3.109  1.00  0.00     0.021 C 
HETATM   23  C14 UNL     1     -11.183  43.190  -2.019  1.00  0.00     0.126 C 
HETATM   24  N4  UNL     1     -10.787  43.796  -0.749  1.00  0.00    -0.347 N 
HETATM   25  C21 UNL     1     -11.590  44.909  -0.331  1.00  0.00     0.227 C 
HETATM   26  O3  UNL     1     -11.634  45.220   0.854  1.00  0.00    -0.273 OA
BRANCH  24  27
HETATM   27  C15 UNL     1      -9.669  43.316   0.037  1.00  0.00     0.087 C 
HETATM   28  C16 UNL     1      -8.825  44.425   0.599  1.00  0.00     0.025 C 
HETATM   29  C17 UNL     1      -7.370  44.313   0.226  1.00  0.00     0.002 C 
HETATM   30  C18 UNL     1      -6.870  42.976   0.723  1.00  0.00     0.000 C 
HETATM   31  C19 UNL     1      -7.625  41.906  -0.035  1.00  0.00     0.002 C 
HETATM   32  C20 UNL     1      -8.758  42.456  -0.839  1.00  0.00     0.025 C 
ENDBRANCH  24  27
ENDBRANCH   1  20
TORSDOF 8
ENDMDL
MODEL 4
REMARK VINA RESULT: -6.377870560      3.320      5.300
REMARK  8 active torsions:
REMARK  status: ('A' for Active; 'I' for Inactive)
REMARK    1  A    between atoms: C2_2  and  C3_3 
REMARK    2  A    between atoms: C3_3  and  O1_4 
REMARK    3  A    between atoms: C3_3  and  C5_6 
REMARK    4  A    between atoms: C5_6  and  O2_7 
REMARK    5  A    between atoms: C5_6  and  C11_20 
REMARK    6  A    between atoms: O2_7  and  C6_8 
REMARK    7  A    between atoms: C6_8  and  C7_9 
REMARK    8  A    between atoms: N4_24  and  C15_25 
ROOT
HETATM    1  C5  UNL     1     -10.753  45.374  -1.293  1.00  0.00     0.164 C 
ENDROOT
BRANCH   1   2
HETATM    2  C3  UNL     1     -12.168  44.904  -1.171  1.00  0.00     0.150 C 
BRANCH   2   3
HETATM    3  C2  UNL     1     -12.630  44.304  -2.514  1.00  0.00     0.030 C 
HETATM    4  C1  UNL     1     -12.305  42.852  -2.624  1.00  0.00     0.007 C 
ENDBRANCH   2   3
BRANCH   2   5
HETATM    5  O1  UNL     1     -13.086  45.894  -0.882  1.00  0.00    -0.388 OA
HETATM    6  C4  UNL     1     -13.928  46.241  -1.907  1.00  0.00     0.202 C 
ENDBRANCH   2   5
ENDBRANCH   1   2
BRANCH   1   7
HETATM    7  O2  UNL     1     -10.641  46.629  -0.689  1.00  0.00    -0.375 OA
BRANCH   7   8
HETATM    8  C6  UNL     1     -10.141  47.638  -1.437  1.00  0.00     0.245 C 
BRANCH   8   9
HETATM    9  C7  UNL     1      -8.804  48.147  -1.069  1.00  0.00     0.106 A 
HETATM   10  N1  UNL     1      -7.924  48.552  -1.995  1.00  0.00    -0.331 N 
HETATM   11  C8  UNL     1      -6.703  49.012  -1.715  1.00  0.00     0.101 A 
ATOM     12  H1  UNL     1      -8.205  48.507  -2.974  1.00  0.00     0.168 HD
HETATM   13  N2  UNL     1      -5.937  49.375  -2.673  1.00  0.00    -0.385 N 
HETATM   14  C9  UNL     1      -6.294  49.086  -0.409  1.00  0.00     0.065 A 
ATOM     15  H22 UNL     1      -6.242  49.319  -3.645  1.00  0.00     0.157 HD
ATOM     16  H21 UNL     1      -5.004  49.726  -2.459  1.00  0.00     0.157 HD
HETATM   17  C10 UNL     1      -7.185  48.673   0.563  1.00  0.00     0.093 A 
HETATM   18  N3  UNL     1      -8.412  48.215   0.211  1.00  0.00    -0.354 N 
ATOM     19  H3  UNL     1      -9.057  47.914   0.942  1.00  0.00     0.166 HD
ENDBRANCH   8   9
ENDBRANCH   7   8
ENDBRANCH   1   7
BRANCH   1  20
HETATM   20  C11 UNL     1      -9.691  44.526  -0.749  1.00  0.00     0.109 C 
HETATM   21  C12 UNL     1      -8.448  44.337  -1.558  1.00  0.00     0.018 C 
HETATM   22  C13 UNL     1      -7.809  43.014  -1.146  1.00  0.00     0.021 C 
HETATM   23  C14 UNL     1      -8.049  42.705   0.309  1.00  0.00     0.126 C 
HETATM   24  N4  UNL     1      -8.159  43.963   1.046  1.00  0.00    -0.347 N 
HETATM   25  C21 UNL     1      -9.242  44.813   0.639  1.00  0.00     0.227 C 
HETATM   26  O3  UNL     1      -9.685  45.651   1.415  1.00  0.00    -0.273 OA
BRANCH  24  27
HETATM   27  C15 UNL     1      -7.249  44.334   2.110  1.00  0.00     0.087 C 
HETATM   28  C16 UNL     1      -6.091  45.162   1.632  1.00  0.00     0.025 C 
HETATM   29  C17 UNL     1      -4.750  44.576   1.993  1.00  0.00     0.002 C 
HETATM   30  C18 UNL     1      -4.702  44.434   3.497  1.00  0.00     0.000 C 
HETATM   31  C19 UNL     1      -5.766  43.431   3.886  1.00  0.00     0.002 C 
HETATM   32  C20 UNL     1      -6.668  43.073   2.750  1.00  0.00     0.025 C 
ENDBRANCH  24  27
ENDBRANCH   1  20
TORSDOF 8
ENDMDL
MODEL 5
REMARK VINA RESULT: -6.375986483      3.071      7.793
REMARK  8 active torsions:
REMARK  status: ('A' for Active; 'I' for Inactive)
REMARK    1  A    between atoms: C2_2  and  C3_3 
REMARK    2  A    between atoms: C3_3  and  O1_4 
REMARK    3  A    between atoms: C3_3  and  C5_6 
REMARK    4  A    between atoms: C5_6  and  O2_7 
REMARK    5  A    between atoms: C5_6  and  C11_20 
REMARK    6  A    between atoms: O2_7  and  C6_8 
REMARK    7  A    between atoms: C6_8  and  C7_9 
REMARK    8  A    between atoms: N4_24  and  C15_25 
ROOT
HETATM    1  C5  UNL     1      -7.293  44.785   1.731  1.00  0.00     0.164 C 
ENDROOT
BRANCH   1   2
HETATM    2  C3  UNL     1      -6.069  44.051   2.178  1.00  0.00     0.150 C 
BRANCH   2   3
HETATM    3  C2  UNL     1      -6.376  43.279   3.478  1.00  0.00     0.030 C 
HETATM    4  C1  UNL     1      -5.485  43.691   4.602  1.00  0.00     0.007 C 
ENDBRANCH   2   3
BRANCH   2   5
HETATM    5  O1  UNL     1      -4.988  44.855   2.482  1.00  0.00    -0.388 OA
HETATM    6  C4  UNL     1      -3.875  44.673   1.702  1.00  0.00     0.202 C 
ENDBRANCH   2   5
ENDBRANCH   1   2
BRANCH   1   7
HETATM    7  O2  UNL     1      -6.988  46.144   1.619  1.00  0.00    -0.375 OA
BRANCH   7   8
HETATM    8  C6  UNL     1      -7.097  46.901   2.733  1.00  0.00     0.245 C 
BRANCH   8   9
HETATM    9  C7  UNL     1      -8.386  47.588   2.954  1.00  0.00     0.106 A 
HETATM   10  N1  UNL     1      -9.016  47.542   4.136  1.00  0.00    -0.331 N 
HETATM   11  C8  UNL     1     -10.183  48.138   4.384  1.00  0.00     0.101 A 
ATOM     12  H1  UNL     1      -8.575  47.020   4.894  1.00  0.00     0.168 HD
HETATM   13  N2  UNL     1     -10.703  48.035   5.548  1.00  0.00    -0.385 N 
HETATM   14  C9  UNL     1     -10.802  48.848   3.389  1.00  0.00     0.065 A 
ATOM     15  H22 UNL     1     -10.243  47.506   6.289  1.00  0.00     0.157 HD
ATOM     16  H21 UNL     1     -11.596  48.490   5.738  1.00  0.00     0.157 HD
HETATM   17  C10 UNL     1     -10.171  48.909   2.161  1.00  0.00     0.093 A 
HETATM   18  N3  UNL     1      -8.984  48.280   1.974  1.00  0.00    -0.354 N 
ATOM     19  H3  UNL     1      -8.533  48.335   1.061  1.00  0.00     0.166 HD
ENDBRANCH   8   9
ENDBRANCH   7   8
ENDBRANCH   1   7
BRANCH   1  20
HETATM   20  C11 UNL     1      -7.932  44.371   0.481  1.00  0.00     0.109 C 
HETATM   21  C12 UNL     1      -7.959  42.914   0.144  1.00  0.00     0.018 C 
HETATM   22  C13 UNL     1      -8.073  42.778  -1.371  1.00  0.00     0.021 C 
HETATM   23  C14 UNL     1      -8.867  43.905  -1.976  1.00  0.00     0.126 C 
HETATM   24  N4  UNL     1      -9.853  44.365  -1.000  1.00  0.00    -0.347 N 
HETATM   25  C21 UNL     1      -9.303  44.881   0.221  1.00  0.00     0.227 C 
HETATM   26  O3  UNL     1      -9.962  45.653   0.909  1.00  0.00    -0.273 OA
BRANCH  24  27
HETATM   27  C15 UNL     1     -11.282  44.309  -1.237  1.00  0.00     0.087 C 
HETATM   28  C16 UNL     1     -11.677  43.217  -2.191  1.00  0.00     0.025 C 
HETATM   29  C17 UNL     1     -12.473  43.716  -3.369  1.00  0.00     0.002 C 
HETATM   30  C18 UNL     1     -13.704  44.408  -2.831  1.00  0.00     0.000 C 
HETATM   31  C19 UNL     1     -13.232  45.614  -2.048  1.00  0.00     0.002 C 
HETATM   32  C20 UNL     1     -11.753  45.630  -1.844  1.00  0.00     0.025 C 
ENDBRANCH  24  27
ENDBRANCH   1  20
TORSDOF 8
ENDMDL
