MODEL 1
REMARK VINA RESULT: -5.824292460      0.000      0.000
REMARK  11 active torsions:
REMARK  status: ('A' for Active; 'I' for Inactive)
REMARK    1  A    between atoms: C2_2  and  O1_3 
REMARK    2  A    between atoms: O1_3  and  C3_4 
REMARK    3  A    between atoms: C3_4  and  C4_6 
REMARK    4  A    between atoms: C4_6  and  N1_7 
REMARK       I    between atoms: N1_7  and  C5_8 
REMARK    5  A    between atoms: N1_7  and  C16_25 
REMARK    6  A    between atoms: C5_8  and  C6_10 
REMARK    7  A    between atoms: C6_10  and  C7_12 
REMARK    8  A    between atoms: C7_12  and  O4_13 
REMARK    9  A    between atoms: C7_12  and  C8_15 
REMARK   10  A    between atoms: C8_15  and  O5_17 
REMARK   11  A    between atoms: C8_15  and  C10_19 
ROOT
HETATM    1  C6  UNL     1     -11.351  45.907  -0.639  1.00  0.00     0.182 C 
HETATM    2  S1  UNL     1     -12.264  47.115   0.390  1.00  0.00    -0.080 SA
ENDROOT
BRANCH   1   3
HETATM    3  C5  UNL     1      -9.917  46.354  -0.529  1.00  0.00     0.238 C 
HETATM    4  N1  UNL     1      -8.826  45.485  -0.476  1.00  0.00    -0.333 N 
HETATM    5  O3  UNL     1      -9.740  47.599  -0.484  1.00  0.00    -0.272 OA
BRANCH   4   6
HETATM    6  C4  UNL     1      -7.495  46.102  -0.360  1.00  0.00     0.237 C 
BRANCH   6   7
HETATM    7  C3  UNL     1      -6.987  46.127   1.013  1.00  0.00     0.276 C 
HETATM    8  O2  UNL     1      -7.382  46.922   1.872  1.00  0.00    -0.263 OA
BRANCH   7   9
HETATM    9  O1  UNL     1      -6.012  45.216   1.383  1.00  0.00    -0.321 OA
BRANCH   9  10
HETATM   10  C2  UNL     1      -6.331  44.085   2.204  1.00  0.00     0.174 C 
HETATM   11  C1  UNL     1      -5.631  42.859   1.662  1.00  0.00     0.034 C 
ENDBRANCH   9  10
ENDBRANCH   7   9
ENDBRANCH   6   7
ENDBRANCH   4   6
BRANCH   4  12
HETATM   12  C16 UNL     1      -8.845  44.052  -0.565  1.00  0.00     0.032 A 
HETATM   13  C17 UNL     1      -9.631  43.357   0.564  1.00  0.00     0.039 C 
HETATM   14  C18 UNL     1      -7.793  43.261  -1.224  1.00  0.00     0.033 A 
HETATM   15  C19 UNL     1      -9.113  43.432  -1.923  1.00  0.00     0.033 A 
ENDBRANCH   4  12
ENDBRANCH   1   3
BRANCH   1  16
HETATM   16  C7  UNL     1     -11.801  45.910  -2.075  1.00  0.00     0.176 C 
BRANCH  16  17
HETATM   17  O4  UNL     1     -11.950  47.197  -2.500  1.00  0.00    -0.391 OA
ATOM     18  H4  UNL     1     -12.773  47.281  -2.967  1.00  0.00     0.210 HD
ENDBRANCH  16  17
BRANCH  16  19
HETATM   19  C8  UNL     1     -12.720  44.869  -2.527  1.00  0.00     0.085 C 
HETATM   20  C9  UNL     1     -12.082  44.208  -3.790  1.00  0.00     0.049 C 
BRANCH  19  21
HETATM   21  O5  UNL     1     -12.656  43.818  -1.582  1.00  0.00    -0.387 OA
ATOM     22  H5  UNL     1     -13.548  43.633  -1.312  1.00  0.00     0.210 HD
ENDBRANCH  19  21
BRANCH  19  23
HETATM   23  C10 UNL     1     -14.105  45.116  -2.900  1.00  0.00     0.022 C 
HETATM   24  C11 UNL     1     -15.202  45.069  -1.915  1.00  0.00     0.007 C 
HETATM   25  C12 UNL     1     -16.516  44.804  -2.684  1.00  0.00     0.000 C 
HETATM   26  C13 UNL     1     -16.515  45.458  -4.030  1.00  0.00     0.000 C 
HETATM   27  C14 UNL     1     -15.576  44.651  -4.900  1.00  0.00     0.000 C 
HETATM   28  C15 UNL     1     -14.503  44.108  -3.998  1.00  0.00     0.007 C 
ENDBRANCH  19  23
ENDBRANCH  16  19
ENDBRANCH   1  16
TORSDOF 11
ENDMDL
MODEL 2
REMARK VINA RESULT: -5.719072630      2.013      7.151
REMARK  11 active torsions:
REMARK  status: ('A' for Active; 'I' for Inactive)
REMARK    1  A    between atoms: C2_2  and  O1_3 
REMARK    2  A    between atoms: O1_3  and  C3_4 
REMARK    3  A    between atoms: C3_4  and  C4_6 
REMARK    4  A    between atoms: C4_6  and  N1_7 
REMARK       I    between atoms: N1_7  and  C5_8 
REMARK    5  A    between atoms: N1_7  and  C16_25 
REMARK    6  A    between atoms: C5_8  and  C6_10 
REMARK    7  A    between atoms: C6_10  and  C7_12 
REMARK    8  A    between atoms: C7_12  and  O4_13 
REMARK    9  A    between atoms: C7_12  and  C8_15 
REMARK   10  A    between atoms: C8_15  and  O5_17 
REMARK   11  A    between atoms: C8_15  and  C10_19 
ROOT
HETATM    1  C6  UNL     1     -11.379  46.701  -0.657  1.00  0.00     0.182 C 
HETATM    2  S1  UNL     1     -11.555  48.522  -0.595  1.00  0.00    -0.080 SA
ENDROOT
BRANCH   1   3
HETATM    3  C5  UNL     1     -12.792  46.210  -0.841  1.00  0.00     0.238 C 
HETATM    4  N1  UNL     1     -13.149  45.137  -1.659  1.00  0.00    -0.333 N 
HETATM    5  O3  UNL     1     -13.671  46.839  -0.199  1.00  0.00    -0.272 OA
BRANCH   4   6
HETATM    6  C4  UNL     1     -14.580  44.804  -1.723  1.00  0.00     0.237 C 
BRANCH   6   7
HETATM    7  C3  UNL     1     -15.229  45.273  -2.949  1.00  0.00     0.276 C 
HETATM    8  O2  UNL     1     -15.910  46.301  -3.009  1.00  0.00    -0.263 OA
BRANCH   7   9
HETATM    9  O1  UNL     1     -15.078  44.535  -4.111  1.00  0.00    -0.321 OA
BRANCH   9  10
HETATM   10  C2  UNL     1     -16.192  44.288  -4.980  1.00  0.00     0.174 C 
HETATM   11  C1  UNL     1     -15.945  44.960  -6.312  1.00  0.00     0.034 C 
ENDBRANCH   9  10
ENDBRANCH   7   9
ENDBRANCH   6   7
ENDBRANCH   4   6
BRANCH   4  12
HETATM   12  C16 UNL     1     -12.275  44.286  -2.416  1.00  0.00     0.032 A 
HETATM   13  C17 UNL     1     -11.521  45.002  -3.553  1.00  0.00     0.039 C 
HETATM   14  C18 UNL     1     -12.476  42.835  -2.565  1.00  0.00     0.033 A 
HETATM   15  C19 UNL     1     -11.388  43.324  -1.649  1.00  0.00     0.033 A 
ENDBRANCH   4  12
ENDBRANCH   1   3
BRANCH   1  16
HETATM   16  C7  UNL     1     -10.778  46.132   0.599  1.00  0.00     0.176 C 
BRANCH  16  17
HETATM   17  O4  UNL     1     -11.402  46.672   1.685  1.00  0.00    -0.391 OA
ATOM     18  H4  UNL     1     -11.182  46.167   2.459  1.00  0.00     0.210 HD
ENDBRANCH  16  17
BRANCH  16  19
HETATM   19  C8  UNL     1      -9.344  45.856   0.632  1.00  0.00     0.085 C 
HETATM   20  C9  UNL     1      -8.669  46.799  -0.414  1.00  0.00     0.049 C 
BRANCH  19  21
HETATM   21  O5  UNL     1      -8.849  46.370   1.853  1.00  0.00    -0.387 OA
ATOM     22  H5  UNL     1      -8.531  45.632   2.358  1.00  0.00     0.210 HD
ENDBRANCH  19  21
BRANCH  19  23
HETATM   23  C10 UNL     1      -8.764  44.546   0.377  1.00  0.00     0.022 C 
HETATM   24  C11 UNL     1      -7.825  43.907   1.318  1.00  0.00     0.007 C 
HETATM   25  C12 UNL     1      -6.996  42.871   0.527  1.00  0.00     0.000 C 
HETATM   26  C13 UNL     1      -7.800  42.220  -0.553  1.00  0.00     0.000 C 
HETATM   27  C14 UNL     1      -7.973  43.254  -1.644  1.00  0.00     0.000 C 
HETATM   28  C15 UNL     1      -8.014  44.597  -0.971  1.00  0.00     0.007 C 
ENDBRANCH  19  23
ENDBRANCH  16  19
ENDBRANCH   1  16
TORSDOF 11
ENDMDL
MODEL 3
REMARK VINA RESULT: -5.674335251      2.127      8.051
REMARK  11 active torsions:
REMARK  status: ('A' for Active; 'I' for Inactive)
REMARK    1  A    between atoms: C2_2  and  O1_3 
REMARK    2  A    between atoms: O1_3  and  C3_4 
REMARK    3  A    between atoms: C3_4  and  C4_6 
REMARK    4  A    between atoms: C4_6  and  N1_7 
REMARK       I    between atoms: N1_7  and  C5_8 
REMARK    5  A    between atoms: N1_7  and  C16_25 
REMARK    6  A    between atoms: C5_8  and  C6_10 
REMARK    7  A    between atoms: C6_10  and  C7_12 
REMARK    8  A    between atoms: C7_12  and  O4_13 
REMARK    9  A    between atoms: C7_12  and  C8_15 
REMARK   10  A    between atoms: C8_15  and  O5_17 
REMARK   11  A    between atoms: C8_15  and  C10_19 
ROOT
HETATM    1  C6  UNL     1      -9.146  43.951  -0.533  1.00  0.00     0.182 C 
HETATM    2  S1  UNL     1      -8.418  42.279  -0.377  1.00  0.00    -0.080 SA
ENDROOT
BRANCH   1   3
HETATM    3  C5  UNL     1      -9.986  43.861  -1.780  1.00  0.00     0.238 C 
HETATM    4  N1  UNL     1     -11.072  44.694  -2.057  1.00  0.00    -0.333 N 
HETATM    5  O3  UNL     1      -9.652  42.963  -2.594  1.00  0.00    -0.272 OA
BRANCH   4   6
HETATM    6  C4  UNL     1     -11.782  44.455  -3.323  1.00  0.00     0.237 C 
BRANCH   6   7
HETATM    7  C3  UNL     1     -13.148  43.961  -3.135  1.00  0.00     0.276 C 
HETATM    8  O2  UNL     1     -13.439  43.034  -2.372  1.00  0.00    -0.263 OA
BRANCH   7   9
HETATM    9  O1  UNL     1     -14.178  44.556  -3.843  1.00  0.00    -0.321 OA
BRANCH   9  10
HETATM   10  C2  UNL     1     -15.546  44.210  -3.588  1.00  0.00     0.174 C 
HETATM   11  C1  UNL     1     -16.318  44.231  -4.888  1.00  0.00     0.034 C 
ENDBRANCH   9  10
ENDBRANCH   7   9
ENDBRANCH   6   7
ENDBRANCH   4   6
BRANCH   4  12
HETATM   12  C16 UNL     1     -11.553  45.793  -1.268  1.00  0.00     0.032 A 
HETATM   13  C17 UNL     1     -12.015  45.402   0.149  1.00  0.00     0.039 C 
HETATM   14  C18 UNL     1     -12.141  47.014  -1.843  1.00  0.00     0.033 A 
HETATM   15  C19 UNL     1     -10.748  47.078  -1.280  1.00  0.00     0.033 A 
ENDBRANCH   4  12
ENDBRANCH   1   3
BRANCH   1  16
HETATM   16  C7  UNL     1      -8.104  45.028  -0.670  1.00  0.00     0.176 C 
BRANCH  16  17
HETATM   17  O4  UNL     1      -7.298  44.746  -1.733  1.00  0.00    -0.391 OA
ATOM     18  H4  UNL     1      -6.509  44.317  -1.426  1.00  0.00     0.210 HD
ENDBRANCH  16  17
BRANCH  16  19
HETATM   19  C8  UNL     1      -7.550  45.631   0.540  1.00  0.00     0.085 C 
HETATM   20  C9  UNL     1      -7.299  47.140   0.229  1.00  0.00     0.049 C 
BRANCH  19  21
HETATM   21  O5  UNL     1      -8.597  45.697   1.488  1.00  0.00    -0.387 OA
ATOM     22  H5  UNL     1      -8.603  46.581   1.836  1.00  0.00     0.210 HD
ENDBRANCH  19  21
BRANCH  19  23
HETATM   23  C10 UNL     1      -6.327  45.178   1.184  1.00  0.00     0.022 C 
HETATM   24  C11 UNL     1      -6.337  44.178   2.269  1.00  0.00     0.007 C 
HETATM   25  C12 UNL     1      -5.032  44.349   3.080  1.00  0.00     0.000 C 
HETATM   26  C13 UNL     1      -3.884  44.751   2.210  1.00  0.00     0.000 C 
HETATM   27  C14 UNL     1      -4.112  46.200   1.838  1.00  0.00     0.000 C 
HETATM   28  C15 UNL     1      -5.599  46.405   1.772  1.00  0.00     0.007 C 
ENDBRANCH  19  23
ENDBRANCH  16  19
ENDBRANCH   1  16
TORSDOF 11
ENDMDL
MODEL 4
REMARK VINA RESULT: -5.657867269      1.974      7.692
REMARK  11 active torsions:
REMARK  status: ('A' for Active; 'I' for Inactive)
REMARK    1  A    between atoms: C2_2  and  O1_3 
REMARK    2  A    between atoms: O1_3  and  C3_4 
REMARK    3  A    between atoms: C3_4  and  C4_6 
REMARK    4  A    between atoms: C4_6  and  N1_7 
REMARK       I    between atoms: N1_7  and  C5_8 
REMARK    5  A    between atoms: N1_7  and  C16_25 
REMARK    6  A    between atoms: C5_8  and  C6_10 
REMARK    7  A    between atoms: C6_10  and  C7_12 
REMARK    8  A    between atoms: C7_12  and  O4_13 
REMARK    9  A    between atoms: C7_12  and  C8_15 
REMARK   10  A    between atoms: C8_15  and  O5_17 
REMARK   11  A    between atoms: C8_15  and  C10_19 
ROOT
HETATM    1  C6  UNL     1     -10.361  45.534   0.277  1.00  0.00     0.182 C 
HETATM    2  S1  UNL     1     -10.335  46.781   1.616  1.00  0.00    -0.080 SA
ENDROOT
BRANCH   1   3
HETATM    3  C5  UNL     1     -11.829  45.330   0.005  1.00  0.00     0.238 C 
HETATM    4  N1  UNL     1     -12.363  45.055  -1.255  1.00  0.00    -0.333 N 
HETATM    5  O3  UNL     1     -12.583  45.423   1.007  1.00  0.00    -0.272 OA
BRANCH   4   6
HETATM    6  C4  UNL     1     -13.823  44.894  -1.333  1.00  0.00     0.237 C 
BRANCH   6   7
HETATM    7  C3  UNL     1     -14.489  45.990  -2.042  1.00  0.00     0.276 C 
HETATM    8  O2  UNL     1     -14.188  47.178  -1.896  1.00  0.00    -0.263 OA
BRANCH   7   9
HETATM    9  O1  UNL     1     -15.510  45.690  -2.927  1.00  0.00    -0.321 OA
BRANCH   9  10
HETATM   10  C2  UNL     1     -15.587  44.405  -3.559  1.00  0.00     0.174 C 
HETATM   11  C1  UNL     1     -15.740  44.590  -5.052  1.00  0.00     0.034 C 
ENDBRANCH   9  10
ENDBRANCH   7   9
ENDBRANCH   6   7
ENDBRANCH   4   6
BRANCH   4  12
HETATM   12  C16 UNL     1     -11.646  44.867  -2.486  1.00  0.00     0.032 A 
HETATM   13  C17 UNL     1     -10.988  46.146  -3.038  1.00  0.00     0.039 C 
HETATM   14  C18 UNL     1     -11.963  43.811  -3.460  1.00  0.00     0.033 A 
HETATM   15  C19 UNL     1     -10.742  43.655  -2.598  1.00  0.00     0.033 A 
ENDBRANCH   4  12
ENDBRANCH   1   3
BRANCH   1  16
HETATM   16  C7  UNL     1      -9.709  44.238   0.677  1.00  0.00     0.176 C 
BRANCH  16  17
HETATM   17  O4  UNL     1     -10.344  43.732   1.774  1.00  0.00    -0.391 OA
ATOM     18  H4  UNL     1      -9.707  43.312   2.340  1.00  0.00     0.210 HD
ENDBRANCH  16  17
BRANCH  16  19
HETATM   19  C8  UNL     1      -8.262  44.102   0.531  1.00  0.00     0.085 C 
HETATM   20  C9  UNL     1      -7.982  42.636   0.073  1.00  0.00     0.049 C 
BRANCH  19  21
HETATM   21  O5  UNL     1      -7.889  44.843  -0.614  1.00  0.00    -0.387 OA
ATOM     22  H5  UNL     1      -6.970  44.667  -0.773  1.00  0.00     0.210 HD
ENDBRANCH  19  21
BRANCH  19  23
HETATM   23  C10 UNL     1      -7.312  44.341   1.606  1.00  0.00     0.022 C 
HETATM   24  C11 UNL     1      -6.191  45.290   1.465  1.00  0.00     0.007 C 
HETATM   25  C12 UNL     1      -5.106  44.893   2.492  1.00  0.00     0.000 C 
HETATM   26  C13 UNL     1      -5.702  44.356   3.754  1.00  0.00     0.000 C 
HETATM   27  C14 UNL     1      -6.223  42.973   3.429  1.00  0.00     0.000 C 
HETATM   28  C15 UNL     1      -6.659  42.997   1.991  1.00  0.00     0.007 C 
ENDBRANCH  19  23
ENDBRANCH  16  19
ENDBRANCH   1  16
TORSDOF 11
ENDMDL
MODEL 5
REMARK VINA RESULT: -5.643784689      2.318      6.655
REMARK  11 active torsions:
REMARK  status: ('A' for Active; 'I' for Inactive)
REMARK    1  A    between atoms: C2_2  and  O1_3 
REMARK    2  A    between atoms: O1_3  and  C3_4 
REMARK    3  A    between atoms: C3_4  and  C4_6 
REMARK    4  A    between atoms: C4_6  and  N1_7 
REMARK       I    between atoms: N1_7  and  C5_8 
REMARK    5  A    between atoms: N1_7  and  C16_25 
REMARK    6  A    between atoms: C5_8  and  C6_10 
REMARK    7  A    between atoms: C6_10  and  C7_12 
REMARK    8  A    between atoms: C7_12  and  O4_13 
REMARK    9  A    between atoms: C7_12  and  C8_15 
REMARK   10  A    between atoms: C8_15  and  O5_17 
REMARK   11  A    between atoms: C8_15  and  C10_19 
ROOT
HETATM    1  C6  UNL     1      -9.814  47.664   0.947  1.00  0.00     0.182 C 
HETATM    2  S1  UNL     1      -9.986  49.112   2.053  1.00  0.00    -0.080 SA
ENDROOT
BRANCH   1   3
HETATM    3  C5  UNL     1     -11.226  47.161   0.792  1.00  0.00     0.238 C 
HETATM    4  N1  UNL     1     -12.113  47.603  -0.191  1.00  0.00    -0.333 N 
HETATM    5  O3  UNL     1     -11.585  46.291   1.626  1.00  0.00    -0.272 OA
BRANCH   4   6
HETATM    6  C4  UNL     1     -13.457  47.005  -0.185  1.00  0.00     0.237 C 
BRANCH   6   7
HETATM    7  C3  UNL     1     -13.629  45.957  -1.194  1.00  0.00     0.276 C 
HETATM    8  O2  UNL     1     -14.246  46.122  -2.250  1.00  0.00    -0.263 OA
BRANCH   7   9
HETATM    9  O1  UNL     1     -13.073  44.710  -0.964  1.00  0.00    -0.321 OA
BRANCH   9  10
HETATM   10  C2  UNL     1     -11.918  44.271  -1.692  1.00  0.00     0.174 C 
HETATM   11  C1  UNL     1     -12.293  43.092  -2.561  1.00  0.00     0.034 C 
ENDBRANCH   9  10
ENDBRANCH   7   9
ENDBRANCH   6   7
ENDBRANCH   4   6
BRANCH   4  12
HETATM   12  C16 UNL     1     -11.853  48.546  -1.243  1.00  0.00     0.032 A 
HETATM   13  C17 UNL     1     -11.144  47.944  -2.473  1.00  0.00     0.039 C 
HETATM   14  C18 UNL     1     -11.680  49.990  -1.020  1.00  0.00     0.033 A 
HETATM   15  C19 UNL     1     -12.966  49.501  -1.627  1.00  0.00     0.033 A 
ENDBRANCH   4  12
ENDBRANCH   1   3
BRANCH   1  16
HETATM   16  C7  UNL     1      -8.929  46.593   1.524  1.00  0.00     0.176 C 
BRANCH  16  17
HETATM   17  O4  UNL     1      -8.577  46.934   2.797  1.00  0.00    -0.391 OA
ATOM     18  H4  UNL     1      -9.009  46.352   3.411  1.00  0.00     0.210 HD
ENDBRANCH  16  17
BRANCH  16  19
HETATM   19  C8  UNL     1      -7.974  45.919   0.648  1.00  0.00     0.085 C 
HETATM   20  C9  UNL     1      -8.049  46.624  -0.743  1.00  0.00     0.049 C 
BRANCH  19  21
HETATM   21  O5  UNL     1      -6.679  46.279   1.090  1.00  0.00    -0.387 OA
ATOM     22  H5  UNL     1      -6.561  47.199   0.886  1.00  0.00     0.210 HD
ENDBRANCH  19  21
BRANCH  19  23
HETATM   23  C10 UNL     1      -8.015  44.497   0.345  1.00  0.00     0.022 C 
HETATM   24  C11 UNL     1      -7.152  43.522   1.038  1.00  0.00     0.007 C 
HETATM   25  C12 UNL     1      -7.024  42.277   0.131  1.00  0.00     0.000 C 
HETATM   26  C13 UNL     1      -8.282  42.012  -0.633  1.00  0.00     0.000 C 
HETATM   27  C14 UNL     1      -8.364  43.071  -1.710  1.00  0.00     0.000 C 
HETATM   28  C15 UNL     1      -7.715  44.308  -1.157  1.00  0.00     0.007 C 
ENDBRANCH  19  23
ENDBRANCH  16  19
ENDBRANCH   1  16
TORSDOF 11
ENDMDL
