MODEL 1
REMARK VINA RESULT: -6.840761628      0.000      0.000
REMARK  10 active torsions:
REMARK  status: ('A' for Active; 'I' for Inactive)
REMARK    1  A    between atoms: C1_2  and  C2_4 
REMARK    2  A    between atoms: C2_4  and  C3_5 
REMARK    3  A    between atoms: C3_5  and  C4_6 
REMARK    4  A    between atoms: C4_6  and  O3_7 
REMARK    5  A    between atoms: O3_7  and  C5_8 
REMARK    6  A    between atoms: C5_8  and  C6_10 
REMARK    7  A    between atoms: C9_13  and  C10_14 
REMARK    8  A    between atoms: C10_14  and  O5_15 
REMARK    9  A    between atoms: C10_14  and  C11_17 
REMARK   10  A    between atoms: C11_17  and  C12_18 
ROOT
HETATM    1  C10 UNL     1     -10.451  46.217   0.855  1.00  0.00     0.132 C 
ENDROOT
BRANCH   1   2
HETATM    2  C9  UNL     1     -11.182  47.062  -0.108  1.00  0.00     0.029 C 
HETATM    3  C6  UNL     1     -12.372  46.585  -0.853  1.00  0.00     0.092 C 
HETATM    4  C7  UNL     1     -12.825  48.076  -0.817  1.00  0.00     0.015 C 
HETATM    5  C8  UNL     1     -12.169  48.055   0.575  1.00  0.00     0.009 C 
BRANCH   3   6
HETATM    6  C5  UNL     1     -13.440  45.814  -0.225  1.00  0.00     0.263 C 
HETATM    7  O4  UNL     1     -13.614  45.548   0.966  1.00  0.00    -0.265 OA
BRANCH   6   8
HETATM    8  O3  UNL     1     -14.411  45.300  -1.106  1.00  0.00    -0.321 OA
BRANCH   8   9
HETATM    9  C4  UNL     1     -14.549  45.589  -2.447  1.00  0.00     0.179 C 
BRANCH   9  10
HETATM   10  C3  UNL     1     -14.194  44.404  -3.298  1.00  0.00     0.037 C 
BRANCH  10  11
HETATM   11  C2  UNL     1     -12.701  44.345  -3.581  1.00  0.00     0.115 C 
BRANCH  11  12
HETATM   12  C1  UNL     1     -12.154  43.134  -2.931  1.00  0.00     0.172 C 
HETATM   13  O1  UNL     1     -12.785  42.537  -1.999  1.00  0.00    -0.648 OA
HETATM   14  O2  UNL     1     -10.944  42.640  -3.337  1.00  0.00    -0.648 OA
ENDBRANCH  11  12
ENDBRANCH  10  11
ENDBRANCH   9  10
ENDBRANCH   8   9
ENDBRANCH   6   8
ENDBRANCH   3   6
ENDBRANCH   1   2
BRANCH   1  15
HETATM   15  O5  UNL     1     -10.781  46.359   2.183  1.00  0.00    -0.394 OA
ATOM     16  H5  UNL     1     -10.227  46.928   2.704  1.00  0.00     0.210 HD
ENDBRANCH   1  15
BRANCH   1  17
HETATM   17  C11 UNL     1      -8.972  46.239   0.559  1.00  0.00    -0.006 C 
HETATM   18  C18 UNL     1      -8.720  47.198  -0.595  1.00  0.00     0.039 C 
HETATM   19  C19 UNL     1      -7.493  48.079  -0.336  1.00  0.00     0.168 C 
HETATM   20  O6  UNL     1      -6.463  47.265   0.096  1.00  0.00    -0.391 OA
HETATM   21  C20 UNL     1      -6.681  46.667   1.310  1.00  0.00     0.168 C 
HETATM   22  C21 UNL     1      -8.143  46.743   1.708  1.00  0.00     0.039 C 
BRANCH  17  23
HETATM   23  C12 UNL     1      -8.449  44.904   0.133  1.00  0.00    -0.003 C 
HETATM   24  C13 UNL     1      -8.783  43.759   1.054  1.00  0.00     0.005 C 
HETATM   25  C14 UNL     1      -7.706  42.701   0.739  1.00  0.00     0.000 C 
HETATM   26  C15 UNL     1      -7.789  42.280  -0.707  1.00  0.00     0.000 C 
HETATM   27  C16 UNL     1      -8.008  43.381  -1.679  1.00  0.00     0.000 C 
HETATM   28  C17 UNL     1      -8.969  44.447  -1.222  1.00  0.00     0.005 C 
ENDBRANCH  17  23
ENDBRANCH   1  17
TORSDOF 10
ENDMDL
MODEL 2
REMARK VINA RESULT: -6.643121135      1.790      2.181
REMARK  10 active torsions:
REMARK  status: ('A' for Active; 'I' for Inactive)
REMARK    1  A    between atoms: C1_2  and  C2_4 
REMARK    2  A    between atoms: C2_4  and  C3_5 
REMARK    3  A    between atoms: C3_5  and  C4_6 
REMARK    4  A    between atoms: C4_6  and  O3_7 
REMARK    5  A    between atoms: O3_7  and  C5_8 
REMARK    6  A    between atoms: C5_8  and  C6_10 
REMARK    7  A    between atoms: C9_13  and  C10_14 
REMARK    8  A    between atoms: C10_14  and  O5_15 
REMARK    9  A    between atoms: C10_14  and  C11_17 
REMARK   10  A    between atoms: C11_17  and  C12_18 
ROOT
HETATM    1  C10 UNL     1     -10.679  46.017   0.523  1.00  0.00     0.132 C 
ENDROOT
BRANCH   1   2
HETATM    2  C9  UNL     1     -11.392  46.893  -0.427  1.00  0.00     0.029 C 
HETATM    3  C6  UNL     1     -12.619  46.470  -1.144  1.00  0.00     0.092 C 
HETATM    4  C7  UNL     1     -13.001  47.980  -1.104  1.00  0.00     0.015 C 
HETATM    5  C8  UNL     1     -12.315  47.933   0.274  1.00  0.00     0.009 C 
BRANCH   3   6
HETATM    6  C5  UNL     1     -13.707  45.752  -0.489  1.00  0.00     0.263 C 
HETATM    7  O4  UNL     1     -13.953  45.634   0.713  1.00  0.00    -0.265 OA
BRANCH   6   8
HETATM    8  O3  UNL     1     -14.605  45.098  -1.355  1.00  0.00    -0.321 OA
BRANCH   8   9
HETATM    9  C4  UNL     1     -14.504  44.989  -2.725  1.00  0.00     0.179 C 
BRANCH   9  10
HETATM   10  C3  UNL     1     -15.628  44.169  -3.291  1.00  0.00     0.037 C 
BRANCH  10  11
HETATM   11  C2  UNL     1     -16.543  45.005  -4.172  1.00  0.00     0.115 C 
BRANCH  11  12
HETATM   12  C1  UNL     1     -16.442  44.496  -5.558  1.00  0.00     0.172 C 
HETATM   13  O1  UNL     1     -15.691  45.058  -6.420  1.00  0.00    -0.648 OA
HETATM   14  O2  UNL     1     -17.171  43.397  -5.926  1.00  0.00    -0.648 OA
ENDBRANCH  11  12
ENDBRANCH  10  11
ENDBRANCH   9  10
ENDBRANCH   8   9
ENDBRANCH   6   8
ENDBRANCH   3   6
ENDBRANCH   1   2
BRANCH   1  15
HETATM   15  O5  UNL     1     -11.068  46.083   1.840  1.00  0.00    -0.394 OA
ATOM     16  H5  UNL     1     -11.734  45.466   2.122  1.00  0.00     0.210 HD
ENDBRANCH   1  15
BRANCH   1  17
HETATM   17  C11 UNL     1      -9.190  46.090   0.292  1.00  0.00    -0.006 C 
HETATM   18  C18 UNL     1      -8.924  47.010  -0.891  1.00  0.00     0.039 C 
HETATM   19  C19 UNL     1      -7.748  47.953  -0.617  1.00  0.00     0.168 C 
HETATM   20  O6  UNL     1      -6.707  47.203  -0.104  1.00  0.00    -0.391 OA
HETATM   21  C20 UNL     1      -6.957  46.648   1.125  1.00  0.00     0.168 C 
HETATM   22  C21 UNL     1      -8.437  46.678   1.453  1.00  0.00     0.039 C 
BRANCH  17  23
HETATM   23  C12 UNL     1      -8.594  44.763  -0.051  1.00  0.00    -0.003 C 
HETATM   24  C13 UNL     1      -8.741  43.699   1.006  1.00  0.00     0.005 C 
HETATM   25  C14 UNL     1      -7.609  42.700   0.691  1.00  0.00     0.000 C 
HETATM   26  C15 UNL     1      -7.786  42.123  -0.691  1.00  0.00     0.000 C 
HETATM   27  C16 UNL     1      -8.188  43.096  -1.740  1.00  0.00     0.000 C 
HETATM   28  C17 UNL     1      -9.192  44.126  -1.297  1.00  0.00     0.005 C 
ENDBRANCH  17  23
ENDBRANCH   1  17
TORSDOF 10
ENDMDL
MODEL 3
REMARK VINA RESULT: -6.392742068      1.895      4.888
REMARK  10 active torsions:
REMARK  status: ('A' for Active; 'I' for Inactive)
REMARK    1  A    between atoms: C1_2  and  C2_4 
REMARK    2  A    between atoms: C2_4  and  C3_5 
REMARK    3  A    between atoms: C3_5  and  C4_6 
REMARK    4  A    between atoms: C4_6  and  O3_7 
REMARK    5  A    between atoms: O3_7  and  C5_8 
REMARK    6  A    between atoms: C5_8  and  C6_10 
REMARK    7  A    between atoms: C9_13  and  C10_14 
REMARK    8  A    between atoms: C10_14  and  O5_15 
REMARK    9  A    between atoms: C10_14  and  C11_17 
REMARK   10  A    between atoms: C11_17  and  C12_18 
ROOT
HETATM    1  C10 UNL     1      -9.149  46.226  -0.011  1.00  0.00     0.132 C 
ENDROOT
BRANCH   1   2
HETATM    2  C9  UNL     1      -8.513  45.430   1.056  1.00  0.00     0.029 C 
HETATM    3  C6  UNL     1      -8.265  43.973   0.932  1.00  0.00     0.092 C 
HETATM    4  C7  UNL     1      -7.041  44.238   1.859  1.00  0.00     0.015 C 
HETATM    5  C8  UNL     1      -6.961  45.561   1.075  1.00  0.00     0.009 C 
BRANCH   3   6
HETATM    6  C5  UNL     1      -7.737  43.363  -0.284  1.00  0.00     0.263 C 
HETATM    7  O4  UNL     1      -6.872  42.494  -0.409  1.00  0.00    -0.265 OA
BRANCH   6   8
HETATM    8  O3  UNL     1      -8.294  43.837  -1.487  1.00  0.00    -0.321 OA
BRANCH   8   9
HETATM    9  C4  UNL     1      -9.130  43.150  -2.341  1.00  0.00     0.179 C 
BRANCH   9  10
HETATM   10  C3  UNL     1     -10.571  43.472  -2.067  1.00  0.00     0.037 C 
BRANCH  10  11
HETATM   11  C2  UNL     1     -11.319  43.822  -3.344  1.00  0.00     0.115 C 
BRANCH  11  12
HETATM   12  C1  UNL     1     -12.769  43.677  -3.086  1.00  0.00     0.172 C 
HETATM   13  O1  UNL     1     -13.205  42.950  -2.135  1.00  0.00    -0.648 OA
HETATM   14  O2  UNL     1     -13.664  44.335  -3.884  1.00  0.00    -0.648 OA
ENDBRANCH  11  12
ENDBRANCH  10  11
ENDBRANCH   9  10
ENDBRANCH   8   9
ENDBRANCH   6   8
ENDBRANCH   3   6
ENDBRANCH   1   2
BRANCH   1  15
HETATM   15  O5  UNL     1      -8.317  46.763  -0.965  1.00  0.00    -0.394 OA
ATOM     16  H5  UNL     1      -8.588  47.585  -1.357  1.00  0.00     0.210 HD
ENDBRANCH   1  15
BRANCH   1  17
HETATM   17  C11 UNL     1     -10.153  47.187   0.576  1.00  0.00    -0.006 C 
HETATM   18  C18 UNL     1     -10.220  46.965   2.079  1.00  0.00     0.039 C 
HETATM   19  C19 UNL     1     -10.252  48.292   2.844  1.00  0.00     0.168 C 
HETATM   20  O6  UNL     1     -11.191  49.110   2.244  1.00  0.00    -0.391 OA
HETATM   21  C20 UNL     1     -10.880  49.492   0.965  1.00  0.00     0.168 C 
HETATM   22  C21 UNL     1      -9.775  48.630   0.386  1.00  0.00     0.039 C 
BRANCH  17  23
HETATM   23  C12 UNL     1     -11.534  46.974   0.045  1.00  0.00    -0.003 C 
HETATM   24  C13 UNL     1     -11.648  46.940  -1.457  1.00  0.00     0.005 C 
HETATM   25  C14 UNL     1     -13.125  47.291  -1.728  1.00  0.00     0.000 C 
HETATM   26  C15 UNL     1     -14.034  46.271  -1.089  1.00  0.00     0.000 C 
HETATM   27  C16 UNL     1     -13.645  45.841   0.279  1.00  0.00     0.000 C 
HETATM   28  C17 UNL     1     -12.165  45.663   0.490  1.00  0.00     0.005 C 
ENDBRANCH  17  23
ENDBRANCH   1  17
TORSDOF 10
ENDMDL
MODEL 4
REMARK VINA RESULT: -6.247476564      1.818      4.164
REMARK  10 active torsions:
REMARK  status: ('A' for Active; 'I' for Inactive)
REMARK    1  A    between atoms: C1_2  and  C2_4 
REMARK    2  A    between atoms: C2_4  and  C3_5 
REMARK    3  A    between atoms: C3_5  and  C4_6 
REMARK    4  A    between atoms: C4_6  and  O3_7 
REMARK    5  A    between atoms: O3_7  and  C5_8 
REMARK    6  A    between atoms: C5_8  and  C6_10 
REMARK    7  A    between atoms: C9_13  and  C10_14 
REMARK    8  A    between atoms: C10_14  and  O5_15 
REMARK    9  A    between atoms: C10_14  and  C11_17 
REMARK   10  A    between atoms: C11_17  and  C12_18 
ROOT
HETATM    1  C10 UNL     1     -10.759  45.995  -0.037  1.00  0.00     0.132 C 
ENDROOT
BRANCH   1   2
HETATM    2  C9  UNL     1     -11.920  46.206  -0.923  1.00  0.00     0.029 C 
HETATM    3  C6  UNL     1     -12.204  45.342  -2.094  1.00  0.00     0.092 C 
HETATM    4  C7  UNL     1     -13.698  45.681  -1.812  1.00  0.00     0.015 C 
HETATM    5  C8  UNL     1     -13.246  45.633  -0.342  1.00  0.00     0.009 C 
BRANCH   3   6
HETATM    6  C5  UNL     1     -12.095  43.887  -2.046  1.00  0.00     0.263 C 
HETATM    7  O4  UNL     1     -12.944  43.032  -2.304  1.00  0.00    -0.265 OA
BRANCH   6   8
HETATM    8  O3  UNL     1     -10.840  43.389  -1.645  1.00  0.00    -0.321 OA
BRANCH   8   9
HETATM    9  C4  UNL     1      -9.793  43.026  -2.465  1.00  0.00     0.179 C 
BRANCH   9  10
HETATM   10  C3  UNL     1      -8.469  43.325  -1.820  1.00  0.00     0.037 C 
BRANCH  10  11
HETATM   11  C2  UNL     1      -8.088  42.260  -0.804  1.00  0.00     0.115 C 
BRANCH  11  12
HETATM   12  C1  UNL     1      -7.604  42.938   0.418  1.00  0.00     0.172 C 
HETATM   13  O1  UNL     1      -8.408  43.514   1.222  1.00  0.00    -0.648 OA
HETATM   14  O2  UNL     1      -6.264  42.950   0.696  1.00  0.00    -0.648 OA
ENDBRANCH  11  12
ENDBRANCH  10  11
ENDBRANCH   9  10
ENDBRANCH   8   9
ENDBRANCH   6   8
ENDBRANCH   3   6
ENDBRANCH   1   2
BRANCH   1  15
HETATM   15  O5  UNL     1     -10.874  45.006   0.913  1.00  0.00    -0.394 OA
ATOM     16  H5  UNL     1     -10.079  44.539   1.144  1.00  0.00     0.210 HD
ENDBRANCH   1  15
BRANCH   1  17
HETATM   17  C11 UNL     1     -10.240  47.316   0.475  1.00  0.00    -0.006 C 
HETATM   18  C18 UNL     1     -11.225  48.409   0.091  1.00  0.00     0.039 C 
HETATM   19  C19 UNL     1     -11.463  49.384   1.248  1.00  0.00     0.168 C 
HETATM   20  O6  UNL     1     -10.233  49.742   1.768  1.00  0.00    -0.391 OA
HETATM   21  C20 UNL     1      -9.544  48.715   2.360  1.00  0.00     0.168 C 
HETATM   22  C21 UNL     1     -10.124  47.368   1.974  1.00  0.00     0.039 C 
BRANCH  17  23
HETATM   23  C12 UNL     1      -8.923  47.689  -0.126  1.00  0.00    -0.003 C 
HETATM   24  C13 UNL     1      -8.040  46.531  -0.512  1.00  0.00     0.005 C 
HETATM   25  C14 UNL     1      -6.621  47.135  -0.536  1.00  0.00     0.000 C 
HETATM   26  C15 UNL     1      -6.539  48.245  -1.554  1.00  0.00     0.000 C 
HETATM   27  C16 UNL     1      -7.704  49.167  -1.585  1.00  0.00     0.000 C 
HETATM   28  C17 UNL     1      -9.043  48.501  -1.407  1.00  0.00     0.005 C 
ENDBRANCH  17  23
ENDBRANCH   1  17
TORSDOF 10
ENDMDL
MODEL 5
REMARK VINA RESULT: -6.231303884      1.834      4.369
REMARK  10 active torsions:
REMARK  status: ('A' for Active; 'I' for Inactive)
REMARK    1  A    between atoms: C1_2  and  C2_4 
REMARK    2  A    between atoms: C2_4  and  C3_5 
REMARK    3  A    between atoms: C3_5  and  C4_6 
REMARK    4  A    between atoms: C4_6  and  O3_7 
REMARK    5  A    between atoms: O3_7  and  C5_8 
REMARK    6  A    between atoms: C5_8  and  C6_10 
REMARK    7  A    between atoms: C9_13  and  C10_14 
REMARK    8  A    between atoms: C10_14  and  O5_15 
REMARK    9  A    between atoms: C10_14  and  C11_17 
REMARK   10  A    between atoms: C11_17  and  C12_18 
ROOT
HETATM    1  C10 UNL     1     -11.886  45.692  -0.821  1.00  0.00     0.132 C 
ENDROOT
BRANCH   1   2
HETATM    2  C9  UNL     1     -12.514  45.630  -2.155  1.00  0.00     0.029 C 
HETATM    3  C6  UNL     1     -12.191  44.575  -3.145  1.00  0.00     0.092 C 
HETATM    4  C7  UNL     1     -13.659  44.770  -3.630  1.00  0.00     0.015 C 
HETATM    5  C8  UNL     1     -13.935  44.994  -2.132  1.00  0.00     0.009 C 
BRANCH   3   6
HETATM    6  C5  UNL     1     -12.061  43.167  -2.784  1.00  0.00     0.263 C 
HETATM    7  O4  UNL     1     -12.894  42.408  -2.285  1.00  0.00    -0.265 OA
BRANCH   6   8
HETATM    8  O3  UNL     1     -10.800  42.593  -3.041  1.00  0.00    -0.321 OA
BRANCH   8   9
HETATM    9  C4  UNL     1      -9.567  43.150  -2.779  1.00  0.00     0.179 C 
BRANCH   9  10
HETATM   10  C3  UNL     1      -9.220  43.043  -1.322  1.00  0.00     0.037 C 
BRANCH  10  11
HETATM   11  C2  UNL     1      -7.750  43.339  -1.073  1.00  0.00     0.115 C 
BRANCH  11  12
HETATM   12  C1  UNL     1      -7.253  42.389  -0.053  1.00  0.00     0.172 C 
HETATM   13  O1  UNL     1      -7.713  41.204   0.031  1.00  0.00    -0.648 OA
HETATM   14  O2  UNL     1      -6.278  42.787   0.820  1.00  0.00    -0.648 OA
ENDBRANCH  11  12
ENDBRANCH  10  11
ENDBRANCH   9  10
ENDBRANCH   8   9
ENDBRANCH   6   8
ENDBRANCH   3   6
ENDBRANCH   1   2
BRANCH   1  15
HETATM   15  O5  UNL     1     -12.590  45.141   0.224  1.00  0.00    -0.394 OA
ATOM     16  H5  UNL     1     -12.283  45.340   1.101  1.00  0.00     0.210 HD
ENDBRANCH   1  15
BRANCH   1  17
HETATM   17  C11 UNL     1     -11.334  47.072  -0.562  1.00  0.00    -0.006 C 
HETATM   18  C18 UNL     1     -11.413  47.878  -1.850  1.00  0.00     0.039 C 
HETATM   19  C19 UNL     1     -11.913  49.303  -1.593  1.00  0.00     0.168 C 
HETATM   20  O6  UNL     1     -11.208  49.819  -0.521  1.00  0.00    -0.391 OA
HETATM   21  C20 UNL     1     -11.441  49.184   0.672  1.00  0.00     0.168 C 
HETATM   22  C21 UNL     1     -12.120  47.845   0.461  1.00  0.00     0.039 C 
BRANCH  17  23
HETATM   23  C12 UNL     1      -9.896  47.051  -0.153  1.00  0.00    -0.003 C 
HETATM   24  C13 UNL     1      -9.531  45.995   0.859  1.00  0.00     0.005 C 
HETATM   25  C14 UNL     1      -8.242  46.535   1.512  1.00  0.00     0.000 C 
HETATM   26  C15 UNL     1      -7.156  46.697   0.477  1.00  0.00     0.000 C 
HETATM   27  C16 UNL     1      -7.593  47.280  -0.817  1.00  0.00     0.000 C 
HETATM   28  C17 UNL     1      -8.935  46.801  -1.306  1.00  0.00     0.005 C 
ENDBRANCH  17  23
ENDBRANCH   1  17
TORSDOF 10
ENDMDL
