MODEL 1
REMARK VINA RESULT: -6.413799648      0.000      0.000
REMARK  11 active torsions:
REMARK  status: ('A' for Active; 'I' for Inactive)
REMARK    1  A    between atoms: C3_3  and  C5_5 
REMARK    2  A    between atoms: C5_5  and  C6_6 
REMARK    3  A    between atoms: C6_6  and  C7_7 
REMARK    4  A    between atoms: C7_7  and  C8_8 
REMARK       I    between atoms: C8_8  and  N1_10 
REMARK    5  A    between atoms: N1_10  and  C9_12 
REMARK    6  A    between atoms: C9_12  and  C11_14 
REMARK    7  A    between atoms: C11_14  and  C12_16 
REMARK    8  A    between atoms: C12_16  and  N2_17 
REMARK    9  A    between atoms: C12_16  and  C18_26 
REMARK       I    between atoms: N2_17  and  C13_19 
REMARK   10  A    between atoms: C13_19  and  O4_21 
REMARK   11  A    between atoms: O4_21  and  C14_22 
ROOT
HETATM    1  C1  UNL     1      -7.335  42.015   0.020  1.00  0.00     0.012 C 
HETATM    2  C2  UNL     1      -6.726  42.577   0.896  1.00  0.00    -0.113 C 
HETATM    3  C3  UNL     1      -5.943  43.281   1.975  1.00  0.00     0.061 C 
HETATM    4  C4  UNL     1      -6.607  42.796   3.242  1.00  0.00     0.023 C 
ENDROOT
BRANCH   3   5
HETATM    5  C5  UNL     1      -6.072  44.717   1.667  1.00  0.00     0.027 C 
BRANCH   5   6
HETATM    6  C6  UNL     1      -5.017  45.669   2.152  1.00  0.00    -0.031 C 
HETATM    7  C21 UNL     1      -4.902  46.795   1.164  1.00  0.00     0.010 C 
HETATM    8  C22 UNL     1      -3.569  47.314   0.841  1.00  0.00     0.001 C 
HETATM    9  C23 UNL     1      -2.521  47.040   1.889  1.00  0.00     0.000 C 
HETATM   10  C24 UNL     1      -2.480  45.529   2.000  1.00  0.00     0.001 C 
HETATM   11  C25 UNL     1      -3.760  45.094   2.647  1.00  0.00     0.010 C 
BRANCH   6  12
HETATM   12  C7  UNL     1      -5.669  46.326   3.392  1.00  0.00     0.112 C 
BRANCH  12  13
HETATM   13  C8  UNL     1      -6.632  47.368   3.103  1.00  0.00     0.218 C 
HETATM   14  O1  UNL     1      -6.412  48.579   2.838  1.00  0.00    -0.274 OA
HETATM   15  N1  UNL     1      -8.000  47.006   3.113  1.00  0.00    -0.350 N 
ATOM     16  H1  UNL     1      -8.227  46.034   3.324  1.00  0.00     0.163 HD
BRANCH  15  17
HETATM   17  C9  UNL     1      -9.106  47.905   2.847  1.00  0.00     0.152 C 
HETATM   18  C10 UNL     1      -9.721  48.453   4.096  1.00  0.00     0.040 C 
BRANCH  17  19
HETATM   19  C11 UNL     1     -10.041  47.330   1.862  1.00  0.00     0.172 C 
HETATM   20  O2  UNL     1     -11.258  47.571   2.006  1.00  0.00    -0.293 OA
BRANCH  19  21
HETATM   21  C12 UNL     1      -9.701  46.487   0.707  1.00  0.00     0.162 C 
BRANCH  21  22
HETATM   22  N2  UNL     1     -10.925  46.153  -0.033  1.00  0.00    -0.325 N 
HETATM   23  C13 UNL     1     -11.271  44.833  -0.401  1.00  0.00     0.362 C 
HETATM   24  O3  UNL     1     -10.495  43.899  -0.077  1.00  0.00    -0.238 OA
ATOM     25  H2  UNL     1     -11.557  46.910  -0.294  1.00  0.00     0.165 HD
BRANCH  23  26
HETATM   26  O4  UNL     1     -12.398  44.495  -1.090  1.00  0.00    -0.294 OA
BRANCH  26  27
HETATM   27  C14 UNL     1     -12.504  44.138  -2.420  1.00  0.00     0.061 C 
HETATM   28  C15 UNL     1     -13.886  44.493  -2.964  1.00  0.00     0.046 C 
HETATM   29  C16 UNL     1     -12.378  42.640  -2.553  1.00  0.00     0.046 C 
HETATM   30  C17 UNL     1     -11.506  44.778  -3.337  1.00  0.00     0.046 C 
ENDBRANCH  26  27
ENDBRANCH  23  26
ENDBRANCH  21  22
BRANCH  21  31
HETATM   31  C18 UNL     1      -8.807  47.210  -0.293  1.00  0.00     0.008 C 
HETATM   32  C19 UNL     1      -7.850  46.276  -0.998  1.00  0.00     0.012 C 
HETATM   33  C20 UNL     1      -9.519  48.073  -1.275  1.00  0.00     0.012 C 
ENDBRANCH  21  31
ENDBRANCH  19  21
ENDBRANCH  17  19
ENDBRANCH  15  17
ENDBRANCH  12  13
ENDBRANCH   6  12
ENDBRANCH   5   6
ENDBRANCH   3   5
TORSDOF 11
ENDMDL
MODEL 2
REMARK VINA RESULT: -6.155786051      1.999      6.858
REMARK  11 active torsions:
REMARK  status: ('A' for Active; 'I' for Inactive)
REMARK    1  A    between atoms: C3_3  and  C5_5 
REMARK    2  A    between atoms: C5_5  and  C6_6 
REMARK    3  A    between atoms: C6_6  and  C7_7 
REMARK    4  A    between atoms: C7_7  and  C8_8 
REMARK       I    between atoms: C8_8  and  N1_10 
REMARK    5  A    between atoms: N1_10  and  C9_12 
REMARK    6  A    between atoms: C9_12  and  C11_14 
REMARK    7  A    between atoms: C11_14  and  C12_16 
REMARK    8  A    between atoms: C12_16  and  N2_17 
REMARK    9  A    between atoms: C12_16  and  C18_26 
REMARK       I    between atoms: N2_17  and  C13_19 
REMARK   10  A    between atoms: C13_19  and  O4_21 
REMARK   11  A    between atoms: O4_21  and  C14_22 
ROOT
HETATM    1  C1  UNL     1     -14.766  44.561  -3.125  1.00  0.00     0.012 C 
HETATM    2  C2  UNL     1     -13.582  44.643  -2.908  1.00  0.00    -0.113 C 
HETATM    3  C3  UNL     1     -12.107  44.771  -2.625  1.00  0.00     0.061 C 
HETATM    4  C4  UNL     1     -11.483  43.922  -3.706  1.00  0.00     0.023 C 
ENDROOT
BRANCH   3   5
HETATM    5  C5  UNL     1     -11.942  44.303  -1.237  1.00  0.00     0.027 C 
BRANCH   5   6
HETATM    6  C6  UNL     1     -10.576  44.327  -0.612  1.00  0.00    -0.031 C 
HETATM    7  C21 UNL     1      -9.901  45.614  -0.995  1.00  0.00     0.010 C 
HETATM    8  C22 UNL     1      -8.472  45.587  -1.325  1.00  0.00     0.001 C 
HETATM    9  C23 UNL     1      -7.721  44.413  -0.754  1.00  0.00     0.000 C 
HETATM   10  C24 UNL     1      -8.414  43.198  -1.338  1.00  0.00     0.001 C 
HETATM   11  C25 UNL     1      -9.767  43.105  -0.700  1.00  0.00     0.010 C 
BRANCH   6  12
HETATM   12  C7  UNL     1     -10.875  44.498   0.897  1.00  0.00     0.112 C 
BRANCH  12  13
HETATM   13  C8  UNL     1     -11.163  45.854   1.319  1.00  0.00     0.218 C 
HETATM   14  O1  UNL     1     -12.238  46.497   1.189  1.00  0.00    -0.274 OA
HETATM   15  N1  UNL     1     -10.123  46.567   1.962  1.00  0.00    -0.350 N 
ATOM     16  H1  UNL     1      -9.233  46.085   2.088  1.00  0.00     0.163 HD
BRANCH  15  17
HETATM   17  C9  UNL     1     -10.221  47.926   2.455  1.00  0.00     0.152 C 
HETATM   18  C10 UNL     1     -10.212  48.943   1.357  1.00  0.00     0.040 C 
BRANCH  17  19
HETATM   19  C11 UNL     1      -9.281  48.163   3.566  1.00  0.00     0.172 C 
HETATM   20  O2  UNL     1      -9.762  48.462   4.680  1.00  0.00    -0.293 OA
BRANCH  19  21
HETATM   21  C12 UNL     1      -7.815  48.087   3.517  1.00  0.00     0.162 C 
BRANCH  21  22
HETATM   22  N2  UNL     1      -7.379  46.742   3.913  1.00  0.00    -0.325 N 
HETATM   23  C13 UNL     1      -6.517  46.497   5.006  1.00  0.00     0.362 C 
HETATM   24  O3  UNL     1      -6.105  47.479   5.673  1.00  0.00    -0.238 OA
ATOM     25  H2  UNL     1      -7.715  45.944   3.374  1.00  0.00     0.165 HD
BRANCH  23  26
HETATM   26  O4  UNL     1      -6.095  45.260   5.394  1.00  0.00    -0.294 OA
BRANCH  26  27
HETATM   27  C14 UNL     1      -5.231  44.413   4.729  1.00  0.00     0.061 C 
HETATM   28  C15 UNL     1      -4.384  43.619   5.721  1.00  0.00     0.046 C 
HETATM   29  C16 UNL     1      -4.258  45.225   3.909  1.00  0.00     0.046 C 
HETATM   30  C17 UNL     1      -5.885  43.409   3.827  1.00  0.00     0.046 C 
ENDBRANCH  26  27
ENDBRANCH  23  26
ENDBRANCH  21  22
BRANCH  21  31
HETATM   31  C18 UNL     1      -7.272  48.291   2.107  1.00  0.00     0.008 C 
HETATM   32  C19 UNL     1      -6.416  49.531   1.988  1.00  0.00     0.012 C 
HETATM   33  C20 UNL     1      -6.579  47.114   1.517  1.00  0.00     0.012 C 
ENDBRANCH  21  31
ENDBRANCH  19  21
ENDBRANCH  17  19
ENDBRANCH  15  17
ENDBRANCH  12  13
ENDBRANCH   6  12
ENDBRANCH   5   6
ENDBRANCH   3   5
TORSDOF 11
ENDMDL
MODEL 3
REMARK VINA RESULT: -6.152160784      2.077      6.820
REMARK  11 active torsions:
REMARK  status: ('A' for Active; 'I' for Inactive)
REMARK    1  A    between atoms: C3_3  and  C5_5 
REMARK    2  A    between atoms: C5_5  and  C6_6 
REMARK    3  A    between atoms: C6_6  and  C7_7 
REMARK    4  A    between atoms: C7_7  and  C8_8 
REMARK       I    between atoms: C8_8  and  N1_10 
REMARK    5  A    between atoms: N1_10  and  C9_12 
REMARK    6  A    between atoms: C9_12  and  C11_14 
REMARK    7  A    between atoms: C11_14  and  C12_16 
REMARK    8  A    between atoms: C12_16  and  N2_17 
REMARK    9  A    between atoms: C12_16  and  C18_26 
REMARK       I    between atoms: N2_17  and  C13_19 
REMARK   10  A    between atoms: C13_19  and  O4_21 
REMARK   11  A    between atoms: O4_21  and  C14_22 
ROOT
HETATM    1  C1  UNL     1      -7.669  41.314   0.020  1.00  0.00     0.012 C 
HETATM    2  C2  UNL     1      -8.111  42.290  -0.534  1.00  0.00    -0.113 C 
HETATM    3  C3  UNL     1      -8.687  43.497  -1.230  1.00  0.00     0.061 C 
HETATM    4  C4  UNL     1      -7.466  44.154  -1.828  1.00  0.00     0.023 C 
ENDROOT
BRANCH   3   5
HETATM    5  C5  UNL     1      -9.392  44.246  -0.174  1.00  0.00     0.027 C 
BRANCH   5   6
HETATM    6  C6  UNL     1     -10.513  45.171  -0.556  1.00  0.00    -0.031 C 
HETATM    7  C21 UNL     1     -11.386  45.383   0.649  1.00  0.00     0.010 C 
HETATM    8  C22 UNL     1     -12.840  45.431   0.465  1.00  0.00     0.001 C 
HETATM    9  C23 UNL     1     -13.282  45.784  -0.932  1.00  0.00     0.000 C 
HETATM   10  C24 UNL     1     -12.681  44.700  -1.806  1.00  0.00     0.001 C 
HETATM   11  C25 UNL     1     -11.198  44.918  -1.830  1.00  0.00     0.010 C 
BRANCH   6  12
HETATM   12  C7  UNL     1      -9.805  46.533  -0.748  1.00  0.00     0.112 C 
BRANCH  12  13
HETATM   13  C8  UNL     1      -9.000  46.974   0.373  1.00  0.00     0.218 C 
HETATM   14  O1  UNL     1      -9.340  47.077   1.580  1.00  0.00    -0.274 OA
HETATM   15  N1  UNL     1      -7.660  47.338   0.103  1.00  0.00    -0.350 N 
ATOM     16  H1  UNL     1      -7.340  47.271  -0.863  1.00  0.00     0.163 HD
BRANCH  15  17
HETATM   17  C9  UNL     1      -6.703  47.800   1.090  1.00  0.00     0.152 C 
HETATM   18  C10 UNL     1      -6.075  49.107   0.722  1.00  0.00     0.040 C 
BRANCH  17  19
HETATM   19  C11 UNL     1      -5.777  46.723   1.485  1.00  0.00     0.172 C 
HETATM   20  O2  UNL     1      -4.717  46.601   0.834  1.00  0.00    -0.293 OA
BRANCH  19  21
HETATM   21  C12 UNL     1      -5.957  45.756   2.576  1.00  0.00     0.162 C 
BRANCH  21  22
HETATM   22  N2  UNL     1      -7.082  46.175   3.422  1.00  0.00    -0.325 N 
HETATM   23  C13 UNL     1      -6.930  46.999   4.561  1.00  0.00     0.362 C 
HETATM   24  O3  UNL     1      -5.776  47.394   4.862  1.00  0.00    -0.238 OA
ATOM     25  H2  UNL     1      -8.020  45.857   3.177  1.00  0.00     0.165 HD
BRANCH  23  26
HETATM   26  O4  UNL     1      -7.956  47.401   5.364  1.00  0.00    -0.294 OA
BRANCH  26  27
HETATM   27  C14 UNL     1      -8.749  48.523   5.228  1.00  0.00     0.061 C 
HETATM   28  C15 UNL     1      -8.752  49.340   6.518  1.00  0.00     0.046 C 
HETATM   29  C16 UNL     1     -10.181  48.105   4.999  1.00  0.00     0.046 C 
HETATM   30  C17 UNL     1      -8.350  49.461   4.129  1.00  0.00     0.046 C 
ENDBRANCH  26  27
ENDBRANCH  23  26
ENDBRANCH  21  22
BRANCH  21  31
HETATM   31  C18 UNL     1      -6.329  44.369   2.064  1.00  0.00     0.008 C 
HETATM   32  C19 UNL     1      -5.128  43.584   1.589  1.00  0.00     0.012 C 
HETATM   33  C20 UNL     1      -7.159  43.552   2.990  1.00  0.00     0.012 C 
ENDBRANCH  21  31
ENDBRANCH  19  21
ENDBRANCH  17  19
ENDBRANCH  15  17
ENDBRANCH  12  13
ENDBRANCH   6  12
ENDBRANCH   5   6
ENDBRANCH   3   5
TORSDOF 11
ENDMDL
MODEL 4
REMARK VINA RESULT: -6.143216399      2.179      6.804
REMARK  11 active torsions:
REMARK  status: ('A' for Active; 'I' for Inactive)
REMARK    1  A    between atoms: C3_3  and  C5_5 
REMARK    2  A    between atoms: C5_5  and  C6_6 
REMARK    3  A    between atoms: C6_6  and  C7_7 
REMARK    4  A    between atoms: C7_7  and  C8_8 
REMARK       I    between atoms: C8_8  and  N1_10 
REMARK    5  A    between atoms: N1_10  and  C9_12 
REMARK    6  A    between atoms: C9_12  and  C11_14 
REMARK    7  A    between atoms: C11_14  and  C12_16 
REMARK    8  A    between atoms: C12_16  and  N2_17 
REMARK    9  A    between atoms: C12_16  and  C18_26 
REMARK       I    between atoms: N2_17  and  C13_19 
REMARK   10  A    between atoms: C13_19  and  O4_21 
REMARK   11  A    between atoms: O4_21  and  C14_22 
ROOT
HETATM    1  C1  UNL     1     -13.231  44.289  -2.973  1.00  0.00     0.012 C 
HETATM    2  C2  UNL     1     -12.729  44.612  -1.925  1.00  0.00    -0.113 C 
HETATM    3  C3  UNL     1     -12.087  44.992  -0.614  1.00  0.00     0.061 C 
HETATM    4  C4  UNL     1     -13.157  45.820   0.056  1.00  0.00     0.023 C 
ENDROOT
BRANCH   3   5
HETATM    5  C5  UNL     1     -10.844  45.691  -0.987  1.00  0.00     0.027 C 
BRANCH   5   6
HETATM    6  C6  UNL     1      -9.534  44.961  -0.891  1.00  0.00    -0.031 C 
HETATM    7  C21 UNL     1      -9.366  44.123  -2.126  1.00  0.00     0.010 C 
HETATM    8  C22 UNL     1      -8.792  42.779  -1.991  1.00  0.00     0.001 C 
HETATM    9  C23 UNL     1      -7.962  42.576  -0.750  1.00  0.00     0.000 C 
HETATM   10  C24 UNL     1      -8.917  42.853   0.395  1.00  0.00     0.001 C 
HETATM   11  C25 UNL     1      -9.206  44.324   0.390  1.00  0.00     0.010 C 
BRANCH   6  12
HETATM   12  C7  UNL     1      -8.484  46.085  -1.057  1.00  0.00     0.112 C 
BRANCH  12  13
HETATM   13  C8  UNL     1      -7.964  46.632   0.180  1.00  0.00     0.218 C 
HETATM   14  O1  UNL     1      -8.601  46.945   1.219  1.00  0.00    -0.274 OA
HETATM   15  N1  UNL     1      -6.568  46.850   0.254  1.00  0.00    -0.350 N 
ATOM     16  H1  UNL     1      -6.011  46.611  -0.566  1.00  0.00     0.163 HD
BRANCH  15  17
HETATM   17  C9  UNL     1      -5.865  47.386   1.403  1.00  0.00     0.152 C 
HETATM   18  C10 UNL     1      -5.072  48.613   1.078  1.00  0.00     0.040 C 
BRANCH  17  19
HETATM   19  C11 UNL     1      -5.149  46.326   2.137  1.00  0.00     0.172 C 
HETATM   20  O2  UNL     1      -3.929  46.183   1.908  1.00  0.00    -0.293 OA
BRANCH  19  21
HETATM   21  C12 UNL     1      -5.713  45.397   3.125  1.00  0.00     0.162 C 
BRANCH  21  22
HETATM   22  N2  UNL     1      -6.891  46.008   3.757  1.00  0.00    -0.325 N 
HETATM   23  C13 UNL     1      -6.820  46.799   4.926  1.00  0.00     0.362 C 
HETATM   24  O3  UNL     1      -5.694  46.991   5.449  1.00  0.00    -0.238 OA
ATOM     25  H2  UNL     1      -7.805  45.855   3.330  1.00  0.00     0.165 HD
BRANCH  23  26
HETATM   26  O4  UNL     1      -7.895  47.376   5.533  1.00  0.00    -0.294 OA
BRANCH  26  27
HETATM   27  C14 UNL     1      -8.571  48.518   5.153  1.00  0.00     0.061 C 
HETATM   28  C15 UNL     1      -8.797  49.435   6.352  1.00  0.00     0.046 C 
HETATM   29  C16 UNL     1      -9.946  48.148   4.649  1.00  0.00     0.046 C 
HETATM   30  C17 UNL     1      -7.892  49.346   4.104  1.00  0.00     0.046 C 
ENDBRANCH  26  27
ENDBRANCH  23  26
ENDBRANCH  21  22
BRANCH  21  31
HETATM   31  C18 UNL     1      -6.219  44.109   2.486  1.00  0.00     0.008 C 
HETATM   32  C19 UNL     1      -5.226  43.515   1.514  1.00  0.00     0.012 C 
HETATM   33  C20 UNL     1      -6.704  43.075   3.440  1.00  0.00     0.012 C 
ENDBRANCH  21  31
ENDBRANCH  19  21
ENDBRANCH  17  19
ENDBRANCH  15  17
ENDBRANCH  12  13
ENDBRANCH   6  12
ENDBRANCH   5   6
ENDBRANCH   3   5
TORSDOF 11
ENDMDL
MODEL 5
REMARK VINA RESULT: -6.055286849      2.016      7.277
REMARK  11 active torsions:
REMARK  status: ('A' for Active; 'I' for Inactive)
REMARK    1  A    between atoms: C3_3  and  C5_5 
REMARK    2  A    between atoms: C5_5  and  C6_6 
REMARK    3  A    between atoms: C6_6  and  C7_7 
REMARK    4  A    between atoms: C7_7  and  C8_8 
REMARK       I    between atoms: C8_8  and  N1_10 
REMARK    5  A    between atoms: N1_10  and  C9_12 
REMARK    6  A    between atoms: C9_12  and  C11_14 
REMARK    7  A    between atoms: C11_14  and  C12_16 
REMARK    8  A    between atoms: C12_16  and  N2_17 
REMARK    9  A    between atoms: C12_16  and  C18_26 
REMARK       I    between atoms: N2_17  and  C13_19 
REMARK   10  A    between atoms: C13_19  and  O4_21 
REMARK   11  A    between atoms: O4_21  and  C14_22 
ROOT
HETATM    1  C1  UNL     1     -14.817  44.663  -3.169  1.00  0.00     0.012 C 
HETATM    2  C2  UNL     1     -13.654  44.384  -3.008  1.00  0.00    -0.113 C 
HETATM    3  C3  UNL     1     -12.194  44.057  -2.823  1.00  0.00     0.061 C 
HETATM    4  C4  UNL     1     -12.203  42.555  -2.671  1.00  0.00     0.023 C 
ENDROOT
BRANCH   3   5
HETATM    5  C5  UNL     1     -11.774  44.840  -1.646  1.00  0.00     0.027 C 
BRANCH   5   6
HETATM    6  C6  UNL     1     -10.357  44.730  -1.160  1.00  0.00    -0.031 C 
HETATM    7  C21 UNL     1      -9.484  44.351  -2.322  1.00  0.00     0.010 C 
HETATM    8  C22 UNL     1      -8.402  43.383  -2.104  1.00  0.00     0.001 C 
HETATM    9  C23 UNL     1      -7.947  43.269  -0.672  1.00  0.00     0.000 C 
HETATM   10  C24 UNL     1      -9.187  42.845   0.089  1.00  0.00     0.001 C 
HETATM   11  C25 UNL     1     -10.125  44.014   0.101  1.00  0.00     0.010 C 
BRANCH   6  12
HETATM   12  C7  UNL     1      -9.965  46.197  -0.863  1.00  0.00     0.112 C 
BRANCH  12  13
HETATM   13  C8  UNL     1      -9.687  46.492   0.528  1.00  0.00     0.218 C 
HETATM   14  O1  UNL     1     -10.499  46.548   1.488  1.00  0.00    -0.274 OA
HETATM   15  N1  UNL     1      -8.340  46.751   0.878  1.00  0.00    -0.350 N 
ATOM     16  H1  UNL     1      -7.647  46.717   0.131  1.00  0.00     0.163 HD
BRANCH  15  17
HETATM   17  C9  UNL     1      -7.867  47.062   2.213  1.00  0.00     0.152 C 
HETATM   18  C10 UNL     1      -7.863  48.531   2.499  1.00  0.00     0.040 C 
BRANCH  17  19
HETATM   19  C11 UNL     1      -6.622  46.336   2.524  1.00  0.00     0.172 C 
HETATM   20  O2  UNL     1      -6.403  46.043   3.718  1.00  0.00    -0.293 OA
BRANCH  19  21
HETATM   21  C12 UNL     1      -5.586  45.910   1.573  1.00  0.00     0.162 C 
BRANCH  21  22
HETATM   22  N2  UNL     1      -4.655  47.020   1.330  1.00  0.00    -0.325 N 
HETATM   23  C13 UNL     1      -4.780  47.911   0.241  1.00  0.00     0.362 C 
HETATM   24  O3  UNL     1      -5.736  47.748  -0.557  1.00  0.00    -0.238 OA
ATOM     25  H2  UNL     1      -3.880  47.155   1.980  1.00  0.00     0.165 HD
BRANCH  23  26
HETATM   26  O4  UNL     1      -3.930  48.947  -0.009  1.00  0.00    -0.294 OA
BRANCH  26  27
HETATM   27  C14 UNL     1      -2.618  48.883  -0.435  1.00  0.00     0.061 C 
HETATM   28  C15 UNL     1      -1.660  49.028   0.745  1.00  0.00     0.046 C 
HETATM   29  C16 UNL     1      -2.327  50.047  -1.352  1.00  0.00     0.046 C 
HETATM   30  C17 UNL     1      -2.236  47.618  -1.144  1.00  0.00     0.046 C 
ENDBRANCH  26  27
ENDBRANCH  23  26
ENDBRANCH  21  22
BRANCH  21  31
HETATM   31  C18 UNL     1      -4.730  44.775   2.122  1.00  0.00     0.008 C 
HETATM   32  C19 UNL     1      -5.179  43.418   1.630  1.00  0.00     0.012 C 
HETATM   33  C20 UNL     1      -3.262  44.941   1.941  1.00  0.00     0.012 C 
ENDBRANCH  21  31
ENDBRANCH  19  21
ENDBRANCH  17  19
ENDBRANCH  15  17
ENDBRANCH  12  13
ENDBRANCH   6  12
ENDBRANCH   5   6
ENDBRANCH   3   5
TORSDOF 11
ENDMDL
