MODEL 1
REMARK VINA RESULT: -7.399006290      0.000      0.000
REMARK  11 active torsions:
REMARK  status: ('A' for Active; 'I' for Inactive)
REMARK    1  A    between atoms: C2_2  and  C3_3 
REMARK    2  A    between atoms: C3_3  and  C4_4 
REMARK    3  A    between atoms: C4_4  and  N1_5 
REMARK       I    between atoms: N1_5  and  C5_7 
REMARK    4  A    between atoms: C5_7  and  C6_9 
REMARK    5  A    between atoms: C6_9  and  N2_10 
REMARK    6  A    between atoms: C6_9  and  C14_22 
REMARK       I    between atoms: N2_10  and  C7_12 
REMARK       I    between atoms: C7_12  and  N3_14 
REMARK    7  A    between atoms: N3_14  and  C8_16 
REMARK    8  A    between atoms: C14_22  and  O4_24 
REMARK    9  A    between atoms: O4_24  and  C15_25 
REMARK   10  A    between atoms: C15_25  and  C18_28 
REMARK   11  A    between atoms: C19_29  and  C20_30 
ROOT
HETATM    1  C6  UNL     1     -11.675  45.438  -0.714  1.00  0.00     0.278 C 
ENDROOT
BRANCH   1   2
HETATM    2  C5  UNL     1     -13.134  45.389  -0.926  1.00  0.00     0.250 C 
HETATM    3  N1  UNL     1     -13.668  45.312  -2.218  1.00  0.00    -0.359 N 
ATOM      4  H1  UNL     1     -13.011  45.292  -2.998  1.00  0.00     0.162 HD
HETATM    5  O1  UNL     1     -13.895  45.417   0.065  1.00  0.00    -0.271 OA
BRANCH   3   6
HETATM    6  C4  UNL     1     -15.068  45.258  -2.529  1.00  0.00     0.122 C 
BRANCH   6   7
HETATM    7  C3  UNL     1     -15.402  44.232  -3.586  1.00  0.00     0.019 C 
BRANCH   7   8
HETATM    8  C2  UNL     1     -16.236  44.965  -4.644  1.00  0.00    -0.003 C 
HETATM    9  C1  UNL     1     -15.996  44.358  -6.012  1.00  0.00     0.005 C 
ENDBRANCH   7   8
ENDBRANCH   6   7
ENDBRANCH   3   6
ENDBRANCH   1   2
BRANCH   1  10
HETATM   10  N2  UNL     1     -11.354  45.565   0.710  1.00  0.00    -0.321 N 
HETATM   11  C7  UNL     1     -10.747  46.741   1.207  1.00  0.00     0.317 C 
HETATM   12  O2  UNL     1     -10.488  47.671   0.409  1.00  0.00    -0.247 OA
HETATM   13  N3  UNL     1     -10.415  46.917   2.572  1.00  0.00    -0.339 N 
ATOM     14  H3  UNL     1     -10.622  46.164   3.229  1.00  0.00     0.164 HD
ATOM     15  H2  UNL     1     -11.570  44.799   1.347  1.00  0.00     0.165 HD
BRANCH  13  16
HETATM   16  C8  UNL     1      -9.792  48.128   3.071  1.00  0.00     0.086 C 
HETATM   17  C9  UNL     1      -8.309  47.988   3.232  1.00  0.00     0.025 C 
HETATM   18  C10 UNL     1      -7.844  47.771   4.633  1.00  0.00     0.002 C 
HETATM   19  C11 UNL     1      -8.529  48.624   5.657  1.00  0.00     0.000 C 
HETATM   20  C12 UNL     1      -9.633  49.473   5.084  1.00  0.00     0.002 C 
HETATM   21  C13 UNL     1     -10.532  48.543   4.295  1.00  0.00     0.025 C 
ENDBRANCH  13  16
ENDBRANCH   1  10
BRANCH   1  22
HETATM   22  C14 UNL     1     -10.995  44.191  -1.187  1.00  0.00     0.292 C 
HETATM   23  O3  UNL     1     -11.319  43.618  -2.257  1.00  0.00    -0.262 OA
BRANCH  22  24
HETATM   24  O4  UNL     1      -9.970  43.609  -0.461  1.00  0.00    -0.305 OA
BRANCH  24  25
HETATM   25  C15 UNL     1      -8.649  43.787  -0.838  1.00  0.00     0.081 C 
HETATM   26  C16 UNL     1      -8.244  45.234  -0.999  1.00  0.00     0.051 C 
HETATM   27  C17 UNL     1      -8.478  43.144  -2.220  1.00  0.00     0.051 C 
BRANCH  25  28
HETATM   28  C18 UNL     1      -7.669  43.146   0.057  1.00  0.00     0.007 C 
HETATM   29  C19 UNL     1      -6.932  43.847   0.904  1.00  0.00    -0.023 C 
BRANCH  29  30
HETATM   30  C20 UNL     1      -5.948  43.199   1.803  1.00  0.00     0.008 C 
HETATM   31  C21 UNL     1      -4.678  43.995   1.922  1.00  0.00     0.008 C 
HETATM   32  C22 UNL     1      -4.682  44.638   3.292  1.00  0.00     0.001 C 
HETATM   33  C23 UNL     1      -6.147  44.540   3.730  1.00  0.00     0.001 C 
HETATM   34  C24 UNL     1      -6.500  43.160   3.211  1.00  0.00     0.008 C 
ENDBRANCH  29  30
ENDBRANCH  25  28
ENDBRANCH  24  25
ENDBRANCH  22  24
ENDBRANCH   1  22
TORSDOF 11
ENDMDL
MODEL 2
REMARK VINA RESULT: -7.310590811      0.683      1.155
REMARK  11 active torsions:
REMARK  status: ('A' for Active; 'I' for Inactive)
REMARK    1  A    between atoms: C2_2  and  C3_3 
REMARK    2  A    between atoms: C3_3  and  C4_4 
REMARK    3  A    between atoms: C4_4  and  N1_5 
REMARK       I    between atoms: N1_5  and  C5_7 
REMARK    4  A    between atoms: C5_7  and  C6_9 
REMARK    5  A    between atoms: C6_9  and  N2_10 
REMARK    6  A    between atoms: C6_9  and  C14_22 
REMARK       I    between atoms: N2_10  and  C7_12 
REMARK       I    between atoms: C7_12  and  N3_14 
REMARK    7  A    between atoms: N3_14  and  C8_16 
REMARK    8  A    between atoms: C14_22  and  O4_24 
REMARK    9  A    between atoms: O4_24  and  C15_25 
REMARK   10  A    between atoms: C15_25  and  C18_28 
REMARK   11  A    between atoms: C19_29  and  C20_30 
ROOT
HETATM    1  C6  UNL     1     -11.284  45.154  -0.669  1.00  0.00     0.278 C 
ENDROOT
BRANCH   1   2
HETATM    2  C5  UNL     1     -12.738  45.180  -0.914  1.00  0.00     0.250 C 
HETATM    3  N1  UNL     1     -13.248  45.081  -2.214  1.00  0.00    -0.359 N 
ATOM      4  H1  UNL     1     -12.576  44.991  -2.977  1.00  0.00     0.162 HD
HETATM    5  O1  UNL     1     -13.518  45.293   0.056  1.00  0.00    -0.271 OA
BRANCH   3   6
HETATM    6  C4  UNL     1     -14.641  45.097  -2.557  1.00  0.00     0.122 C 
BRANCH   6   7
HETATM    7  C3  UNL     1     -14.967  44.234  -3.753  1.00  0.00     0.019 C 
BRANCH   7   8
HETATM    8  C2  UNL     1     -16.099  44.951  -4.501  1.00  0.00    -0.003 C 
HETATM    9  C1  UNL     1     -16.310  44.319  -5.862  1.00  0.00     0.005 C 
ENDBRANCH   7   8
ENDBRANCH   6   7
ENDBRANCH   3   6
ENDBRANCH   1   2
BRANCH   1  10
HETATM   10  N2  UNL     1     -10.985  45.377   0.748  1.00  0.00    -0.321 N 
HETATM   11  C7  UNL     1     -10.557  46.646   1.200  1.00  0.00     0.317 C 
HETATM   12  O2  UNL     1     -10.439  47.576   0.368  1.00  0.00    -0.247 OA
HETATM   13  N3  UNL     1     -10.255  46.918   2.556  1.00  0.00    -0.339 N 
ATOM     14  H3  UNL     1     -10.349  46.167   3.240  1.00  0.00     0.164 HD
ATOM     15  H2  UNL     1     -11.085  44.611   1.413  1.00  0.00     0.165 HD
BRANCH  13  16
HETATM   16  C8  UNL     1      -9.817  48.224   3.009  1.00  0.00     0.086 C 
HETATM   17  C9  UNL     1      -8.325  48.340   3.077  1.00  0.00     0.025 C 
HETATM   18  C10 UNL     1      -7.746  48.226   4.447  1.00  0.00     0.002 C 
HETATM   19  C11 UNL     1      -8.501  48.967   5.508  1.00  0.00     0.000 C 
HETATM   20  C12 UNL     1      -9.767  49.609   5.000  1.00  0.00     0.002 C 
HETATM   21  C13 UNL     1     -10.541  48.528   4.275  1.00  0.00     0.025 C 
ENDBRANCH  13  16
ENDBRANCH   1  10
BRANCH   1  22
HETATM   22  C14 UNL     1     -10.678  43.831  -1.021  1.00  0.00     0.292 C 
HETATM   23  O3  UNL     1     -10.998  43.206  -2.063  1.00  0.00    -0.262 OA
BRANCH  22  24
HETATM   24  O4  UNL     1      -9.731  43.232  -0.209  1.00  0.00    -0.305 OA
BRANCH  24  25
HETATM   25  C15 UNL     1      -8.381  43.351  -0.493  1.00  0.00     0.081 C 
HETATM   26  C16 UNL     1      -8.080  43.629  -1.947  1.00  0.00     0.051 C 
HETATM   27  C17 UNL     1      -7.728  41.999  -0.178  1.00  0.00     0.051 C 
BRANCH  25  28
HETATM   28  C18 UNL     1      -7.675  44.365   0.310  1.00  0.00     0.007 C 
HETATM   29  C19 UNL     1      -7.382  44.168   1.586  1.00  0.00    -0.023 C 
BRANCH  29  30
HETATM   30  C20 UNL     1      -6.672  45.191   2.390  1.00  0.00     0.008 C 
HETATM   31  C21 UNL     1      -6.204  44.650   3.712  1.00  0.00     0.008 C 
HETATM   32  C22 UNL     1      -4.703  44.476   3.617  1.00  0.00     0.001 C 
HETATM   33  C23 UNL     1      -4.434  44.512   2.108  1.00  0.00     0.001 C 
HETATM   34  C24 UNL     1      -5.400  45.598   1.679  1.00  0.00     0.008 C 
ENDBRANCH  29  30
ENDBRANCH  25  28
ENDBRANCH  24  25
ENDBRANCH  22  24
ENDBRANCH   1  22
TORSDOF 11
ENDMDL
MODEL 3
REMARK VINA RESULT: -7.145541388      1.787      6.866
REMARK  11 active torsions:
REMARK  status: ('A' for Active; 'I' for Inactive)
REMARK    1  A    between atoms: C2_2  and  C3_3 
REMARK    2  A    between atoms: C3_3  and  C4_4 
REMARK    3  A    between atoms: C4_4  and  N1_5 
REMARK       I    between atoms: N1_5  and  C5_7 
REMARK    4  A    between atoms: C5_7  and  C6_9 
REMARK    5  A    between atoms: C6_9  and  N2_10 
REMARK    6  A    between atoms: C6_9  and  C14_22 
REMARK       I    between atoms: N2_10  and  C7_12 
REMARK       I    between atoms: C7_12  and  N3_14 
REMARK    7  A    between atoms: N3_14  and  C8_16 
REMARK    8  A    between atoms: C14_22  and  O4_24 
REMARK    9  A    between atoms: O4_24  and  C15_25 
REMARK   10  A    between atoms: C15_25  and  C18_28 
REMARK   11  A    between atoms: C19_29  and  C20_30 
ROOT
HETATM    1  C6  UNL     1     -11.859  45.718  -0.248  1.00  0.00     0.278 C 
ENDROOT
BRANCH   1   2
HETATM    2  C5  UNL     1     -11.170  47.020  -0.190  1.00  0.00     0.250 C 
HETATM    3  N1  UNL     1     -10.325  47.337   0.881  1.00  0.00    -0.359 N 
ATOM      4  H1  UNL     1     -10.208  46.635   1.612  1.00  0.00     0.162 HD
HETATM    5  O1  UNL     1     -11.348  47.845  -1.111  1.00  0.00    -0.271 OA
BRANCH   3   6
HETATM    6  C4  UNL     1      -9.611  48.572   1.030  1.00  0.00     0.122 C 
BRANCH   6   7
HETATM    7  C3  UNL     1      -8.198  48.508   0.500  1.00  0.00     0.019 C 
BRANCH   7   8
HETATM    8  C2  UNL     1      -7.481  47.431   1.324  1.00  0.00    -0.003 C 
HETATM    9  C1  UNL     1      -6.102  47.166   0.753  1.00  0.00     0.005 C 
ENDBRANCH   7   8
ENDBRANCH   6   7
ENDBRANCH   3   6
ENDBRANCH   1   2
BRANCH   1  10
HETATM   10  N2  UNL     1     -12.322  45.427  -1.607  1.00  0.00    -0.321 N 
HETATM   11  C7  UNL     1     -13.699  45.256  -1.875  1.00  0.00     0.317 C 
HETATM   12  O2  UNL     1     -14.516  45.357  -0.930  1.00  0.00    -0.247 OA
HETATM   13  N3  UNL     1     -14.202  44.974  -3.168  1.00  0.00    -0.339 N 
ATOM     14  H3  UNL     1     -13.544  44.890  -3.943  1.00  0.00     0.164 HD
ATOM     15  H2  UNL     1     -11.646  45.347  -2.366  1.00  0.00     0.165 HD
BRANCH  13  16
HETATM   16  C8  UNL     1     -15.618  44.801  -3.432  1.00  0.00     0.086 C 
HETATM   17  C9  UNL     1     -15.879  43.938  -4.629  1.00  0.00     0.025 C 
HETATM   18  C10 UNL     1     -16.251  44.677  -5.870  1.00  0.00     0.002 C 
HETATM   19  C11 UNL     1     -17.217  45.803  -5.660  1.00  0.00     0.000 C 
HETATM   20  C12 UNL     1     -17.555  46.037  -4.211  1.00  0.00     0.002 C 
HETATM   21  C13 UNL     1     -16.238  46.155  -3.472  1.00  0.00     0.025 C 
ENDBRANCH  13  16
ENDBRANCH   1  10
BRANCH   1  22
HETATM   22  C14 UNL     1     -10.958  44.587   0.138  1.00  0.00     0.292 C 
HETATM   23  O3  UNL     1     -10.622  44.376   1.331  1.00  0.00    -0.262 OA
BRANCH  22  24
HETATM   24  O4  UNL     1     -10.449  43.714  -0.809  1.00  0.00    -0.305 OA
BRANCH  24  25
HETATM   25  C15 UNL     1      -9.099  43.714  -1.116  1.00  0.00     0.081 C 
HETATM   26  C16 UNL     1      -8.513  45.093  -1.314  1.00  0.00     0.051 C 
HETATM   27  C17 UNL     1      -8.937  42.991  -2.459  1.00  0.00     0.051 C 
BRANCH  25  28
HETATM   28  C18 UNL     1      -8.252  43.005  -0.142  1.00  0.00     0.007 C 
HETATM   29  C19 UNL     1      -7.231  43.595   0.459  1.00  0.00    -0.023 C 
BRANCH  29  30
HETATM   30  C20 UNL     1      -6.381  42.879   1.439  1.00  0.00     0.008 C 
HETATM   31  C21 UNL     1      -4.993  43.451   1.514  1.00  0.00     0.008 C 
HETATM   32  C22 UNL     1      -4.896  44.216   2.817  1.00  0.00     0.001 C 
HETATM   33  C23 UNL     1      -6.360  44.415   3.225  1.00  0.00     0.001 C 
HETATM   34  C24 UNL     1      -6.944  43.072   2.831  1.00  0.00     0.008 C 
ENDBRANCH  29  30
ENDBRANCH  25  28
ENDBRANCH  24  25
ENDBRANCH  22  24
ENDBRANCH   1  22
TORSDOF 11
ENDMDL
MODEL 4
REMARK VINA RESULT: -7.096090403      1.376      2.033
REMARK  11 active torsions:
REMARK  status: ('A' for Active; 'I' for Inactive)
REMARK    1  A    between atoms: C2_2  and  C3_3 
REMARK    2  A    between atoms: C3_3  and  C4_4 
REMARK    3  A    between atoms: C4_4  and  N1_5 
REMARK       I    between atoms: N1_5  and  C5_7 
REMARK    4  A    between atoms: C5_7  and  C6_9 
REMARK    5  A    between atoms: C6_9  and  N2_10 
REMARK    6  A    between atoms: C6_9  and  C14_22 
REMARK       I    between atoms: N2_10  and  C7_12 
REMARK       I    between atoms: C7_12  and  N3_14 
REMARK    7  A    between atoms: N3_14  and  C8_16 
REMARK    8  A    between atoms: C14_22  and  O4_24 
REMARK    9  A    between atoms: O4_24  and  C15_25 
REMARK   10  A    between atoms: C15_25  and  C18_28 
REMARK   11  A    between atoms: C19_29  and  C20_30 
ROOT
HETATM    1  C6  UNL     1     -12.160  46.543  -0.613  1.00  0.00     0.278 C 
ENDROOT
BRANCH   1   2
HETATM    2  C5  UNL     1     -13.467  45.883  -0.788  1.00  0.00     0.250 C 
HETATM    3  N1  UNL     1     -14.073  45.815  -2.048  1.00  0.00    -0.359 N 
ATOM      4  H1  UNL     1     -13.577  46.239  -2.832  1.00  0.00     0.162 HD
HETATM    5  O1  UNL     1     -14.033  45.379   0.206  1.00  0.00    -0.271 OA
BRANCH   3   6
HETATM    6  C4  UNL     1     -15.338  45.195  -2.322  1.00  0.00     0.122 C 
BRANCH   6   7
HETATM    7  C3  UNL     1     -15.319  44.331  -3.561  1.00  0.00     0.019 C 
BRANCH   7   8
HETATM    8  C2  UNL     1     -16.195  45.049  -4.596  1.00  0.00    -0.003 C 
HETATM    9  C1  UNL     1     -16.129  44.328  -5.928  1.00  0.00     0.005 C 
ENDBRANCH   7   8
ENDBRANCH   6   7
ENDBRANCH   3   6
ENDBRANCH   1   2
BRANCH   1  10
HETATM   10  N2  UNL     1     -11.628  46.310   0.731  1.00  0.00    -0.321 N 
HETATM   11  C7  UNL     1     -10.987  47.351   1.441  1.00  0.00     0.317 C 
HETATM   12  O2  UNL     1     -10.883  48.477   0.899  1.00  0.00    -0.247 OA
HETATM   13  N3  UNL     1     -10.455  47.182   2.741  1.00  0.00    -0.339 N 
ATOM     14  H3  UNL     1     -10.535  46.269   3.190  1.00  0.00     0.164 HD
ATOM     15  H2  UNL     1     -11.719  45.389   1.159  1.00  0.00     0.165 HD
BRANCH  13  16
HETATM   16  C8  UNL     1      -9.799  48.258   3.460  1.00  0.00     0.086 C 
HETATM   17  C9  UNL     1      -8.308  48.217   3.323  1.00  0.00     0.025 C 
HETATM   18  C10 UNL     1      -7.581  47.661   4.502  1.00  0.00     0.002 C 
HETATM   19  C11 UNL     1      -8.097  48.127   5.830  1.00  0.00     0.000 C 
HETATM   20  C12 UNL     1      -9.322  48.997   5.721  1.00  0.00     0.002 C 
HETATM   21  C13 UNL     1     -10.314  48.244   4.858  1.00  0.00     0.025 C 
ENDBRANCH  13  16
ENDBRANCH   1  10
BRANCH   1  22
HETATM   22  C14 UNL     1     -11.133  46.020  -1.567  1.00  0.00     0.292 C 
HETATM   23  O3  UNL     1      -9.955  46.458  -1.589  1.00  0.00    -0.262 OA
BRANCH  22  24
HETATM   24  O4  UNL     1     -11.436  45.021  -2.477  1.00  0.00    -0.305 OA
BRANCH  24  25
HETATM   25  C15 UNL     1     -10.974  43.729  -2.286  1.00  0.00     0.081 C 
HETATM   26  C16 UNL     1      -9.966  43.278  -3.318  1.00  0.00     0.051 C 
HETATM   27  C17 UNL     1     -12.176  42.788  -2.432  1.00  0.00     0.051 C 
BRANCH  25  28
HETATM   28  C18 UNL     1     -10.392  43.480  -0.956  1.00  0.00     0.007 C 
HETATM   29  C19 UNL     1      -9.147  43.057  -0.804  1.00  0.00    -0.023 C 
BRANCH  29  30
HETATM   30  C20 UNL     1      -8.565  42.808   0.536  1.00  0.00     0.008 C 
HETATM   31  C21 UNL     1      -7.197  42.190   0.456  1.00  0.00     0.008 C 
HETATM   32  C22 UNL     1      -6.199  43.265   0.828  1.00  0.00     0.001 C 
HETATM   33  C23 UNL     1      -7.000  44.564   0.681  1.00  0.00     0.001 C 
HETATM   34  C24 UNL     1      -8.340  44.129   1.242  1.00  0.00     0.008 C 
ENDBRANCH  29  30
ENDBRANCH  25  28
ENDBRANCH  24  25
ENDBRANCH  22  24
ENDBRANCH   1  22
TORSDOF 11
ENDMDL
MODEL 5
REMARK VINA RESULT: -7.091876967      2.357      4.802
REMARK  11 active torsions:
REMARK  status: ('A' for Active; 'I' for Inactive)
REMARK    1  A    between atoms: C2_2  and  C3_3 
REMARK    2  A    between atoms: C3_3  and  C4_4 
REMARK    3  A    between atoms: C4_4  and  N1_5 
REMARK       I    between atoms: N1_5  and  C5_7 
REMARK    4  A    between atoms: C5_7  and  C6_9 
REMARK    5  A    between atoms: C6_9  and  N2_10 
REMARK    6  A    between atoms: C6_9  and  C14_22 
REMARK       I    between atoms: N2_10  and  C7_12 
REMARK       I    between atoms: C7_12  and  N3_14 
REMARK    7  A    between atoms: N3_14  and  C8_16 
REMARK    8  A    between atoms: C14_22  and  O4_24 
REMARK    9  A    between atoms: O4_24  and  C15_25 
REMARK   10  A    between atoms: C15_25  and  C18_28 
REMARK   11  A    between atoms: C19_29  and  C20_30 
ROOT
HETATM    1  C6  UNL     1     -12.265  45.065  -1.068  1.00  0.00     0.278 C 
ENDROOT
BRANCH   1   2
HETATM    2  C5  UNL     1     -13.051  44.532  -2.196  1.00  0.00     0.250 C 
HETATM    3  N1  UNL     1     -14.316  45.050  -2.497  1.00  0.00    -0.359 N 
ATOM      4  H1  UNL     1     -14.668  45.805  -1.907  1.00  0.00     0.162 HD
HETATM    5  O1  UNL     1     -12.574  43.607  -2.888  1.00  0.00    -0.271 OA
BRANCH   3   6
HETATM    6  C4  UNL     1     -15.157  44.602  -3.570  1.00  0.00     0.122 C 
BRANCH   6   7
HETATM    7  C3  UNL     1     -16.397  45.447  -3.745  1.00  0.00     0.019 C 
BRANCH   7   8
HETATM    8  C2  UNL     1     -16.726  45.418  -5.243  1.00  0.00    -0.003 C 
HETATM    9  C1  UNL     1     -15.993  44.274  -5.917  1.00  0.00     0.005 C 
ENDBRANCH   7   8
ENDBRANCH   6   7
ENDBRANCH   3   6
ENDBRANCH   1   2
BRANCH   1  10
HETATM   10  N2  UNL     1     -10.844  44.743  -1.218  1.00  0.00    -0.321 N 
HETATM   11  C7  UNL     1     -10.074  44.355  -0.098  1.00  0.00     0.317 C 
HETATM   12  O2  UNL     1     -10.629  44.292   1.025  1.00  0.00    -0.247 OA
HETATM   13  N3  UNL     1      -8.698  44.033  -0.184  1.00  0.00    -0.339 N 
ATOM     14  H3  UNL     1      -8.239  44.081  -1.093  1.00  0.00     0.164 HD
ATOM     15  H2  UNL     1     -10.406  44.800  -2.137  1.00  0.00     0.165 HD
BRANCH  13  16
HETATM   16  C8  UNL     1      -7.918  43.635   0.972  1.00  0.00     0.086 C 
HETATM   17  C9  UNL     1      -7.393  44.808   1.743  1.00  0.00     0.025 C 
HETATM   18  C10 UNL     1      -5.954  45.124   1.508  1.00  0.00     0.002 C 
HETATM   19  C11 UNL     1      -5.052  43.928   1.456  1.00  0.00     0.000 C 
HETATM   20  C12 UNL     1      -5.793  42.619   1.552  1.00  0.00     0.002 C 
HETATM   21  C13 UNL     1      -6.890  42.662   0.509  1.00  0.00     0.025 C 
ENDBRANCH  13  16
ENDBRANCH   1  10
BRANCH   1  22
HETATM   22  C14 UNL     1     -12.349  46.557  -0.979  1.00  0.00     0.292 C 
HETATM   23  O3  UNL     1     -13.348  47.143  -0.492  1.00  0.00    -0.262 OA
BRANCH  22  24
HETATM   24  O4  UNL     1     -11.321  47.366  -1.434  1.00  0.00    -0.305 OA
BRANCH  24  25
HETATM   25  C15 UNL     1     -10.532  48.073  -0.541  1.00  0.00     0.081 C 
HETATM   26  C16 UNL     1     -10.855  47.807   0.911  1.00  0.00     0.051 C 
HETATM   27  C17 UNL     1     -10.808  49.563  -0.769  1.00  0.00     0.051 C 
BRANCH  25  28
HETATM   28  C18 UNL     1      -9.083  47.873  -0.719  1.00  0.00     0.007 C 
HETATM   29  C19 UNL     1      -8.193  48.468   0.059  1.00  0.00    -0.023 C 
BRANCH  29  30
HETATM   30  C20 UNL     1      -6.737  48.264  -0.123  1.00  0.00     0.008 C 
HETATM   31  C21 UNL     1      -6.396  47.812  -1.515  1.00  0.00     0.008 C 
HETATM   32  C22 UNL     1      -5.762  48.989  -2.225  1.00  0.00     0.001 C 
HETATM   33  C23 UNL     1      -6.163  50.188  -1.358  1.00  0.00     0.001 C 
HETATM   34  C24 UNL     1      -6.019  49.589   0.027  1.00  0.00     0.008 C 
ENDBRANCH  29  30
ENDBRANCH  25  28
ENDBRANCH  24  25
ENDBRANCH  22  24
ENDBRANCH   1  22
TORSDOF 11
ENDMDL
