MODEL 1
REMARK VINA RESULT: -6.463097049      0.000      0.000
REMARK  12 active torsions:
REMARK  status: ('A' for Active; 'I' for Inactive)
REMARK    1  A    between atoms: O1_2  and  C2_3 
REMARK       I    between atoms: C2_3  and  N1_5 
REMARK    2  A    between atoms: N1_5  and  C3_7 
REMARK    3  A    between atoms: C3_7  and  O3_8 
REMARK    4  A    between atoms: C3_7  and  C4_10 
REMARK    5  A    between atoms: C4_10  and  N2_11 
REMARK    6  A    between atoms: C4_10  and  C12_20 
REMARK    7  A    between atoms: N2_11  and  C5_13 
REMARK    8  A    between atoms: C12_20  and  C13_21 
REMARK    9  A    between atoms: C12_20  and  N3_28 
REMARK   10  A    between atoms: C13_21  and  C14_22 
REMARK       I    between atoms: N3_28  and  C20_30 
REMARK   11  A    between atoms: C20_30  and  C21_32 
REMARK   12  A    between atoms: C21_32  and  C22_33 
ROOT
HETATM    1  C4  UNL     1     -10.383  47.096   1.132  1.00  0.00     0.175 C 
ENDROOT
BRANCH   1   2
HETATM    2  C3  UNL     1     -10.513  47.832   2.375  1.00  0.00     0.144 C 
BRANCH   2   3
HETATM    3  N1  UNL     1     -10.175  47.594   3.700  1.00  0.00    -0.285 N 
HETATM    4  C2  UNL     1      -9.090  48.349   4.303  1.00  0.00     0.366 C 
HETATM    5  O2  UNL     1      -8.878  48.257   5.520  1.00  0.00    -0.238 OA
ATOM      6  H1  UNL     1     -10.683  46.897   4.243  1.00  0.00     0.173 HD
BRANCH   4   7
HETATM    7  O1  UNL     1      -8.272  49.164   3.517  1.00  0.00    -0.309 OA
HETATM    8  C1  UNL     1      -7.054  48.763   2.959  1.00  0.00     0.215 C 
ENDBRANCH   4   7
ENDBRANCH   2   3
BRANCH   2   9
HETATM    9  O3  UNL     1     -11.111  49.017   2.207  1.00  0.00    -0.348 OA
ATOM     10  H3  UNL     1     -11.390  49.157   1.310  1.00  0.00     0.219 HD
ENDBRANCH   2   9
ENDBRANCH   1   2
BRANCH   1  11
HETATM   11  N2  UNL     1     -10.421  47.937  -0.025  1.00  0.00    -0.404 N 
ATOM     12  H2  UNL     1     -11.290  48.460  -0.121  1.00  0.00     0.154 HD
BRANCH  11  13
HETATM   13  C5  UNL     1      -9.543  48.174  -1.009  1.00  0.00     0.077 C 
HETATM   14  C6  UNL     1      -8.557  47.167  -1.475  1.00  0.00     0.025 C 
HETATM   15  C7  UNL     1      -7.245  47.185  -0.739  1.00  0.00     0.006 C 
HETATM   16  C8  UNL     1      -6.490  48.470  -0.903  1.00  0.00    -0.019 C 
HETATM   17  C9  UNL     1      -5.297  48.390  -1.798  1.00  0.00     0.010 C 
HETATM   18  C10 UNL     1      -7.456  49.569  -1.375  1.00  0.00     0.006 C 
HETATM   19  C11 UNL     1      -8.683  49.426  -0.553  1.00  0.00     0.025 C 
ENDBRANCH  11  13
ENDBRANCH   1  11
BRANCH   1  20
HETATM   20  C12 UNL     1     -11.365  45.979   0.920  1.00  0.00     0.115 C 
BRANCH  20  21
HETATM   21  C13 UNL     1     -10.577  44.685   1.146  1.00  0.00     0.032 C 
BRANCH  21  22
HETATM   22  C14 UNL     1      -9.511  44.312   0.215  1.00  0.00    -0.013 C 
HETATM   23  C15 UNL     1     -10.132  43.277  -0.822  1.00  0.00     0.005 C 
HETATM   24  C16 UNL     1      -9.331  43.483  -2.091  1.00  0.00     0.000 C 
HETATM   25  C17 UNL     1      -7.845  43.545  -1.746  1.00  0.00     0.000 C 
HETATM   26  C18 UNL     1      -7.624  42.830  -0.445  1.00  0.00     0.000 C 
HETATM   27  C19 UNL     1      -8.340  43.490   0.723  1.00  0.00     0.005 C 
ENDBRANCH  21  22
ENDBRANCH  20  21
BRANCH  20  28
HETATM   28  N3  UNL     1     -12.044  45.995  -0.340  1.00  0.00    -0.354 N 
HETATM   29  C20 UNL     1     -13.459  45.703  -0.419  1.00  0.00     0.218 C 
HETATM   30  O4  UNL     1     -14.037  45.451   0.647  1.00  0.00    -0.274 OA
ATOM     31  H3  UNL     1     -11.526  46.216  -1.190  1.00  0.00     0.162 HD
BRANCH  29  32
HETATM   32  C21 UNL     1     -14.156  45.702  -1.699  1.00  0.00     0.106 C 
BRANCH  32  33
HETATM   33  C22 UNL     1     -14.089  44.492  -2.536  1.00  0.00    -0.014 C 
HETATM   34  C23 UNL     1     -12.835  44.332  -3.294  1.00  0.00     0.010 C 
HETATM   35  C24 UNL     1     -15.300  44.414  -3.481  1.00  0.00     0.010 C 
ENDBRANCH  32  33
ENDBRANCH  29  32
ENDBRANCH  20  28
ENDBRANCH   1  20
TORSDOF 12
ENDMDL
MODEL 2
REMARK VINA RESULT: -6.399055779      1.586      2.188
REMARK  12 active torsions:
REMARK  status: ('A' for Active; 'I' for Inactive)
REMARK    1  A    between atoms: O1_2  and  C2_3 
REMARK       I    between atoms: C2_3  and  N1_5 
REMARK    2  A    between atoms: N1_5  and  C3_7 
REMARK    3  A    between atoms: C3_7  and  O3_8 
REMARK    4  A    between atoms: C3_7  and  C4_10 
REMARK    5  A    between atoms: C4_10  and  N2_11 
REMARK    6  A    between atoms: C4_10  and  C12_20 
REMARK    7  A    between atoms: N2_11  and  C5_13 
REMARK    8  A    between atoms: C12_20  and  C13_21 
REMARK    9  A    between atoms: C12_20  and  N3_28 
REMARK   10  A    between atoms: C13_21  and  C14_22 
REMARK       I    between atoms: N3_28  and  C20_30 
REMARK   11  A    between atoms: C20_30  and  C21_32 
REMARK   12  A    between atoms: C21_32  and  C22_33 
ROOT
HETATM    1  C4  UNL     1      -9.669  47.317   0.510  1.00  0.00     0.175 C 
ENDROOT
BRANCH   1   2
HETATM    2  C3  UNL     1     -10.700  47.878   1.362  1.00  0.00     0.144 C 
BRANCH   2   3
HETATM    3  N1  UNL     1     -11.044  49.155   1.780  1.00  0.00    -0.285 N 
HETATM    4  C2  UNL     1     -11.166  49.429   3.201  1.00  0.00     0.366 C 
HETATM    5  O2  UNL     1     -11.321  50.594   3.594  1.00  0.00    -0.238 OA
ATOM      6  H1  UNL     1     -11.208  49.894   1.096  1.00  0.00     0.173 HD
BRANCH   4   7
HETATM    7  O1  UNL     1     -11.127  48.386   4.130  1.00  0.00    -0.309 OA
HETATM    8  C1  UNL     1     -10.290  48.352   5.249  1.00  0.00     0.215 C 
ENDBRANCH   4   7
ENDBRANCH   2   3
BRANCH   2   9
HETATM    9  O3  UNL     1     -11.503  46.940   1.878  1.00  0.00    -0.348 OA
ATOM     10  H3  UNL     1     -11.523  46.151   1.349  1.00  0.00     0.219 HD
ENDBRANCH   2   9
ENDBRANCH   1   2
BRANCH   1  11
HETATM   11  N2  UNL     1      -9.200  48.234  -0.483  1.00  0.00    -0.404 N 
ATOM     12  H2  UNL     1      -9.824  48.321  -1.284  1.00  0.00     0.154 HD
BRANCH  11  13
HETATM   13  C5  UNL     1      -8.105  49.001  -0.572  1.00  0.00     0.077 C 
HETATM   14  C6  UNL     1      -7.214  49.006  -1.760  1.00  0.00     0.025 C 
HETATM   15  C7  UNL     1      -6.105  47.991  -1.717  1.00  0.00     0.006 C 
HETATM   16  C8  UNL     1      -5.139  48.213  -0.593  1.00  0.00    -0.019 C 
HETATM   17  C9  UNL     1      -3.810  48.757  -1.003  1.00  0.00     0.010 C 
HETATM   18  C10 UNL     1      -5.794  49.113   0.468  1.00  0.00     0.006 C 
HETATM   19  C11 UNL     1      -7.176  48.604   0.650  1.00  0.00     0.025 C 
ENDBRANCH  11  13
ENDBRANCH   1  11
BRANCH   1  20
HETATM   20  C12 UNL     1     -10.012  46.028  -0.181  1.00  0.00     0.115 C 
BRANCH  20  21
HETATM   21  C13 UNL     1      -8.727  45.579  -0.885  1.00  0.00     0.032 C 
BRANCH  21  22
HETATM   22  C14 UNL     1      -7.912  44.515  -0.298  1.00  0.00    -0.013 C 
HETATM   23  C15 UNL     1      -8.843  43.231  -0.160  1.00  0.00     0.005 C 
HETATM   24  C16 UNL     1      -7.892  42.058  -0.273  1.00  0.00     0.000 C 
HETATM   25  C17 UNL     1      -6.669  42.313   0.604  1.00  0.00     0.000 C 
HETATM   26  C18 UNL     1      -7.046  43.285   1.684  1.00  0.00     0.000 C 
HETATM   27  C19 UNL     1      -7.447  44.647   1.141  1.00  0.00     0.005 C 
ENDBRANCH  21  22
ENDBRANCH  20  21
BRANCH  20  28
HETATM   28  N3  UNL     1     -11.132  46.091  -1.070  1.00  0.00    -0.354 N 
HETATM   29  C20 UNL     1     -12.354  45.377  -0.769  1.00  0.00     0.218 C 
HETATM   30  O4  UNL     1     -12.375  44.727   0.285  1.00  0.00    -0.274 OA
ATOM     31  H3  UNL     1     -11.068  46.646  -1.924  1.00  0.00     0.162 HD
BRANCH  29  32
HETATM   32  C21 UNL     1     -13.493  45.423  -1.677  1.00  0.00     0.106 C 
BRANCH  32  33
HETATM   33  C22 UNL     1     -13.442  44.624  -2.913  1.00  0.00    -0.014 C 
HETATM   34  C23 UNL     1     -14.755  44.340  -3.522  1.00  0.00     0.010 C 
HETATM   35  C24 UNL     1     -12.661  43.319  -2.688  1.00  0.00     0.010 C 
ENDBRANCH  32  33
ENDBRANCH  29  32
ENDBRANCH  20  28
ENDBRANCH   1  20
TORSDOF 12
ENDMDL
MODEL 3
REMARK VINA RESULT: -6.348688216      2.480      5.950
REMARK  12 active torsions:
REMARK  status: ('A' for Active; 'I' for Inactive)
REMARK    1  A    between atoms: O1_2  and  C2_3 
REMARK       I    between atoms: C2_3  and  N1_5 
REMARK    2  A    between atoms: N1_5  and  C3_7 
REMARK    3  A    between atoms: C3_7  and  O3_8 
REMARK    4  A    between atoms: C3_7  and  C4_10 
REMARK    5  A    between atoms: C4_10  and  N2_11 
REMARK    6  A    between atoms: C4_10  and  C12_20 
REMARK    7  A    between atoms: N2_11  and  C5_13 
REMARK    8  A    between atoms: C12_20  and  C13_21 
REMARK    9  A    between atoms: C12_20  and  N3_28 
REMARK   10  A    between atoms: C13_21  and  C14_22 
REMARK       I    between atoms: N3_28  and  C20_30 
REMARK   11  A    between atoms: C20_30  and  C21_32 
REMARK   12  A    between atoms: C21_32  and  C22_33 
ROOT
HETATM    1  C4  UNL     1      -8.872  47.631   1.357  1.00  0.00     0.175 C 
ENDROOT
BRANCH   1   2
HETATM    2  C3  UNL     1      -9.044  48.877   2.079  1.00  0.00     0.144 C 
BRANCH   2   3
HETATM    3  N1  UNL     1     -10.058  49.816   2.193  1.00  0.00    -0.285 N 
HETATM    4  C2  UNL     1     -11.082  49.636   3.208  1.00  0.00     0.366 C 
HETATM    5  O2  UNL     1     -11.903  50.539   3.422  1.00  0.00    -0.238 OA
ATOM      6  H1  UNL     1     -10.084  50.624   1.571  1.00  0.00     0.173 HD
BRANCH   4   7
HETATM    7  O1  UNL     1     -11.159  48.444   3.933  1.00  0.00    -0.309 OA
HETATM    8  C1  UNL     1     -10.829  48.318   5.286  1.00  0.00     0.215 C 
ENDBRANCH   4   7
ENDBRANCH   2   3
BRANCH   2   9
HETATM    9  O3  UNL     1      -7.962  49.205   2.795  1.00  0.00    -0.348 OA
ATOM     10  H3  UNL     1      -7.192  48.714   2.534  1.00  0.00     0.219 HD
ENDBRANCH   2   9
ENDBRANCH   1   2
BRANCH   1  11
HETATM   11  N2  UNL     1      -9.866  46.653   1.679  1.00  0.00    -0.404 N 
ATOM     12  H2  UNL     1      -9.578  46.004   2.411  1.00  0.00     0.154 HD
BRANCH  11  13
HETATM   13  C5  UNL     1     -11.099  46.418   1.212  1.00  0.00     0.077 C 
HETATM   14  C6  UNL     1     -11.592  45.059   0.872  1.00  0.00     0.025 C 
HETATM   15  C7  UNL     1     -11.323  44.631  -0.546  1.00  0.00     0.006 C 
HETATM   16  C8  UNL     1     -12.015  45.486  -1.565  1.00  0.00    -0.019 C 
HETATM   17  C9  UNL     1     -13.188  44.846  -2.232  1.00  0.00     0.010 C 
HETATM   18  C10 UNL     1     -12.415  46.822  -0.919  1.00  0.00     0.006 C 
HETATM   19  C11 UNL     1     -11.246  47.265  -0.120  1.00  0.00     0.025 C 
ENDBRANCH  11  13
ENDBRANCH   1  11
BRANCH   1  20
HETATM   20  C12 UNL     1      -7.526  46.974   1.482  1.00  0.00     0.115 C 
BRANCH  20  21
HETATM   21  C13 UNL     1      -7.282  46.270   0.143  1.00  0.00     0.032 C 
BRANCH  21  22
HETATM   22  C14 UNL     1      -7.760  44.901  -0.054  1.00  0.00    -0.013 C 
HETATM   23  C15 UNL     1      -6.551  43.926   0.294  1.00  0.00     0.005 C 
HETATM   24  C16 UNL     1      -7.216  42.656   0.785  1.00  0.00     0.000 C 
HETATM   25  C17 UNL     1      -8.356  42.285  -0.160  1.00  0.00     0.000 C 
HETATM   26  C18 UNL     1      -8.089  42.904  -1.501  1.00  0.00     0.000 C 
HETATM   27  C19 UNL     1      -8.075  44.424  -1.461  1.00  0.00     0.005 C 
ENDBRANCH  21  22
ENDBRANCH  20  21
BRANCH  20  28
HETATM   28  N3  UNL     1      -7.377  46.095   2.601  1.00  0.00    -0.354 N 
HETATM   29  C20 UNL     1      -6.342  46.322   3.586  1.00  0.00     0.218 C 
HETATM   30  O4  UNL     1      -5.612  47.307   3.411  1.00  0.00    -0.274 OA
ATOM     31  H3  UNL     1      -8.008  45.300   2.705  1.00  0.00     0.162 HD
BRANCH  29  32
HETATM   32  C21 UNL     1      -6.173  45.422   4.720  1.00  0.00     0.106 C 
BRANCH  32  33
HETATM   33  C22 UNL     1      -5.146  44.370   4.637  1.00  0.00    -0.014 C 
HETATM   34  C23 UNL     1      -5.603  43.105   4.030  1.00  0.00     0.010 C 
HETATM   35  C24 UNL     1      -4.521  44.106   6.017  1.00  0.00     0.010 C 
ENDBRANCH  32  33
ENDBRANCH  29  32
ENDBRANCH  20  28
ENDBRANCH   1  20
TORSDOF 12
ENDMDL
MODEL 4
REMARK VINA RESULT: -6.299315877      3.050      5.908
REMARK  12 active torsions:
REMARK  status: ('A' for Active; 'I' for Inactive)
REMARK    1  A    between atoms: O1_2  and  C2_3 
REMARK       I    between atoms: C2_3  and  N1_5 
REMARK    2  A    between atoms: N1_5  and  C3_7 
REMARK    3  A    between atoms: C3_7  and  O3_8 
REMARK    4  A    between atoms: C3_7  and  C4_10 
REMARK    5  A    between atoms: C4_10  and  N2_11 
REMARK    6  A    between atoms: C4_10  and  C12_20 
REMARK    7  A    between atoms: N2_11  and  C5_13 
REMARK    8  A    between atoms: C12_20  and  C13_21 
REMARK    9  A    between atoms: C12_20  and  N3_28 
REMARK   10  A    between atoms: C13_21  and  C14_22 
REMARK       I    between atoms: N3_28  and  C20_30 
REMARK   11  A    between atoms: C20_30  and  C21_32 
REMARK   12  A    between atoms: C21_32  and  C22_33 
ROOT
HETATM    1  C4  UNL     1      -8.776  46.650  -0.085  1.00  0.00     0.175 C 
ENDROOT
BRANCH   1   2
HETATM    2  C3  UNL     1      -7.881  47.144  -1.113  1.00  0.00     0.144 C 
BRANCH   2   3
HETATM    3  N1  UNL     1      -7.767  48.323  -1.835  1.00  0.00    -0.285 N 
HETATM    4  C2  UNL     1      -6.454  48.914  -2.027  1.00  0.00     0.366 C 
HETATM    5  O2  UNL     1      -6.319  49.878  -2.794  1.00  0.00    -0.238 OA
ATOM      6  H1  UNL     1      -8.596  48.770  -2.226  1.00  0.00     0.173 HD
BRANCH   4   7
HETATM    7  O1  UNL     1      -5.345  48.415  -1.341  1.00  0.00    -0.309 OA
HETATM    8  C1  UNL     1      -4.015  48.678  -1.686  1.00  0.00     0.215 C 
ENDBRANCH   4   7
ENDBRANCH   2   3
BRANCH   2   9
HETATM    9  O3  UNL     1      -6.951  46.245  -1.455  1.00  0.00    -0.348 OA
ATOM     10  H3  UNL     1      -7.070  45.414  -1.010  1.00  0.00     0.219 HD
ENDBRANCH   2   9
ENDBRANCH   1   2
BRANCH   1  11
HETATM   11  N2  UNL     1      -8.336  46.960   1.241  1.00  0.00    -0.404 N 
ATOM     12  H2  UNL     1      -7.455  46.512   1.494  1.00  0.00     0.154 HD
BRANCH  11  13
HETATM   13  C5  UNL     1      -8.848  47.721   2.218  1.00  0.00     0.077 C 
HETATM   14  C6  UNL     1     -10.292  47.737   2.559  1.00  0.00     0.025 C 
HETATM   15  C7  UNL     1     -11.108  48.742   1.792  1.00  0.00     0.006 C 
HETATM   16  C8  UNL     1     -10.702  50.161   2.054  1.00  0.00    -0.019 C 
HETATM   17  C9  UNL     1     -11.651  50.940   2.904  1.00  0.00     0.010 C 
HETATM   18  C10 UNL     1      -9.287  50.181   2.655  1.00  0.00     0.006 C 
HETATM   19  C11 UNL     1      -8.483  49.221   1.859  1.00  0.00     0.025 C 
ENDBRANCH  11  13
ENDBRANCH   1  11
BRANCH   1  20
HETATM   20  C12 UNL     1      -9.091  45.182  -0.132  1.00  0.00     0.115 C 
BRANCH  20  21
HETATM   21  C13 UNL     1     -10.595  45.070   0.138  1.00  0.00     0.032 C 
BRANCH  21  22
HETATM   22  C14 UNL     1     -11.469  44.460  -0.864  1.00  0.00    -0.013 C 
HETATM   23  C15 UNL     1     -10.625  44.331  -2.208  1.00  0.00     0.005 C 
HETATM   24  C16 UNL     1     -11.217  43.129  -2.915  1.00  0.00     0.000 C 
HETATM   25  C17 UNL     1     -12.741  43.222  -2.879  1.00  0.00     0.000 C 
HETATM   26  C18 UNL     1     -13.130  44.661  -2.706  1.00  0.00     0.000 C 
HETATM   27  C19 UNL     1     -12.657  45.249  -1.386  1.00  0.00     0.005 C 
ENDBRANCH  21  22
ENDBRANCH  20  21
BRANCH  20  28
HETATM   28  N3  UNL     1      -8.313  44.363   0.747  1.00  0.00    -0.354 N 
HETATM   29  C20 UNL     1      -7.390  43.381   0.218  1.00  0.00     0.218 C 
HETATM   30  O4  UNL     1      -7.311  43.299  -1.015  1.00  0.00    -0.274 OA
ATOM     31  H3  UNL     1      -8.409  44.472   1.757  1.00  0.00     0.162 HD
BRANCH  29  32
HETATM   32  C21 UNL     1      -6.606  42.532   1.105  1.00  0.00     0.106 C 
BRANCH  32  33
HETATM   33  C22 UNL     1      -5.731  43.172   2.102  1.00  0.00    -0.014 C 
HETATM   34  C23 UNL     1      -6.297  43.254   3.461  1.00  0.00     0.010 C 
HETATM   35  C24 UNL     1      -5.284  44.563   1.623  1.00  0.00     0.010 C 
ENDBRANCH  32  33
ENDBRANCH  29  32
ENDBRANCH  20  28
ENDBRANCH   1  20
TORSDOF 12
ENDMDL
MODEL 5
REMARK VINA RESULT: -6.229798041      2.891      6.039
REMARK  12 active torsions:
REMARK  status: ('A' for Active; 'I' for Inactive)
REMARK    1  A    between atoms: O1_2  and  C2_3 
REMARK       I    between atoms: C2_3  and  N1_5 
REMARK    2  A    between atoms: N1_5  and  C3_7 
REMARK    3  A    between atoms: C3_7  and  O3_8 
REMARK    4  A    between atoms: C3_7  and  C4_10 
REMARK    5  A    between atoms: C4_10  and  N2_11 
REMARK    6  A    between atoms: C4_10  and  C12_20 
REMARK    7  A    between atoms: N2_11  and  C5_13 
REMARK    8  A    between atoms: C12_20  and  C13_21 
REMARK    9  A    between atoms: C12_20  and  N3_28 
REMARK   10  A    between atoms: C13_21  and  C14_22 
REMARK       I    between atoms: N3_28  and  C20_30 
REMARK   11  A    between atoms: C20_30  and  C21_32 
REMARK   12  A    between atoms: C21_32  and  C22_33 
ROOT
HETATM    1  C4  UNL     1      -8.534  46.801  -0.008  1.00  0.00     0.175 C 
ENDROOT
BRANCH   1   2
HETATM    2  C3  UNL     1      -7.297  47.192  -0.657  1.00  0.00     0.144 C 
BRANCH   2   3
HETATM    3  N1  UNL     1      -6.961  47.733  -1.889  1.00  0.00    -0.285 N 
HETATM    4  C2  UNL     1      -6.059  48.871  -1.944  1.00  0.00     0.366 C 
HETATM    5  O2  UNL     1      -5.631  49.266  -3.037  1.00  0.00    -0.238 OA
ATOM      6  H1  UNL     1      -7.342  47.335  -2.748  1.00  0.00     0.173 HD
BRANCH   4   7
HETATM    7  O1  UNL     1      -5.685  49.535  -0.773  1.00  0.00    -0.309 OA
HETATM    8  C1  UNL     1      -6.138  50.804  -0.403  1.00  0.00     0.215 C 
ENDBRANCH   4   7
ENDBRANCH   2   3
BRANCH   2   9
HETATM    9  O3  UNL     1      -6.225  46.968   0.111  1.00  0.00    -0.348 OA
ATOM     10  H3  UNL     1      -6.238  46.105   0.509  1.00  0.00     0.219 HD
ENDBRANCH   2   9
ENDBRANCH   1   2
BRANCH   1  11
HETATM   11  N2  UNL     1      -8.548  47.088   1.394  1.00  0.00    -0.404 N 
ATOM     12  H2  UNL     1      -8.205  46.320   1.970  1.00  0.00     0.154 HD
BRANCH  11  13
HETATM   13  C5  UNL     1      -8.923  48.162   2.102  1.00  0.00     0.077 C 
HETATM   14  C6  UNL     1      -8.174  48.654   3.285  1.00  0.00     0.025 C 
HETATM   15  C7  UNL     1      -8.598  48.046   4.594  1.00  0.00     0.006 C 
HETATM   16  C8  UNL     1     -10.017  48.359   4.962  1.00  0.00    -0.019 C 
HETATM   17  C9  UNL     1     -10.176  49.355   6.064  1.00  0.00     0.010 C 
HETATM   18  C10 UNL     1     -10.779  48.808   3.705  1.00  0.00     0.006 C 
HETATM   19  C11 UNL     1     -10.391  47.868   2.624  1.00  0.00     0.025 C 
ENDBRANCH  11  13
ENDBRANCH   1  11
BRANCH   1  20
HETATM   20  C12 UNL     1      -8.951  45.369  -0.188  1.00  0.00     0.115 C 
BRANCH  20  21
HETATM   21  C13 UNL     1     -10.466  45.346   0.038  1.00  0.00     0.032 C 
BRANCH  21  22
HETATM   22  C14 UNL     1     -11.326  44.612  -0.890  1.00  0.00    -0.013 C 
HETATM   23  C15 UNL     1     -10.508  44.425  -2.243  1.00  0.00     0.005 C 
HETATM   24  C16 UNL     1     -11.046  43.140  -2.838  1.00  0.00     0.000 C 
HETATM   25  C17 UNL     1     -12.572  43.150  -2.768  1.00  0.00     0.000 C 
HETATM   26  C18 UNL     1     -13.039  44.575  -2.695  1.00  0.00     0.000 C 
HETATM   27  C19 UNL     1     -12.570  45.290  -1.438  1.00  0.00     0.005 C 
ENDBRANCH  21  22
ENDBRANCH  20  21
BRANCH  20  28
HETATM   28  N3  UNL     1      -8.258  44.424   0.635  1.00  0.00    -0.354 N 
HETATM   29  C20 UNL     1      -7.390  43.429   0.044  1.00  0.00     0.218 C 
HETATM   30  O4  UNL     1      -7.278  43.447  -1.189  1.00  0.00    -0.274 OA
ATOM     31  H3  UNL     1      -8.377  44.454   1.648  1.00  0.00     0.162 HD
BRANCH  29  32
HETATM   32  C21 UNL     1      -6.694  42.452   0.873  1.00  0.00     0.106 C 
BRANCH  32  33
HETATM   33  C22 UNL     1      -5.834  42.940   1.964  1.00  0.00    -0.014 C 
HETATM   34  C23 UNL     1      -6.542  43.251   3.220  1.00  0.00     0.010 C 
HETATM   35  C24 UNL     1      -5.002  44.149   1.505  1.00  0.00     0.010 C 
ENDBRANCH  32  33
ENDBRANCH  29  32
ENDBRANCH  20  28
ENDBRANCH   1  20
TORSDOF 12
ENDMDL
