MODEL 1
REMARK VINA RESULT: -7.639522986      0.000      0.000
REMARK  11 active torsions:
REMARK  status: ('A' for Active; 'I' for Inactive)
REMARK    1  A    between atoms: C2_2  and  C3_3 
REMARK    2  A    between atoms: C2_2  and  C21_36 
REMARK    3  A    between atoms: C3_3  and  C4_4 
REMARK    4  A    between atoms: C4_4  and  N1_5 
REMARK    5  A    between atoms: C4_4  and  C5_9 
REMARK       I    between atoms: C5_9  and  N2_11 
REMARK    6  A    between atoms: C9_15  and  C10_16 
REMARK       I    between atoms: C10_16  and  N3_18 
REMARK    7  A    between atoms: N3_18  and  C11_20 
REMARK    8  A    between atoms: C11_20  and  C12_21 
REMARK    9  A    between atoms: C11_20  and  C16_29 
REMARK   10  A    between atoms: C12_21  and  C13_22 
REMARK   11  A    between atoms: C16_29  and  C17_31 
ROOT
HETATM    1  C5  UNL     1      10.400  35.502   1.473  1.00  0.00     0.251 C 
HETATM    2  O1  UNL     1       9.395  34.969   1.955  1.00  0.00    -0.271 OA
HETATM    3  N2  UNL     1      11.574  34.790   1.148  1.00  0.00    -0.337 N 
HETATM    4  C6  UNL     1      12.813  35.496   0.646  1.00  0.00     0.127 C 
HETATM    5  C7  UNL     1      13.151  34.653  -0.552  1.00  0.00     0.022 C 
HETATM    6  C8  UNL     1      12.747  33.258  -0.163  1.00  0.00     0.037 C 
HETATM    7  C9  UNL     1      11.981  33.437   1.164  1.00  0.00     0.179 C 
ENDROOT
BRANCH   7   8
HETATM    8  C10 UNL     1      10.999  32.370   1.297  1.00  0.00     0.241 C 
HETATM    9  O2  UNL     1      10.522  31.691   0.395  1.00  0.00    -0.271 OA
HETATM   10  N3  UNL     1      10.535  32.075   2.630  1.00  0.00    -0.347 N 
ATOM     11  H3  UNL     1      10.891  32.600   3.429  1.00  0.00     0.163 HD
BRANCH  10  12
HETATM   12  C11 UNL     1       9.517  30.981   2.828  1.00  0.00     0.160 C 
BRANCH  12  13
HETATM   13  C12 UNL     1       8.540  31.650   3.757  1.00  0.00     0.091 C 
BRANCH  13  14
HETATM   14  C13 UNL     1       7.322  32.236   3.186  1.00  0.00     0.028 A 
HETATM   15  C14 UNL     1       6.181  31.586   2.775  1.00  0.00     0.114 A 
HETATM   16  N4  UNL     1       5.330  32.503   2.323  1.00  0.00    -0.360 N 
HETATM   17  C15 UNL     1       5.912  33.703   2.444  1.00  0.00     0.180 A 
ATOM     18  H4  UNL     1       4.398  32.324   1.949  1.00  0.00     0.166 HD
HETATM   19  N5  UNL     1       7.129  33.548   2.971  1.00  0.00    -0.354 N 
ATOM     20  H5  UNL     1       7.795  34.294   3.174  1.00  0.00     0.166 HD
ENDBRANCH  13  14
ENDBRANCH  12  13
BRANCH  12  21
HETATM   21  C16 UNL     1      10.305  29.917   3.489  1.00  0.00     0.154 C 
HETATM   22  O3  UNL     1       9.981  28.754   3.142  1.00  0.00    -0.295 OA
BRANCH  21  23
HETATM   23  C17 UNL     1      11.371  30.103   4.482  1.00  0.00     0.067 C 
HETATM   24  C18 UNL     1      10.957  29.456   5.783  1.00  0.00     0.023 C 
HETATM   25  C19 UNL     1      12.051  29.757   6.783  1.00  0.00     0.075 C 
HETATM   26  S1  UNL     1      13.534  29.522   5.749  1.00  0.00    -0.168 SA
HETATM   27  C20 UNL     1      12.679  29.576   4.093  1.00  0.00     0.086 C 
ENDBRANCH  21  23
ENDBRANCH  12  21
ENDBRANCH  10  12
ENDBRANCH   7   8
BRANCH   1  28
HETATM   28  C4  UNL     1      10.308  36.994   1.237  1.00  0.00     0.278 C 
BRANCH  28  29
HETATM   29  C3  UNL     1       8.848  37.353   1.099  1.00  0.00     0.076 C 
BRANCH  29  30
HETATM   30  C2  UNL     1       8.386  37.591  -0.272  1.00  0.00    -0.083 C 
HETATM   31  C1  UNL     1       9.210  37.829  -1.258  1.00  0.00     0.015 C 
BRANCH  30  32
HETATM   32  C21 UNL     1       6.909  37.570  -0.569  1.00  0.00     0.014 C 
HETATM   33  C22 UNL     1       6.764  37.419  -2.051  1.00  0.00     0.009 C 
HETATM   34  C23 UNL     1       5.317  37.105  -2.394  1.00  0.00     0.001 C 
HETATM   35  C24 UNL     1       4.422  37.386  -1.206  1.00  0.00     0.000 C 
HETATM   36  C25 UNL     1       4.757  36.412  -0.116  1.00  0.00     0.001 C 
HETATM   37  C26 UNL     1       6.233  36.471   0.169  1.00  0.00     0.009 C 
ENDBRANCH  30  32
ENDBRANCH  29  30
ENDBRANCH  28  29
BRANCH  28  38
HETATM   38  N1  UNL     1      10.850  37.680   2.430  1.00  0.00    -0.066 N 
ATOM     39  H13 UNL     1      11.480  38.445   2.189  1.00  0.00     0.275 HD
ATOM     40  H12 UNL     1      10.144  38.231   2.919  1.00  0.00     0.275 HD
ATOM     41  H11 UNL     1      11.289  36.985   3.032  1.00  0.00     0.275 HD
ENDBRANCH  28  38
ENDBRANCH   1  28
TORSDOF 11
ENDMDL
MODEL 2
REMARK VINA RESULT: -7.549578586      2.025      4.334
REMARK  11 active torsions:
REMARK  status: ('A' for Active; 'I' for Inactive)
REMARK    1  A    between atoms: C2_2  and  C3_3 
REMARK    2  A    between atoms: C2_2  and  C21_36 
REMARK    3  A    between atoms: C3_3  and  C4_4 
REMARK    4  A    between atoms: C4_4  and  N1_5 
REMARK    5  A    between atoms: C4_4  and  C5_9 
REMARK       I    between atoms: C5_9  and  N2_11 
REMARK    6  A    between atoms: C9_15  and  C10_16 
REMARK       I    between atoms: C10_16  and  N3_18 
REMARK    7  A    between atoms: N3_18  and  C11_20 
REMARK    8  A    between atoms: C11_20  and  C12_21 
REMARK    9  A    between atoms: C11_20  and  C16_29 
REMARK   10  A    between atoms: C12_21  and  C13_22 
REMARK   11  A    between atoms: C16_29  and  C17_31 
ROOT
HETATM    1  C5  UNL     1       7.719  33.880   0.610  1.00  0.00     0.251 C 
HETATM    2  O1  UNL     1       8.885  33.911   1.017  1.00  0.00    -0.271 OA
HETATM    3  N2  UNL     1       6.738  33.012   1.135  1.00  0.00    -0.337 N 
HETATM    4  C6  UNL     1       5.348  32.941   0.545  1.00  0.00     0.127 C 
HETATM    5  C7  UNL     1       4.509  33.044   1.788  1.00  0.00     0.022 C 
HETATM    6  C8  UNL     1       5.305  32.332   2.845  1.00  0.00     0.037 C 
HETATM    7  C9  UNL     1       6.672  32.065   2.182  1.00  0.00     0.179 C 
ENDROOT
BRANCH   7   8
HETATM    8  C10 UNL     1       7.703  32.025   3.210  1.00  0.00     0.241 C 
HETATM    9  O2  UNL     1       7.722  32.656   4.260  1.00  0.00    -0.271 OA
HETATM   10  N3  UNL     1       8.823  31.149   2.973  1.00  0.00    -0.347 N 
ATOM     11  H3  UNL     1       8.873  30.591   2.120  1.00  0.00     0.163 HD
BRANCH  10  12
HETATM   12  C11 UNL     1       9.922  31.067   4.003  1.00  0.00     0.160 C 
BRANCH  12  13
HETATM   13  C12 UNL     1      10.924  32.042   3.445  1.00  0.00     0.091 C 
BRANCH  13  14
HETATM   14  C13 UNL     1      11.291  31.932   2.028  1.00  0.00     0.028 A 
HETATM   15  C14 UNL     1      12.406  32.441   1.400  1.00  0.00     0.114 A 
HETATM   16  N4  UNL     1      12.336  32.106   0.115  1.00  0.00    -0.360 N 
HETATM   17  C15 UNL     1      11.212  31.404  -0.071  1.00  0.00     0.180 A 
ATOM     18  H4  UNL     1      13.020  32.343  -0.604  1.00  0.00     0.166 HD
HETATM   19  N5  UNL     1      10.568  31.293   1.094  1.00  0.00    -0.354 N 
ATOM     20  H5  UNL     1       9.683  30.809   1.248  1.00  0.00     0.166 HD
ENDBRANCH  13  14
ENDBRANCH  12  13
BRANCH  12  21
HETATM   21  C16 UNL     1      10.366  29.659   3.896  1.00  0.00     0.154 C 
HETATM   22  O3  UNL     1       9.808  29.018   2.972  1.00  0.00    -0.295 OA
BRANCH  21  23
HETATM   23  C17 UNL     1      11.346  28.981   4.755  1.00  0.00     0.067 C 
HETATM   24  C18 UNL     1      12.595  28.694   3.954  1.00  0.00     0.023 C 
HETATM   25  C19 UNL     1      13.524  27.923   4.864  1.00  0.00     0.075 C 
HETATM   26  S1  UNL     1      13.289  28.820   6.433  1.00  0.00    -0.168 SA
HETATM   27  C20 UNL     1      11.723  29.715   5.963  1.00  0.00     0.086 C 
ENDBRANCH  21  23
ENDBRANCH  12  21
ENDBRANCH  10  12
ENDBRANCH   7   8
BRANCH   1  28
HETATM   28  C4  UNL     1       7.382  34.844  -0.506  1.00  0.00     0.278 C 
BRANCH  28  29
HETATM   29  C3  UNL     1       6.799  36.090   0.116  1.00  0.00     0.076 C 
BRANCH  29  30
HETATM   30  C2  UNL     1       5.576  36.594  -0.515  1.00  0.00    -0.083 C 
HETATM   31  C1  UNL     1       4.383  36.287  -0.078  1.00  0.00     0.015 C 
BRANCH  30  32
HETATM   32  C21 UNL     1       5.681  37.494  -1.719  1.00  0.00     0.014 C 
HETATM   33  C22 UNL     1       5.121  36.736  -2.882  1.00  0.00     0.009 C 
HETATM   34  C23 UNL     1       4.931  37.674  -4.062  1.00  0.00     0.001 C 
HETATM   35  C24 UNL     1       5.678  38.970  -3.828  1.00  0.00     0.000 C 
HETATM   36  C25 UNL     1       5.034  39.692  -2.682  1.00  0.00     0.001 C 
HETATM   37  C26 UNL     1       4.961  38.773  -1.493  1.00  0.00     0.009 C 
ENDBRANCH  30  32
ENDBRANCH  29  30
ENDBRANCH  28  29
BRANCH  28  38
HETATM   38  N1  UNL     1       8.641  35.208  -1.193  1.00  0.00    -0.066 N 
ATOM     39  H13 UNL     1       8.502  35.420  -2.180  1.00  0.00     0.275 HD
ATOM     40  H12 UNL     1       8.995  36.120  -0.904  1.00  0.00     0.275 HD
ATOM     41  H11 UNL     1       9.319  34.461  -1.044  1.00  0.00     0.275 HD
ENDBRANCH  28  38
ENDBRANCH   1  28
TORSDOF 11
ENDMDL
MODEL 3
REMARK VINA RESULT: -7.537474232      1.721      4.401
REMARK  11 active torsions:
REMARK  status: ('A' for Active; 'I' for Inactive)
REMARK    1  A    between atoms: C2_2  and  C3_3 
REMARK    2  A    between atoms: C2_2  and  C21_36 
REMARK    3  A    between atoms: C3_3  and  C4_4 
REMARK    4  A    between atoms: C4_4  and  N1_5 
REMARK    5  A    between atoms: C4_4  and  C5_9 
REMARK       I    between atoms: C5_9  and  N2_11 
REMARK    6  A    between atoms: C9_15  and  C10_16 
REMARK       I    between atoms: C10_16  and  N3_18 
REMARK    7  A    between atoms: N3_18  and  C11_20 
REMARK    8  A    between atoms: C11_20  and  C12_21 
REMARK    9  A    between atoms: C11_20  and  C16_29 
REMARK   10  A    between atoms: C12_21  and  C13_22 
REMARK   11  A    between atoms: C16_29  and  C17_31 
ROOT
HETATM    1  C5  UNL     1       7.774  34.290   0.295  1.00  0.00     0.251 C 
HETATM    2  O1  UNL     1       8.991  34.436   0.444  1.00  0.00    -0.271 OA
HETATM    3  N2  UNL     1       7.018  33.322   0.989  1.00  0.00    -0.337 N 
HETATM    4  C6  UNL     1       5.547  33.115   0.707  1.00  0.00     0.127 C 
HETATM    5  C7  UNL     1       4.990  33.121   2.104  1.00  0.00     0.022 C 
HETATM    6  C8  UNL     1       6.061  32.482   2.944  1.00  0.00     0.037 C 
HETATM    7  C9  UNL     1       7.272  32.363   1.996  1.00  0.00     0.179 C 
ENDROOT
BRANCH   7   8
HETATM    8  C10 UNL     1       8.499  32.418   2.778  1.00  0.00     0.241 C 
HETATM    9  O2  UNL     1       8.614  32.770   3.946  1.00  0.00    -0.271 OA
HETATM   10  N3  UNL     1       9.713  32.013   2.112  1.00  0.00    -0.347 N 
ATOM     11  H3  UNL     1       9.692  31.706   1.140  1.00  0.00     0.163 HD
BRANCH  10  12
HETATM   12  C11 UNL     1      11.015  32.050   2.872  1.00  0.00     0.160 C 
BRANCH  12  13
HETATM   13  C12 UNL     1      11.931  32.683   1.859  1.00  0.00     0.091 C 
BRANCH  13  14
HETATM   14  C13 UNL     1      12.103  34.139   1.886  1.00  0.00     0.028 A 
HETATM   15  C14 UNL     1      13.131  34.882   1.350  1.00  0.00     0.114 A 
HETATM   16  N4  UNL     1      12.884  36.163   1.607  1.00  0.00    -0.360 N 
HETATM   17  C15 UNL     1      11.733  36.236   2.286  1.00  0.00     0.180 A 
ATOM     18  H4  UNL     1      13.470  36.953   1.334  1.00  0.00     0.166 HD
HETATM   19  N5  UNL     1      11.250  35.003   2.461  1.00  0.00    -0.354 N 
ATOM     20  H5  UNL     1      10.385  34.760   2.945  1.00  0.00     0.166 HD
ENDBRANCH  13  14
ENDBRANCH  12  13
BRANCH  12  21
HETATM   21  C16 UNL     1      11.304  30.616   3.096  1.00  0.00     0.154 C 
HETATM   22  O3  UNL     1      11.255  29.919   2.053  1.00  0.00    -0.295 OA
BRANCH  21  23
HETATM   23  C17 UNL     1      11.611  29.973   4.381  1.00  0.00     0.067 C 
HETATM   24  C18 UNL     1      10.572  28.915   4.667  1.00  0.00     0.023 C 
HETATM   25  C19 UNL     1      10.892  28.355   6.035  1.00  0.00     0.075 C 
HETATM   26  S1  UNL     1      12.710  28.253   5.947  1.00  0.00    -0.168 SA
HETATM   27  C20 UNL     1      12.937  29.362   4.466  1.00  0.00     0.086 C 
ENDBRANCH  21  23
ENDBRANCH  12  21
ENDBRANCH  10  12
ENDBRANCH   7   8
BRANCH   1  28
HETATM   28  C4  UNL     1       7.112  35.226  -0.694  1.00  0.00     0.278 C 
BRANCH  28  29
HETATM   29  C3  UNL     1       6.421  36.316   0.090  1.00  0.00     0.076 C 
BRANCH  29  30
HETATM   30  C2  UNL     1       5.113  36.728  -0.426  1.00  0.00    -0.083 C 
HETATM   31  C1  UNL     1       4.004  36.126  -0.088  1.00  0.00     0.015 C 
BRANCH  30  32
HETATM   32  C21 UNL     1       5.029  37.884  -1.388  1.00  0.00     0.014 C 
HETATM   33  C22 UNL     1       6.213  38.762  -1.123  1.00  0.00     0.009 C 
HETATM   34  C23 UNL     1       6.351  39.787  -2.236  1.00  0.00     0.001 C 
HETATM   35  C24 UNL     1       5.083  39.841  -3.062  1.00  0.00     0.000 C 
HETATM   36  C25 UNL     1       4.929  38.536  -3.786  1.00  0.00     0.001 C 
HETATM   37  C26 UNL     1       4.999  37.405  -2.795  1.00  0.00     0.009 C 
ENDBRANCH  30  32
ENDBRANCH  29  30
ENDBRANCH  28  29
BRANCH  28  38
HETATM   38  N1  UNL     1       8.172  35.843  -1.521  1.00  0.00    -0.066 N 
ATOM     39  H13 UNL     1       7.795  36.410  -2.280  1.00  0.00     0.275 HD
ATOM     40  H12 UNL     1       8.672  36.583  -1.030  1.00  0.00     0.275 HD
ATOM     41  H11 UNL     1       8.793  35.105  -1.854  1.00  0.00     0.275 HD
ENDBRANCH  28  38
ENDBRANCH   1  28
TORSDOF 11
ENDMDL
MODEL 4
REMARK VINA RESULT: -7.347199159      1.957      4.505
REMARK  11 active torsions:
REMARK  status: ('A' for Active; 'I' for Inactive)
REMARK    1  A    between atoms: C2_2  and  C3_3 
REMARK    2  A    between atoms: C2_2  and  C21_36 
REMARK    3  A    between atoms: C3_3  and  C4_4 
REMARK    4  A    between atoms: C4_4  and  N1_5 
REMARK    5  A    between atoms: C4_4  and  C5_9 
REMARK       I    between atoms: C5_9  and  N2_11 
REMARK    6  A    between atoms: C9_15  and  C10_16 
REMARK       I    between atoms: C10_16  and  N3_18 
REMARK    7  A    between atoms: N3_18  and  C11_20 
REMARK    8  A    between atoms: C11_20  and  C12_21 
REMARK    9  A    between atoms: C11_20  and  C16_29 
REMARK   10  A    between atoms: C12_21  and  C13_22 
REMARK   11  A    between atoms: C16_29  and  C17_31 
ROOT
HETATM    1  C5  UNL     1       7.462  34.481   0.223  1.00  0.00     0.251 C 
HETATM    2  O1  UNL     1       8.671  34.703   0.343  1.00  0.00    -0.271 OA
HETATM    3  N2  UNL     1       6.786  33.469   0.936  1.00  0.00    -0.337 N 
HETATM    4  C6  UNL     1       5.324  33.170   0.690  1.00  0.00     0.127 C 
HETATM    5  C7  UNL     1       4.801  33.144   2.100  1.00  0.00     0.022 C 
HETATM    6  C8  UNL     1       5.930  32.576   2.914  1.00  0.00     0.037 C 
HETATM    7  C9  UNL     1       7.123  32.530   1.937  1.00  0.00     0.179 C 
ENDROOT
BRANCH   7   8
HETATM    8  C10 UNL     1       8.363  32.663   2.689  1.00  0.00     0.241 C 
HETATM    9  O2  UNL     1       8.521  33.253   3.752  1.00  0.00    -0.271 OA
HETATM   10  N3  UNL     1       9.534  32.034   2.130  1.00  0.00    -0.347 N 
ATOM     11  H3  UNL     1       9.475  31.524   1.249  1.00  0.00     0.163 HD
BRANCH  10  12
HETATM   12  C11 UNL     1      10.846  32.140   2.865  1.00  0.00     0.160 C 
BRANCH  12  13
HETATM   13  C12 UNL     1      11.699  32.848   1.846  1.00  0.00     0.091 C 
BRANCH  13  14
HETATM   14  C13 UNL     1      11.854  34.303   1.955  1.00  0.00     0.028 A 
HETATM   15  C14 UNL     1      12.930  35.071   1.572  1.00  0.00     0.114 A 
HETATM   16  N4  UNL     1      12.644  36.340   1.853  1.00  0.00    -0.360 N 
HETATM   17  C15 UNL     1      11.422  36.378   2.398  1.00  0.00     0.180 A 
ATOM     18  H4  UNL     1      13.250  37.142   1.684  1.00  0.00     0.166 HD
HETATM   19  N5  UNL     1      10.933  35.137   2.463  1.00  0.00    -0.354 N 
ATOM     20  H5  UNL     1      10.020  34.870   2.834  1.00  0.00     0.166 HD
ENDBRANCH  13  14
ENDBRANCH  12  13
BRANCH  12  21
HETATM   21  C16 UNL     1      11.230  30.723   3.054  1.00  0.00     0.154 C 
HETATM   22  O3  UNL     1      11.261  30.058   1.989  1.00  0.00    -0.295 OA
BRANCH  21  23
HETATM   23  C17 UNL     1      11.544  30.062   4.328  1.00  0.00     0.067 C 
HETATM   24  C18 UNL     1      10.515  28.991   4.599  1.00  0.00     0.023 C 
HETATM   25  C19 UNL     1      10.842  28.412   5.958  1.00  0.00     0.075 C 
HETATM   26  S1  UNL     1      12.661  28.327   5.865  1.00  0.00    -0.168 SA
HETATM   27  C20 UNL     1      12.876  29.461   4.401  1.00  0.00     0.086 C 
ENDBRANCH  21  23
ENDBRANCH  12  21
ENDBRANCH  10  12
ENDBRANCH   7   8
BRANCH   1  28
HETATM   28  C4  UNL     1       6.720  35.371  -0.750  1.00  0.00     0.278 C 
BRANCH  28  29
HETATM   29  C3  UNL     1       6.236  36.584   0.008  1.00  0.00     0.076 C 
BRANCH  29  30
HETATM   30  C2  UNL     1       5.427  37.529  -0.768  1.00  0.00    -0.083 C 
HETATM   31  C1  UNL     1       4.152  37.347  -0.985  1.00  0.00     0.015 C 
BRANCH  30  32
HETATM   32  C21 UNL     1       6.080  38.755  -1.351  1.00  0.00     0.014 C 
HETATM   33  C22 UNL     1       5.025  39.815  -1.431  1.00  0.00     0.009 C 
HETATM   34  C23 UNL     1       5.669  41.157  -1.739  1.00  0.00     0.001 C 
HETATM   35  C24 UNL     1       7.094  40.960  -2.212  1.00  0.00     0.000 C 
HETATM   36  C25 UNL     1       7.905  40.420  -1.072  1.00  0.00     0.001 C 
HETATM   37  C26 UNL     1       7.237  39.187  -0.525  1.00  0.00     0.009 C 
ENDBRANCH  30  32
ENDBRANCH  29  30
ENDBRANCH  28  29
BRANCH  28  38
HETATM   38  N1  UNL     1       7.677  35.816  -1.786  1.00  0.00    -0.066 N 
ATOM     39  H13 UNL     1       8.571  36.108  -1.394  1.00  0.00     0.275 HD
ATOM     40  H12 UNL     1       8.021  35.045  -2.358  1.00  0.00     0.275 HD
ATOM     41  H11 UNL     1       7.234  36.548  -2.342  1.00  0.00     0.275 HD
ENDBRANCH  28  38
ENDBRANCH   1  28
TORSDOF 11
ENDMDL
MODEL 5
REMARK VINA RESULT: -7.247470556      3.532      7.794
REMARK  11 active torsions:
REMARK  status: ('A' for Active; 'I' for Inactive)
REMARK    1  A    between atoms: C2_2  and  C3_3 
REMARK    2  A    between atoms: C2_2  and  C21_36 
REMARK    3  A    between atoms: C3_3  and  C4_4 
REMARK    4  A    between atoms: C4_4  and  N1_5 
REMARK    5  A    between atoms: C4_4  and  C5_9 
REMARK       I    between atoms: C5_9  and  N2_11 
REMARK    6  A    between atoms: C9_15  and  C10_16 
REMARK       I    between atoms: C10_16  and  N3_18 
REMARK    7  A    between atoms: N3_18  and  C11_20 
REMARK    8  A    between atoms: C11_20  and  C12_21 
REMARK    9  A    between atoms: C11_20  and  C16_29 
REMARK   10  A    between atoms: C12_21  and  C13_22 
REMARK   11  A    between atoms: C16_29  and  C17_31 
ROOT
HETATM    1  C5  UNL     1      10.296  35.465  -0.394  1.00  0.00     0.251 C 
HETATM    2  O1  UNL     1       9.265  34.843  -0.668  1.00  0.00    -0.271 OA
HETATM    3  N2  UNL     1      10.295  36.753   0.181  1.00  0.00    -0.337 N 
HETATM    4  C6  UNL     1      11.579  37.517   0.415  1.00  0.00     0.127 C 
HETATM    5  C7  UNL     1      11.391  37.955   1.841  1.00  0.00     0.022 C 
HETATM    6  C8  UNL     1       9.913  38.199   1.973  1.00  0.00     0.037 C 
HETATM    7  C9  UNL     1       9.315  37.654   0.659  1.00  0.00     0.179 C 
ENDROOT
BRANCH   7   8
HETATM    8  C10 UNL     1       7.952  37.203   0.904  1.00  0.00     0.241 C 
HETATM    9  O2  UNL     1       7.452  36.922   1.987  1.00  0.00    -0.271 OA
HETATM   10  N3  UNL     1       7.094  37.072  -0.247  1.00  0.00    -0.347 N 
ATOM     11  H3  UNL     1       7.443  37.290  -1.180  1.00  0.00     0.163 HD
BRANCH  10  12
HETATM   12  C11 UNL     1       5.672  36.608  -0.054  1.00  0.00     0.160 C 
BRANCH  12  13
HETATM   13  C12 UNL     1       5.810  35.126  -0.282  1.00  0.00     0.091 C 
BRANCH  13  14
HETATM   14  C13 UNL     1       5.499  34.217   0.826  1.00  0.00     0.028 A 
HETATM   15  C14 UNL     1       4.324  33.539   1.061  1.00  0.00     0.114 A 
HETATM   16  N4  UNL     1       4.481  32.830   2.176  1.00  0.00    -0.360 N 
HETATM   17  C15 UNL     1       5.718  33.048   2.636  1.00  0.00     0.180 A 
ATOM     18  H4  UNL     1       3.779  32.225   2.605  1.00  0.00     0.166 HD
HETATM   19  N5  UNL     1       6.347  33.895   1.816  1.00  0.00    -0.354 N 
ATOM     20  H5  UNL     1       7.303  34.236   1.924  1.00  0.00     0.166 HD
ENDBRANCH  13  14
ENDBRANCH  12  13
BRANCH  12  21
HETATM   21  C16 UNL     1       4.952  37.295  -1.149  1.00  0.00     0.154 C 
HETATM   22  O3  UNL     1       3.706  37.335  -0.993  1.00  0.00    -0.295 OA
BRANCH  21  23
HETATM   23  C17 UNL     1       5.548  37.890  -2.353  1.00  0.00     0.067 C 
HETATM   24  C18 UNL     1       5.078  37.127  -3.569  1.00  0.00     0.023 C 
HETATM   25  C19 UNL     1       5.791  37.730  -4.759  1.00  0.00     0.075 C 
HETATM   26  S1  UNL     1       5.698  39.504  -4.351  1.00  0.00    -0.168 SA
HETATM   27  C20 UNL     1       5.257  39.310  -2.551  1.00  0.00     0.086 C 
ENDBRANCH  21  23
ENDBRANCH  12  21
ENDBRANCH  10  12
ENDBRANCH   7   8
BRANCH   1  28
HETATM   28  C4  UNL     1      11.598  34.761  -0.711  1.00  0.00     0.278 C 
BRANCH  28  29
HETATM   29  C3  UNL     1      11.396  33.283  -0.473  1.00  0.00     0.076 C 
BRANCH  29  30
HETATM   30  C2  UNL     1      11.794  32.801   0.853  1.00  0.00    -0.083 C 
HETATM   31  C1  UNL     1      13.044  32.719   1.224  1.00  0.00     0.015 C 
BRANCH  30  32
HETATM   32  C21 UNL     1      10.732  32.372   1.833  1.00  0.00     0.014 C 
HETATM   33  C22 UNL     1      11.249  31.152   2.531  1.00  0.00     0.009 C 
HETATM   34  C23 UNL     1      10.366  30.832   3.725  1.00  0.00     0.001 C 
HETATM   35  C24 UNL     1       9.066  31.604   3.640  1.00  0.00     0.000 C 
HETATM   36  C25 UNL     1       9.369  33.066   3.792  1.00  0.00     0.001 C 
HETATM   37  C26 UNL     1      10.417  33.465   2.789  1.00  0.00     0.009 C 
ENDBRANCH  30  32
ENDBRANCH  29  30
ENDBRANCH  28  29
BRANCH  28  38
HETATM   38  N1  UNL     1      11.893  34.968  -2.146  1.00  0.00    -0.066 N 
ATOM     39  H13 UNL     1      12.845  34.697  -2.393  1.00  0.00     0.275 HD
ATOM     40  H12 UNL     1      11.400  34.308  -2.747  1.00  0.00     0.275 HD
ATOM     41  H11 UNL     1      11.688  35.939  -2.381  1.00  0.00     0.275 HD
ENDBRANCH  28  38
ENDBRANCH   1  28
TORSDOF 11
ENDMDL
