MODEL 1
REMARK VINA RESULT: -6.653284668      0.000      0.000
REMARK  11 active torsions:
REMARK  status: ('A' for Active; 'I' for Inactive)
REMARK    1  A    between atoms: C2_2  and  C3_3 
REMARK    2  A    between atoms: C3_3  and  C4_4 
REMARK    3  A    between atoms: C4_4  and  O1_5 
REMARK    4  A    between atoms: N1_10  and  C8_11 
REMARK    5  A    between atoms: C8_11  and  C9_12 
REMARK    6  A    between atoms: C9_12  and  C10_13 
REMARK    7  A    between atoms: C10_13  and  C11_14 
REMARK    8  A    between atoms: C11_14  and  C12_15 
REMARK    9  A    between atoms: C12_15  and  C13_16 
REMARK   10  A    between atoms: C13_16  and  N2_17 
REMARK   11  A    between atoms: C16_24  and  C17_25 
ROOT
HETATM    1  C4  UNL     1      72.221  50.187   1.520  1.00  0.00     0.095 C 
HETATM    2  C5  UNL     1      71.746  51.436   0.755  1.00  0.00     0.039 C 
HETATM    3  C6  UNL     1      71.125  52.429   1.730  1.00  0.00     0.015 C 
HETATM    4  C7  UNL     1      70.854  51.166  -0.387  1.00  0.00     0.133 C 
HETATM    5  N1  UNL     1      70.068  49.970  -0.336  1.00  0.00    -0.348 N 
HETATM    6  C15 UNL     1      70.302  49.001   0.640  1.00  0.00     0.249 C 
HETATM    7  O2  UNL     1      69.929  47.793   0.538  1.00  0.00    -0.268 OA
HETATM    8  C16 UNL     1      71.042  49.425   1.891  1.00  0.00     0.027 C 
ENDROOT
BRANCH   5   9
HETATM    9  C8  UNL     1      69.033  49.776  -1.315  1.00  0.00     0.126 C 
BRANCH   9  10
HETATM   10  C9  UNL     1      68.077  50.967  -1.201  1.00  0.00     0.020 C 
BRANCH  10  11
HETATM   11  C10 UNL     1      67.690  51.446  -2.591  1.00  0.00     0.002 C 
BRANCH  11  12
HETATM   12  C11 UNL     1      67.027  52.782  -2.503  1.00  0.00     0.002 C 
BRANCH  12  13
HETATM   13  C12 UNL     1      67.912  53.895  -3.012  1.00  0.00     0.020 C 
BRANCH  13  14
HETATM   14  C13 UNL     1      69.012  54.245  -2.042  1.00  0.00     0.122 C 
BRANCH  14  15
HETATM   15  N2  UNL     1      68.427  54.632  -0.792  1.00  0.00    -0.367 N 
HETATM   16  C14 UNL     1      68.758  55.642  -0.098  1.00  0.00     0.196 C 
HETATM   17  N3  UNL     1      69.789  56.523  -0.519  1.00  0.00    -0.067 NA
HETATM   18  N4  UNL     1      68.093  55.907   1.122  1.00  0.00    -0.067 NA
ATOM     19  H2  UNL     1      67.678  54.043  -0.428  1.00  0.00     0.161 HD
ENDBRANCH  14  15
ENDBRANCH  13  14
ENDBRANCH  12  13
ENDBRANCH  11  12
ENDBRANCH  10  11
ENDBRANCH   9  10
ENDBRANCH   5   9
BRANCH   8  20
HETATM   20  C17 UNL     1      71.037  48.383   2.908  1.00  0.00     0.023 C 
HETATM   21  C18 UNL     1      69.754  48.135   3.660  1.00  0.00     0.009 C 
HETATM   22  C19 UNL     1      70.662  47.399   4.679  1.00  0.00     0.001 C 
HETATM   23  C20 UNL     1      71.720  48.426   4.198  1.00  0.00     0.009 C 
ENDBRANCH   8  20
BRANCH   1  24
HETATM   24  C3  UNL     1      73.368  49.596   0.832  1.00  0.00     0.069 C 
BRANCH  24  25
HETATM   25  C2  UNL     1      74.439  48.965   1.578  1.00  0.00    -0.033 C 
HETATM   26  C1  UNL     1      74.480  47.651   1.730  1.00  0.00     0.007 C 
ENDBRANCH  24  25
ENDBRANCH   1  24
BRANCH   1  27
HETATM   27  O1  UNL     1      72.730  50.788   2.716  1.00  0.00    -0.384 OA
ATOM     28  H1  UNL     1      73.360  51.444   2.441  1.00  0.00     0.211 HD
ENDBRANCH   1  27
TORSDOF 11
ENDMDL
MODEL 2
REMARK VINA RESULT: -6.610250394      4.075      5.987
REMARK  11 active torsions:
REMARK  status: ('A' for Active; 'I' for Inactive)
REMARK    1  A    between atoms: C2_2  and  C3_3 
REMARK    2  A    between atoms: C3_3  and  C4_4 
REMARK    3  A    between atoms: C4_4  and  O1_5 
REMARK    4  A    between atoms: N1_10  and  C8_11 
REMARK    5  A    between atoms: C8_11  and  C9_12 
REMARK    6  A    between atoms: C9_12  and  C10_13 
REMARK    7  A    between atoms: C10_13  and  C11_14 
REMARK    8  A    between atoms: C11_14  and  C12_15 
REMARK    9  A    between atoms: C12_15  and  C13_16 
REMARK   10  A    between atoms: C13_16  and  N2_17 
REMARK   11  A    between atoms: C16_24  and  C17_25 
ROOT
HETATM    1  C4  UNL     1      69.777  53.275  -0.682  1.00  0.00     0.095 C 
HETATM    2  C5  UNL     1      69.342  54.714  -0.350  1.00  0.00     0.039 C 
HETATM    3  C6  UNL     1      68.571  54.727   0.964  1.00  0.00     0.015 C 
HETATM    4  C7  UNL     1      68.602  55.405  -1.421  1.00  0.00     0.133 C 
HETATM    5  N1  UNL     1      67.866  54.589  -2.340  1.00  0.00    -0.348 N 
HETATM    6  C15 UNL     1      68.025  53.203  -2.352  1.00  0.00     0.249 C 
HETATM    7  O2  UNL     1      67.718  52.467  -3.338  1.00  0.00    -0.268 OA
HETATM    8  C16 UNL     1      68.596  52.548  -1.112  1.00  0.00     0.027 C 
ENDROOT
BRANCH   5   9
HETATM    9  C8  UNL     1      66.962  55.223  -3.261  1.00  0.00     0.126 C 
BRANCH   9  10
HETATM   10  C9  UNL     1      66.492  56.524  -2.607  1.00  0.00     0.020 C 
BRANCH  10  11
HETATM   11  C10 UNL     1      66.854  57.703  -3.497  1.00  0.00     0.002 C 
BRANCH  11  12
HETATM   12  C11 UNL     1      66.490  57.401  -4.914  1.00  0.00     0.002 C 
BRANCH  12  13
HETATM   13  C12 UNL     1      66.497  58.635  -5.784  1.00  0.00     0.020 C 
BRANCH  13  14
HETATM   14  C13 UNL     1      67.855  59.289  -5.843  1.00  0.00     0.122 C 
BRANCH  14  15
HETATM   15  N2  UNL     1      68.404  59.105  -7.154  1.00  0.00    -0.367 N 
HETATM   16  C14 UNL     1      69.639  59.120  -7.452  1.00  0.00     0.196 C 
HETATM   17  N3  UNL     1      70.635  59.329  -6.462  1.00  0.00    -0.067 NA
HETATM   18  N4  UNL     1      70.042  58.924  -8.793  1.00  0.00    -0.067 NA
ATOM     19  H2  UNL     1      67.744  58.950  -7.916  1.00  0.00     0.161 HD
ENDBRANCH  14  15
ENDBRANCH  13  14
ENDBRANCH  12  13
ENDBRANCH  11  12
ENDBRANCH  10  11
ENDBRANCH   9  10
ENDBRANCH   5   9
BRANCH   8  20
HETATM   20  C17 UNL     1      68.516  51.096  -1.175  1.00  0.00     0.023 C 
HETATM   21  C18 UNL     1      68.348  50.340   0.119  1.00  0.00     0.009 C 
HETATM   22  C19 UNL     1      68.812  49.112  -0.706  1.00  0.00     0.001 C 
HETATM   23  C20 UNL     1      69.604  50.179  -1.504  1.00  0.00     0.009 C 
ENDBRANCH   8  20
BRANCH   1  24
HETATM   24  C3  UNL     1      71.020  53.301  -1.451  1.00  0.00     0.069 C 
BRANCH  24  25
HETATM   25  C2  UNL     1      72.253  52.784  -0.891  1.00  0.00    -0.033 C 
HETATM   26  C1  UNL     1      73.429  53.186  -1.348  1.00  0.00     0.007 C 
ENDBRANCH  24  25
ENDBRANCH   1  24
BRANCH   1  27
HETATM   27  O1  UNL     1      70.117  52.794   0.623  1.00  0.00    -0.384 OA
ATOM     28  H1  UNL     1      70.651  53.468   1.028  1.00  0.00     0.211 HD
ENDBRANCH   1  27
TORSDOF 11
ENDMDL
MODEL 3
REMARK VINA RESULT: -6.592213929      1.692      3.442
REMARK  11 active torsions:
REMARK  status: ('A' for Active; 'I' for Inactive)
REMARK    1  A    between atoms: C2_2  and  C3_3 
REMARK    2  A    between atoms: C3_3  and  C4_4 
REMARK    3  A    between atoms: C4_4  and  O1_5 
REMARK    4  A    between atoms: N1_10  and  C8_11 
REMARK    5  A    between atoms: C8_11  and  C9_12 
REMARK    6  A    between atoms: C9_12  and  C10_13 
REMARK    7  A    between atoms: C10_13  and  C11_14 
REMARK    8  A    between atoms: C11_14  and  C12_15 
REMARK    9  A    between atoms: C12_15  and  C13_16 
REMARK   10  A    between atoms: C13_16  and  N2_17 
REMARK   11  A    between atoms: C16_24  and  C17_25 
ROOT
HETATM    1  C4  UNL     1      72.489  51.337   1.230  1.00  0.00     0.095 C 
HETATM    2  C5  UNL     1      72.271  50.184   0.233  1.00  0.00     0.039 C 
HETATM    3  C6  UNL     1      72.936  50.521  -1.095  1.00  0.00     0.015 C 
HETATM    4  C7  UNL     1      70.866  49.776   0.049  1.00  0.00     0.133 C 
HETATM    5  N1  UNL     1      69.860  50.767   0.285  1.00  0.00    -0.348 N 
HETATM    6  C15 UNL     1      70.183  51.989   0.875  1.00  0.00     0.249 C 
HETATM    7  O2  UNL     1      69.338  52.742   1.446  1.00  0.00    -0.268 OA
HETATM    8  C16 UNL     1      71.630  52.435   0.824  1.00  0.00     0.027 C 
ENDROOT
BRANCH   5   9
HETATM    9  C8  UNL     1      68.501  50.480  -0.088  1.00  0.00     0.126 C 
BRANCH   9  10
HETATM   10  C9  UNL     1      68.504  50.160  -1.585  1.00  0.00     0.020 C 
BRANCH  10  11
HETATM   11  C10 UNL     1      68.700  51.440  -2.381  1.00  0.00     0.002 C 
BRANCH  11  12
HETATM   12  C11 UNL     1      67.374  52.057  -2.687  1.00  0.00     0.002 C 
BRANCH  12  13
HETATM   13  C12 UNL     1      67.451  53.563  -2.780  1.00  0.00     0.020 C 
BRANCH  13  14
HETATM   14  C13 UNL     1      68.639  54.125  -2.041  1.00  0.00     0.122 C 
BRANCH  14  15
HETATM   15  N2  UNL     1      68.209  54.600  -0.759  1.00  0.00    -0.367 N 
HETATM   16  C14 UNL     1      68.664  55.618  -0.152  1.00  0.00     0.196 C 
HETATM   17  N3  UNL     1      69.691  56.419  -0.719  1.00  0.00    -0.067 NA
HETATM   18  N4  UNL     1      68.145  55.974   1.115  1.00  0.00    -0.067 NA
ATOM     19  H2  UNL     1      67.472  54.071  -0.292  1.00  0.00     0.161 HD
ENDBRANCH  14  15
ENDBRANCH  13  14
ENDBRANCH  12  13
ENDBRANCH  11  12
ENDBRANCH  10  11
ENDBRANCH   9  10
ENDBRANCH   5   9
BRANCH   8  20
HETATM   20  C17 UNL     1      71.795  53.807   1.285  1.00  0.00     0.023 C 
HETATM   21  C18 UNL     1      72.697  54.716   0.490  1.00  0.00     0.009 C 
HETATM   22  C19 UNL     1      72.686  55.601   1.763  1.00  0.00     0.001 C 
HETATM   23  C20 UNL     1      72.506  54.240   2.484  1.00  0.00     0.009 C 
ENDBRANCH   8  20
BRANCH   1  24
HETATM   24  C3  UNL     1      72.518  50.811   2.593  1.00  0.00     0.069 C 
BRANCH  24  25
HETATM   25  C2  UNL     1      73.037  49.486   2.869  1.00  0.00    -0.033 C 
HETATM   26  C1  UNL     1      72.368  48.638   3.635  1.00  0.00     0.007 C 
ENDBRANCH  24  25
ENDBRANCH   1  24
BRANCH   1  27
HETATM   27  O1  UNL     1      73.833  51.712   0.910  1.00  0.00    -0.384 OA
ATOM     28  H1  UNL     1      73.990  51.419   0.019  1.00  0.00     0.211 HD
ENDBRANCH   1  27
TORSDOF 11
ENDMDL
MODEL 4
REMARK VINA RESULT: -6.528527698      1.104      1.464
REMARK  11 active torsions:
REMARK  status: ('A' for Active; 'I' for Inactive)
REMARK    1  A    between atoms: C2_2  and  C3_3 
REMARK    2  A    between atoms: C3_3  and  C4_4 
REMARK    3  A    between atoms: C4_4  and  O1_5 
REMARK    4  A    between atoms: N1_10  and  C8_11 
REMARK    5  A    between atoms: C8_11  and  C9_12 
REMARK    6  A    between atoms: C9_12  and  C10_13 
REMARK    7  A    between atoms: C10_13  and  C11_14 
REMARK    8  A    between atoms: C11_14  and  C12_15 
REMARK    9  A    between atoms: C12_15  and  C13_16 
REMARK   10  A    between atoms: C13_16  and  N2_17 
REMARK   11  A    between atoms: C16_24  and  C17_25 
ROOT
HETATM    1  C4  UNL     1      72.414  50.478   0.953  1.00  0.00     0.095 C 
HETATM    2  C5  UNL     1      71.863  51.900   0.744  1.00  0.00     0.039 C 
HETATM    3  C6  UNL     1      71.733  52.603   2.090  1.00  0.00     0.015 C 
HETATM    4  C7  UNL     1      70.613  51.977  -0.033  1.00  0.00     0.133 C 
HETATM    5  N1  UNL     1      69.752  50.834  -0.002  1.00  0.00    -0.348 N 
HETATM    6  C15 UNL     1      70.182  49.628   0.553  1.00  0.00     0.249 C 
HETATM    7  O2  UNL     1      69.654  48.505   0.294  1.00  0.00    -0.268 OA
HETATM    8  C16 UNL     1      71.346  49.673   1.519  1.00  0.00     0.027 C 
ENDROOT
BRANCH   5   9
HETATM    9  C8  UNL     1      68.431  50.943  -0.562  1.00  0.00     0.126 C 
BRANCH   9  10
HETATM   10  C9  UNL     1      68.582  50.878  -2.084  1.00  0.00     0.020 C 
BRANCH  10  11
HETATM   11  C10 UNL     1      67.301  51.362  -2.745  1.00  0.00     0.002 C 
BRANCH  11  12
HETATM   12  C11 UNL     1      66.961  52.732  -2.254  1.00  0.00     0.002 C 
BRANCH  12  13
HETATM   13  C12 UNL     1      67.684  53.812  -3.022  1.00  0.00     0.020 C 
BRANCH  13  14
HETATM   14  C13 UNL     1      68.777  54.461  -2.211  1.00  0.00     0.122 C 
BRANCH  14  15
HETATM   15  N2  UNL     1      68.265  54.785  -0.912  1.00  0.00    -0.367 N 
HETATM   16  C14 UNL     1      68.721  55.679  -0.135  1.00  0.00     0.196 C 
HETATM   17  N3  UNL     1      69.836  56.479  -0.502  1.00  0.00    -0.067 NA
HETATM   18  N4  UNL     1      68.116  55.893   1.125  1.00  0.00    -0.067 NA
ATOM     19  H2  UNL     1      67.462  54.248  -0.583  1.00  0.00     0.161 HD
ENDBRANCH  14  15
ENDBRANCH  13  14
ENDBRANCH  12  13
ENDBRANCH  11  12
ENDBRANCH  10  11
ENDBRANCH   9  10
ENDBRANCH   5   9
BRANCH   8  20
HETATM   20  C17 UNL     1      71.559  48.392   2.179  1.00  0.00     0.023 C 
HETATM   21  C18 UNL     1      71.400  48.333   3.677  1.00  0.00     0.009 C 
HETATM   22  C19 UNL     1      72.183  47.000   3.563  1.00  0.00     0.001 C 
HETATM   23  C20 UNL     1      72.834  47.701   2.343  1.00  0.00     0.009 C 
ENDBRANCH   8  20
BRANCH   1  24
HETATM   24  C3  UNL     1      73.181  50.069  -0.223  1.00  0.00     0.069 C 
BRANCH  24  25
HETATM   25  C2  UNL     1      73.869  51.048  -1.041  1.00  0.00    -0.033 C 
HETATM   26  C1  UNL     1      75.010  50.751  -1.643  1.00  0.00     0.007 C 
ENDBRANCH  24  25
ENDBRANCH   1  24
BRANCH   1  27
HETATM   27  O1  UNL     1      73.365  50.714   1.997  1.00  0.00    -0.384 OA
ATOM     28  H1  UNL     1      74.225  50.609   1.606  1.00  0.00     0.211 HD
ENDBRANCH   1  27
TORSDOF 11
ENDMDL
MODEL 5
REMARK VINA RESULT: -6.453947554      1.049      1.350
REMARK  11 active torsions:
REMARK  status: ('A' for Active; 'I' for Inactive)
REMARK    1  A    between atoms: C2_2  and  C3_3 
REMARK    2  A    between atoms: C3_3  and  C4_4 
REMARK    3  A    between atoms: C4_4  and  O1_5 
REMARK    4  A    between atoms: N1_10  and  C8_11 
REMARK    5  A    between atoms: C8_11  and  C9_12 
REMARK    6  A    between atoms: C9_12  and  C10_13 
REMARK    7  A    between atoms: C10_13  and  C11_14 
REMARK    8  A    between atoms: C11_14  and  C12_15 
REMARK    9  A    between atoms: C12_15  and  C13_16 
REMARK   10  A    between atoms: C13_16  and  N2_17 
REMARK   11  A    between atoms: C16_24  and  C17_25 
ROOT
HETATM    1  C4  UNL     1      72.800  49.216   2.114  1.00  0.00     0.095 C 
HETATM    2  C5  UNL     1      72.467  50.451   1.257  1.00  0.00     0.039 C 
HETATM    3  C6  UNL     1      72.201  51.648   2.162  1.00  0.00     0.015 C 
HETATM    4  C7  UNL     1      71.382  50.258   0.278  1.00  0.00     0.133 C 
HETATM    5  N1  UNL     1      70.396  49.266   0.581  1.00  0.00    -0.348 N 
HETATM    6  C15 UNL     1      70.578  48.375   1.640  1.00  0.00     0.249 C 
HETATM    7  O2  UNL     1      69.968  47.268   1.743  1.00  0.00    -0.268 OA
HETATM    8  C16 UNL     1      71.563  48.761   2.724  1.00  0.00     0.027 C 
ENDROOT
BRANCH   5   9
HETATM    9  C8  UNL     1      69.210  49.193  -0.229  1.00  0.00     0.126 C 
BRANCH   9  10
HETATM   10  C9  UNL     1      69.611  49.601  -1.649  1.00  0.00     0.020 C 
BRANCH  10  11
HETATM   11  C10 UNL     1      68.493  50.415  -2.282  1.00  0.00     0.002 C 
BRANCH  11  12
HETATM   12  C11 UNL     1      68.301  51.689  -1.526  1.00  0.00     0.002 C 
BRANCH  12  13
HETATM   13  C12 UNL     1      67.840  52.819  -2.416  1.00  0.00     0.020 C 
BRANCH  13  14
HETATM   14  C13 UNL     1      68.551  54.114  -2.118  1.00  0.00     0.122 C 
BRANCH  14  15
HETATM   15  N2  UNL     1      68.145  54.583  -0.825  1.00  0.00    -0.367 N 
HETATM   16  C14 UNL     1      68.643  55.571  -0.203  1.00  0.00     0.196 C 
HETATM   17  N3  UNL     1      69.700  56.339  -0.760  1.00  0.00    -0.067 NA
HETATM   18  N4  UNL     1      68.144  55.925   1.073  1.00  0.00    -0.067 NA
ATOM     19  H2  UNL     1      67.389  54.076  -0.364  1.00  0.00     0.161 HD
ENDBRANCH  14  15
ENDBRANCH  13  14
ENDBRANCH  12  13
ENDBRANCH  11  12
ENDBRANCH  10  11
ENDBRANCH   9  10
ENDBRANCH   5   9
BRANCH   8  20
HETATM   20  C17 UNL     1      71.506  47.853   3.861  1.00  0.00     0.023 C 
HETATM   21  C18 UNL     1      71.772  48.421   5.233  1.00  0.00     0.009 C 
HETATM   22  C19 UNL     1      71.988  46.942   5.645  1.00  0.00     0.001 C 
HETATM   23  C20 UNL     1      72.460  46.794   4.176  1.00  0.00     0.009 C 
ENDBRANCH   8  20
BRANCH   1  24
HETATM   24  C3  UNL     1      73.696  48.330   1.374  1.00  0.00     0.069 C 
BRANCH  24  25
HETATM   25  C2  UNL     1      75.056  48.103   1.822  1.00  0.00    -0.033 C 
HETATM   26  C1  UNL     1      75.520  46.875   1.993  1.00  0.00     0.007 C 
ENDBRANCH  24  25
ENDBRANCH   1  24
BRANCH   1  27
HETATM   27  O1  UNL     1      73.585  49.817   3.149  1.00  0.00    -0.384 OA
ATOM     28  H1  UNL     1      73.024  50.451   3.580  1.00  0.00     0.211 HD
ENDBRANCH   1  27
TORSDOF 11
ENDMDL
