MODEL 1
REMARK VINA RESULT: -7.136310687      0.000      0.000
REMARK  10 active torsions:
REMARK  status: ('A' for Active; 'I' for Inactive)
REMARK    1  A    between atoms: C4_5  and  N2_6 
REMARK    2  A    between atoms: N2_6  and  S1_8 
REMARK    3  A    between atoms: S1_8  and  N3_11 
REMARK    4  A    between atoms: N3_11  and  C5_13 
REMARK    5  A    between atoms: C5_13  and  C6_14 
REMARK    6  A    between atoms: C6_14  and  C7_15 
REMARK    7  A    between atoms: C7_15  and  C8_16 
REMARK    8  A    between atoms: C8_16  and  C9_17 
REMARK    9  A    between atoms: C9_17  and  C10_18 
REMARK   10  A    between atoms: C10_18  and  C11_19 
ROOT
HETATM    1  N3  UNL     1      68.048  54.430  -0.855  1.00  0.00    -0.303 N 
ATOM      2  H3  UNL     1      67.511  53.620  -0.543  1.00  0.00     0.173 HD
ENDROOT
BRANCH   1   3
HETATM    3  S1  UNL     1      69.014  55.411   0.185  1.00  0.00     0.315 S 
HETATM    4  O1  UNL     1      69.630  56.485  -0.687  1.00  0.00    -0.183 OA
HETATM    5  O2  UNL     1      68.077  56.112   1.122  1.00  0.00    -0.183 OA
BRANCH   3   6
HETATM    6  N2  UNL     1      70.170  54.456   0.963  1.00  0.00    -0.298 N 
ATOM      7  H2  UNL     1      69.971  53.959   1.831  1.00  0.00     0.174 HD
BRANCH   6   8
HETATM    8  C4  UNL     1      71.452  54.395   0.319  1.00  0.00     0.097 C 
HETATM    9  C3  UNL     1      72.557  53.952   1.258  1.00  0.00     0.045 C 
HETATM   10  C2  UNL     1      73.860  54.419   0.603  1.00  0.00     0.118 C 
HETATM   11  N1  UNL     1      73.910  54.103  -0.788  1.00  0.00    -0.416 N 
HETATM   12  C1  UNL     1      74.277  55.172  -1.649  1.00  0.00     0.143 C 
HETATM   13  C17 UNL     1      72.911  53.222  -1.266  1.00  0.00     0.118 C 
HETATM   14  C16 UNL     1      71.504  53.545  -0.896  1.00  0.00     0.045 C 
ENDBRANCH   6   8
ENDBRANCH   3   6
ENDBRANCH   1   3
BRANCH   1  15
HETATM   15  C5  UNL     1      68.094  54.896  -2.226  1.00  0.00     0.133 C 
BRANCH  15  16
HETATM   16  C6  UNL     1      67.748  53.794  -3.202  1.00  0.00     0.020 C 
BRANCH  16  17
HETATM   17  C7  UNL     1      66.975  52.671  -2.526  1.00  0.00     0.002 C 
BRANCH  17  18
HETATM   18  C8  UNL     1      67.774  51.416  -2.778  1.00  0.00     0.000 C 
BRANCH  18  19
HETATM   19  C9  UNL     1      68.714  51.142  -1.642  1.00  0.00     0.004 C 
BRANCH  19  20
HETATM   20  C10 UNL     1      69.069  49.691  -1.602  1.00  0.00     0.035 C 
BRANCH  20  21
HETATM   21  C11 UNL     1      69.414  49.347  -0.187  1.00  0.00    -0.058 C 
HETATM   22  C12 UNL     1      69.063  48.152   0.271  1.00  0.00    -0.021 C 
HETATM   23  C13 UNL     1      69.407  47.812   1.679  1.00  0.00     0.055 C 
HETATM   24  C14 UNL     1      70.718  48.504   1.995  1.00  0.00     0.236 C 
HETATM   25  N4  UNL     1      70.482  49.919   1.916  1.00  0.00    -0.071 N 
HETATM   26  C15 UNL     1      70.123  50.361   0.606  1.00  0.00     0.266 C 
ATOM     27  H42 UNL     1      69.783  50.208   2.599  1.00  0.00     0.277 HD
ATOM     28  H41 UNL     1      71.286  50.440   2.265  1.00  0.00     0.277 HD
ENDBRANCH  20  21
ENDBRANCH  19  20
ENDBRANCH  18  19
ENDBRANCH  17  18
ENDBRANCH  16  17
ENDBRANCH  15  16
ENDBRANCH   1  15
TORSDOF 10
ENDMDL
MODEL 2
REMARK VINA RESULT: -6.997069731      1.035      1.394
REMARK  10 active torsions:
REMARK  status: ('A' for Active; 'I' for Inactive)
REMARK    1  A    between atoms: C4_5  and  N2_6 
REMARK    2  A    between atoms: N2_6  and  S1_8 
REMARK    3  A    between atoms: S1_8  and  N3_11 
REMARK    4  A    between atoms: N3_11  and  C5_13 
REMARK    5  A    between atoms: C5_13  and  C6_14 
REMARK    6  A    between atoms: C6_14  and  C7_15 
REMARK    7  A    between atoms: C7_15  and  C8_16 
REMARK    8  A    between atoms: C8_16  and  C9_17 
REMARK    9  A    between atoms: C9_17  and  C10_18 
REMARK   10  A    between atoms: C10_18  and  C11_19 
ROOT
HETATM    1  N3  UNL     1      67.913  55.567  -1.453  1.00  0.00    -0.303 N 
ATOM      2  H3  UNL     1      67.174  56.245  -1.636  1.00  0.00     0.173 HD
ENDROOT
BRANCH   1   3
HETATM    3  S1  UNL     1      68.918  55.583  -0.051  1.00  0.00     0.315 S 
HETATM    4  O1  UNL     1      70.031  56.571  -0.332  1.00  0.00    -0.183 OA
HETATM    5  O2  UNL     1      68.106  56.165   1.065  1.00  0.00    -0.183 OA
BRANCH   3   6
HETATM    6  N2  UNL     1      69.491  54.025   0.262  1.00  0.00    -0.298 N 
ATOM      7  H2  UNL     1      68.865  53.228   0.384  1.00  0.00     0.174 HD
BRANCH   6   8
HETATM    8  C4  UNL     1      70.919  53.899   0.345  1.00  0.00     0.097 C 
HETATM    9  C3  UNL     1      71.390  53.490   1.726  1.00  0.00     0.045 C 
HETATM   10  C2  UNL     1      72.867  53.890   1.789  1.00  0.00     0.118 C 
HETATM   11  N1  UNL     1      73.585  53.492   0.622  1.00  0.00    -0.416 N 
HETATM   12  C1  UNL     1      74.381  54.500   0.015  1.00  0.00     0.143 C 
HETATM   13  C17 UNL     1      72.915  52.605  -0.254  1.00  0.00     0.118 C 
HETATM   14  C16 UNL     1      71.527  52.978  -0.648  1.00  0.00     0.045 C 
ENDBRANCH   6   8
ENDBRANCH   3   6
ENDBRANCH   1   3
BRANCH   1  15
HETATM   15  C5  UNL     1      68.247  54.469  -2.339  1.00  0.00     0.133 C 
BRANCH  15  16
HETATM   16  C6  UNL     1      67.011  53.731  -2.803  1.00  0.00     0.020 C 
BRANCH  16  17
HETATM   17  C7  UNL     1      67.055  52.263  -2.404  1.00  0.00     0.002 C 
BRANCH  17  18
HETATM   18  C8  UNL     1      68.501  51.848  -2.531  1.00  0.00     0.000 C 
BRANCH  18  19
HETATM   19  C9  UNL     1      68.748  50.545  -1.830  1.00  0.00     0.004 C 
BRANCH  19  20
HETATM   20  C10 UNL     1      68.375  50.654  -0.388  1.00  0.00     0.035 C 
BRANCH  20  21
HETATM   21  C11 UNL     1      69.175  49.637   0.366  1.00  0.00    -0.058 C 
HETATM   22  C12 UNL     1      70.188  50.062   1.110  1.00  0.00    -0.021 C 
HETATM   23  C13 UNL     1      70.982  49.051   1.859  1.00  0.00     0.055 C 
HETATM   24  C14 UNL     1      70.027  47.942   2.257  1.00  0.00     0.236 C 
HETATM   25  N4  UNL     1      69.548  47.337   1.045  1.00  0.00    -0.071 N 
HETATM   26  C15 UNL     1      68.783  48.227   0.231  1.00  0.00     0.266 C 
ATOM     27  H42 UNL     1      70.319  46.933   0.513  1.00  0.00     0.277 HD
ATOM     28  H41 UNL     1      69.020  46.489   1.248  1.00  0.00     0.277 HD
ENDBRANCH  20  21
ENDBRANCH  19  20
ENDBRANCH  18  19
ENDBRANCH  17  18
ENDBRANCH  16  17
ENDBRANCH  15  16
ENDBRANCH   1  15
TORSDOF 10
ENDMDL
MODEL 3
REMARK VINA RESULT: -6.951591617      0.861      1.428
REMARK  10 active torsions:
REMARK  status: ('A' for Active; 'I' for Inactive)
REMARK    1  A    between atoms: C4_5  and  N2_6 
REMARK    2  A    between atoms: N2_6  and  S1_8 
REMARK    3  A    between atoms: S1_8  and  N3_11 
REMARK    4  A    between atoms: N3_11  and  C5_13 
REMARK    5  A    between atoms: C5_13  and  C6_14 
REMARK    6  A    between atoms: C6_14  and  C7_15 
REMARK    7  A    between atoms: C7_15  and  C8_16 
REMARK    8  A    between atoms: C8_16  and  C9_17 
REMARK    9  A    between atoms: C9_17  and  C10_18 
REMARK   10  A    between atoms: C10_18  and  C11_19 
ROOT
HETATM    1  N3  UNL     1      67.993  54.352  -0.744  1.00  0.00    -0.303 N 
ATOM      2  H3  UNL     1      67.372  53.582  -0.497  1.00  0.00     0.173 HD
ENDROOT
BRANCH   1   3
HETATM    3  S1  UNL     1      69.015  55.171   0.379  1.00  0.00     0.315 S 
HETATM    4  O1  UNL     1      68.161  56.229   1.046  1.00  0.00    -0.183 OA
HETATM    5  O2  UNL     1      69.376  54.183   1.446  1.00  0.00    -0.183 OA
BRANCH   3   6
HETATM    6  N2  UNL     1      70.350  55.820  -0.429  1.00  0.00    -0.298 N 
ATOM      7  H2  UNL     1      70.295  56.688  -0.962  1.00  0.00     0.174 HD
BRANCH   6   8
HETATM    8  C4  UNL     1      71.566  55.065  -0.313  1.00  0.00     0.097 C 
HETATM    9  C3  UNL     1      71.538  53.784  -1.122  1.00  0.00     0.045 C 
HETATM   10  C2  UNL     1      72.623  52.893  -0.512  1.00  0.00     0.118 C 
HETATM   11  N1  UNL     1      73.845  53.598  -0.299  1.00  0.00    -0.416 N 
HETATM   12  C1  UNL     1      74.423  53.454   0.990  1.00  0.00     0.143 C 
HETATM   13  C17 UNL     1      73.942  54.878  -0.895  1.00  0.00     0.118 C 
HETATM   14  C16 UNL     1      72.802  55.810  -0.661  1.00  0.00     0.045 C 
ENDBRANCH   6   8
ENDBRANCH   3   6
ENDBRANCH   1   3
BRANCH   1  15
HETATM   15  C5  UNL     1      68.126  54.893  -2.082  1.00  0.00     0.133 C 
BRANCH  15  16
HETATM   16  C6  UNL     1      67.729  53.882  -3.134  1.00  0.00     0.020 C 
BRANCH  16  17
HETATM   17  C7  UNL     1      66.967  52.713  -2.527  1.00  0.00     0.002 C 
BRANCH  17  18
HETATM   18  C8  UNL     1      67.777  51.483  -2.856  1.00  0.00     0.000 C 
BRANCH  18  19
HETATM   19  C9  UNL     1      68.742  51.165  -1.753  1.00  0.00     0.004 C 
BRANCH  19  20
HETATM   20  C10 UNL     1      68.922  49.687  -1.631  1.00  0.00     0.035 C 
BRANCH  20  21
HETATM   21  C11 UNL     1      69.274  49.387  -0.207  1.00  0.00    -0.058 C 
HETATM   22  C12 UNL     1      69.047  48.162   0.250  1.00  0.00    -0.021 C 
HETATM   23  C13 UNL     1      69.398  47.866   1.666  1.00  0.00     0.055 C 
HETATM   24  C14 UNL     1      70.618  48.700   2.005  1.00  0.00     0.236 C 
HETATM   25  N4  UNL     1      70.229  50.080   1.913  1.00  0.00    -0.071 N 
HETATM   26  C15 UNL     1      69.850  50.476   0.594  1.00  0.00     0.266 C 
ATOM     27  H42 UNL     1      69.488  50.292   2.581  1.00  0.00     0.277 HD
ATOM     28  H41 UNL     1      70.963  50.688   2.275  1.00  0.00     0.277 HD
ENDBRANCH  20  21
ENDBRANCH  19  20
ENDBRANCH  18  19
ENDBRANCH  17  18
ENDBRANCH  16  17
ENDBRANCH  15  16
ENDBRANCH   1  15
TORSDOF 10
ENDMDL
MODEL 4
REMARK VINA RESULT: -6.834771521      1.352      1.970
REMARK  10 active torsions:
REMARK  status: ('A' for Active; 'I' for Inactive)
REMARK    1  A    between atoms: C4_5  and  N2_6 
REMARK    2  A    between atoms: N2_6  and  S1_8 
REMARK    3  A    between atoms: S1_8  and  N3_11 
REMARK    4  A    between atoms: N3_11  and  C5_13 
REMARK    5  A    between atoms: C5_13  and  C6_14 
REMARK    6  A    between atoms: C6_14  and  C7_15 
REMARK    7  A    between atoms: C7_15  and  C8_16 
REMARK    8  A    between atoms: C8_16  and  C9_17 
REMARK    9  A    between atoms: C9_17  and  C10_18 
REMARK   10  A    between atoms: C10_18  and  C11_19 
ROOT
HETATM    1  N3  UNL     1      67.677  54.248  -1.213  1.00  0.00    -0.303 N 
ATOM      2  H3  UNL     1      67.172  53.686  -0.528  1.00  0.00     0.173 HD
ENDROOT
BRANCH   1   3
HETATM    3  S1  UNL     1      68.724  55.558  -0.808  1.00  0.00     0.315 S 
HETATM    4  O1  UNL     1      68.290  56.734  -1.658  1.00  0.00    -0.183 OA
HETATM    5  O2  UNL     1      68.432  55.932   0.613  1.00  0.00    -0.183 OA
BRANCH   3   6
HETATM    6  N2  UNL     1      70.332  55.113  -1.079  1.00  0.00    -0.298 N 
ATOM      7  H2  UNL     1      70.743  55.097  -2.013  1.00  0.00     0.174 HD
BRANCH   6   8
HETATM    8  C4  UNL     1      71.079  54.758   0.095  1.00  0.00     0.097 C 
HETATM    9  C3  UNL     1      70.757  53.364   0.593  1.00  0.00     0.045 C 
HETATM   10  C2  UNL     1      71.208  53.339   2.056  1.00  0.00     0.118 C 
HETATM   11  N1  UNL     1      72.509  53.897   2.230  1.00  0.00    -0.416 N 
HETATM   12  C1  UNL     1      72.631  54.865   3.262  1.00  0.00     0.143 C 
HETATM   13  C17 UNL     1      73.251  54.137   1.049  1.00  0.00     0.118 C 
HETATM   14  C16 UNL     1      72.552  54.878  -0.039  1.00  0.00     0.045 C 
ENDBRANCH   6   8
ENDBRANCH   3   6
ENDBRANCH   1   3
BRANCH   1  15
HETATM   15  C5  UNL     1      67.605  54.043  -2.645  1.00  0.00     0.133 C 
BRANCH  15  16
HETATM   16  C6  UNL     1      67.866  52.600  -3.016  1.00  0.00     0.020 C 
BRANCH  16  17
HETATM   17  C7  UNL     1      68.390  51.804  -1.829  1.00  0.00     0.002 C 
BRANCH  17  18
HETATM   18  C8  UNL     1      68.410  50.364  -2.280  1.00  0.00     0.000 C 
BRANCH  18  19
HETATM   19  C9  UNL     1      69.317  49.543  -1.413  1.00  0.00     0.004 C 
BRANCH  19  20
HETATM   20  C10 UNL     1      68.533  48.867  -0.336  1.00  0.00     0.035 C 
BRANCH  20  21
HETATM   21  C11 UNL     1      69.447  48.666   0.833  1.00  0.00    -0.058 C 
HETATM   22  C12 UNL     1      69.598  47.435   1.306  1.00  0.00    -0.021 C 
HETATM   23  C13 UNL     1      70.506  47.237   2.468  1.00  0.00     0.055 C 
HETATM   24  C14 UNL     1      71.625  48.252   2.336  1.00  0.00     0.236 C 
HETATM   25  N4  UNL     1      71.030  49.556   2.442  1.00  0.00    -0.071 N 
HETATM   26  C15 UNL     1      70.119  49.851   1.382  1.00  0.00     0.266 C 
ATOM     27  H42 UNL     1      70.581  49.676   3.350  1.00  0.00     0.277 HD
ATOM     28  H41 UNL     1      71.748  50.276   2.512  1.00  0.00     0.277 HD
ENDBRANCH  20  21
ENDBRANCH  19  20
ENDBRANCH  18  19
ENDBRANCH  17  18
ENDBRANCH  16  17
ENDBRANCH  15  16
ENDBRANCH   1  15
TORSDOF 10
ENDMDL
MODEL 5
REMARK VINA RESULT: -6.797820820      1.064      1.593
REMARK  10 active torsions:
REMARK  status: ('A' for Active; 'I' for Inactive)
REMARK    1  A    between atoms: C4_5  and  N2_6 
REMARK    2  A    between atoms: N2_6  and  S1_8 
REMARK    3  A    between atoms: S1_8  and  N3_11 
REMARK    4  A    between atoms: N3_11  and  C5_13 
REMARK    5  A    between atoms: C5_13  and  C6_14 
REMARK    6  A    between atoms: C6_14  and  C7_15 
REMARK    7  A    between atoms: C7_15  and  C8_16 
REMARK    8  A    between atoms: C8_16  and  C9_17 
REMARK    9  A    between atoms: C9_17  and  C10_18 
REMARK   10  A    between atoms: C10_18  and  C11_19 
ROOT
HETATM    1  N3  UNL     1      68.443  54.097  -0.611  1.00  0.00    -0.303 N 
ATOM      2  H3  UNL     1      68.271  53.200  -0.157  1.00  0.00     0.173 HD
ENDROOT
BRANCH   1   3
HETATM    3  S1  UNL     1      69.122  55.471   0.182  1.00  0.00     0.315 S 
HETATM    4  O1  UNL     1      69.470  56.466  -0.904  1.00  0.00    -0.183 OA
HETATM    5  O2  UNL     1      68.027  56.095   0.994  1.00  0.00    -0.183 OA
BRANCH   3   6
HETATM    6  N2  UNL     1      70.465  55.001   1.094  1.00  0.00    -0.298 N 
ATOM      7  H2  UNL     1      70.692  55.431   1.991  1.00  0.00     0.174 HD
BRANCH   6   8
HETATM    8  C4  UNL     1      71.263  53.955   0.520  1.00  0.00     0.097 C 
HETATM    9  C3  UNL     1      72.300  54.480  -0.454  1.00  0.00     0.045 C 
HETATM   10  C2  UNL     1      72.687  53.280  -1.323  1.00  0.00     0.118 C 
HETATM   11  N1  UNL     1      72.937  52.109  -0.548  1.00  0.00    -0.416 N 
HETATM   12  C1  UNL     1      72.279  50.929  -0.985  1.00  0.00     0.143 C 
HETATM   13  C17 UNL     1      73.037  52.294   0.852  1.00  0.00     0.118 C 
HETATM   14  C16 UNL     1      71.947  53.076   1.501  1.00  0.00     0.045 C 
ENDBRANCH   6   8
ENDBRANCH   3   6
ENDBRANCH   1   3
BRANCH   1  15
HETATM   15  C5  UNL     1      68.149  54.374  -2.003  1.00  0.00     0.133 C 
BRANCH  15  16
HETATM   16  C6  UNL     1      68.453  53.184  -2.885  1.00  0.00     0.020 C 
BRANCH  16  17
HETATM   17  C7  UNL     1      67.536  52.010  -2.575  1.00  0.00     0.002 C 
BRANCH  17  18
HETATM   18  C8  UNL     1      68.449  50.842  -2.292  1.00  0.00     0.000 C 
BRANCH  18  19
HETATM   19  C9  UNL     1      68.547  50.583  -0.819  1.00  0.00     0.004 C 
BRANCH  19  20
HETATM   20  C10 UNL     1      68.452  49.118  -0.543  1.00  0.00     0.035 C 
BRANCH  20  21
HETATM   21  C11 UNL     1      69.287  48.827   0.665  1.00  0.00    -0.058 C 
HETATM   22  C12 UNL     1      69.473  47.560   1.009  1.00  0.00    -0.021 C 
HETATM   23  C13 UNL     1      70.303  47.273   2.210  1.00  0.00     0.055 C 
HETATM   24  C14 UNL     1      71.369  48.349   2.281  1.00  0.00     0.236 C 
HETATM   25  N4  UNL     1      70.696  49.602   2.483  1.00  0.00    -0.071 N 
HETATM   26  C15 UNL     1      69.849  49.973   1.394  1.00  0.00     0.266 C 
ATOM     27  H42 UNL     1      70.175  49.595   3.360  1.00  0.00     0.277 HD
ATOM     28  H41 UNL     1      71.365  50.343   2.689  1.00  0.00     0.277 HD
ENDBRANCH  20  21
ENDBRANCH  19  20
ENDBRANCH  18  19
ENDBRANCH  17  18
ENDBRANCH  16  17
ENDBRANCH  15  16
ENDBRANCH   1  15
TORSDOF 10
ENDMDL
