MODEL 1
REMARK VINA RESULT: -6.976238607      0.000      0.000
REMARK  12 active torsions:
REMARK  status: ('A' for Active; 'I' for Inactive)
REMARK    1  A    between atoms: N2_3  and  S1_5 
REMARK    2  A    between atoms: S1_5  and  N3_7 
REMARK    3  A    between atoms: S1_5  and  C9_21 
REMARK    4  A    between atoms: N3_7  and  C2_9 
REMARK    5  A    between atoms: C2_9  and  C3_10 
REMARK    6  A    between atoms: C3_10  and  O2_11 
REMARK    7  A    between atoms: C3_10  and  C4_13 
REMARK    8  A    between atoms: C4_13  and  N4_14 
REMARK    9  A    between atoms: N4_14  and  C5_17 
REMARK   10  A    between atoms: C5_17  and  C6_18 
REMARK   11  A    between atoms: C13_25  and  C14_26 
REMARK   12  A    between atoms: C15_27  and  C16_28 
ROOT
HETATM    1  N1  UNL     1      73.934  51.197  -1.567  1.00  0.00    -0.171 NA
HETATM    2  C1  UNL     1      73.294  51.500  -0.656  1.00  0.00     0.191 C 
HETATM    3  N2  UNL     1      72.512  51.852   0.450  1.00  0.00    -0.234 N 
ATOM      4  H2  UNL     1      72.916  51.969   1.379  1.00  0.00     0.190 HD
ENDROOT
BRANCH   3   5
HETATM    5  S1  UNL     1      70.965  52.061   0.176  1.00  0.00     0.147 S 
HETATM    6  O1  UNL     1      70.733  52.612  -1.200  1.00  0.00    -0.222 OA
BRANCH   5   7
HETATM    7  N3  UNL     1      70.406  53.220   1.316  1.00  0.00    -0.329 N 
ATOM      8  H3  UNL     1      70.884  53.498   2.173  1.00  0.00     0.171 HD
BRANCH   7   9
HETATM    9  C2  UNL     1      69.146  53.730   0.849  1.00  0.00     0.164 C 
BRANCH   9  10
HETATM   10  C3  UNL     1      69.098  55.222   0.728  1.00  0.00     0.162 C 
BRANCH  10  11
HETATM   11  O2  UNL     1      67.986  55.699   1.384  1.00  0.00    -0.392 OA
ATOM     12  H2  UNL     1      67.380  56.066   0.752  1.00  0.00     0.210 HD
ENDBRANCH  10  11
BRANCH  10  13
HETATM   13  C4  UNL     1      69.057  55.547  -0.764  1.00  0.00     0.265 C 
BRANCH  13  14
HETATM   14  N4  UNL     1      67.715  55.364  -1.292  1.00  0.00    -0.072 N 
ATOM     15  H42 UNL     1      67.212  54.622  -0.806  1.00  0.00     0.277 HD
ATOM     16  H41 UNL     1      67.102  56.143  -1.052  1.00  0.00     0.277 HD
BRANCH  14  17
HETATM   17  C5  UNL     1      67.766  55.140  -2.705  1.00  0.00     0.237 C 
BRANCH  17  18
HETATM   18  C6  UNL     1      67.122  53.842  -3.075  1.00  0.00     0.011 A 
HETATM   19  C7  UNL     1      68.022  52.662  -3.348  1.00  0.00     0.007 A 
HETATM   20  C8  UNL     1      67.196  52.724  -2.104  1.00  0.00     0.007 A 
ENDBRANCH  17  18
ENDBRANCH  14  17
ENDBRANCH  13  14
ENDBRANCH  10  13
ENDBRANCH   9  10
ENDBRANCH   7   9
ENDBRANCH   5   7
BRANCH   5  21
HETATM   21  C9  UNL     1      70.129  50.541   0.298  1.00  0.00     0.059 A 
HETATM   22  C10 UNL     1      69.302  50.059  -0.691  1.00  0.00     0.023 A 
HETATM   23  C11 UNL     1      68.653  48.852  -0.562  1.00  0.00     0.002 A 
HETATM   24  C12 UNL     1      68.860  48.115   0.618  1.00  0.00     0.011 A 
HETATM   25  C13 UNL     1      69.673  48.534   1.646  1.00  0.00    -0.035 A 
HETATM   26  C19 UNL     1      70.294  49.789   1.418  1.00  0.00     0.035 A 
BRANCH  25  27
HETATM   27  C14 UNL     1      69.971  47.808   2.836  1.00  0.00     0.007 C 
HETATM   28  C15 UNL     1      71.057  47.303   3.271  1.00  0.00    -0.021 C 
BRANCH  28  29
HETATM   29  C16 UNL     1      72.384  47.341   2.628  1.00  0.00     0.008 A 
HETATM   30  C17 UNL     1      73.434  46.580   3.408  1.00  0.00     0.009 A 
HETATM   31  C18 UNL     1      72.956  46.047   2.089  1.00  0.00     0.009 A 
ENDBRANCH  28  29
ENDBRANCH  25  27
ENDBRANCH   5  21
ENDBRANCH   3   5
TORSDOF 12
ENDMDL
MODEL 2
REMARK VINA RESULT: -6.862037504      1.980      3.117
REMARK  12 active torsions:
REMARK  status: ('A' for Active; 'I' for Inactive)
REMARK    1  A    between atoms: N2_3  and  S1_5 
REMARK    2  A    between atoms: S1_5  and  N3_7 
REMARK    3  A    between atoms: S1_5  and  C9_21 
REMARK    4  A    between atoms: N3_7  and  C2_9 
REMARK    5  A    between atoms: C2_9  and  C3_10 
REMARK    6  A    between atoms: C3_10  and  O2_11 
REMARK    7  A    between atoms: C3_10  and  C4_13 
REMARK    8  A    between atoms: C4_13  and  N4_14 
REMARK    9  A    between atoms: N4_14  and  C5_17 
REMARK   10  A    between atoms: C5_17  and  C6_18 
REMARK   11  A    between atoms: C13_25  and  C14_26 
REMARK   12  A    between atoms: C15_27  and  C16_28 
ROOT
HETATM    1  N1  UNL     1      68.456  55.081   0.772  1.00  0.00    -0.171 NA
HETATM    2  C1  UNL     1      68.890  54.029   0.972  1.00  0.00     0.191 C 
HETATM    3  N2  UNL     1      69.428  52.760   1.207  1.00  0.00    -0.234 N 
ATOM      4  H2  UNL     1      69.786  52.488   2.123  1.00  0.00     0.190 HD
ENDROOT
BRANCH   3   5
HETATM    5  S1  UNL     1      69.451  51.769  -0.029  1.00  0.00     0.147 S 
HETATM    6  O1  UNL     1      70.707  51.941  -0.831  1.00  0.00    -0.222 OA
BRANCH   5   7
HETATM    7  N3  UNL     1      68.118  52.186  -1.032  1.00  0.00    -0.329 N 
ATOM      8  H3  UNL     1      67.158  52.334  -0.721  1.00  0.00     0.171 HD
BRANCH   7   9
HETATM    9  C2  UNL     1      68.594  52.289  -2.383  1.00  0.00     0.164 C 
BRANCH   9  10
HETATM   10  C3  UNL     1      68.582  53.683  -2.931  1.00  0.00     0.162 C 
BRANCH  10  11
HETATM   11  O2  UNL     1      69.510  54.446  -2.259  1.00  0.00    -0.392 OA
ATOM     12  H2  UNL     1      70.127  54.812  -2.881  1.00  0.00     0.210 HD
ENDBRANCH  10  11
BRANCH  10  13
HETATM   13  C4  UNL     1      67.165  54.223  -2.745  1.00  0.00     0.265 C 
BRANCH  13  14
HETATM   14  N4  UNL     1      67.198  55.595  -2.268  1.00  0.00    -0.072 N 
ATOM     15  H42 UNL     1      67.014  55.655  -1.267  1.00  0.00     0.277 HD
ATOM     16  H41 UNL     1      68.143  55.978  -2.271  1.00  0.00     0.277 HD
BRANCH  14  17
HETATM   17  C5  UNL     1      66.292  56.403  -3.027  1.00  0.00     0.237 C 
BRANCH  17  18
HETATM   18  C6  UNL     1      66.826  56.683  -4.396  1.00  0.00     0.011 A 
HETATM   19  C7  UNL     1      65.831  56.889  -5.511  1.00  0.00     0.007 A 
HETATM   20  C8  UNL     1      66.617  58.036  -4.964  1.00  0.00     0.007 A 
ENDBRANCH  17  18
ENDBRANCH  14  17
ENDBRANCH  13  14
ENDBRANCH  10  13
ENDBRANCH   9  10
ENDBRANCH   7   9
ENDBRANCH   5   7
BRANCH   5  21
HETATM   21  C9  UNL     1      69.386  50.123   0.526  1.00  0.00     0.059 A 
HETATM   22  C10 UNL     1      68.587  49.166  -0.057  1.00  0.00     0.023 A 
HETATM   23  C11 UNL     1      68.557  47.871   0.410  1.00  0.00     0.002 A 
HETATM   24  C12 UNL     1      69.373  47.547   1.508  1.00  0.00     0.011 A 
HETATM   25  C13 UNL     1      70.197  48.450   2.139  1.00  0.00    -0.035 A 
HETATM   26  C19 UNL     1      70.155  49.756   1.586  1.00  0.00     0.035 A 
BRANCH  25  27
HETATM   27  C14 UNL     1      71.090  48.171   3.214  1.00  0.00     0.007 C 
HETATM   28  C15 UNL     1      72.100  47.398   3.298  1.00  0.00    -0.021 C 
BRANCH  28  29
HETATM   29  C16 UNL     1      72.658  46.536   2.241  1.00  0.00     0.008 A 
HETATM   30  C17 UNL     1      74.143  46.749   2.035  1.00  0.00     0.009 A 
HETATM   31  C18 UNL     1      73.652  45.466   2.639  1.00  0.00     0.009 A 
ENDBRANCH  28  29
ENDBRANCH  25  27
ENDBRANCH   5  21
ENDBRANCH   3   5
TORSDOF 12
ENDMDL
MODEL 3
REMARK VINA RESULT: -6.757667355      2.117      4.777
REMARK  12 active torsions:
REMARK  status: ('A' for Active; 'I' for Inactive)
REMARK    1  A    between atoms: N2_3  and  S1_5 
REMARK    2  A    between atoms: S1_5  and  N3_7 
REMARK    3  A    between atoms: S1_5  and  C9_21 
REMARK    4  A    between atoms: N3_7  and  C2_9 
REMARK    5  A    between atoms: C2_9  and  C3_10 
REMARK    6  A    between atoms: C3_10  and  O2_11 
REMARK    7  A    between atoms: C3_10  and  C4_13 
REMARK    8  A    between atoms: C4_13  and  N4_14 
REMARK    9  A    between atoms: N4_14  and  C5_17 
REMARK   10  A    between atoms: C5_17  and  C6_18 
REMARK   11  A    between atoms: C13_25  and  C14_26 
REMARK   12  A    between atoms: C15_27  and  C16_28 
ROOT
HETATM    1  N1  UNL     1      67.564  57.096  -2.512  1.00  0.00    -0.171 NA
HETATM    2  C1  UNL     1      67.535  55.988  -2.189  1.00  0.00     0.191 C 
HETATM    3  N2  UNL     1      67.495  54.651  -1.782  1.00  0.00    -0.234 N 
ATOM      4  H2  UNL     1      66.750  54.020  -2.079  1.00  0.00     0.190 HD
ENDROOT
BRANCH   3   5
HETATM    5  S1  UNL     1      68.672  54.170  -0.835  1.00  0.00     0.147 S 
HETATM    6  O1  UNL     1      68.328  54.403   0.607  1.00  0.00    -0.222 OA
BRANCH   5   7
HETATM    7  N3  UNL     1      70.046  55.130  -1.217  1.00  0.00    -0.329 N 
ATOM      8  H3  UNL     1      70.376  55.358  -2.154  1.00  0.00     0.171 HD
BRANCH   7   9
HETATM    9  C2  UNL     1      70.648  55.554   0.017  1.00  0.00     0.164 C 
BRANCH   9  10
HETATM   10  C3  UNL     1      72.114  55.845  -0.087  1.00  0.00     0.162 C 
BRANCH  10  11
HETATM   11  O2  UNL     1      72.337  56.698  -1.143  1.00  0.00    -0.392 OA
ATOM     12  H2  UNL     1      72.989  56.321  -1.722  1.00  0.00     0.210 HD
ENDBRANCH  10  11
BRANCH  10  13
HETATM   13  C4  UNL     1      72.822  54.506  -0.283  1.00  0.00     0.265 C 
BRANCH  13  14
HETATM   14  N4  UNL     1      73.469  54.452  -1.583  1.00  0.00    -0.072 N 
ATOM     15  H42 UNL     1      72.791  54.416  -2.344  1.00  0.00     0.277 HD
ATOM     16  H41 UNL     1      73.916  55.337  -1.823  1.00  0.00     0.277 HD
BRANCH  14  17
HETATM   17  C5  UNL     1      74.388  53.357  -1.633  1.00  0.00     0.237 C 
BRANCH  17  18
HETATM   18  C6  UNL     1      73.820  52.137  -0.981  1.00  0.00     0.011 A 
HETATM   19  C7  UNL     1      74.300  50.791  -1.465  1.00  0.00     0.007 A 
HETATM   20  C8  UNL     1      74.717  51.318  -0.131  1.00  0.00     0.007 A 
ENDBRANCH  17  18
ENDBRANCH  14  17
ENDBRANCH  13  14
ENDBRANCH  10  13
ENDBRANCH   9  10
ENDBRANCH   7   9
ENDBRANCH   5   7
BRANCH   5  21
HETATM   21  C9  UNL     1      68.957  52.469  -1.056  1.00  0.00     0.059 A 
HETATM   22  C10 UNL     1      68.275  51.708  -1.978  1.00  0.00     0.023 A 
HETATM   23  C11 UNL     1      68.524  50.363  -2.126  1.00  0.00     0.002 A 
HETATM   24  C12 UNL     1      69.504  49.779  -1.304  1.00  0.00     0.011 A 
HETATM   25  C13 UNL     1      70.225  50.478  -0.363  1.00  0.00    -0.035 A 
HETATM   26  C19 UNL     1      69.894  51.855  -0.286  1.00  0.00     0.035 A 
BRANCH  25  27
HETATM   27  C14 UNL     1      71.271  49.960   0.455  1.00  0.00     0.007 C 
HETATM   28  C15 UNL     1      71.258  49.135   1.426  1.00  0.00    -0.021 C 
BRANCH  28  29
HETATM   29  C16 UNL     1      70.088  48.443   1.998  1.00  0.00     0.008 A 
HETATM   30  C17 UNL     1      70.223  46.935   1.959  1.00  0.00     0.009 A 
HETATM   31  C18 UNL     1      70.277  47.653   3.275  1.00  0.00     0.009 A 
ENDBRANCH  28  29
ENDBRANCH  25  27
ENDBRANCH   5  21
ENDBRANCH   3   5
TORSDOF 12
ENDMDL
MODEL 4
REMARK VINA RESULT: -6.749333296      1.902      2.492
REMARK  12 active torsions:
REMARK  status: ('A' for Active; 'I' for Inactive)
REMARK    1  A    between atoms: N2_3  and  S1_5 
REMARK    2  A    between atoms: S1_5  and  N3_7 
REMARK    3  A    between atoms: S1_5  and  C9_21 
REMARK    4  A    between atoms: N3_7  and  C2_9 
REMARK    5  A    between atoms: C2_9  and  C3_10 
REMARK    6  A    between atoms: C3_10  and  O2_11 
REMARK    7  A    between atoms: C3_10  and  C4_13 
REMARK    8  A    between atoms: C4_13  and  N4_14 
REMARK    9  A    between atoms: N4_14  and  C5_17 
REMARK   10  A    between atoms: C5_17  and  C6_18 
REMARK   11  A    between atoms: C13_25  and  C14_26 
REMARK   12  A    between atoms: C15_27  and  C16_28 
ROOT
HETATM    1  N1  UNL     1      72.959  53.324   4.449  1.00  0.00    -0.171 NA
HETATM    2  C1  UNL     1      72.193  53.365   3.586  1.00  0.00     0.191 C 
HETATM    3  N2  UNL     1      71.261  53.400   2.544  1.00  0.00    -0.234 N 
ATOM      4  H2  UNL     1      70.379  53.906   2.627  1.00  0.00     0.190 HD
ENDROOT
BRANCH   3   5
HETATM    5  S1  UNL     1      71.652  52.610   1.226  1.00  0.00     0.147 S 
HETATM    6  O1  UNL     1      72.987  51.942   1.378  1.00  0.00    -0.222 OA
BRANCH   5   7
HETATM    7  N3  UNL     1      71.778  53.770  -0.036  1.00  0.00    -0.329 N 
ATOM      8  H3  UNL     1      72.070  53.583  -0.995  1.00  0.00     0.171 HD
BRANCH   7   9
HETATM    9  C2  UNL     1      71.401  55.049   0.497  1.00  0.00     0.164 C 
BRANCH   9  10
HETATM   10  C3  UNL     1      70.377  55.774  -0.321  1.00  0.00     0.162 C 
BRANCH  10  11
HETATM   11  O2  UNL     1      70.729  57.100  -0.425  1.00  0.00    -0.392 OA
ATOM     12  H2  UNL     1      70.137  57.539  -1.025  1.00  0.00     0.210 HD
ENDBRANCH  10  11
BRANCH  10  13
HETATM   13  C4  UNL     1      69.035  55.600   0.388  1.00  0.00     0.265 C 
BRANCH  13  14
HETATM   14  N4  UNL     1      68.052  55.017  -0.509  1.00  0.00    -0.072 N 
ATOM     15  H42 UNL     1      67.595  54.204  -0.097  1.00  0.00     0.277 HD
ATOM     16  H41 UNL     1      67.231  55.613  -0.615  1.00  0.00     0.277 HD
BRANCH  14  17
HETATM   17  C5  UNL     1      68.655  54.709  -1.770  1.00  0.00     0.237 C 
BRANCH  17  18
HETATM   18  C6  UNL     1      67.648  54.188  -2.744  1.00  0.00     0.011 A 
HETATM   19  C7  UNL     1      67.973  52.912  -3.480  1.00  0.00     0.007 A 
HETATM   20  C8  UNL     1      66.934  52.933  -2.407  1.00  0.00     0.007 A 
ENDBRANCH  17  18
ENDBRANCH  14  17
ENDBRANCH  13  14
ENDBRANCH  10  13
ENDBRANCH   9  10
ENDBRANCH   7   9
ENDBRANCH   5   7
BRANCH   5  21
HETATM   21  C9  UNL     1      70.467  51.382   0.895  1.00  0.00     0.059 A 
HETATM   22  C10 UNL     1      69.262  51.648   0.285  1.00  0.00     0.023 A 
HETATM   23  C11 UNL     1      68.345  50.652   0.038  1.00  0.00     0.002 A 
HETATM   24  C12 UNL     1      68.673  49.341   0.429  1.00  0.00     0.011 A 
HETATM   25  C13 UNL     1      69.858  49.002   1.041  1.00  0.00    -0.035 A 
HETATM   26  C19 UNL     1      70.735  50.097   1.252  1.00  0.00     0.035 A 
BRANCH  25  27
HETATM   27  C14 UNL     1      70.275  47.689   1.404  1.00  0.00     0.007 C 
HETATM   28  C15 UNL     1      70.439  47.135   2.540  1.00  0.00    -0.021 C 
BRANCH  28  29
HETATM   29  C16 UNL     1      70.222  47.735   3.869  1.00  0.00     0.008 A 
HETATM   30  C17 UNL     1      70.938  46.988   4.974  1.00  0.00     0.009 A 
HETATM   31  C18 UNL     1      71.405  48.358   4.577  1.00  0.00     0.009 A 
ENDBRANCH  28  29
ENDBRANCH  25  27
ENDBRANCH   5  21
ENDBRANCH   3   5
TORSDOF 12
ENDMDL
MODEL 5
REMARK VINA RESULT: -6.711409082      2.040      5.584
REMARK  12 active torsions:
REMARK  status: ('A' for Active; 'I' for Inactive)
REMARK    1  A    between atoms: N2_3  and  S1_5 
REMARK    2  A    between atoms: S1_5  and  N3_7 
REMARK    3  A    between atoms: S1_5  and  C9_21 
REMARK    4  A    between atoms: N3_7  and  C2_9 
REMARK    5  A    between atoms: C2_9  and  C3_10 
REMARK    6  A    between atoms: C3_10  and  O2_11 
REMARK    7  A    between atoms: C3_10  and  C4_13 
REMARK    8  A    between atoms: C4_13  and  N4_14 
REMARK    9  A    between atoms: N4_14  and  C5_17 
REMARK   10  A    between atoms: C5_17  and  C6_18 
REMARK   11  A    between atoms: C13_25  and  C14_26 
REMARK   12  A    between atoms: C15_27  and  C16_28 
ROOT
HETATM    1  N1  UNL     1      67.879  55.910   1.183  1.00  0.00    -0.171 NA
HETATM    2  C1  UNL     1      68.823  55.895   0.519  1.00  0.00     0.191 C 
HETATM    3  N2  UNL     1      69.959  55.871  -0.298  1.00  0.00    -0.234 N 
ATOM      4  H2  UNL     1      70.308  56.710  -0.760  1.00  0.00     0.190 HD
ENDROOT
BRANCH   3   5
HETATM    5  S1  UNL     1      70.672  54.465  -0.464  1.00  0.00     0.147 S 
HETATM    6  O1  UNL     1      71.040  53.889   0.872  1.00  0.00    -0.222 OA
BRANCH   5   7
HETATM    7  N3  UNL     1      72.124  54.739  -1.343  1.00  0.00    -0.329 N 
ATOM      8  H3  UNL     1      72.231  55.361  -2.144  1.00  0.00     0.171 HD
BRANCH   7   9
HETATM    9  C2  UNL     1      73.160  53.939  -0.751  1.00  0.00     0.164 C 
BRANCH   9  10
HETATM   10  C3  UNL     1      74.390  53.809  -1.596  1.00  0.00     0.162 C 
BRANCH  10  11
HETATM   11  O2  UNL     1      74.058  53.997  -2.919  1.00  0.00    -0.392 OA
ATOM     12  H2  UNL     1      74.133  53.172  -3.383  1.00  0.00     0.210 HD
ENDBRANCH  10  11
BRANCH  10  13
HETATM   13  C4  UNL     1      74.956  52.413  -1.348  1.00  0.00     0.265 C 
BRANCH  13  14
HETATM   14  N4  UNL     1      73.972  51.394  -1.676  1.00  0.00    -0.072 N 
ATOM     15  H42 UNL     1      73.024  51.770  -1.688  1.00  0.00     0.277 HD
ATOM     16  H41 UNL     1      74.032  51.107  -2.654  1.00  0.00     0.277 HD
BRANCH  14  17
HETATM   17  C5  UNL     1      74.096  50.282  -0.784  1.00  0.00     0.237 C 
BRANCH  17  18
HETATM   18  C6  UNL     1      72.918  50.183   0.131  1.00  0.00     0.011 A 
HETATM   19  C7  UNL     1      73.085  49.405   1.413  1.00  0.00     0.007 A 
HETATM   20  C8  UNL     1      72.981  50.895   1.430  1.00  0.00     0.007 A 
ENDBRANCH  17  18
ENDBRANCH  14  17
ENDBRANCH  13  14
ENDBRANCH  10  13
ENDBRANCH   9  10
ENDBRANCH   7   9
ENDBRANCH   5   7
BRANCH   5  21
HETATM   21  C9  UNL     1      69.605  53.346  -1.260  1.00  0.00     0.059 A 
HETATM   22  C10 UNL     1      68.497  53.745  -1.971  1.00  0.00     0.023 A 
HETATM   23  C11 UNL     1      67.672  52.832  -2.589  1.00  0.00     0.002 A 
HETATM   24  C12 UNL     1      67.993  51.468  -2.474  1.00  0.00     0.011 A 
HETATM   25  C13 UNL     1      69.085  50.998  -1.781  1.00  0.00    -0.035 A 
HETATM   26  C19 UNL     1      69.871  52.015  -1.180  1.00  0.00     0.035 A 
BRANCH  25  27
HETATM   27  C14 UNL     1      69.499  49.639  -1.679  1.00  0.00     0.007 C 
HETATM   28  C15 UNL     1      69.380  48.784  -0.740  1.00  0.00    -0.021 C 
BRANCH  28  29
HETATM   29  C16 UNL     1      68.735  48.978   0.572  1.00  0.00     0.008 A 
HETATM   30  C17 UNL     1      69.327  48.097   1.651  1.00  0.00     0.009 A 
HETATM   31  C18 UNL     1      69.557  49.579   1.692  1.00  0.00     0.009 A 
ENDBRANCH  28  29
ENDBRANCH  25  27
ENDBRANCH   5  21
ENDBRANCH   3   5
TORSDOF 12
ENDMDL
