MODEL 1
REMARK VINA RESULT: -6.942838571      0.000      0.000
REMARK  5 active torsions:
REMARK  status: ('A' for Active; 'I' for Inactive)
REMARK    1  A    between atoms: N1_2  and  C2_5 
REMARK    2  A    between atoms: C2_5  and  C3_6 
REMARK    3  A    between atoms: C2_5  and  N3_17 
REMARK    4  A    between atoms: C5_8  and  O1_9 
REMARK    5  A    between atoms: N2_11  and  C6_12 
ROOT
HETATM    1  C3  UNL     1     -37.613  54.796   8.214  1.00  0.00     0.034 A 
HETATM    2  C4  UNL     1     -37.093  54.867   9.516  1.00  0.00     0.070 A 
HETATM    3  C5  UNL     1     -36.543  53.668   9.833  1.00  0.00     0.144 A 
HETATM    4  N2  UNL     1     -36.683  52.828   8.796  1.00  0.00    -0.314 N 
HETATM    5  C9  UNL     1     -37.336  53.518   7.808  1.00  0.00     0.118 A 
HETATM    6 CL1  UNL     1     -37.736  52.827   6.269  1.00  0.00    -0.064 Cl
ENDROOT
BRANCH   1   7
HETATM    7  C2  UNL     1     -38.287  55.921   7.551  1.00  0.00     0.322 C 
BRANCH   7   8
HETATM    8  N1  UNL     1     -39.080  56.687   8.521  1.00  0.00    -0.054 N 
HETATM    9  C1  UNL     1     -40.348  55.967   8.759  1.00  0.00     0.269 C 
ATOM     10  H12 UNL     1     -39.227  57.654   8.232  1.00  0.00     0.279 HD
ATOM     11  H11 UNL     1     -38.569  56.875   9.383  1.00  0.00     0.279 HD
ENDBRANCH   7   8
BRANCH   7  12
HETATM   12  N3  UNL     1     -37.522  56.794   6.785  1.00  0.00    -0.362 N 
HETATM   13  C10 UNL     1     -37.048  56.442   5.510  1.00  0.00     0.124 C 
HETATM   14  C11 UNL     1     -36.153  57.645   5.151  1.00  0.00     0.025 C 
HETATM   15  C12 UNL     1     -36.525  58.745   6.122  1.00  0.00     0.046 C 
HETATM   16  C13 UNL     1     -37.743  58.186   6.829  1.00  0.00     0.060 C 
ENDBRANCH   7  12
ENDBRANCH   1   7
BRANCH   3  17
HETATM   17  O1  UNL     1     -35.935  53.420  11.081  1.00  0.00    -0.346 OA
ATOM     18  H1  UNL     1     -35.013  53.586  11.241  1.00  0.00     0.219 HD
ENDBRANCH   3  17
BRANCH   4  19
HETATM   19  C6  UNL     1     -36.203  51.480   8.819  1.00  0.00     0.085 C 
HETATM   20  C7  UNL     1     -36.953  50.708   9.893  1.00  0.00     0.032 C 
HETATM   21  C8  UNL     1     -34.744  51.315   9.097  1.00  0.00     0.032 C 
ENDBRANCH   4  19
TORSDOF 5
ENDMDL
MODEL 2
REMARK VINA RESULT: -6.873889294      1.895      2.491
REMARK  5 active torsions:
REMARK  status: ('A' for Active; 'I' for Inactive)
REMARK    1  A    between atoms: N1_2  and  C2_5 
REMARK    2  A    between atoms: C2_5  and  C3_6 
REMARK    3  A    between atoms: C2_5  and  N3_17 
REMARK    4  A    between atoms: C5_8  and  O1_9 
REMARK    5  A    between atoms: N2_11  and  C6_12 
ROOT
HETATM    1  C3  UNL     1     -38.330  56.302   7.128  1.00  0.00     0.034 A 
HETATM    2  C4  UNL     1     -38.600  56.786   8.418  1.00  0.00     0.070 A 
HETATM    3  C5  UNL     1     -38.138  55.891   9.327  1.00  0.00     0.144 A 
HETATM    4  N2  UNL     1     -37.583  54.852   8.684  1.00  0.00    -0.314 N 
HETATM    5  C9  UNL     1     -37.701  55.104   7.341  1.00  0.00     0.118 A 
HETATM    6 CL1  UNL     1     -37.117  54.026   6.115  1.00  0.00    -0.064 Cl
ENDROOT
BRANCH   1   7
HETATM    7  C2  UNL     1     -38.701  57.020   5.902  1.00  0.00     0.322 C 
BRANCH   7   8
HETATM    8  N1  UNL     1     -39.655  58.095   6.206  1.00  0.00    -0.054 N 
HETATM    9  C1  UNL     1     -41.006  57.644   5.816  1.00  0.00     0.269 C 
ATOM     10  H12 UNL     1     -39.397  58.982   5.772  1.00  0.00     0.279 HD
ATOM     11  H11 UNL     1     -39.608  58.397   7.178  1.00  0.00     0.279 HD
ENDBRANCH   7   8
BRANCH   7  12
HETATM   12  N3  UNL     1     -37.685  57.517   5.092  1.00  0.00    -0.362 N 
HETATM   13  C10 UNL     1     -37.943  58.020   3.805  1.00  0.00     0.124 C 
HETATM   14  C11 UNL     1     -36.521  58.295   3.273  1.00  0.00     0.025 C 
HETATM   15  C12 UNL     1     -35.612  58.271   4.482  1.00  0.00     0.046 C 
HETATM   16  C13 UNL     1     -36.582  58.199   5.645  1.00  0.00     0.060 C 
ENDBRANCH   7  12
ENDBRANCH   1   7
BRANCH   3  17
HETATM   17  O1  UNL     1     -38.258  56.092  10.717  1.00  0.00    -0.346 OA
ATOM     18  H1  UNL     1     -37.524  56.354  11.260  1.00  0.00     0.219 HD
ENDBRANCH   3  17
BRANCH   4  19
HETATM   19  C6  UNL     1     -37.002  53.737   9.367  1.00  0.00     0.085 C 
HETATM   20  C7  UNL     1     -35.492  53.791   9.205  1.00  0.00     0.032 C 
HETATM   21  C8  UNL     1     -37.447  52.388   8.901  1.00  0.00     0.032 C 
ENDBRANCH   4  19
TORSDOF 5
ENDMDL
MODEL 3
REMARK VINA RESULT: -6.748385501      3.055      6.150
REMARK  5 active torsions:
REMARK  status: ('A' for Active; 'I' for Inactive)
REMARK    1  A    between atoms: N1_2  and  C2_5 
REMARK    2  A    between atoms: C2_5  and  C3_6 
REMARK    3  A    between atoms: C2_5  and  N3_17 
REMARK    4  A    between atoms: C5_8  and  O1_9 
REMARK    5  A    between atoms: N2_11  and  C6_12 
ROOT
HETATM    1  C3  UNL     1     -37.704  56.682   6.798  1.00  0.00     0.034 A 
HETATM    2  C4  UNL     1     -37.066  56.155   5.664  1.00  0.00     0.070 A 
HETATM    3  C5  UNL     1     -37.259  57.001   4.621  1.00  0.00     0.144 A 
HETATM    4  N2  UNL     1     -37.991  58.048   5.030  1.00  0.00    -0.314 N 
HETATM    5  C9  UNL     1     -38.263  57.853   6.359  1.00  0.00     0.118 A 
HETATM    6 CL1  UNL     1     -39.189  58.963   7.315  1.00  0.00    -0.064 Cl
ENDROOT
BRANCH   1   7
HETATM    7  C2  UNL     1     -37.701  56.018   8.109  1.00  0.00     0.322 C 
BRANCH   7   8
HETATM    8  N1  UNL     1     -38.959  56.282   8.820  1.00  0.00    -0.054 N 
HETATM    9  C1  UNL     1     -38.637  56.676  10.206  1.00  0.00     0.269 C 
ATOM     10  H12 UNL     1     -39.607  55.495   8.777  1.00  0.00     0.279 HD
ATOM     11  H11 UNL     1     -39.542  56.968   8.343  1.00  0.00     0.279 HD
ENDBRANCH   7   8
BRANCH   7  12
HETATM   12  N3  UNL     1     -37.416  54.657   8.161  1.00  0.00    -0.362 N 
HETATM   13  C10 UNL     1     -36.444  54.137   9.034  1.00  0.00     0.124 C 
HETATM   14  C11 UNL     1     -36.394  52.653   8.617  1.00  0.00     0.025 C 
HETATM   15  C12 UNL     1     -37.639  52.410   7.793  1.00  0.00     0.046 C 
HETATM   16  C13 UNL     1     -38.426  53.694   7.964  1.00  0.00     0.060 C 
ENDBRANCH   7  12
ENDBRANCH   1   7
BRANCH   3  17
HETATM   17  O1  UNL     1     -36.737  56.750   3.335  1.00  0.00    -0.346 OA
ATOM     18  H1  UNL     1     -37.281  56.740   2.557  1.00  0.00     0.219 HD
ENDBRANCH   3  17
BRANCH   4  19
HETATM   19  C6  UNL     1     -38.367  59.120   4.158  1.00  0.00     0.085 C 
HETATM   20  C7  UNL     1     -39.405  58.612   3.171  1.00  0.00     0.032 C 
HETATM   21  C8  UNL     1     -37.259  59.725   3.359  1.00  0.00     0.032 C 
ENDBRANCH   4  19
TORSDOF 5
ENDMDL
MODEL 4
REMARK VINA RESULT: -6.538189178      1.699      2.059
REMARK  5 active torsions:
REMARK  status: ('A' for Active; 'I' for Inactive)
REMARK    1  A    between atoms: N1_2  and  C2_5 
REMARK    2  A    between atoms: C2_5  and  C3_6 
REMARK    3  A    between atoms: C2_5  and  N3_17 
REMARK    4  A    between atoms: C5_8  and  O1_9 
REMARK    5  A    between atoms: N2_11  and  C6_12 
ROOT
HETATM    1  C3  UNL     1     -37.856  54.828   7.750  1.00  0.00     0.034 A 
HETATM    2  C4  UNL     1     -37.734  53.618   7.048  1.00  0.00     0.070 A 
HETATM    3  C5  UNL     1     -37.154  52.699   7.859  1.00  0.00     0.144 A 
HETATM    4  N2  UNL     1     -36.896  53.259   9.050  1.00  0.00    -0.314 N 
HETATM    5  C9  UNL     1     -37.325  54.560   8.983  1.00  0.00     0.118 A 
HETATM    6 CL1  UNL     1     -37.195  55.675  10.303  1.00  0.00    -0.064 Cl
ENDROOT
BRANCH   1   7
HETATM    7  C2  UNL     1     -38.441  56.044   7.168  1.00  0.00     0.322 C 
BRANCH   7   8
HETATM    8  N1  UNL     1     -39.223  56.770   8.177  1.00  0.00    -0.054 N 
HETATM    9  C1  UNL     1     -40.369  55.928   8.573  1.00  0.00     0.269 C 
ATOM     10  H12 UNL     1     -39.508  57.697   7.861  1.00  0.00     0.279 HD
ATOM     11  H11 UNL     1     -38.658  57.064   8.974  1.00  0.00     0.279 HD
ENDBRANCH   7   8
BRANCH   7  12
HETATM   12  N3  UNL     1     -37.599  56.933   6.507  1.00  0.00    -0.362 N 
HETATM   13  C10 UNL     1     -37.071  56.648   5.236  1.00  0.00     0.124 C 
HETATM   14  C11 UNL     1     -36.109  57.831   5.010  1.00  0.00     0.025 C 
HETATM   15  C12 UNL     1     -36.487  58.877   6.036  1.00  0.00     0.046 C 
HETATM   16  C13 UNL     1     -37.764  58.327   6.639  1.00  0.00     0.060 C 
ENDBRANCH   7  12
ENDBRANCH   1   7
BRANCH   3  17
HETATM   17  O1  UNL     1     -36.894  51.377   7.442  1.00  0.00    -0.346 OA
ATOM     18  H1  UNL     1     -36.108  50.908   7.693  1.00  0.00     0.219 HD
ENDBRANCH   3  17
BRANCH   4  19
HETATM   19  C6  UNL     1     -36.282  52.544  10.128  1.00  0.00     0.085 C 
HETATM   20  C7  UNL     1     -34.778  52.514   9.906  1.00  0.00     0.032 C 
HETATM   21  C8  UNL     1     -36.729  51.129  10.306  1.00  0.00     0.032 C 
ENDBRANCH   4  19
TORSDOF 5
ENDMDL
MODEL 5
REMARK VINA RESULT: -6.516017327      1.866      2.415
REMARK  5 active torsions:
REMARK  status: ('A' for Active; 'I' for Inactive)
REMARK    1  A    between atoms: N1_2  and  C2_5 
REMARK    2  A    between atoms: C2_5  and  C3_6 
REMARK    3  A    between atoms: C2_5  and  N3_17 
REMARK    4  A    between atoms: C5_8  and  O1_9 
REMARK    5  A    between atoms: N2_11  and  C6_12 
ROOT
HETATM    1  C3  UNL     1     -37.992  54.980   7.376  1.00  0.00     0.034 A 
HETATM    2  C4  UNL     1     -37.730  53.735   6.783  1.00  0.00     0.070 A 
HETATM    3  C5  UNL     1     -37.187  52.912   7.715  1.00  0.00     0.144 A 
HETATM    4  N2  UNL     1     -37.086  53.568   8.881  1.00  0.00    -0.314 N 
HETATM    5  C9  UNL     1     -37.578  54.831   8.674  1.00  0.00     0.118 A 
HETATM    6 CL1  UNL     1     -37.650  56.041   9.912  1.00  0.00    -0.064 Cl
ENDROOT
BRANCH   1   7
HETATM    7  C2  UNL     1     -38.579  56.114   6.649  1.00  0.00     0.322 C 
BRANCH   7   8
HETATM    8  N1  UNL     1     -39.612  56.765   7.465  1.00  0.00    -0.054 N 
HETATM    9  C1  UNL     1     -40.511  57.517   6.565  1.00  0.00     0.269 C 
ATOM     10  H12 UNL     1     -39.219  57.349   8.203  1.00  0.00     0.279 HD
ATOM     11  H11 UNL     1     -40.115  56.108   8.060  1.00  0.00     0.279 HD
ENDBRANCH   7   8
BRANCH   7  12
HETATM   12  N3  UNL     1     -37.725  57.079   6.126  1.00  0.00    -0.362 N 
HETATM   13  C10 UNL     1     -37.220  58.128   6.915  1.00  0.00     0.124 C 
HETATM   14  C11 UNL     1     -36.474  58.987   5.874  1.00  0.00     0.025 C 
HETATM   15  C12 UNL     1     -36.316  58.114   4.649  1.00  0.00     0.046 C 
HETATM   16  C13 UNL     1     -36.783  56.754   5.129  1.00  0.00     0.060 C 
ENDBRANCH   7  12
ENDBRANCH   1   7
BRANCH   3  17
HETATM   17  O1  UNL     1     -36.812  51.584   7.427  1.00  0.00    -0.346 OA
ATOM     18  H1  UNL     1     -37.200  50.837   7.867  1.00  0.00     0.219 HD
ENDBRANCH   3  17
BRANCH   4  19
HETATM   19  C6  UNL     1     -36.550  52.969  10.065  1.00  0.00     0.085 C 
HETATM   20  C7  UNL     1     -35.032  53.026  10.002  1.00  0.00     0.032 C 
HETATM   21  C8  UNL     1     -36.928  51.543  10.300  1.00  0.00     0.032 C 
ENDBRANCH   4  19
TORSDOF 5
ENDMDL
