MODEL 1
REMARK VINA RESULT: -6.525393019      0.000      0.000
REMARK  5 active torsions:
REMARK  status: ('A' for Active; 'I' for Inactive)
REMARK    1  A    between atoms: C2_2  and  S1_3 
REMARK    2  A    between atoms: S1_3  and  C3_4 
REMARK    3  A    between atoms: C4_6  and  C5_7 
REMARK    4  A    between atoms: C6_10  and  N2_11 
REMARK    5  A    between atoms: N2_11  and  C7_13 
ROOT
HETATM    1  C3  UNL     1     -37.449  56.721   6.072  1.00  0.00     0.083 A 
HETATM    2  S2  UNL     1     -38.340  57.473   7.315  1.00  0.00    -0.073 SA
HETATM    3  C4  UNL     1     -38.513  56.122   8.379  1.00  0.00     0.100 A 
HETATM    4  C6  UNL     1     -37.863  55.131   7.709  1.00  0.00     0.092 A 
HETATM    5  C11 UNL     1     -37.314  55.438   6.523  1.00  0.00     0.167 A 
HETATM    6  F1  UNL     1     -36.614  54.534   5.740  1.00  0.00    -0.202 F 
ENDROOT
BRANCH   4   7
HETATM    7  N2  UNL     1     -37.833  53.784   8.275  1.00  0.00    -0.378 N 
ATOM      8  H2  UNL     1     -38.633  53.178   8.098  1.00  0.00     0.160 HD
BRANCH   7   9
HETATM    9  C7  UNL     1     -36.773  53.261   9.051  1.00  0.00     0.019 C 
HETATM   10  C8  UNL     1     -35.510  52.911   8.296  1.00  0.00     0.037 C 
HETATM   11  C9  UNL     1     -37.256  51.906   9.615  1.00  0.00     0.037 C 
HETATM   12  C10 UNL     1     -36.396  54.065  10.277  1.00  0.00     0.037 C 
ENDBRANCH   7   9
ENDBRANCH   4   7
BRANCH   3  13
HETATM   13  C5  UNL     1     -39.173  56.206   9.673  1.00  0.00     0.274 C 
HETATM   14  N1  UNL     1     -38.473  56.633  10.844  1.00  0.00    -0.057 NA
HETATM   15  O1  UNL     1     -40.376  55.908   9.806  1.00  0.00    -0.270 OA
ENDBRANCH   3  13
BRANCH   1  16
HETATM   16  S1  UNL     1     -36.836  57.443   4.531  1.00  0.00    -0.120 SA
BRANCH  16  17
HETATM   17  C2  UNL     1     -37.748  58.967   4.159  1.00  0.00     0.075 C 
HETATM   18  C1  UNL     1     -39.157  58.677   3.712  1.00  0.00     0.016 C 
ENDBRANCH  16  17
ENDBRANCH   1  16
TORSDOF 5
ENDMDL
MODEL 2
REMARK VINA RESULT: -6.358848019      2.700      5.488
REMARK  5 active torsions:
REMARK  status: ('A' for Active; 'I' for Inactive)
REMARK    1  A    between atoms: C2_2  and  S1_3 
REMARK    2  A    between atoms: S1_3  and  C3_4 
REMARK    3  A    between atoms: C4_6  and  C5_7 
REMARK    4  A    between atoms: C6_10  and  N2_11 
REMARK    5  A    between atoms: N2_11  and  C7_13 
ROOT
HETATM    1  C3  UNL     1     -37.781  54.706   7.951  1.00  0.00     0.083 A 
HETATM    2  S2  UNL     1     -39.043  55.793   8.309  1.00  0.00    -0.073 SA
HETATM    3  C4  UNL     1     -38.940  56.798   6.907  1.00  0.00     0.100 A 
HETATM    4  C6  UNL     1     -37.911  56.237   6.214  1.00  0.00     0.092 A 
HETATM    5  C11 UNL     1     -37.315  55.160   6.749  1.00  0.00     0.167 A 
HETATM    6  F1  UNL     1     -36.266  54.481   6.149  1.00  0.00    -0.202 F 
ENDROOT
BRANCH   4   7
HETATM    7  N2  UNL     1     -37.473  56.849   4.961  1.00  0.00    -0.378 N 
ATOM      8  H2  UNL     1     -37.564  56.299   4.108  1.00  0.00     0.160 HD
BRANCH   7   9
HETATM    9  C7  UNL     1     -36.931  58.150   4.848  1.00  0.00     0.019 C 
HETATM   10  C8  UNL     1     -37.834  59.190   4.222  1.00  0.00     0.037 C 
HETATM   11  C9  UNL     1     -35.740  58.056   3.869  1.00  0.00     0.037 C 
HETATM   12  C10 UNL     1     -36.334  58.727   6.112  1.00  0.00     0.037 C 
ENDBRANCH   7   9
ENDBRANCH   4   7
BRANCH   3  13
HETATM   13  C5  UNL     1     -39.850  57.904   6.651  1.00  0.00     0.274 C 
HETATM   14  N1  UNL     1     -41.084  57.713   5.957  1.00  0.00    -0.057 NA
HETATM   15  O1  UNL     1     -39.584  59.062   7.029  1.00  0.00    -0.270 OA
ENDBRANCH   3  13
BRANCH   1  16
HETATM   16  S1  UNL     1     -37.196  53.298   8.925  1.00  0.00    -0.120 SA
BRANCH  16  17
HETATM   17  C2  UNL     1     -35.507  53.610   9.507  1.00  0.00     0.075 C 
HETATM   18  C1  UNL     1     -34.751  52.328   9.736  1.00  0.00     0.016 C 
ENDBRANCH  16  17
ENDBRANCH   1  16
TORSDOF 5
ENDMDL
MODEL 3
REMARK VINA RESULT: -6.286082911      1.669      2.113
REMARK  5 active torsions:
REMARK  status: ('A' for Active; 'I' for Inactive)
REMARK    1  A    between atoms: C2_2  and  S1_3 
REMARK    2  A    between atoms: S1_3  and  C3_4 
REMARK    3  A    between atoms: C4_6  and  C5_7 
REMARK    4  A    between atoms: C6_10  and  N2_11 
REMARK    5  A    between atoms: N2_11  and  C7_13 
ROOT
HETATM    1  C3  UNL     1     -38.368  57.686   5.346  1.00  0.00     0.083 A 
HETATM    2  S2  UNL     1     -39.756  57.641   6.335  1.00  0.00    -0.073 SA
HETATM    3  C4  UNL     1     -39.188  56.548   7.548  1.00  0.00     0.100 A 
HETATM    4  C6  UNL     1     -37.927  56.261   7.122  1.00  0.00     0.092 A 
HETATM    5  C11 UNL     1     -37.504  56.846   5.990  1.00  0.00     0.167 A 
HETATM    6  F1  UNL     1     -36.243  56.655   5.448  1.00  0.00    -0.202 F 
ENDROOT
BRANCH   4   7
HETATM    7  N2  UNL     1     -37.118  55.305   7.875  1.00  0.00    -0.378 N 
ATOM      8  H2  UNL     1     -36.489  55.674   8.587  1.00  0.00     0.160 HD
BRANCH   7   9
HETATM    9  C7  UNL     1     -37.144  53.904   7.685  1.00  0.00     0.019 C 
HETATM   10  C8  UNL     1     -38.280  53.166   8.359  1.00  0.00     0.037 C 
HETATM   11  C9  UNL     1     -35.878  53.336   8.366  1.00  0.00     0.037 C 
HETATM   12  C10 UNL     1     -37.043  53.431   6.252  1.00  0.00     0.037 C 
ENDBRANCH   7   9
ENDBRANCH   4   7
BRANCH   3  13
HETATM   13  C5  UNL     1     -39.973  56.174   8.714  1.00  0.00     0.274 C 
HETATM   14  N1  UNL     1     -39.393  56.111  10.019  1.00  0.00    -0.057 NA
HETATM   15  O1  UNL     1     -41.185  55.896   8.616  1.00  0.00    -0.270 OA
ENDBRANCH   3  13
BRANCH   1  16
HETATM   16  S1  UNL     1     -38.106  58.613   3.815  1.00  0.00    -0.120 SA
BRANCH  16  17
HETATM   17  C2  UNL     1     -37.329  57.544   2.573  1.00  0.00     0.075 C 
HETATM   18  C1  UNL     1     -36.635  58.346   1.504  1.00  0.00     0.016 C 
ENDBRANCH  16  17
ENDBRANCH   1  16
TORSDOF 5
ENDMDL
MODEL 4
REMARK VINA RESULT: -6.266195419      2.708      5.500
REMARK  5 active torsions:
REMARK  status: ('A' for Active; 'I' for Inactive)
REMARK    1  A    between atoms: C2_2  and  S1_3 
REMARK    2  A    between atoms: S1_3  and  C3_4 
REMARK    3  A    between atoms: C4_6  and  C5_7 
REMARK    4  A    between atoms: C6_10  and  N2_11 
REMARK    5  A    between atoms: N2_11  and  C7_13 
ROOT
HETATM    1  C3  UNL     1     -37.783  54.719   7.937  1.00  0.00     0.083 A 
HETATM    2  S2  UNL     1     -39.046  55.803   8.304  1.00  0.00    -0.073 SA
HETATM    3  C4  UNL     1     -38.955  56.809   6.901  1.00  0.00     0.100 A 
HETATM    4  C6  UNL     1     -37.930  56.250   6.202  1.00  0.00     0.092 A 
HETATM    5  C11 UNL     1     -37.327  55.175   6.733  1.00  0.00     0.167 A 
HETATM    6  F1  UNL     1     -36.280  54.499   6.126  1.00  0.00    -0.202 F 
ENDROOT
BRANCH   4   7
HETATM    7  N2  UNL     1     -37.502  56.864   4.946  1.00  0.00    -0.378 N 
ATOM      8  H2  UNL     1     -37.726  56.376   4.080  1.00  0.00     0.160 HD
BRANCH   7   9
HETATM    9  C7  UNL     1     -36.797  58.086   4.847  1.00  0.00     0.019 C 
HETATM   10  C8  UNL     1     -36.355  58.703   6.155  1.00  0.00     0.037 C 
HETATM   11  C9  UNL     1     -37.781  59.124   4.262  1.00  0.00     0.037 C 
HETATM   12  C10 UNL     1     -35.627  58.095   3.888  1.00  0.00     0.037 C 
ENDBRANCH   7   9
ENDBRANCH   4   7
BRANCH   3  13
HETATM   13  C5  UNL     1     -39.870  57.912   6.651  1.00  0.00     0.274 C 
HETATM   14  N1  UNL     1     -41.112  57.716   5.972  1.00  0.00    -0.057 NA
HETATM   15  O1  UNL     1     -39.602  59.072   7.022  1.00  0.00    -0.270 OA
ENDBRANCH   3  13
BRANCH   1  16
HETATM   16  S1  UNL     1     -37.189  53.313   8.907  1.00  0.00    -0.120 SA
BRANCH  16  17
HETATM   17  C2  UNL     1     -35.500  53.634   9.487  1.00  0.00     0.075 C 
HETATM   18  C1  UNL     1     -34.737  52.356   9.714  1.00  0.00     0.016 C 
ENDBRANCH  16  17
ENDBRANCH   1  16
TORSDOF 5
ENDMDL
MODEL 5
REMARK VINA RESULT: -5.864240101      2.658      5.491
REMARK  5 active torsions:
REMARK  status: ('A' for Active; 'I' for Inactive)
REMARK    1  A    between atoms: C2_2  and  S1_3 
REMARK    2  A    between atoms: S1_3  and  C3_4 
REMARK    3  A    between atoms: C4_6  and  C5_7 
REMARK    4  A    between atoms: C6_10  and  N2_11 
REMARK    5  A    between atoms: N2_11  and  C7_13 
ROOT
HETATM    1  C3  UNL     1     -37.573  55.033   8.191  1.00  0.00     0.083 A 
HETATM    2  S2  UNL     1     -38.852  56.114   8.504  1.00  0.00    -0.073 SA
HETATM    3  C4  UNL     1     -38.890  56.935   6.984  1.00  0.00     0.100 A 
HETATM    4  C6  UNL     1     -37.889  56.324   6.291  1.00  0.00     0.092 A 
HETATM    5  C11 UNL     1     -37.211  55.345   6.911  1.00  0.00     0.167 A 
HETATM    6  F1  UNL     1     -36.180  54.631   6.323  1.00  0.00    -0.202 F 
ENDROOT
BRANCH   4   7
HETATM    7  N2  UNL     1     -37.567  56.786   4.943  1.00  0.00    -0.378 N 
ATOM      8  H2  UNL     1     -37.770  56.158   4.166  1.00  0.00     0.160 HD
BRANCH   7   9
HETATM    9  C7  UNL     1     -36.992  58.042   4.638  1.00  0.00     0.019 C 
HETATM   10  C8  UNL     1     -35.806  58.016   3.700  1.00  0.00     0.037 C 
HETATM   11  C9  UNL     1     -36.411  58.601   5.956  1.00  0.00     0.037 C 
HETATM   12  C10 UNL     1     -37.956  59.110   4.170  1.00  0.00     0.037 C 
ENDBRANCH   7   9
ENDBRANCH   4   7
BRANCH   3  13
HETATM   13  C5  UNL     1     -39.862  57.969   6.660  1.00  0.00     0.274 C 
HETATM   14  N1  UNL     1     -41.080  57.664   5.978  1.00  0.00    -0.057 NA
HETATM   15  O1  UNL     1     -39.666  59.160   6.969  1.00  0.00    -0.270 OA
ENDBRANCH   3  13
BRANCH   1  16
HETATM   16  S1  UNL     1     -36.862  53.781   9.287  1.00  0.00    -0.120 SA
BRANCH  16  17
HETATM   17  C2  UNL     1     -37.033  52.138   8.537  1.00  0.00     0.075 C 
HETATM   18  C1  UNL     1     -36.026  51.165   9.093  1.00  0.00     0.016 C 
ENDBRANCH  16  17
ENDBRANCH   1  16
TORSDOF 5
ENDMDL
