MODEL 1
REMARK VINA RESULT: -8.575732431      0.000      0.000
REMARK  1 active torsions:
REMARK  status: ('A' for Active; 'I' for Inactive)
REMARK    1  A    between atoms: C7_8  and  O2_9 
ROOT
HETATM    1  C1  UNL     1      34.627  44.051   9.757  1.00  0.00     0.048 C 
HETATM    2  C2  UNL     1      34.989  45.555   9.662  1.00  0.00     0.083 C 
HETATM    3  C3  UNL     1      34.903  45.999  11.140  1.00  0.00     0.048 C 
HETATM    4  O1  UNL     1      34.028  46.163   9.026  1.00  0.00    -0.339 OA
HETATM    5  C4  UNL     1      34.263  47.065   7.960  1.00  0.00     0.204 C 
HETATM    6  C5  UNL     1      35.629  47.561   8.109  1.00  0.00     0.074 C 
HETATM    7  C6  UNL     1      36.665  46.462   8.019  1.00  0.00     0.040 C 
HETATM    8  C7  UNL     1      36.400  45.575   9.214  1.00  0.00     0.152 C 
HETATM    9  O3  UNL     1      33.355  48.063   8.252  1.00  0.00    -0.197 OA
HETATM   10  O4  UNL     1      33.260  49.058   7.474  1.00  0.00    -0.201 OA
HETATM   11  C8  UNL     1      31.951  49.142   7.008  1.00  0.00     0.323 C 
HETATM   12  C9  UNL     1      31.105  48.433   8.001  1.00  0.00     0.032 C 
HETATM   13  C10 UNL     1      30.394  47.340   7.806  1.00  0.00    -0.025 C 
HETATM   14  C11 UNL     1      30.231  46.537   6.616  1.00  0.00     0.031 C 
HETATM   15  C12 UNL     1      31.437  45.755   6.133  1.00  0.00    -0.010 C 
HETATM   16  C13 UNL     1      31.763  46.183   4.730  1.00  0.00     0.017 C 
HETATM   17  C14 UNL     1      32.925  47.047   4.576  1.00  0.00     0.076 C 
HETATM   18  C15 UNL     1      32.716  48.523   4.895  1.00  0.00     0.279 C 
HETATM   19  O5  UNL     1      34.013  48.931   5.254  1.00  0.00    -0.288 OA
HETATM   20  C16 UNL     1      34.923  47.860   5.117  1.00  0.00     0.286 C 
HETATM   21  O6  UNL     1      36.124  48.054   4.802  1.00  0.00    -0.263 OA
HETATM   22  C17 UNL     1      34.130  46.669   5.411  1.00  0.00     0.141 C 
HETATM   23 CL1  UNL     1      34.910  45.346   4.441  1.00  0.00    -0.107 Cl
HETATM   24  C18 UNL     1      33.903  46.222   6.757  1.00  0.00     0.085 C 
HETATM   25  C19 UNL     1      32.550  45.614   7.072  1.00  0.00     0.017 C 
HETATM   26  O7  UNL     1      31.730  48.653   5.786  1.00  0.00    -0.324 OA
ENDROOT
BRANCH   8  27
HETATM   27  O2  UNL     1      37.217  46.078  10.250  1.00  0.00    -0.393 OA
ATOM     28  H2  UNL     1      38.112  45.792  10.115  1.00  0.00     0.210 HD
ENDBRANCH   8  27
TORSDOF 1
ENDMDL
MODEL 2
REMARK VINA RESULT: -8.349074922      1.970      3.181
REMARK  1 active torsions:
REMARK  status: ('A' for Active; 'I' for Inactive)
REMARK    1  A    between atoms: C7_8  and  O2_9 
ROOT
HETATM    1  C1  UNL     1      31.791  42.261   7.815  1.00  0.00     0.048 C 
HETATM    2  C2  UNL     1      32.006  43.398   8.847  1.00  0.00     0.083 C 
HETATM    3  C3  UNL     1      30.652  43.413   9.593  1.00  0.00     0.048 C 
HETATM    4  O1  UNL     1      32.094  44.523   8.197  1.00  0.00    -0.339 OA
HETATM    5  C4  UNL     1      33.120  45.470   8.437  1.00  0.00     0.204 C 
HETATM    6  C5  UNL     1      33.622  45.227   9.787  1.00  0.00     0.074 C 
HETATM    7  C6  UNL     1      34.222  43.848   9.952  1.00  0.00     0.040 C 
HETATM    8  C7  UNL     1      33.068  42.893   9.747  1.00  0.00     0.152 C 
HETATM    9  O3  UNL     1      32.406  46.651   8.393  1.00  0.00    -0.197 OA
HETATM   10  O4  UNL     1      33.020  47.748   8.545  1.00  0.00    -0.201 OA
HETATM   11  C8  UNL     1      32.808  48.541   7.421  1.00  0.00     0.323 C 
HETATM   12  C9  UNL     1      31.552  48.057   6.795  1.00  0.00     0.032 C 
HETATM   13  C10 UNL     1      31.416  47.506   5.604  1.00  0.00    -0.025 C 
HETATM   14  C11 UNL     1      32.409  47.222   4.594  1.00  0.00     0.031 C 
HETATM   15  C12 UNL     1      33.425  46.140   4.902  1.00  0.00    -0.010 C 
HETATM   16  C13 UNL     1      34.804  46.734   4.827  1.00  0.00     0.017 C 
HETATM   17  C14 UNL     1      35.466  46.980   6.101  1.00  0.00     0.076 C 
HETATM   18  C15 UNL     1      35.047  48.240   6.849  1.00  0.00     0.279 C 
HETATM   19  O5  UNL     1      35.334  47.898   8.181  1.00  0.00    -0.288 OA
HETATM   20  C16 UNL     1      35.914  46.613   8.248  1.00  0.00     0.286 C 
HETATM   21  O6  UNL     1      36.754  46.316   9.133  1.00  0.00    -0.263 OA
HETATM   22  C17 UNL     1      35.312  45.884   7.134  1.00  0.00     0.141 C 
HETATM   23 CL1  UNL     1      36.571  44.669   6.645  1.00  0.00    -0.107 Cl
HETATM   24  C18 UNL     1      34.031  45.244   7.250  1.00  0.00     0.085 C 
HETATM   25  C19 UNL     1      33.130  45.259   6.031  1.00  0.00     0.017 C 
HETATM   26  O7  UNL     1      33.792  48.558   6.520  1.00  0.00    -0.324 OA
ENDROOT
BRANCH   8  27
HETATM   27  O2  UNL     1      32.528  42.667  11.032  1.00  0.00    -0.393 OA
ATOM     28  H2  UNL     1      33.233  42.500  11.647  1.00  0.00     0.210 HD
ENDBRANCH   8  27
TORSDOF 1
ENDMDL
MODEL 3
REMARK VINA RESULT: -8.246803991      2.076      5.700
REMARK  1 active torsions:
REMARK  status: ('A' for Active; 'I' for Inactive)
REMARK    1  A    between atoms: C7_8  and  O2_9 
ROOT
HETATM    1  C1  UNL     1      31.613  46.348   4.615  1.00  0.00     0.048 C 
HETATM    2  C2  UNL     1      31.467  46.746   6.106  1.00  0.00     0.083 C 
HETATM    3  C3  UNL     1      31.248  48.273   6.010  1.00  0.00     0.048 C 
HETATM    4  O1  UNL     1      32.617  46.562   6.689  1.00  0.00    -0.339 OA
HETATM    5  C4  UNL     1      32.752  45.876   7.921  1.00  0.00     0.204 C 
HETATM    6  C5  UNL     1      31.459  45.946   8.596  1.00  0.00     0.074 C 
HETATM    7  C6  UNL     1      30.351  45.274   7.815  1.00  0.00     0.040 C 
HETATM    8  C7  UNL     1      30.216  46.088   6.549  1.00  0.00     0.152 C 
HETATM    9  O3  UNL     1      33.677  46.672   8.567  1.00  0.00    -0.197 OA
HETATM   10  O4  UNL     1      34.072  46.343   9.724  1.00  0.00    -0.201 OA
HETATM   11  C8  UNL     1      35.455  46.186   9.698  1.00  0.00     0.323 C 
HETATM   12  C9  UNL     1      35.949  46.986   8.550  1.00  0.00     0.032 C 
HETATM   13  C10 UNL     1      36.550  46.537   7.466  1.00  0.00    -0.025 C 
HETATM   14  C11 UNL     1      36.896  45.186   7.087  1.00  0.00     0.031 C 
HETATM   15  C12 UNL     1      35.756  44.241   6.762  1.00  0.00    -0.010 C 
HETATM   16  C13 UNL     1      35.828  43.057   7.685  1.00  0.00     0.017 C 
HETATM   17  C14 UNL     1      34.849  43.023   8.761  1.00  0.00     0.076 C 
HETATM   18  C15 UNL     1      35.149  43.892   9.977  1.00  0.00     0.279 C 
HETATM   19  O5  UNL     1      33.862  44.133  10.489  1.00  0.00    -0.288 OA
HETATM   20  C16 UNL     1      32.891  43.452   9.725  1.00  0.00     0.286 C 
HETATM   21  O6  UNL     1      31.832  43.018  10.243  1.00  0.00    -0.263 OA
HETATM   22  C17 UNL     1      33.442  43.428   8.372  1.00  0.00     0.141 C 
HETATM   23 CL1  UNL     1      32.765  41.917   7.625  1.00  0.00    -0.107 Cl
HETATM   24  C18 UNL     1      33.287  44.534   7.469  1.00  0.00     0.085 C 
HETATM   25  C19 UNL     1      34.443  44.845   6.538  1.00  0.00     0.017 C 
HETATM   26  O7  UNL     1      35.902  44.931   9.608  1.00  0.00    -0.324 OA
ENDROOT
BRANCH   8  27
HETATM   27  O2  UNL     1      29.241  47.070   6.830  1.00  0.00    -0.393 OA
ATOM     28  H2  UNL     1      28.851  47.371   6.018  1.00  0.00     0.210 HD
ENDBRANCH   8  27
TORSDOF 1
ENDMDL
MODEL 4
REMARK VINA RESULT: -8.217064218      1.653      2.140
REMARK  1 active torsions:
REMARK  status: ('A' for Active; 'I' for Inactive)
REMARK    1  A    between atoms: C7_8  and  O2_9 
ROOT
HETATM    1  C1  UNL     1      33.111  42.117   7.680  1.00  0.00     0.048 C 
HETATM    2  C2  UNL     1      33.602  43.219   8.653  1.00  0.00     0.083 C 
HETATM    3  C3  UNL     1      32.871  42.840   9.961  1.00  0.00     0.048 C 
HETATM    4  O1  UNL     1      33.108  44.358   8.258  1.00  0.00    -0.339 OA
HETATM    5  C4  UNL     1      33.892  45.529   8.122  1.00  0.00     0.204 C 
HETATM    6  C5  UNL     1      35.065  45.363   8.977  1.00  0.00     0.074 C 
HETATM    7  C6  UNL     1      35.924  44.185   8.573  1.00  0.00     0.040 C 
HETATM    8  C7  UNL     1      35.054  42.970   8.801  1.00  0.00     0.152 C 
HETATM    9  O3  UNL     1      33.042  46.480   8.650  1.00  0.00    -0.197 OA
HETATM   10  O4  UNL     1      33.409  47.691   8.671  1.00  0.00    -0.201 OA
HETATM   11  C8  UNL     1      32.484  48.454   7.963  1.00  0.00     0.323 C 
HETATM   12  C9  UNL     1      31.215  47.686   7.966  1.00  0.00     0.032 C 
HETATM   13  C10 UNL     1      30.588  47.176   6.924  1.00  0.00    -0.025 C 
HETATM   14  C11 UNL     1      30.935  47.214   5.522  1.00  0.00     0.031 C 
HETATM   15  C12 UNL     1      32.155  46.426   5.086  1.00  0.00    -0.010 C 
HETATM   16  C13 UNL     1      33.137  47.366   4.445  1.00  0.00     0.017 C 
HETATM   17  C14 UNL     1      34.303  47.716   5.243  1.00  0.00     0.076 C 
HETATM   18  C15 UNL     1      34.096  48.784   6.312  1.00  0.00     0.279 C 
HETATM   19  O5  UNL     1      35.102  48.466   7.241  1.00  0.00    -0.288 OA
HETATM   20  C16 UNL     1      35.875  47.378   6.780  1.00  0.00     0.286 C 
HETATM   21  O6  UNL     1      37.094  47.271   7.063  1.00  0.00    -0.263 OA
HETATM   22  C17 UNL     1      34.939  46.570   6.002  1.00  0.00     0.141 C 
HETATM   23 CL1  UNL     1      35.967  45.757   4.745  1.00  0.00    -0.107 Cl
HETATM   24  C18 UNL     1      34.069  45.610   6.621  1.00  0.00     0.085 C 
HETATM   25  C19 UNL     1      32.680  45.445   6.035  1.00  0.00     0.017 C 
HETATM   26  O7  UNL     1      32.822  48.774   6.711  1.00  0.00    -0.324 OA
ENDROOT
BRANCH   8  27
HETATM   27  O2  UNL     1      35.328  42.548  10.121  1.00  0.00    -0.393 OA
ATOM     28  H2  UNL     1      34.758  41.822  10.346  1.00  0.00     0.210 HD
ENDBRANCH   8  27
TORSDOF 1
ENDMDL
MODEL 5
REMARK VINA RESULT: -8.175776046      2.189      4.076
REMARK  1 active torsions:
REMARK  status: ('A' for Active; 'I' for Inactive)
REMARK    1  A    between atoms: C7_8  and  O2_9 
ROOT
HETATM    1  C1  UNL     1      34.681  45.511  10.833  1.00  0.00     0.048 C 
HETATM    2  C2  UNL     1      34.233  44.630   9.639  1.00  0.00     0.083 C 
HETATM    3  C3  UNL     1      35.241  43.460   9.709  1.00  0.00     0.048 C 
HETATM    4  O1  UNL     1      34.482  45.282   8.539  1.00  0.00    -0.339 OA
HETATM    5  C4  UNL     1      33.532  45.423   7.499  1.00  0.00     0.204 C 
HETATM    6  C5  UNL     1      32.574  44.329   7.639  1.00  0.00     0.074 C 
HETATM    7  C6  UNL     1      31.826  44.368   8.953  1.00  0.00     0.040 C 
HETATM    8  C7  UNL     1      32.883  44.150  10.012  1.00  0.00     0.152 C 
HETATM    9  O3  UNL     1      34.326  45.228   6.386  1.00  0.00    -0.197 OA
HETATM   10  O4  UNL     1      33.806  45.310   5.235  1.00  0.00    -0.201 OA
HETATM   11  C8  UNL     1      34.467  46.298   4.512  1.00  0.00     0.323 C 
HETATM   12  C9  UNL     1      35.809  46.445   5.128  1.00  0.00     0.032 C 
HETATM   13  C10 UNL     1      36.294  47.508   5.739  1.00  0.00    -0.025 C 
HETATM   14  C11 UNL     1      35.688  48.797   5.980  1.00  0.00     0.031 C 
HETATM   15  C12 UNL     1      34.529  48.851   6.956  1.00  0.00    -0.010 C 
HETATM   16  C13 UNL     1      33.324  49.405   6.249  1.00  0.00     0.017 C 
HETATM   17  C14 UNL     1      32.291  48.443   5.893  1.00  0.00     0.076 C 
HETATM   18  C15 UNL     1      32.545  47.609   4.643  1.00  0.00     0.279 C 
HETATM   19  O5  UNL     1      31.784  46.456   4.901  1.00  0.00    -0.288 OA
HETATM   20  C16 UNL     1      31.097  46.582   6.128  1.00  0.00     0.286 C 
HETATM   21  O6  UNL     1      29.979  46.040   6.313  1.00  0.00    -0.263 OA
HETATM   22  C17 UNL     1      31.974  47.409   6.953  1.00  0.00     0.141 C 
HETATM   23 CL1  UNL     1      30.851  48.293   8.075  1.00  0.00    -0.107 Cl
HETATM   24  C18 UNL     1      33.068  46.850   7.695  1.00  0.00     0.085 C 
HETATM   25  C19 UNL     1      34.332  47.680   7.810  1.00  0.00     0.017 C 
HETATM   26  O7  UNL     1      33.860  47.485   4.448  1.00  0.00    -0.324 OA
ENDROOT
BRANCH   8  27
HETATM   27  O2  UNL     1      32.922  42.755  10.228  1.00  0.00    -0.393 OA
ATOM     28  H2  UNL     1      32.299  42.327   9.652  1.00  0.00     0.210 HD
ENDBRANCH   8  27
TORSDOF 1
ENDMDL
