MODEL 1
REMARK VINA RESULT: -9.199269641      0.000      0.000
REMARK  1 active torsions:
REMARK  status: ('A' for Active; 'I' for Inactive)
REMARK    1  A    between atoms: C2_2  and  O1_3 
ROOT
HETATM    1  C1  UNL     1      28.384  47.660   6.996  1.00  0.00     0.046 C 
HETATM    2  C2  UNL     1      29.070  46.988   8.193  1.00  0.00     0.061 C 
HETATM    3  C3  UNL     1      30.453  47.457   8.309  1.00  0.00     0.042 C 
HETATM    4  C4  UNL     1      31.479  46.750   7.474  1.00  0.00     0.041 C 
HETATM    5  C5  UNL     1      32.001  45.561   8.193  1.00  0.00    -0.027 C 
HETATM    6  C6  UNL     1      31.225  44.675   8.810  1.00  0.00     0.017 C 
HETATM    7  C7  UNL     1      31.525  43.461   9.562  1.00  0.00     0.210 C 
HETATM    8  O2  UNL     1      32.564  42.688   9.170  1.00  0.00    -0.383 OA
HETATM    9  C8  UNL     1      33.510  43.221   8.356  1.00  0.00     0.214 C 
HETATM   10  C9  UNL     1      34.029  44.480   8.949  1.00  0.00     0.159 C 
HETATM   11  C10 UNL     1      35.551  44.499   8.754  1.00  0.00     0.058 C 
HETATM   12  F1  UNL     1      33.793  44.684  10.262  1.00  0.00    -0.237 F 
HETATM   13  C11 UNL     1      33.470  45.610   8.059  1.00  0.00     0.167 C 
HETATM   14  C12 UNL     1      34.106  46.852   8.584  1.00  0.00     0.161 C 
HETATM   15  C13 UNL     1      35.276  47.320   7.794  1.00  0.00     0.265 C 
HETATM   16  O3  UNL     1      36.119  48.030   8.430  1.00  0.00    -0.265 OA
HETATM   17  O4  UNL     1      35.629  47.130   6.485  1.00  0.00    -0.280 OA
HETATM   18  C14 UNL     1      34.826  46.708   5.404  1.00  0.00     0.205 C 
HETATM   19  C15 UNL     1      34.371  47.935   4.655  1.00  0.00     0.072 C 
HETATM   20  C16 UNL     1      34.777  47.879   3.194  1.00  0.00     0.006 C 
HETATM   21  C17 UNL     1      36.288  47.861   3.145  1.00  0.00     0.000 C 
HETATM   22  C18 UNL     1      36.840  46.772   4.041  1.00  0.00     0.006 C 
HETATM   23  C19 UNL     1      35.719  45.864   4.505  1.00  0.00     0.072 C 
HETATM   24  O5  UNL     1      33.713  46.015   5.827  1.00  0.00    -0.199 OA
HETATM   25  O6  UNL     1      33.917  45.215   6.796  1.00  0.00    -0.218 OA
HETATM   26  C20 UNL     1      29.746  44.690   8.903  1.00  0.00     0.161 C 
HETATM   27  O7  UNL     1      29.218  43.911   9.770  1.00  0.00    -0.292 OA
HETATM   28  C21 UNL     1      28.838  45.530   8.078  1.00  0.00     0.120 C 
ENDROOT
BRANCH   2  29
HETATM   29  O1  UNL     1      28.349  47.447   9.322  1.00  0.00    -0.390 OA
ATOM     30  H1  UNL     1      28.230  46.673   9.860  1.00  0.00     0.210 HD
ENDBRANCH   2  29
TORSDOF 1
ENDMDL
MODEL 2
REMARK VINA RESULT: -8.713507071      1.802      2.168
REMARK  1 active torsions:
REMARK  status: ('A' for Active; 'I' for Inactive)
REMARK    1  A    between atoms: C2_2  and  O1_3 
ROOT
HETATM    1  C1  UNL     1      30.550  48.874   6.287  1.00  0.00     0.046 C 
HETATM    2  C2  UNL     1      30.364  47.846   7.411  1.00  0.00     0.061 C 
HETATM    3  C3  UNL     1      31.617  47.677   8.151  1.00  0.00     0.042 C 
HETATM    4  C4  UNL     1      32.610  46.704   7.585  1.00  0.00     0.041 C 
HETATM    5  C5  UNL     1      32.330  45.334   8.080  1.00  0.00    -0.027 C 
HETATM    6  C6  UNL     1      31.117  44.791   8.095  1.00  0.00     0.017 C 
HETATM    7  C7  UNL     1      30.630  43.485   8.531  1.00  0.00     0.210 C 
HETATM    8  O2  UNL     1      31.414  42.399   8.345  1.00  0.00    -0.383 OA
HETATM    9  C8  UNL     1      32.740  42.575   8.117  1.00  0.00     0.214 C 
HETATM   10  C9  UNL     1      33.323  43.425   9.187  1.00  0.00     0.159 C 
HETATM   11  C10 UNL     1      34.682  42.827   9.575  1.00  0.00     0.058 C 
HETATM   12  F1  UNL     1      32.608  43.558  10.324  1.00  0.00    -0.237 F 
HETATM   13  C11 UNL     1      33.628  44.778   8.510  1.00  0.00     0.167 C 
HETATM   14  C12 UNL     1      34.333  45.571   9.558  1.00  0.00     0.161 C 
HETATM   15  C13 UNL     1      35.813  45.593   9.415  1.00  0.00     0.265 C 
HETATM   16  O3  UNL     1      36.465  45.808  10.487  1.00  0.00    -0.265 OA
HETATM   17  O4  UNL     1      36.628  45.422   8.329  1.00  0.00    -0.280 OA
HETATM   18  C14 UNL     1      36.304  45.501   6.958  1.00  0.00     0.205 C 
HETATM   19  C15 UNL     1      36.665  46.881   6.471  1.00  0.00     0.072 C 
HETATM   20  C16 UNL     1      37.636  46.827   5.307  1.00  0.00     0.006 C 
HETATM   21  C17 UNL     1      38.908  46.183   5.810  1.00  0.00     0.000 C 
HETATM   22  C18 UNL     1      38.608  44.869   6.500  1.00  0.00     0.006 C 
HETATM   23  C19 UNL     1      37.169  44.468   6.248  1.00  0.00     0.072 C 
HETATM   24  O5  UNL     1      34.960  45.294   6.732  1.00  0.00    -0.199 OA
HETATM   25  O6  UNL     1      34.433  44.378   7.442  1.00  0.00    -0.218 OA
HETATM   26  C20 UNL     1      29.850  45.412   7.643  1.00  0.00     0.161 C 
HETATM   27  O7  UNL     1      28.767  44.832   8.000  1.00  0.00    -0.292 OA
HETATM   28  C21 UNL     1      29.740  46.643   6.815  1.00  0.00     0.120 C 
ENDROOT
BRANCH   2  29
HETATM   29  O1  UNL     1      29.412  48.433   8.279  1.00  0.00    -0.390 OA
ATOM     30  H1  UNL     1      29.311  47.804   8.984  1.00  0.00     0.210 HD
ENDBRANCH   2  29
TORSDOF 1
ENDMDL
MODEL 3
REMARK VINA RESULT: -8.692987468      1.784      6.203
REMARK  1 active torsions:
REMARK  status: ('A' for Active; 'I' for Inactive)
REMARK    1  A    between atoms: C2_2  and  O1_3 
ROOT
HETATM    1  C1  UNL     1      34.980  47.440   3.718  1.00  0.00     0.046 C 
HETATM    2  C2  UNL     1      35.647  46.447   4.678  1.00  0.00     0.061 C 
HETATM    3  C3  UNL     1      34.672  45.451   5.130  1.00  0.00     0.042 C 
HETATM    4  C4  UNL     1      33.814  45.828   6.302  1.00  0.00     0.041 C 
HETATM    5  C5  UNL     1      34.498  45.486   7.574  1.00  0.00    -0.027 C 
HETATM    6  C6  UNL     1      35.771  45.778   7.826  1.00  0.00     0.017 C 
HETATM    7  C7  UNL     1      36.623  45.538   8.987  1.00  0.00     0.210 C 
HETATM    8  O2  UNL     1      36.078  45.600  10.223  1.00  0.00    -0.383 OA
HETATM    9  C8  UNL     1      34.730  45.509  10.354  1.00  0.00     0.214 C 
HETATM   10  C9  UNL     1      34.241  44.289   9.661  1.00  0.00     0.159 C 
HETATM   11  C10 UNL     1      33.178  43.635  10.553  1.00  0.00     0.058 C 
HETATM   12  F1  UNL     1      35.155  43.340   9.369  1.00  0.00    -0.237 F 
HETATM   13  C11 UNL     1      33.494  44.803   8.411  1.00  0.00     0.167 C 
HETATM   14  C12 UNL     1      32.897  43.580   7.802  1.00  0.00     0.161 C 
HETATM   15  C13 UNL     1      31.458  43.380   8.118  1.00  0.00     0.265 C 
HETATM   16  O3  UNL     1      31.044  42.178   8.059  1.00  0.00    -0.265 OA
HETATM   17  O4  UNL     1      30.469  44.260   8.468  1.00  0.00    -0.280 OA
HETATM   18  C14 UNL     1      30.437  45.662   8.315  1.00  0.00     0.205 C 
HETATM   19  C15 UNL     1      29.676  45.977   7.053  1.00  0.00     0.072 C 
HETATM   20  C16 UNL     1      28.495  46.891   7.325  1.00  0.00     0.006 C 
HETATM   21  C17 UNL     1      27.551  46.147   8.242  1.00  0.00     0.000 C 
HETATM   22  C18 UNL     1      28.288  45.616   9.455  1.00  0.00     0.006 C 
HETATM   23  C19 UNL     1      29.681  46.212   9.517  1.00  0.00     0.072 C 
HETATM   24  O5  UNL     1      31.702  46.199   8.210  1.00  0.00    -0.199 OA
HETATM   25  O6  UNL     1      32.569  45.680   8.983  1.00  0.00    -0.218 OA
HETATM   26  C20 UNL     1      36.727  46.473   6.931  1.00  0.00     0.161 C 
HETATM   27  O7  UNL     1      37.964  46.404   7.249  1.00  0.00    -0.292 OA
HETATM   28  C21 UNL     1      36.364  47.235   5.707  1.00  0.00     0.120 C 
ENDROOT
BRANCH   2  29
HETATM   29  O1  UNL     1      36.622  45.787   3.891  1.00  0.00    -0.390 OA
ATOM     30  H1  UNL     1      36.645  46.279   3.078  1.00  0.00     0.210 HD
ENDBRANCH   2  29
TORSDOF 1
ENDMDL
MODEL 4
REMARK VINA RESULT: -8.620761224      2.192      4.482
REMARK  1 active torsions:
REMARK  status: ('A' for Active; 'I' for Inactive)
REMARK    1  A    between atoms: C2_2  and  O1_3 
ROOT
HETATM    1  C1  UNL     1      34.227  41.928   9.175  1.00  0.00     0.046 C 
HETATM    2  C2  UNL     1      33.106  42.583   8.358  1.00  0.00     0.061 C 
HETATM    3  C3  UNL     1      33.678  43.416   7.296  1.00  0.00     0.042 C 
HETATM    4  C4  UNL     1      34.065  44.816   7.670  1.00  0.00     0.041 C 
HETATM    5  C5  UNL     1      32.904  45.729   7.527  1.00  0.00    -0.027 C 
HETATM    6  C6  UNL     1      31.689  45.451   7.990  1.00  0.00     0.017 C 
HETATM    7  C7  UNL     1      30.431  46.193   7.958  1.00  0.00     0.210 C 
HETATM    8  O2  UNL     1      30.464  47.540   8.063  1.00  0.00    -0.383 OA
HETATM    9  C8  UNL     1      31.629  48.192   7.822  1.00  0.00     0.214 C 
HETATM   10  C9  UNL     1      32.164  47.790   6.496  1.00  0.00     0.159 C 
HETATM   11  C10 UNL     1      32.696  49.049   5.801  1.00  0.00     0.058 C 
HETATM   12  F1  UNL     1      31.304  47.196   5.642  1.00  0.00    -0.237 F 
HETATM   13  C11 UNL     1      33.399  46.916   6.804  1.00  0.00     0.167 C 
HETATM   14  C12 UNL     1      34.000  46.632   5.470  1.00  0.00     0.161 C 
HETATM   15  C13 UNL     1      35.162  47.495   5.127  1.00  0.00     0.265 C 
HETATM   16  O3  UNL     1      35.388  47.644   3.883  1.00  0.00    -0.265 OA
HETATM   17  O4  UNL     1      36.057  48.174   5.909  1.00  0.00    -0.280 OA
HETATM   18  C14 UNL     1      36.349  47.997   7.279  1.00  0.00     0.205 C 
HETATM   19  C15 UNL     1      37.573  47.124   7.387  1.00  0.00     0.072 C 
HETATM   20  C16 UNL     1      38.677  47.806   8.172  1.00  0.00     0.006 C 
HETATM   21  C17 UNL     1      39.079  49.045   7.405  1.00  0.00     0.000 C 
HETATM   22  C18 UNL     1      37.864  49.889   7.076  1.00  0.00     0.006 C 
HETATM   23  C19 UNL     1      36.657  49.379   7.838  1.00  0.00     0.072 C 
HETATM   24  O5  UNL     1      35.313  47.386   7.952  1.00  0.00    -0.199 OA
HETATM   25  O6  UNL     1      34.150  47.774   7.611  1.00  0.00    -0.218 OA
HETATM   26  C20 UNL     1      31.261  44.230   8.713  1.00  0.00     0.161 C 
HETATM   27  O7  UNL     1      30.001  44.040   8.821  1.00  0.00    -0.292 OA
HETATM   28  C21 UNL     1      32.172  43.220   9.314  1.00  0.00     0.120 C 
ENDROOT
BRANCH   2  29
HETATM   29  O1  UNL     1      32.424  41.500   7.753  1.00  0.00    -0.390 OA
ATOM     30  H1  UNL     1      32.914  40.731   8.019  1.00  0.00     0.210 HD
ENDBRANCH   2  29
TORSDOF 1
ENDMDL
MODEL 5
REMARK VINA RESULT: -8.401034294      1.276      1.685
REMARK  1 active torsions:
REMARK  status: ('A' for Active; 'I' for Inactive)
REMARK    1  A    between atoms: C2_2  and  O1_3 
ROOT
HETATM    1  C1  UNL     1      29.398  45.970   6.870  1.00  0.00     0.046 C 
HETATM    2  C2  UNL     1      30.250  45.775   8.132  1.00  0.00     0.061 C 
HETATM    3  C3  UNL     1      31.360  46.732   8.143  1.00  0.00     0.042 C 
HETATM    4  C4  UNL     1      32.597  46.341   7.389  1.00  0.00     0.041 C 
HETATM    5  C5  UNL     1      33.499  45.543   8.256  1.00  0.00    -0.027 C 
HETATM    6  C6  UNL     1      33.086  44.532   9.013  1.00  0.00     0.017 C 
HETATM    7  C7  UNL     1      33.792  43.633   9.922  1.00  0.00     0.210 C 
HETATM    8  O2  UNL     1      35.052  43.250   9.616  1.00  0.00    -0.383 OA
HETATM    9  C8  UNL     1      35.758  43.971   8.709  1.00  0.00     0.214 C 
HETATM   10  C9  UNL     1      35.761  45.404   9.103  1.00  0.00     0.159 C 
HETATM   11  C10 UNL     1      37.174  45.954   8.866  1.00  0.00     0.058 C 
HETATM   12  F1  UNL     1      35.431  45.691  10.379  1.00  0.00    -0.237 F 
HETATM   13  C11 UNL     1      34.850  46.109   8.076  1.00  0.00     0.167 C 
HETATM   14  C12 UNL     1      34.970  47.559   8.402  1.00  0.00     0.161 C 
HETATM   15  C13 UNL     1      35.907  48.307   7.522  1.00  0.00     0.265 C 
HETATM   16  O3  UNL     1      36.412  49.361   8.027  1.00  0.00    -0.265 OA
HETATM   17  O4  UNL     1      36.341  48.076   6.244  1.00  0.00    -0.280 OA
HETATM   18  C14 UNL     1      35.780  47.240   5.256  1.00  0.00     0.205 C 
HETATM   19  C15 UNL     1      34.926  48.093   4.352  1.00  0.00     0.072 C 
HETATM   20  C16 UNL     1      35.364  47.982   2.904  1.00  0.00     0.006 C 
HETATM   21  C17 UNL     1      36.776  48.515   2.817  1.00  0.00     0.000 C 
HETATM   22  C18 UNL     1      37.666  47.845   3.844  1.00  0.00     0.006 C 
HETATM   23  C19 UNL     1      36.945  46.664   4.463  1.00  0.00     0.072 C 
HETATM   24  O5  UNL     1      34.988  46.253   5.804  1.00  0.00    -0.199 OA
HETATM   25  O6  UNL     1      35.446  45.731   6.871  1.00  0.00    -0.218 OA
HETATM   26  C20 UNL     1      31.704  44.014   9.144  1.00  0.00     0.161 C 
HETATM   27  O7  UNL     1      31.477  43.227  10.126  1.00  0.00    -0.292 OA
HETATM   28  C21 UNL     1      30.573  44.334   8.232  1.00  0.00     0.120 C 
ENDROOT
BRANCH   2  29
HETATM   29  O1  UNL     1      29.380  46.093   9.203  1.00  0.00    -0.390 OA
ATOM     30  H1  UNL     1      29.425  45.339   9.779  1.00  0.00     0.210 HD
ENDBRANCH   2  29
TORSDOF 1
ENDMDL
