MODEL 1
REMARK VINA RESULT: -6.781551780      0.000      0.000
REMARK  0 active torsions:
REMARK  status: ('A' for Active; 'I' for Inactive)
ROOT
HETATM    1 CL1  UNL     1      33.305  42.579  10.158  1.00  0.00    -0.122 Cl
HETATM    2  C1  UNL     1      33.154  42.218   8.410  1.00  0.00     0.117 C 
HETATM    3  C2  UNL     1      34.247  42.859   7.621  1.00  0.00     0.259 C 
HETATM    4  N1  UNL     1      34.803  44.040   8.250  1.00  0.00    -0.015 N 
ATOM      5  H11 UNL     1      35.608  43.808   8.831  1.00  0.00     0.283 HD
ATOM      6  H12 UNL     1      34.183  44.401   8.975  1.00  0.00     0.283 HD
HETATM    7  C3  UNL     1      35.134  45.072   7.265  1.00  0.00     0.346 C 
HETATM    8  C4  UNL     1      33.935  45.986   7.186  1.00  0.00     0.175 C 
HETATM    9  S1  UNL     1      34.158  47.345   6.033  1.00  0.00    -0.161 SA
HETATM   10  C5  UNL     1      33.457  48.836   6.755  1.00  0.00     0.084 C 
HETATM   11  C6  UNL     1      32.399  49.466   5.890  1.00  0.00     0.084 C 
HETATM   12  S2  UNL     1      30.875  48.525   5.819  1.00  0.00    -0.168 SA
HETATM   13  C7  UNL     1      29.499  49.344   6.655  1.00  0.00     0.084 C 
HETATM   14  C8  UNL     1      28.419  48.322   6.943  1.00  0.00     0.084 C 
HETATM   15  S3  UNL     1      28.783  47.502   8.513  1.00  0.00    -0.168 SA
HETATM   16  C9  UNL     1      27.770  46.048   8.783  1.00  0.00     0.074 C 
HETATM   17  C10 UNL     1      28.577  44.988   9.528  1.00  0.00     0.020 C 
HETATM   18  C11 UNL     1      29.706  44.594   8.596  1.00  0.00     0.075 C 
HETATM   19  S4  UNL     1      30.874  43.462   9.340  1.00  0.00    -0.168 SA
HETATM   20  C12 UNL     1      31.774  42.615   7.990  1.00  0.00     0.095 C 
HETATM   21  O1  UNL     1      35.484  44.508   6.065  1.00  0.00    -0.330 OA
HETATM   22  C13 UNL     1      36.842  44.656   5.885  1.00  0.00     0.199 C 
HETATM   23  C14 UNL     1      37.108  45.942   6.680  1.00  0.00     0.199 C 
HETATM   24  O2  UNL     1      36.244  45.761   7.755  1.00  0.00    -0.330 OA
ENDROOT
TORSDOF 0
ENDMDL
MODEL 2
REMARK VINA RESULT: -6.513283017      2.804      5.869
REMARK  0 active torsions:
REMARK  status: ('A' for Active; 'I' for Inactive)
ROOT
HETATM    1 CL1  UNL     1      32.749  41.674   7.806  1.00  0.00    -0.122 Cl
HETATM    2  C1  UNL     1      32.881  42.719   9.255  1.00  0.00     0.117 C 
HETATM    3  C2  UNL     1      31.615  43.467   9.510  1.00  0.00     0.259 C 
HETATM    4  N1  UNL     1      30.815  43.677   8.320  1.00  0.00    -0.015 N 
ATOM      5  H11 UNL     1      30.132  42.930   8.194  1.00  0.00     0.283 HD
ATOM      6  H12 UNL     1      31.364  43.534   7.472  1.00  0.00     0.283 HD
HETATM    7  C3  UNL     1      30.172  44.993   8.327  1.00  0.00     0.346 C 
HETATM    8  C4  UNL     1      31.089  45.920   7.567  1.00  0.00     0.175 C 
HETATM    9  S1  UNL     1      30.457  47.596   7.445  1.00  0.00    -0.161 SA
HETATM   10  C5  UNL     1      30.795  48.222   5.793  1.00  0.00     0.084 C 
HETATM   11  C6  UNL     1      31.602  49.492   5.800  1.00  0.00     0.084 C 
HETATM   12  S2  UNL     1      33.309  49.255   6.293  1.00  0.00    -0.168 SA
HETATM   13  C7  UNL     1      34.477  49.504   4.938  1.00  0.00     0.084 C 
HETATM   14  C8  UNL     1      35.798  48.858   5.302  1.00  0.00     0.084 C 
HETATM   15  S3  UNL     1      35.752  47.111   4.839  1.00  0.00    -0.168 SA
HETATM   16  C9  UNL     1      37.118  46.178   5.529  1.00  0.00     0.074 C 
HETATM   17  C10 UNL     1      36.656  44.764   5.872  1.00  0.00     0.020 C 
HETATM   18  C11 UNL     1      35.611  44.921   6.960  1.00  0.00     0.075 C 
HETATM   19  S4  UNL     1      34.819  43.381   7.405  1.00  0.00    -0.168 SA
HETATM   20  C12 UNL     1      34.085  43.587   9.070  1.00  0.00     0.095 C 
HETATM   21  O1  UNL     1      29.905  45.401   9.609  1.00  0.00    -0.330 OA
HETATM   22  C13 UNL     1      28.546  45.328   9.824  1.00  0.00     0.199 C 
HETATM   23  C14 UNL     1      28.009  45.552   8.404  1.00  0.00     0.199 C 
HETATM   24  O2  UNL     1      28.953  44.854   7.660  1.00  0.00    -0.330 OA
ENDROOT
TORSDOF 0
ENDMDL
MODEL 3
REMARK VINA RESULT: -6.452561689      1.226      1.432
REMARK  0 active torsions:
REMARK  status: ('A' for Active; 'I' for Inactive)
ROOT
HETATM    1 CL1  UNL     1      32.729  42.824  10.418  1.00  0.00    -0.122 Cl
HETATM    2  C1  UNL     1      32.930  42.379   8.695  1.00  0.00     0.117 C 
HETATM    3  C2  UNL     1      34.293  42.724   8.194  1.00  0.00     0.259 C 
HETATM    4  N1  UNL     1      34.922  43.808   8.922  1.00  0.00    -0.015 N 
ATOM      5  H11 UNL     1      35.493  43.457   9.690  1.00  0.00     0.283 HD
ATOM      6  H12 UNL     1      34.239  44.339   9.462  1.00  0.00     0.283 HD
HETATM    7  C3  UNL     1      35.695  44.678   8.034  1.00  0.00     0.346 C 
HETATM    8  C4  UNL     1      34.778  45.810   7.640  1.00  0.00     0.175 C 
HETATM    9  S1  UNL     1      35.561  47.010   6.557  1.00  0.00    -0.161 SA
HETATM   10  C5  UNL     1      35.047  48.660   7.053  1.00  0.00     0.084 C 
HETATM   11  C6  UNL     1      34.391  49.431   5.939  1.00  0.00     0.084 C 
HETATM   12  S2  UNL     1      32.762  48.819   5.506  1.00  0.00    -0.168 SA
HETATM   13  C7  UNL     1      31.436  49.961   5.955  1.00  0.00     0.084 C 
HETATM   14  C8  UNL     1      30.124  49.205   5.981  1.00  0.00     0.084 C 
HETATM   15  S3  UNL     1      29.912  48.441   7.606  1.00  0.00    -0.168 SA
HETATM   16  C9  UNL     1      28.574  47.249   7.639  1.00  0.00     0.074 C 
HETATM   17  C10 UNL     1      28.928  46.101   8.581  1.00  0.00     0.020 C 
HETATM   18  C11 UNL     1      30.136  45.419   7.968  1.00  0.00     0.075 C 
HETATM   19  S4  UNL     1      30.817  44.127   9.002  1.00  0.00    -0.168 SA
HETATM   20  C12 UNL     1      31.811  43.020   7.936  1.00  0.00     0.095 C 
HETATM   21  O1  UNL     1      36.195  43.971   6.969  1.00  0.00    -0.330 OA
HETATM   22  C13 UNL     1      37.555  43.824   7.134  1.00  0.00     0.199 C 
HETATM   23  C14 UNL     1      37.893  45.081   7.947  1.00  0.00     0.199 C 
HETATM   24  O2  UNL     1      36.777  45.157   8.774  1.00  0.00    -0.330 OA
ENDROOT
TORSDOF 0
ENDMDL
MODEL 4
REMARK VINA RESULT: -6.293274146      2.608      4.016
REMARK  0 active torsions:
REMARK  status: ('A' for Active; 'I' for Inactive)
ROOT
HETATM    1 CL1  UNL     1      29.009  45.450   9.742  1.00  0.00    -0.122 Cl
HETATM    2  C1  UNL     1      29.534  44.566   8.276  1.00  0.00     0.117 C 
HETATM    3  C2  UNL     1      30.924  44.041   8.420  1.00  0.00     0.259 C 
HETATM    4  N1  UNL     1      31.736  44.794   9.355  1.00  0.00    -0.015 N 
ATOM      5  H11 UNL     1      31.685  44.399  10.293  1.00  0.00     0.283 HD
ATOM      6  H12 UNL     1      31.329  45.710   9.546  1.00  0.00     0.283 HD
HETATM    7  C3  UNL     1      33.122  44.909   8.896  1.00  0.00     0.346 C 
HETATM    8  C4  UNL     1      33.217  46.216   8.148  1.00  0.00     0.175 C 
HETATM    9  S1  UNL     1      34.865  46.553   7.520  1.00  0.00    -0.161 SA
HETATM   10  C5  UNL     1      35.227  48.299   7.751  1.00  0.00     0.084 C 
HETATM   11  C6  UNL     1      35.576  49.002   6.467  1.00  0.00     0.084 C 
HETATM   12  S2  UNL     1      34.179  49.217   5.364  1.00  0.00    -0.168 SA
HETATM   13  C7  UNL     1      33.668  50.942   5.197  1.00  0.00     0.084 C 
HETATM   14  C8  UNL     1      32.258  50.987   4.645  1.00  0.00     0.084 C 
HETATM   15  S3  UNL     1      31.082  50.852   6.013  1.00  0.00    -0.168 SA
HETATM   16  C9  UNL     1      29.406  50.551   5.454  1.00  0.00     0.074 C 
HETATM   17  C10 UNL     1      28.684  49.647   6.450  1.00  0.00     0.020 C 
HETATM   18  C11 UNL     1      29.424  48.323   6.421  1.00  0.00     0.075 C 
HETATM   19  S4  UNL     1      28.831  47.157   7.641  1.00  0.00    -0.168 SA
HETATM   20  C12 UNL     1      29.337  45.480   7.109  1.00  0.00     0.095 C 
HETATM   21  O1  UNL     1      33.484  43.815   8.152  1.00  0.00    -0.330 OA
HETATM   22  C13 UNL     1      34.354  43.044   8.891  1.00  0.00     0.199 C 
HETATM   23  C14 UNL     1      35.014  44.109   9.777  1.00  0.00     0.199 C 
HETATM   24  O2  UNL     1      33.927  44.936  10.036  1.00  0.00    -0.330 OA
ENDROOT
TORSDOF 0
ENDMDL
MODEL 5
REMARK VINA RESULT: -6.271583667      1.118      1.217
REMARK  0 active torsions:
REMARK  status: ('A' for Active; 'I' for Inactive)
ROOT
HETATM    1 CL1  UNL     1      34.724  43.198   9.732  1.00  0.00    -0.122 Cl
HETATM    2  C1  UNL     1      34.417  42.801   8.012  1.00  0.00     0.117 C 
HETATM    3  C2  UNL     1      35.173  43.705   7.097  1.00  0.00     0.259 C 
HETATM    4  N1  UNL     1      35.483  44.995   7.680  1.00  0.00    -0.015 N 
ATOM      5  H11 UNL     1      36.398  44.989   8.131  1.00  0.00     0.283 HD
ATOM      6  H12 UNL     1      34.904  45.182   8.499  1.00  0.00     0.283 HD
HETATM    7  C3  UNL     1      35.380  46.072   6.694  1.00  0.00     0.346 C 
HETATM    8  C4  UNL     1      33.985  46.633   6.819  1.00  0.00     0.175 C 
HETATM    9  S1  UNL     1      33.668  47.997   5.694  1.00  0.00    -0.161 SA
HETATM   10  C5  UNL     1      32.712  49.251   6.559  1.00  0.00     0.084 C 
HETATM   11  C6  UNL     1      31.410  49.571   5.877  1.00  0.00     0.084 C 
HETATM   12  S2  UNL     1      30.196  48.258   5.995  1.00  0.00    -0.168 SA
HETATM   13  C7  UNL     1      28.791  48.686   7.048  1.00  0.00     0.084 C 
HETATM   14  C8  UNL     1      28.074  47.414   7.453  1.00  0.00     0.084 C 
HETATM   15  S3  UNL     1      28.870  46.729   8.925  1.00  0.00    -0.168 SA
HETATM   16  C9  UNL     1      28.329  45.059   9.288  1.00  0.00     0.074 C 
HETATM   17  C10 UNL     1      29.488  44.256   9.873  1.00  0.00     0.020 C 
HETATM   18  C11 UNL     1      30.530  44.173   8.774  1.00  0.00     0.075 C 
HETATM   19  S4  UNL     1      32.053  43.397   9.303  1.00  0.00    -0.168 SA
HETATM   20  C12 UNL     1      32.935  42.813   7.810  1.00  0.00     0.095 C 
HETATM   21  O1  UNL     1      35.686  45.616   5.436  1.00  0.00    -0.330 OA
HETATM   22  C13 UNL     1      36.915  46.120   5.068  1.00  0.00     0.199 C 
HETATM   23  C14 UNL     1      36.945  47.434   5.861  1.00  0.00     0.199 C 
HETATM   24  O2  UNL     1      36.329  47.035   7.042  1.00  0.00    -0.330 OA
ENDROOT
TORSDOF 0
ENDMDL
