MODEL 1
REMARK VINA RESULT: -7.303498336      0.000      0.000
REMARK  0 active torsions:
REMARK  status: ('A' for Active; 'I' for Inactive)
ROOT
HETATM    1  O1  UNL     1      28.397  44.764  10.130  1.00  0.00    -0.273 OA
HETATM    2  C1  UNL     1      29.396  44.549   9.366  1.00  0.00     0.226 C 
HETATM    3  C2  UNL     1      29.307  45.102   7.991  1.00  0.00     0.176 C 
HETATM    4  S1  UNL     1      28.460  46.691   8.090  1.00  0.00    -0.159 SA
HETATM    5  C3  UNL     1      29.576  48.089   7.963  1.00  0.00     0.084 C 
HETATM    6  C4  UNL     1      30.522  47.982   6.792  1.00  0.00     0.084 C 
HETATM    7  S2  UNL     1      31.872  49.155   7.070  1.00  0.00    -0.168 SA
HETATM    8  C5  UNL     1      32.705  49.591   5.526  1.00  0.00     0.084 C 
HETATM    9  C6  UNL     1      34.186  49.692   5.789  1.00  0.00     0.084 C 
HETATM   10  S3  UNL     1      34.932  48.057   5.655  1.00  0.00    -0.166 SA
HETATM   11  C7  UNL     1      36.686  48.138   6.106  1.00  0.00     0.101 C 
HETATM   12  C8  UNL     1      36.980  47.078   7.128  1.00  0.00     0.200 C 
HETATM   13  O2  UNL     1      36.071  46.012   7.051  1.00  0.00    -0.275 OA
HETATM   14  S4  UNL     1      36.717  44.761   7.991  1.00  0.00     0.265 S 
HETATM   15  O3  UNL     1      38.132  44.483   7.556  1.00  0.00    -0.199 OA
HETATM   16  O4  UNL     1      36.773  45.291   9.407  1.00  0.00    -0.199 OA
HETATM   17  C9  UNL     1      35.727  43.299   7.874  1.00  0.00     0.173 C 
HETATM   18  C10 UNL     1      35.127  42.994   9.231  1.00  0.00     0.054 C 
HETATM   19  C11 UNL     1      33.809  42.230   9.095  1.00  0.00     0.172 C 
HETATM   20  F1  UNL     1      33.998  41.011   9.759  1.00  0.00    -0.249 F 
HETATM   21  C12 UNL     1      32.758  43.014   9.809  1.00  0.00     0.057 C 
HETATM   22  C13 UNL     1      31.472  43.149   9.022  1.00  0.00     0.125 C 
HETATM   23  N1  UNL     1      30.502  43.818   9.855  1.00  0.00    -0.360 N 
ATOM     24  H1  UNL     1      30.623  43.760  10.866  1.00  0.00     0.162 HD
ENDROOT
TORSDOF 0
ENDMDL
MODEL 2
REMARK VINA RESULT: -7.033102299      2.342      3.203
REMARK  0 active torsions:
REMARK  status: ('A' for Active; 'I' for Inactive)
ROOT
HETATM    1  O1  UNL     1      27.965  48.731   7.967  1.00  0.00    -0.273 OA
HETATM    2  C1  UNL     1      28.727  47.782   7.584  1.00  0.00     0.226 C 
HETATM    3  C2  UNL     1      29.327  47.921   6.233  1.00  0.00     0.176 C 
HETATM    4  S1  UNL     1      29.711  49.664   5.979  1.00  0.00    -0.159 SA
HETATM    5  C3  UNL     1      31.457  50.031   6.165  1.00  0.00     0.084 C 
HETATM    6  C4  UNL     1      32.342  49.097   5.375  1.00  0.00     0.084 C 
HETATM    7  S2  UNL     1      34.023  49.252   6.030  1.00  0.00    -0.168 SA
HETATM    8  C5  UNL     1      35.258  48.708   4.828  1.00  0.00     0.084 C 
HETATM    9  C6  UNL     1      36.346  47.963   5.558  1.00  0.00     0.084 C 
HETATM   10  S3  UNL     1      35.866  46.236   5.749  1.00  0.00    -0.166 SA
HETATM   11  C7  UNL     1      37.098  45.358   6.747  1.00  0.00     0.101 C 
HETATM   12  C8  UNL     1      36.399  44.623   7.854  1.00  0.00     0.200 C 
HETATM   13  O2  UNL     1      35.065  44.335   7.530  1.00  0.00    -0.275 OA
HETATM   14  S4  UNL     1      34.519  43.223   8.683  1.00  0.00     0.265 S 
HETATM   15  O3  UNL     1      35.471  42.058   8.750  1.00  0.00    -0.199 OA
HETATM   16  O4  UNL     1      34.583  43.940  10.015  1.00  0.00    -0.199 OA
HETATM   17  C9  UNL     1      32.879  42.673   8.312  1.00  0.00     0.173 C 
HETATM   18  C10 UNL     1      31.939  43.130   9.409  1.00  0.00     0.054 C 
HETATM   19  C11 UNL     1      30.514  43.305   8.881  1.00  0.00     0.172 C 
HETATM   20  F1  UNL     1      29.717  42.424   9.622  1.00  0.00    -0.249 F 
HETATM   21  C12 UNL     1      30.092  44.706   9.174  1.00  0.00     0.057 C 
HETATM   22  C13 UNL     1      29.417  45.387   8.003  1.00  0.00     0.125 C 
HETATM   23  N1  UNL     1      28.953  46.682   8.441  1.00  0.00    -0.360 N 
ATOM     24  H1  UNL     1      28.777  46.811   9.437  1.00  0.00     0.162 HD
ENDROOT
TORSDOF 0
ENDMDL
MODEL 3
REMARK VINA RESULT: -6.927852193      2.420      6.178
REMARK  0 active torsions:
REMARK  status: ('A' for Active; 'I' for Inactive)
ROOT
HETATM    1  O1  UNL     1      38.175  45.890   5.357  1.00  0.00    -0.273 OA
HETATM    2  C1  UNL     1      37.326  45.864   6.309  1.00  0.00     0.226 C 
HETATM    3  C2  UNL     1      36.822  47.178   6.781  1.00  0.00     0.176 C 
HETATM    4  S1  UNL     1      36.666  48.256   5.343  1.00  0.00    -0.159 SA
HETATM    5  C3  UNL     1      34.970  48.448   4.793  1.00  0.00     0.084 C 
HETATM    6  C4  UNL     1      34.024  48.799   5.915  1.00  0.00     0.084 C 
HETATM    7  S2  UNL     1      32.341  48.474   5.334  1.00  0.00    -0.168 SA
HETATM    8  C5  UNL     1      31.116  49.407   6.282  1.00  0.00     0.084 C 
HETATM    9  C6  UNL     1      29.908  48.533   6.501  1.00  0.00     0.084 C 
HETATM   10  S3  UNL     1      30.164  47.510   7.961  1.00  0.00    -0.166 SA
HETATM   11  C7  UNL     1      28.782  46.354   8.157  1.00  0.00     0.101 C 
HETATM   12  C8  UNL     1      29.324  44.964   8.331  1.00  0.00     0.200 C 
HETATM   13  O2  UNL     1      30.630  44.973   8.845  1.00  0.00    -0.275 OA
HETATM   14  S4  UNL     1      30.973  43.384   9.315  1.00  0.00     0.265 S 
HETATM   15  O3  UNL     1      29.885  42.882  10.228  1.00  0.00    -0.199 OA
HETATM   16  O4  UNL     1      30.922  42.556   8.049  1.00  0.00    -0.199 OA
HETATM   17  C9  UNL     1      32.552  43.280  10.106  1.00  0.00     0.173 C 
HETATM   18  C10 UNL     1      33.479  42.431   9.259  1.00  0.00     0.054 C 
HETATM   19  C11 UNL     1      34.941  42.825   9.472  1.00  0.00     0.172 C 
HETATM   20  F1  UNL     1      35.584  41.678   9.956  1.00  0.00    -0.249 F 
HETATM   21  C12 UNL     1      35.513  43.177   8.139  1.00  0.00     0.057 C 
HETATM   22  C13 UNL     1      36.329  44.451   8.153  1.00  0.00     0.125 C 
HETATM   23  N1  UNL     1      36.921  44.622   6.848  1.00  0.00    -0.360 N 
ATOM     24  H1  UNL     1      37.056  43.789   6.275  1.00  0.00     0.162 HD
ENDROOT
TORSDOF 0
ENDMDL
MODEL 4
REMARK VINA RESULT: -6.689265329      3.150      3.914
REMARK  0 active torsions:
REMARK  status: ('A' for Active; 'I' for Inactive)
ROOT
HETATM    1  O1  UNL     1      26.346  49.608   8.072  1.00  0.00    -0.273 OA
HETATM    2  C1  UNL     1      27.268  48.937   7.500  1.00  0.00     0.226 C 
HETATM    3  C2  UNL     1      27.614  49.340   6.113  1.00  0.00     0.176 C 
HETATM    4  S1  UNL     1      27.489  51.136   6.015  1.00  0.00    -0.159 SA
HETATM    5  C3  UNL     1      29.086  51.952   6.039  1.00  0.00     0.084 C 
HETATM    6  C4  UNL     1      30.064  51.361   5.053  1.00  0.00     0.084 C 
HETATM    7  S2  UNL     1      31.721  51.918   5.524  1.00  0.00    -0.168 SA
HETATM    8  C5  UNL     1      32.873  51.830   4.134  1.00  0.00     0.084 C 
HETATM    9  C6  UNL     1      34.210  51.356   4.645  1.00  0.00     0.084 C 
HETATM   10  S3  UNL     1      34.230  49.555   4.693  1.00  0.00    -0.166 SA
HETATM   11  C7  UNL     1      35.777  48.973   5.438  1.00  0.00     0.101 C 
HETATM   12  C8  UNL     1      35.458  47.991   6.528  1.00  0.00     0.200 C 
HETATM   13  O2  UNL     1      34.214  47.374   6.328  1.00  0.00    -0.275 OA
HETATM   14  S4  UNL     1      34.146  46.069   7.404  1.00  0.00     0.265 S 
HETATM   15  O3  UNL     1      35.370  45.208   7.229  1.00  0.00    -0.199 OA
HETATM   16  O4  UNL     1      34.208  46.670   8.791  1.00  0.00    -0.199 OA
HETATM   17  C9  UNL     1      32.672  45.121   7.163  1.00  0.00     0.173 C 
HETATM   18  C10 UNL     1      31.810  45.216   8.406  1.00  0.00     0.054 C 
HETATM   19  C11 UNL     1      30.329  45.034   8.068  1.00  0.00     0.172 C 
HETATM   20  F1  UNL     1      29.902  43.913   8.792  1.00  0.00    -0.249 F 
HETATM   21  C12 UNL     1      29.601  46.238   8.564  1.00  0.00     0.057 C 
HETATM   22  C13 UNL     1      28.612  46.798   7.563  1.00  0.00     0.125 C 
HETATM   23  N1  UNL     1      27.893  47.877   8.195  1.00  0.00    -0.360 N 
ATOM     24  H1  UNL     1      27.831  47.876   9.213  1.00  0.00     0.162 HD
ENDROOT
TORSDOF 0
ENDMDL
MODEL 5
REMARK VINA RESULT: -6.487146872      3.025      6.514
REMARK  0 active torsions:
REMARK  status: ('A' for Active; 'I' for Inactive)
ROOT
HETATM    1  O1  UNL     1      33.841  42.057   7.271  1.00  0.00    -0.273 OA
HETATM    2  C1  UNL     1      33.339  43.130   7.742  1.00  0.00     0.226 C 
HETATM    3  C2  UNL     1      34.254  44.294   7.856  1.00  0.00     0.176 C 
HETATM    4  S1  UNL     1      35.366  44.260   6.436  1.00  0.00    -0.159 SA
HETATM    5  C3  UNL     1      34.927  45.457   5.174  1.00  0.00     0.084 C 
HETATM    6  C4  UNL     1      34.702  46.842   5.731  1.00  0.00     0.084 C 
HETATM    7  S2  UNL     1      33.806  47.795   4.479  1.00  0.00    -0.168 SA
HETATM    8  C5  UNL     1      34.017  49.574   4.719  1.00  0.00     0.084 C 
HETATM    9  C6  UNL     1      32.706  50.259   4.429  1.00  0.00     0.084 C 
HETATM   10  S3  UNL     1      31.681  50.245   5.910  1.00  0.00    -0.166 SA
HETATM   11  C7  UNL     1      30.047  50.939   5.539  1.00  0.00     0.101 C 
HETATM   12  C8  UNL     1      28.989  49.990   6.024  1.00  0.00     0.200 C 
HETATM   13  O2  UNL     1      29.456  49.174   7.066  1.00  0.00    -0.275 OA
HETATM   14  S4  UNL     1      28.095  48.426   7.738  1.00  0.00     0.265 S 
HETATM   15  O3  UNL     1      27.071  49.471   8.097  1.00  0.00    -0.199 OA
HETATM   16  O4  UNL     1      27.505  47.571   6.638  1.00  0.00    -0.199 OA
HETATM   17  C9  UNL     1      28.532  47.463   9.156  1.00  0.00     0.173 C 
HETATM   18  C10 UNL     1      28.261  46.000   8.868  1.00  0.00     0.054 C 
HETATM   19  C11 UNL     1      29.181  45.094   9.688  1.00  0.00     0.172 C 
HETATM   20  F1  UNL     1      28.340  44.302  10.479  1.00  0.00    -0.249 F 
HETATM   21  C12 UNL     1      29.919  44.217   8.732  1.00  0.00     0.057 C 
HETATM   22  C13 UNL     1      31.400  44.115   9.030  1.00  0.00     0.125 C 
HETATM   23  N1  UNL     1      31.977  43.156   8.120  1.00  0.00    -0.360 N 
ATOM     24  H1  UNL     1      31.361  42.448   7.721  1.00  0.00     0.162 HD
ENDROOT
TORSDOF 0
ENDMDL
