MODEL 1
REMARK VINA RESULT: -8.347229568      0.000      0.000
REMARK  3 active torsions:
REMARK  status: ('A' for Active; 'I' for Inactive)
REMARK    1  A    between atoms: C5_6  and  O2_7 
REMARK    2  A    between atoms: O2_7  and  C6_8 
REMARK    3  A    between atoms: C14_17  and  O4_18 
ROOT
HETATM    1  C1  UNL     1      34.277  49.086   3.673  1.00  0.00     0.017 C 
HETATM    2  C2  UNL     1      34.446  47.895   4.225  1.00  0.00    -0.058 C 
HETATM    3  C3  UNL     1      33.218  47.143   4.413  1.00  0.00     0.069 C 
HETATM    4  C4  UNL     1      32.672  47.140   5.852  1.00  0.00     0.142 C 
HETATM    5  O1  UNL     1      31.935  46.014   5.909  1.00  0.00    -0.326 OA
HETATM    6  C5  UNL     1      31.431  45.578   7.135  1.00  0.00     0.290 C 
HETATM    7  C8  UNL     1      31.670  46.766   8.087  1.00  0.00     0.103 C 
HETATM    8  C9  UNL     1      33.161  46.863   8.216  1.00  0.00     0.022 C 
HETATM    9  C10 UNL     1      33.788  47.272   6.870  1.00  0.00     0.010 C 
HETATM   10  C11 UNL     1      34.203  48.704   7.055  1.00  0.00     0.020 C 
HETATM   11  C12 UNL     1      34.858  46.317   6.490  1.00  0.00     0.145 C 
HETATM   12  C13 UNL     1      36.083  46.945   5.875  1.00  0.00     0.069 C 
HETATM   13  C14 UNL     1      35.859  47.559   4.535  1.00  0.00     0.149 C 
HETATM   14  O5  UNL     1      35.313  45.502   7.554  1.00  0.00    -0.315 OA
HETATM   15  C15 UNL     1      35.305  44.140   7.598  1.00  0.00     0.259 C 
HETATM   16  O6  UNL     1      36.318  43.543   8.101  1.00  0.00    -0.265 OA
HETATM   17  C16 UNL     1      34.205  43.258   7.110  1.00  0.00     0.114 C 
HETATM   18  C17 UNL     1      33.338  42.771   8.235  1.00  0.00     0.051 C 
HETATM   19  C18 UNL     1      31.997  43.545   8.316  1.00  0.00     0.098 C 
HETATM   20  C19 UNL     1      30.901  42.526   8.358  1.00  0.00     0.044 C 
HETATM   21  C20 UNL     1      30.305  43.272   9.546  1.00  0.00     0.043 C 
HETATM   22  C21 UNL     1      31.719  43.724   9.822  1.00  0.00     0.204 C 
HETATM   23  F1  UNL     1      32.341  42.765  10.621  1.00  0.00    -0.246 F 
HETATM   24  O7  UNL     1      32.086  44.545   7.523  1.00  0.00    -0.318 OA
ENDROOT
BRANCH   6  25
HETATM   25  O2  UNL     1      30.035  45.578   6.941  1.00  0.00    -0.258 OA
BRANCH  25  26
HETATM   26  C6  UNL     1      29.149  46.508   7.438  1.00  0.00     0.259 C 
HETATM   27  C7  UNL     1      28.438  46.344   8.721  1.00  0.00     0.126 C 
HETATM   28  O3  UNL     1      28.933  47.544   6.771  1.00  0.00    -0.266 OA
ENDBRANCH  25  26
ENDBRANCH   6  25
BRANCH  13  29
HETATM   29  O4  UNL     1      36.272  46.692   3.495  1.00  0.00    -0.391 OA
ATOM     30  H4  UNL     1      36.700  47.253   2.858  1.00  0.00     0.210 HD
ENDBRANCH  13  29
TORSDOF 3
ENDMDL
MODEL 2
REMARK VINA RESULT: -8.280969910      2.134      5.338
REMARK  3 active torsions:
REMARK  status: ('A' for Active; 'I' for Inactive)
REMARK    1  A    between atoms: C5_6  and  O2_7 
REMARK    2  A    between atoms: O2_7  and  C6_8 
REMARK    3  A    between atoms: C14_17  and  O4_18 
ROOT
HETATM    1  C1  UNL     1      28.851  48.862   6.852  1.00  0.00     0.017 C 
HETATM    2  C2  UNL     1      29.515  47.970   7.570  1.00  0.00    -0.058 C 
HETATM    3  C3  UNL     1      30.837  48.404   7.989  1.00  0.00     0.069 C 
HETATM    4  C4  UNL     1      32.001  47.819   7.170  1.00  0.00     0.142 C 
HETATM    5  O1  UNL     1      33.046  47.881   8.017  1.00  0.00    -0.326 OA
HETATM    6  C5  UNL     1      34.248  47.258   7.680  1.00  0.00     0.290 C 
HETATM    7  C8  UNL     1      34.078  46.886   6.195  1.00  0.00     0.103 C 
HETATM    8  C9  UNL     1      33.003  45.840   6.180  1.00  0.00     0.022 C 
HETATM    9  C10 UNL     1      31.658  46.450   6.615  1.00  0.00     0.010 C 
HETATM   10  C11 UNL     1      30.851  46.551   5.352  1.00  0.00     0.020 C 
HETATM   11  C12 UNL     1      31.065  45.654   7.717  1.00  0.00     0.145 C 
HETATM   12  C13 UNL     1      29.572  45.461   7.631  1.00  0.00     0.069 C 
HETATM   13  C14 UNL     1      28.774  46.707   7.814  1.00  0.00     0.149 C 
HETATM   14  O5  UNL     1      31.631  44.367   7.872  1.00  0.00    -0.315 OA
HETATM   15  C15 UNL     1      32.229  43.868   8.991  1.00  0.00     0.259 C 
HETATM   16  O6  UNL     1      31.994  42.653   9.315  1.00  0.00    -0.265 OA
HETATM   17  C16 UNL     1      33.152  44.616   9.893  1.00  0.00     0.114 C 
HETATM   18  C17 UNL     1      34.591  44.283   9.619  1.00  0.00     0.051 C 
HETATM   19  C18 UNL     1      35.303  45.394   8.805  1.00  0.00     0.098 C 
HETATM   20  C19 UNL     1      36.561  45.742   9.538  1.00  0.00     0.044 C 
HETATM   21  C20 UNL     1      37.317  45.617   8.220  1.00  0.00     0.043 C 
HETATM   22  C21 UNL     1      36.228  44.650   7.822  1.00  0.00     0.204 C 
HETATM   23  F1  UNL     1      36.591  43.375   8.254  1.00  0.00    -0.246 F 
HETATM   24  O7  UNL     1      34.400  46.206   8.399  1.00  0.00    -0.318 OA
ENDROOT
BRANCH   6  25
HETATM   25  O2  UNL     1      35.179  48.317   7.658  1.00  0.00    -0.258 OA
BRANCH  25  26
HETATM   26  C6  UNL     1      35.660  48.946   6.532  1.00  0.00     0.259 C 
HETATM   27  C7  UNL     1      36.931  48.575   5.877  1.00  0.00     0.126 C 
HETATM   28  O3  UNL     1      34.991  49.879   6.035  1.00  0.00    -0.266 OA
ENDBRANCH  25  26
ENDBRANCH   6  25
BRANCH  13  29
HETATM   29  O4  UNL     1      28.281  46.814   9.137  1.00  0.00    -0.391 OA
ATOM     30  H4  UNL     1      28.467  45.974   9.541  1.00  0.00     0.210 HD
ENDBRANCH  13  29
TORSDOF 3
ENDMDL
MODEL 3
REMARK VINA RESULT: -8.191860971      1.844      4.416
REMARK  3 active torsions:
REMARK  status: ('A' for Active; 'I' for Inactive)
REMARK    1  A    between atoms: C5_6  and  O2_7 
REMARK    2  A    between atoms: O2_7  and  C6_8 
REMARK    3  A    between atoms: C14_17  and  O4_18 
ROOT
HETATM    1  C1  UNL     1      35.328  50.260   5.431  1.00  0.00     0.017 C 
HETATM    2  C2  UNL     1      34.366  49.541   5.988  1.00  0.00    -0.058 C 
HETATM    3  C3  UNL     1      34.816  48.665   7.056  1.00  0.00     0.069 C 
HETATM    4  C4  UNL     1      34.962  47.184   6.663  1.00  0.00     0.142 C 
HETATM    5  O1  UNL     1      34.831  46.532   7.834  1.00  0.00    -0.326 OA
HETATM    6  C5  UNL     1      34.720  45.141   7.842  1.00  0.00     0.290 C 
HETATM    7  C8  UNL     1      35.081  44.724   6.404  1.00  0.00     0.103 C 
HETATM    8  C9  UNL     1      33.970  45.264   5.555  1.00  0.00     0.022 C 
HETATM    9  C10 UNL     1      33.991  46.803   5.563  1.00  0.00     0.010 C 
HETATM   10  C11 UNL     1      34.512  47.190   4.207  1.00  0.00     0.020 C 
HETATM   11  C12 UNL     1      32.658  47.335   5.935  1.00  0.00     0.145 C 
HETATM   12  C13 UNL     1      32.215  48.548   5.156  1.00  0.00     0.069 C 
HETATM   13  C14 UNL     1      33.016  49.778   5.417  1.00  0.00     0.149 C 
HETATM   14  O5  UNL     1      31.609  46.389   5.840  1.00  0.00    -0.315 OA
HETATM   15  C15 UNL     1      30.775  45.993   6.842  1.00  0.00     0.259 C 
HETATM   16  O6  UNL     1      29.536  45.826   6.572  1.00  0.00    -0.265 OA
HETATM   17  C16 UNL     1      31.175  45.725   8.254  1.00  0.00     0.114 C 
HETATM   18  C17 UNL     1      31.332  44.256   8.522  1.00  0.00     0.051 C 
HETATM   19  C18 UNL     1      32.820  43.823   8.552  1.00  0.00     0.098 C 
HETATM   20  C19 UNL     1      33.033  43.061   9.823  1.00  0.00     0.044 C 
HETATM   21  C20 UNL     1      33.722  41.972   9.008  1.00  0.00     0.043 C 
HETATM   22  C21 UNL     1      32.858  42.444   7.863  1.00  0.00     0.204 C 
HETATM   23  F1  UNL     1      31.644  41.761   7.916  1.00  0.00    -0.246 F 
HETATM   24  O7  UNL     1      33.512  44.810   8.124  1.00  0.00    -0.318 OA
ENDROOT
BRANCH   6  25
HETATM   25  O2  UNL     1      35.831  44.723   8.604  1.00  0.00    -0.258 OA
BRANCH  25  26
HETATM   26  C6  UNL     1      36.329  45.356   9.721  1.00  0.00     0.259 C 
HETATM   27  C7  UNL     1      35.539  45.573  10.949  1.00  0.00     0.126 C 
HETATM   28  O3  UNL     1      37.509  45.769   9.698  1.00  0.00    -0.266 OA
ENDBRANCH  25  26
ENDBRANCH   6  25
BRANCH  13  29
HETATM   29  O4  UNL     1      32.366  50.630   6.343  1.00  0.00    -0.391 OA
ATOM     30  H4  UNL     1      31.932  50.048   6.956  1.00  0.00     0.210 HD
ENDBRANCH  13  29
TORSDOF 3
ENDMDL
MODEL 4
REMARK VINA RESULT: -8.077285501      2.062      3.213
REMARK  3 active torsions:
REMARK  status: ('A' for Active; 'I' for Inactive)
REMARK    1  A    between atoms: C5_6  and  O2_7 
REMARK    2  A    between atoms: O2_7  and  C6_8 
REMARK    3  A    between atoms: C14_17  and  O4_18 
ROOT
HETATM    1  C1  UNL     1      37.105  45.944   5.721  1.00  0.00     0.017 C 
HETATM    2  C2  UNL     1      36.129  45.246   6.282  1.00  0.00    -0.058 C 
HETATM    3  C3  UNL     1      34.814  45.499   5.720  1.00  0.00     0.069 C 
HETATM    4  C4  UNL     1      33.915  46.423   6.561  1.00  0.00     0.142 C 
HETATM    5  O1  UNL     1      32.668  46.076   6.187  1.00  0.00    -0.326 OA
HETATM    6  C5  UNL     1      31.571  46.581   6.887  1.00  0.00     0.290 C 
HETATM    7  C8  UNL     1      32.167  47.684   7.781  1.00  0.00     0.103 C 
HETATM    8  C9  UNL     1      33.037  46.957   8.762  1.00  0.00     0.022 C 
HETATM    9  C10 UNL     1      34.234  46.312   8.039  1.00  0.00     0.010 C 
HETATM   10  C11 UNL     1      35.417  47.160   8.415  1.00  0.00     0.020 C 
HETATM   11  C12 UNL     1      34.321  44.870   8.374  1.00  0.00     0.145 C 
HETATM   12  C13 UNL     1      35.720  44.349   8.591  1.00  0.00     0.069 C 
HETATM   13  C14 UNL     1      36.573  44.337   7.369  1.00  0.00     0.149 C 
HETATM   14  O5  UNL     1      33.569  44.492   9.511  1.00  0.00    -0.315 OA
HETATM   15  C15 UNL     1      32.577  43.559   9.560  1.00  0.00     0.259 C 
HETATM   16  O6  UNL     1      32.527  42.775  10.570  1.00  0.00    -0.265 OA
HETATM   17  C16 UNL     1      31.518  43.359   8.528  1.00  0.00     0.114 C 
HETATM   18  C17 UNL     1      30.217  43.991   8.933  1.00  0.00     0.051 C 
HETATM   19  C18 UNL     1      29.967  45.334   8.199  1.00  0.00     0.098 C 
HETATM   20  C19 UNL     1      28.597  45.261   7.600  1.00  0.00     0.044 C 
HETATM   21  C20 UNL     1      28.304  46.632   8.200  1.00  0.00     0.043 C 
HETATM   22  C21 UNL     1      29.323  46.260   9.250  1.00  0.00     0.204 C 
HETATM   23  F1  UNL     1      28.672  45.573  10.274  1.00  0.00    -0.246 F 
HETATM   24  O7  UNL     1      31.052  45.647   7.598  1.00  0.00    -0.318 OA
ENDROOT
BRANCH   6  25
HETATM   25  O2  UNL     1      30.850  47.294   5.907  1.00  0.00    -0.258 OA
BRANCH  25  26
HETATM   26  C6  UNL     1      30.719  48.663   5.837  1.00  0.00     0.259 C 
HETATM   27  C7  UNL     1      29.490  49.380   6.230  1.00  0.00     0.126 C 
HETATM   28  O3  UNL     1      31.687  49.336   5.419  1.00  0.00    -0.266 OA
ENDBRANCH  25  26
ENDBRANCH   6  25
BRANCH  13  29
HETATM   29  O4  UNL     1      36.615  43.049   6.782  1.00  0.00    -0.391 OA
ATOM     30  H4  UNL     1      35.706  42.792   6.680  1.00  0.00     0.210 HD
ENDBRANCH  13  29
TORSDOF 3
ENDMDL
MODEL 5
REMARK VINA RESULT: -8.043287690      2.270      6.199
REMARK  3 active torsions:
REMARK  status: ('A' for Active; 'I' for Inactive)
REMARK    1  A    between atoms: C5_6  and  O2_7 
REMARK    2  A    between atoms: O2_7  and  C6_8 
REMARK    3  A    between atoms: C14_17  and  O4_18 
ROOT
HETATM    1  C1  UNL     1      35.115  42.033   9.122  1.00  0.00     0.017 C 
HETATM    2  C2  UNL     1      34.206  42.698   8.426  1.00  0.00    -0.058 C 
HETATM    3  C3  UNL     1      34.756  43.570   7.403  1.00  0.00     0.069 C 
HETATM    4  C4  UNL     1      34.790  45.064   7.773  1.00  0.00     0.142 C 
HETATM    5  O1  UNL     1      34.787  45.685   6.578  1.00  0.00    -0.326 OA
HETATM    6  C5  UNL     1      34.622  47.070   6.519  1.00  0.00     0.290 C 
HETATM    7  C8  UNL     1      34.776  47.532   7.980  1.00  0.00     0.103 C 
HETATM    8  C9  UNL     1      33.586  46.963   8.692  1.00  0.00     0.022 C 
HETATM    9  C10 UNL     1      33.670  45.426   8.728  1.00  0.00     0.010 C 
HETATM   10  C11 UNL     1      34.024  45.089  10.150  1.00  0.00     0.020 C 
HETATM   11  C12 UNL     1      32.418  44.829   8.200  1.00  0.00     0.145 C 
HETATM   12  C13 UNL     1      31.927  43.615   8.947  1.00  0.00     0.069 C 
HETATM   13  C14 UNL     1      32.803  42.415   8.824  1.00  0.00     0.149 C 
HETATM   14  O5  UNL     1      31.330  45.731   8.134  1.00  0.00    -0.315 OA
HETATM   15  C15 UNL     1      30.618  46.070   7.023  1.00  0.00     0.259 C 
HETATM   16  O6  UNL     1      29.348  46.189   7.126  1.00  0.00    -0.265 OA
HETATM   17  C16 UNL     1      31.188  46.325   5.667  1.00  0.00     0.114 C 
HETATM   18  C17 UNL     1      31.319  47.794   5.384  1.00  0.00     0.051 C 
HETATM   19  C18 UNL     1      32.780  48.290   5.535  1.00  0.00     0.098 C 
HETATM   20  C19 UNL     1      33.126  49.034   4.283  1.00  0.00     0.044 C 
HETATM   21  C20 UNL     1      33.659  50.169   5.152  1.00  0.00     0.043 C 
HETATM   22  C21 UNL     1      32.673  49.683   6.187  1.00  0.00     0.204 C 
HETATM   23  F1  UNL     1      31.449  50.312   5.959  1.00  0.00    -0.246 F 
HETATM   24  O7  UNL     1      33.450  47.342   6.075  1.00  0.00    -0.318 OA
ENDROOT
BRANCH   6  25
HETATM   25  O2  UNL     1      35.805  47.520   5.897  1.00  0.00    -0.258 OA
BRANCH  25  26
HETATM   26  C6  UNL     1      36.407  46.950   4.797  1.00  0.00     0.259 C 
HETATM   27  C7  UNL     1      37.704  46.247   4.857  1.00  0.00     0.126 C 
HETATM   28  O3  UNL     1      35.829  47.029   3.691  1.00  0.00    -0.266 OA
ENDBRANCH  25  26
ENDBRANCH   6  25
BRANCH  13  29
HETATM   29  O4  UNL     1      32.314  41.517   7.845  1.00  0.00    -0.391 OA
ATOM     30  H4  UNL     1      31.411  41.776   7.698  1.00  0.00     0.210 HD
ENDBRANCH  13  29
TORSDOF 3
ENDMDL
