MODEL 1
REMARK VINA RESULT: -5.844217317      0.000      0.000
REMARK  3 active torsions:
REMARK  status: ('A' for Active; 'I' for Inactive)
REMARK    1  A    between atoms: O1_1  and  C1_3 
REMARK    2  A    between atoms: C7_9  and  O2_10 
REMARK    3  A    between atoms: C8_12  and  O3_13 
ROOT
HETATM    1  C1  UNL     1     -14.079   9.850   9.552  1.00  0.00     0.150 C 
HETATM    2  C2  UNL     1     -12.959  10.028  10.580  1.00  0.00     0.042 C 
HETATM    3  C3  UNL     1     -11.790   9.424   9.845  1.00  0.00     0.025 C 
HETATM    4  C4  UNL     1     -10.463   9.895  10.337  1.00  0.00     0.008 C 
HETATM    5  C5  UNL     1      -9.997  10.976   9.370  1.00  0.00     0.004 C 
HETATM    6  C6  UNL     1     -11.196  11.325   8.521  1.00  0.00     0.041 C 
HETATM    7  C7  UNL     1     -11.951  10.026   8.463  1.00  0.00     0.090 C 
HETATM    8  C8  UNL     1     -13.424  10.241   8.253  1.00  0.00     0.181 C 
ENDROOT
BRANCH   1   9
HETATM    9  O1  UNL     1     -14.572   8.564   9.556  1.00  0.00    -0.393 OA
ATOM     10  H1  UNL     1     -15.514   8.550   9.441  1.00  0.00     0.210 HD
ENDBRANCH   1   9
BRANCH   8  11
HETATM   11  O3  UNL     1     -13.935   9.496   7.201  1.00  0.00    -0.390 OA
ATOM     12  H3  UNL     1     -13.433   8.699   7.078  1.00  0.00     0.210 HD
ENDBRANCH   8  11
BRANCH   7  13
HETATM   13  O2  UNL     1     -11.368   9.218   7.510  1.00  0.00    -0.387 OA
ATOM     14  H2  UNL     1     -11.047   9.737   6.782  1.00  0.00     0.210 HD
ENDBRANCH   7  13
TORSDOF 3
ENDMDL
MODEL 2
REMARK VINA RESULT: -5.803530406      5.447      6.970
REMARK  3 active torsions:
REMARK  status: ('A' for Active; 'I' for Inactive)
REMARK    1  A    between atoms: O1_1  and  C1_3 
REMARK    2  A    between atoms: C7_9  and  O2_10 
REMARK    3  A    between atoms: C8_12  and  O3_13 
ROOT
HETATM    1  C1  UNL     1      -5.917  10.203  11.464  1.00  0.00     0.150 C 
HETATM    2  C2  UNL     1      -6.760  10.096  10.191  1.00  0.00     0.042 C 
HETATM    3  C3  UNL     1      -6.902   8.600  10.063  1.00  0.00     0.025 C 
HETATM    4  C4  UNL     1      -8.076   8.178   9.246  1.00  0.00     0.008 C 
HETATM    5  C5  UNL     1      -9.176   7.794  10.227  1.00  0.00     0.004 C 
HETATM    6  C6  UNL     1      -8.727   8.296  11.578  1.00  0.00     0.041 C 
HETATM    7  C7  UNL     1      -7.229   8.198  11.487  1.00  0.00     0.090 C 
HETATM    8  C8  UNL     1      -6.545   9.191  12.386  1.00  0.00     0.181 C 
ENDROOT
BRANCH   1   9
HETATM    9  O1  UNL     1      -4.583   9.966  11.211  1.00  0.00    -0.393 OA
ATOM     10  H1  UNL     1      -4.033  10.269  11.924  1.00  0.00     0.210 HD
ENDBRANCH   1   9
BRANCH   8  11
HETATM   11  O3  UNL     1      -5.588   8.611  13.205  1.00  0.00    -0.390 OA
ATOM     12  H3  UNL     1      -5.999   8.110  13.900  1.00  0.00     0.210 HD
ENDBRANCH   8  11
BRANCH   7  13
HETATM   13  O2  UNL     1      -6.856   6.892  11.721  1.00  0.00    -0.387 OA
ATOM     14  H2  UNL     1      -5.942   6.846  11.977  1.00  0.00     0.210 HD
ENDBRANCH   7  13
TORSDOF 3
ENDMDL
MODEL 3
REMARK VINA RESULT: -5.689946969      4.589      6.292
REMARK  3 active torsions:
REMARK  status: ('A' for Active; 'I' for Inactive)
REMARK    1  A    between atoms: O1_1  and  C1_3 
REMARK    2  A    between atoms: C7_9  and  O2_10 
REMARK    3  A    between atoms: C8_12  and  O3_13 
ROOT
HETATM    1  C1  UNL     1      -6.422   9.525  12.373  1.00  0.00     0.150 C 
HETATM    2  C2  UNL     1      -6.275   9.351  10.860  1.00  0.00     0.042 C 
HETATM    3  C3  UNL     1      -7.189   8.179  10.612  1.00  0.00     0.025 C 
HETATM    4  C4  UNL     1      -7.673   8.083   9.204  1.00  0.00     0.008 C 
HETATM    5  C5  UNL     1      -9.079   8.669   9.185  1.00  0.00     0.004 C 
HETATM    6  C6  UNL     1      -9.259   9.372  10.509  1.00  0.00     0.041 C 
HETATM    7  C7  UNL     1      -8.404   8.555  11.437  1.00  0.00     0.090 C 
HETATM    8  C8  UNL     1      -7.903   9.366  12.600  1.00  0.00     0.181 C 
ENDROOT
BRANCH   1   9
HETATM    9  O1  UNL     1      -5.657   8.613  13.066  1.00  0.00    -0.393 OA
ATOM     10  H1  UNL     1      -4.922   8.308  12.547  1.00  0.00     0.210 HD
ENDBRANCH   1   9
BRANCH   8  11
HETATM   11  O3  UNL     1      -8.151   8.766  13.826  1.00  0.00    -0.390 OA
ATOM     12  H3  UNL     1      -8.917   9.146  14.238  1.00  0.00     0.210 HD
ENDBRANCH   8  11
BRANCH   7  13
HETATM   13  O2  UNL     1      -9.105   7.428  11.809  1.00  0.00    -0.387 OA
ATOM     14  H2  UNL     1      -9.599   7.083  11.074  1.00  0.00     0.210 HD
ENDBRANCH   7  13
TORSDOF 3
ENDMDL
MODEL 4
REMARK VINA RESULT: -5.657067981      6.352      7.956
REMARK  3 active torsions:
REMARK  status: ('A' for Active; 'I' for Inactive)
REMARK    1  A    between atoms: O1_1  and  C1_3 
REMARK    2  A    between atoms: C7_9  and  O2_10 
REMARK    3  A    between atoms: C8_12  and  O3_13 
ROOT
HETATM    1  C1  UNL     1      -4.865  14.407  10.489  1.00  0.00     0.150 C 
HETATM    2  C2  UNL     1      -5.390  14.729  11.890  1.00  0.00     0.042 C 
HETATM    3  C3  UNL     1      -6.879  14.698  11.657  1.00  0.00     0.025 C 
HETATM    4  C4  UNL     1      -7.675  14.458  12.895  1.00  0.00     0.008 C 
HETATM    5  C5  UNL     1      -8.050  12.982  12.894  1.00  0.00     0.004 C 
HETATM    6  C6  UNL     1      -7.205  12.335  11.823  1.00  0.00     0.041 C 
HETATM    7  C7  UNL     1      -7.034  13.443  10.821  1.00  0.00     0.090 C 
HETATM    8  C8  UNL     1      -5.766  13.292  10.027  1.00  0.00     0.181 C 
ENDROOT
BRANCH   1   9
HETATM    9  O1  UNL     1      -4.892  15.515   9.670  1.00  0.00    -0.393 OA
ATOM     10  H1  UNL     1      -4.910  15.270   8.752  1.00  0.00     0.210 HD
ENDBRANCH   1   9
BRANCH   8  11
HETATM   11  O3  UNL     1      -5.973  13.364   8.657  1.00  0.00    -0.390 OA
ATOM     12  H3  UNL     1      -6.823  13.006   8.426  1.00  0.00     0.210 HD
ENDBRANCH   8  11
BRANCH   7  13
HETATM   13  O2  UNL     1      -8.169  13.515  10.043  1.00  0.00    -0.387 OA
ATOM     14  H2  UNL     1      -7.977  13.267   9.146  1.00  0.00     0.210 HD
ENDBRANCH   7  13
TORSDOF 3
ENDMDL
MODEL 5
REMARK VINA RESULT: -5.549834060      6.931      8.296
REMARK  3 active torsions:
REMARK  status: ('A' for Active; 'I' for Inactive)
REMARK    1  A    between atoms: O1_1  and  C1_3 
REMARK    2  A    between atoms: C7_9  and  O2_10 
REMARK    3  A    between atoms: C8_12  and  O3_13 
ROOT
HETATM    1  C1  UNL     1      -5.306  10.075  11.105  1.00  0.00     0.150 C 
HETATM    2  C2  UNL     1      -6.699  10.607  11.451  1.00  0.00     0.042 C 
HETATM    3  C3  UNL     1      -6.506  11.015  12.889  1.00  0.00     0.025 C 
HETATM    4  C4  UNL     1      -7.491  12.031  13.361  1.00  0.00     0.008 C 
HETATM    5  C5  UNL     1      -6.789  13.381  13.303  1.00  0.00     0.004 C 
HETATM    6  C6  UNL     1      -5.524  13.163  12.507  1.00  0.00     0.041 C 
HETATM    7  C7  UNL     1      -5.173  11.736  12.828  1.00  0.00     0.090 C 
HETATM    8  C8  UNL     1      -4.382  11.090  11.724  1.00  0.00     0.181 C 
ENDROOT
BRANCH   1   9
HETATM    9  O1  UNL     1      -5.119   8.796  11.581  1.00  0.00    -0.393 OA
ATOM     10  H1  UNL     1      -4.793   8.215  10.904  1.00  0.00     0.210 HD
ENDBRANCH   1   9
BRANCH   8  11
HETATM   11  O3  UNL     1      -3.218  10.485  12.175  1.00  0.00    -0.390 OA
ATOM     12  H3  UNL     1      -2.561  11.137  12.390  1.00  0.00     0.210 HD
ENDBRANCH   8  11
BRANCH   7  13
HETATM   13  O2  UNL     1      -4.545  11.699  14.054  1.00  0.00    -0.387 OA
ATOM     14  H2  UNL     1      -4.046  10.896  14.150  1.00  0.00     0.210 HD
ENDBRANCH   7  13
TORSDOF 3
ENDMDL
