MODEL 1
REMARK VINA RESULT: -5.757382123      0.000      0.000
REMARK  2 active torsions:
REMARK  status: ('A' for Active; 'I' for Inactive)
REMARK    1  A    between atoms: O1_1  and  C1_3 
REMARK    2  A    between atoms: C9_11  and  O2_12 
ROOT
HETATM    1  C1  UNL     1      -5.195  15.084  10.771  1.00  0.00     0.147 C 
HETATM    2  C2  UNL     1      -4.197  14.234  11.463  1.00  0.00     0.039 C 
HETATM    3  C3  UNL     1      -4.431  13.976  12.900  1.00  0.00    -0.012 C 
HETATM    4  C4  UNL     1      -4.910  12.559  13.111  1.00  0.00     0.005 C 
HETATM    5  C5  UNL     1      -6.287  12.481  13.678  1.00  0.00     0.001 C 
HETATM    6  C6  UNL     1      -7.264  13.407  13.015  1.00  0.00     0.007 C 
HETATM    7  C7  UNL     1      -6.718  14.779  12.757  1.00  0.00     0.017 C 
HETATM    8  C8  UNL     1      -5.376  14.999  13.448  1.00  0.00     0.012 C 
HETATM    9  C9  UNL     1      -6.562  15.119  11.318  1.00  0.00     0.151 C 
ENDROOT
BRANCH   1  10
HETATM   10  O1  UNL     1      -5.283  14.607   9.440  1.00  0.00    -0.393 OA
ATOM     11  H1  UNL     1      -5.520  15.351   8.899  1.00  0.00     0.210 HD
ENDBRANCH   1  10
BRANCH   9  12
HETATM   12  O2  UNL     1      -7.436  14.300  10.576  1.00  0.00    -0.393 OA
ATOM     13  H2  UNL     1      -8.337  14.402  10.861  1.00  0.00     0.210 HD
ENDBRANCH   9  12
TORSDOF 2
ENDMDL
MODEL 2
REMARK VINA RESULT: -5.751856985      5.259      6.488
REMARK  2 active torsions:
REMARK  status: ('A' for Active; 'I' for Inactive)
REMARK    1  A    between atoms: O1_1  and  C1_3 
REMARK    2  A    between atoms: C9_11  and  O2_12 
ROOT
HETATM    1  C1  UNL     1      -7.740   9.740  12.746  1.00  0.00     0.147 C 
HETATM    2  C2  UNL     1      -8.934  10.087  11.938  1.00  0.00     0.039 C 
HETATM    3  C3  UNL     1      -8.731  10.208  10.478  1.00  0.00    -0.012 C 
HETATM    4  C4  UNL     1      -9.323   9.018   9.762  1.00  0.00     0.005 C 
HETATM    5  C5  UNL     1      -8.307   8.198   9.042  1.00  0.00     0.001 C 
HETATM    6  C6  UNL     1      -7.072   7.925   9.850  1.00  0.00     0.007 C 
HETATM    7  C7  UNL     1      -6.566   9.117  10.604  1.00  0.00     0.017 C 
HETATM    8  C8  UNL     1      -7.276  10.401  10.186  1.00  0.00     0.012 C 
HETATM    9  C9  UNL     1      -6.656   8.995  12.083  1.00  0.00     0.151 C 
ENDROOT
BRANCH   1  10
HETATM   10  O1  UNL     1      -8.197   8.948  13.829  1.00  0.00    -0.393 OA
ATOM     11  H1  UNL     1      -7.978   8.048  13.620  1.00  0.00     0.210 HD
ENDBRANCH   1  10
BRANCH   9  12
HETATM   12  O2  UNL     1      -6.697   7.624  12.408  1.00  0.00    -0.393 OA
ATOM     13  H2  UNL     1      -5.826   7.275  12.556  1.00  0.00     0.210 HD
ENDBRANCH   9  12
TORSDOF 2
ENDMDL
MODEL 3
REMARK VINA RESULT: -5.623011262      0.905      1.071
REMARK  2 active torsions:
REMARK  status: ('A' for Active; 'I' for Inactive)
REMARK    1  A    between atoms: O1_1  and  C1_3 
REMARK    2  A    between atoms: C9_11  and  O2_12 
ROOT
HETATM    1  C1  UNL     1      -5.258  14.159  10.735  1.00  0.00     0.147 C 
HETATM    2  C2  UNL     1      -4.821  12.848  11.272  1.00  0.00     0.039 C 
HETATM    3  C3  UNL     1      -5.126  12.582  12.695  1.00  0.00    -0.012 C 
HETATM    4  C4  UNL     1      -6.257  11.589  12.815  1.00  0.00     0.005 C 
HETATM    5  C5  UNL     1      -7.470  12.154  13.475  1.00  0.00     0.001 C 
HETATM    6  C6  UNL     1      -7.848  13.515  12.972  1.00  0.00     0.007 C 
HETATM    7  C7  UNL     1      -6.683  14.442  12.796  1.00  0.00     0.017 C 
HETATM    8  C8  UNL     1      -5.404  13.871  13.400  1.00  0.00     0.012 C 
HETATM    9  C9  UNL     1      -6.404  14.818  11.384  1.00  0.00     0.151 C 
ENDROOT
BRANCH   1  10
HETATM   10  O1  UNL     1      -5.605  13.948   9.377  1.00  0.00    -0.393 OA
ATOM     11  H1  UNL     1      -6.098  14.710   9.100  1.00  0.00     0.210 HD
ENDBRANCH   1  10
BRANCH   9  12
HETATM   12  O2  UNL     1      -7.589  14.645  10.641  1.00  0.00    -0.393 OA
ATOM     13  H2  UNL     1      -8.000  13.809  10.830  1.00  0.00     0.210 HD
ENDBRANCH   9  12
TORSDOF 2
ENDMDL
MODEL 4
REMARK VINA RESULT: -5.537505353      1.392      2.148
REMARK  2 active torsions:
REMARK  status: ('A' for Active; 'I' for Inactive)
REMARK    1  A    between atoms: O1_1  and  C1_3 
REMARK    2  A    between atoms: C9_11  and  O2_12 
ROOT
HETATM    1  C1  UNL     1      -5.593  15.034  10.739  1.00  0.00     0.147 C 
HETATM    2  C2  UNL     1      -5.272  15.789  11.973  1.00  0.00     0.039 C 
HETATM    3  C3  UNL     1      -5.484  15.081  13.255  1.00  0.00    -0.012 C 
HETATM    4  C4  UNL     1      -4.160  14.681  13.861  1.00  0.00     0.005 C 
HETATM    5  C5  UNL     1      -3.986  13.205  13.977  1.00  0.00     0.001 C 
HETATM    6  C6  UNL     1      -4.391  12.453  12.744  1.00  0.00     0.007 C 
HETATM    7  C7  UNL     1      -5.672  12.935  12.134  1.00  0.00     0.017 C 
HETATM    8  C8  UNL     1      -6.403  13.919  13.042  1.00  0.00     0.012 C 
HETATM    9  C9  UNL     1      -5.519  13.564  10.795  1.00  0.00     0.151 C 
ENDROOT
BRANCH   1  10
HETATM   10  O1  UNL     1      -4.677  15.467   9.747  1.00  0.00    -0.393 OA
ATOM     11  H1  UNL     1      -4.584  14.750   9.131  1.00  0.00     0.210 HD
ENDBRANCH   1  10
BRANCH   9  12
HETATM   12  O2  UNL     1      -4.324  13.085  10.219  1.00  0.00    -0.393 OA
ATOM     13  H2  UNL     1      -3.707  13.790  10.060  1.00  0.00     0.210 HD
ENDBRANCH   9  12
TORSDOF 2
ENDMDL
MODEL 5
REMARK VINA RESULT: -5.527776936      1.170      1.593
REMARK  2 active torsions:
REMARK  status: ('A' for Active; 'I' for Inactive)
REMARK    1  A    between atoms: O1_1  and  C1_3 
REMARK    2  A    between atoms: C9_11  and  O2_12 
ROOT
HETATM    1  C1  UNL     1      -4.502  13.831  11.116  1.00  0.00     0.147 C 
HETATM    2  C2  UNL     1      -4.595  13.151  12.430  1.00  0.00     0.039 C 
HETATM    3  C3  UNL     1      -5.628  13.654  13.363  1.00  0.00    -0.012 C 
HETATM    4  C4  UNL     1      -6.782  12.685  13.443  1.00  0.00     0.005 C 
HETATM    5  C5  UNL     1      -8.069  13.258  12.952  1.00  0.00     0.001 C 
HETATM    6  C6  UNL     1      -7.937  14.009  11.660  1.00  0.00     0.007 C 
HETATM    7  C7  UNL     1      -6.734  14.900  11.597  1.00  0.00     0.017 C 
HETATM    8  C8  UNL     1      -6.048  15.030  12.953  1.00  0.00     0.012 C 
HETATM    9  C9  UNL     1      -5.713  14.488  10.597  1.00  0.00     0.151 C 
ENDROOT
BRANCH   1  10
HETATM   10  O1  UNL     1      -4.119  12.844  10.174  1.00  0.00    -0.393 OA
ATOM     11  H1  UNL     1      -3.650  12.174  10.657  1.00  0.00     0.210 HD
ENDBRANCH   1  10
BRANCH   9  12
HETATM   12  O2  UNL     1      -6.351  13.698   9.619  1.00  0.00    -0.393 OA
ATOM     13  H2  UNL     1      -7.135  13.284   9.962  1.00  0.00     0.210 HD
ENDBRANCH   9  12
TORSDOF 2
ENDMDL
