MODEL 1
REMARK VINA RESULT: -5.922505893      0.000      0.000
REMARK  3 active torsions:
REMARK  status: ('A' for Active; 'I' for Inactive)
REMARK       I    between atoms: C1_2  and  N3_7 
REMARK    1  A    between atoms: N2_3  and  O1_5 
REMARK    2  A    between atoms: N3_7  and  N4_8 
REMARK    3  A    between atoms: N3_7  and  C2_11 
ROOT
HETATM    1  N1  UNL     1     -10.147  12.259   8.475  1.00  0.00    -0.060 NA
HETATM    2  C1  UNL     1     -10.325  11.371   9.564  1.00  0.00     0.229 C 
HETATM    3  N2  UNL     1     -11.035  11.764  10.561  1.00  0.00    -0.240 N 
ATOM      4  H2  UNL     1     -11.175  11.139  11.355  1.00  0.00     0.197 HD
HETATM    5  N3  UNL     1      -9.721  10.089   9.524  1.00  0.00    -0.265 N 
ENDROOT
BRANCH   5   6
HETATM    6  N4  UNL     1     -10.401   9.112   8.784  1.00  0.00    -0.340 N 
ATOM      7  H42 UNL     1     -11.122   9.409   8.126  1.00  0.00     0.177 HD
ATOM      8  H41 UNL     1     -10.122   8.146   8.956  1.00  0.00     0.177 HD
ENDBRANCH   5   6
BRANCH   5   9
HETATM    9  C2  UNL     1      -8.505   9.735  10.166  1.00  0.00     0.110 C 
HETATM   10  C3  UNL     1      -7.484  10.840  10.216  1.00  0.00     0.027 C 
HETATM   11  C4  UNL     1      -6.116  10.163  10.296  1.00  0.00     0.002 C 
HETATM   12  C5  UNL     1      -6.238   8.907  11.152  1.00  0.00     0.000 C 
HETATM   13  C6  UNL     1      -6.877   7.839  10.283  1.00  0.00     0.002 C 
HETATM   14  C7  UNL     1      -7.943   8.500   9.449  1.00  0.00     0.027 C 
ENDBRANCH   5   9
BRANCH   3  15
HETATM   15  O1  UNL     1     -11.605  13.008  10.573  1.00  0.00    -0.287 OA
ATOM     16  H1  UNL     1     -11.446  13.612  11.289  1.00  0.00     0.244 HD
ENDBRANCH   3  15
TORSDOF 3
ENDMDL
MODEL 2
REMARK VINA RESULT: -5.773253056      4.858      6.014
REMARK  3 active torsions:
REMARK  status: ('A' for Active; 'I' for Inactive)
REMARK       I    between atoms: C1_2  and  N3_7 
REMARK    1  A    between atoms: N2_3  and  O1_5 
REMARK    2  A    between atoms: N3_7  and  N4_8 
REMARK    3  A    between atoms: N3_7  and  C2_11 
ROOT
HETATM    1  N1  UNL     1      -5.818   9.419  10.575  1.00  0.00    -0.060 NA
HETATM    2  C1  UNL     1      -5.421   9.634  11.918  1.00  0.00     0.229 C 
HETATM    3  N2  UNL     1      -5.884   8.848  12.823  1.00  0.00    -0.240 N 
ATOM      4  H2  UNL     1      -5.610   8.986  13.796  1.00  0.00     0.197 HD
HETATM    5  N3  UNL     1      -4.535  10.699  12.221  1.00  0.00    -0.265 N 
ENDROOT
BRANCH   5   6
HETATM    6  N4  UNL     1      -3.175  10.450  11.995  1.00  0.00    -0.340 N 
ATOM      7  H42 UNL     1      -2.823   9.501  12.121  1.00  0.00     0.177 HD
ATOM      8  H41 UNL     1      -2.615  11.254  11.711  1.00  0.00     0.177 HD
ENDBRANCH   5   6
BRANCH   5   9
HETATM    9  C2  UNL     1      -4.922  11.969  12.726  1.00  0.00     0.110 C 
HETATM   10  C3  UNL     1      -6.298  12.002  13.335  1.00  0.00     0.027 C 
HETATM   11  C4  UNL     1      -6.794  13.442  13.205  1.00  0.00     0.002 C 
HETATM   12  C5  UNL     1      -5.616  14.389  13.404  1.00  0.00     0.000 C 
HETATM   13  C6  UNL     1      -4.826  14.390  12.107  1.00  0.00     0.002 C 
HETATM   14  C7  UNL     1      -4.804  12.980  11.578  1.00  0.00     0.027 C 
ENDBRANCH   5   9
BRANCH   3  15
HETATM   15  O1  UNL     1      -6.738   7.829  12.502  1.00  0.00    -0.287 OA
ATOM     16  H1  UNL     1      -7.094   7.258  13.173  1.00  0.00     0.244 HD
ENDBRANCH   3  15
TORSDOF 3
ENDMDL
MODEL 3
REMARK VINA RESULT: -5.753790823      5.157      6.308
REMARK  3 active torsions:
REMARK  status: ('A' for Active; 'I' for Inactive)
REMARK       I    between atoms: C1_2  and  N3_7 
REMARK    1  A    between atoms: N2_3  and  O1_5 
REMARK    2  A    between atoms: N3_7  and  N4_8 
REMARK    3  A    between atoms: N3_7  and  C2_11 
ROOT
HETATM    1  N1  UNL     1      -4.055   9.952  11.885  1.00  0.00    -0.060 NA
HETATM    2  C1  UNL     1      -5.184  10.344  12.645  1.00  0.00     0.229 C 
HETATM    3  N2  UNL     1      -6.132   9.493  12.812  1.00  0.00    -0.240 N 
ATOM      4  H2  UNL     1      -6.954   9.756  13.356  1.00  0.00     0.197 HD
HETATM    5  N3  UNL     1      -5.236  11.651  13.193  1.00  0.00    -0.265 N 
ENDROOT
BRANCH   5   6
HETATM    6  N4  UNL     1      -4.526  11.846  14.386  1.00  0.00    -0.340 N 
ATOM      7  H42 UNL     1      -3.699  11.276  14.563  1.00  0.00     0.177 HD
ATOM      8  H41 UNL     1      -4.894  12.562  15.013  1.00  0.00     0.177 HD
ENDBRANCH   5   6
BRANCH   5   9
HETATM    9  C2  UNL     1      -5.939  12.749  12.630  1.00  0.00     0.110 C 
HETATM   10  C3  UNL     1      -5.192  14.055  12.675  1.00  0.00     0.027 C 
HETATM   11  C4  UNL     1      -6.250  15.159  12.676  1.00  0.00     0.002 C 
HETATM   12  C5  UNL     1      -7.411  14.729  11.787  1.00  0.00     0.000 C 
HETATM   13  C6  UNL     1      -8.237  13.736  12.586  1.00  0.00     0.002 C 
HETATM   14  C7  UNL     1      -7.286  12.860  13.357  1.00  0.00     0.027 C 
ENDBRANCH   5   9
BRANCH   3  15
HETATM   15  O1  UNL     1      -6.056   8.238  12.270  1.00  0.00    -0.287 OA
ATOM     16  H1  UNL     1      -6.591   7.994  11.524  1.00  0.00     0.244 HD
ENDBRANCH   3  15
TORSDOF 3
ENDMDL
MODEL 4
REMARK VINA RESULT: -5.738019935      3.472      4.620
REMARK  3 active torsions:
REMARK  status: ('A' for Active; 'I' for Inactive)
REMARK       I    between atoms: C1_2  and  N3_7 
REMARK    1  A    between atoms: N2_3  and  O1_5 
REMARK    2  A    between atoms: N3_7  and  N4_8 
REMARK    3  A    between atoms: N3_7  and  C2_11 
ROOT
HETATM    1  N1  UNL     1      -8.121   8.917  13.664  1.00  0.00    -0.060 NA
HETATM    2  C1  UNL     1      -7.747   8.650  12.324  1.00  0.00     0.229 C 
HETATM    3  N2  UNL     1      -6.496   8.562  12.047  1.00  0.00    -0.240 N 
ATOM      4  H2  UNL     1      -6.206   8.370  11.087  1.00  0.00     0.197 HD
HETATM    5  N3  UNL     1      -8.754   8.491  11.338  1.00  0.00    -0.265 N 
ENDROOT
BRANCH   5   6
HETATM    6  N4  UNL     1      -9.365   7.231  11.282  1.00  0.00    -0.340 N 
ATOM      7  H42 UNL     1     -10.135   7.032  11.921  1.00  0.00     0.177 HD
ATOM      8  H41 UNL     1      -8.990   6.582  10.590  1.00  0.00     0.177 HD
ENDBRANCH   5   6
BRANCH   5   9
HETATM    9  C2  UNL     1      -9.174   9.495  10.426  1.00  0.00     0.110 C 
HETATM   10  C3  UNL     1      -9.165  10.890  10.990  1.00  0.00     0.027 C 
HETATM   11  C4  UNL     1     -10.205  11.684  10.199  1.00  0.00     0.002 C 
HETATM   12  C5  UNL     1     -10.182  11.217   8.748  1.00  0.00     0.000 C 
HETATM   13  C6  UNL     1     -10.933   9.899   8.694  1.00  0.00     0.002 C 
HETATM   14  C7  UNL     1     -10.574   9.112   9.927  1.00  0.00     0.027 C 
ENDBRANCH   5   9
BRANCH   3  15
HETATM   15  O1  UNL     1      -5.545   8.722  13.018  1.00  0.00    -0.287 OA
ATOM     16  H1  UNL     1      -4.864   8.073  13.148  1.00  0.00     0.244 HD
ENDBRANCH   3  15
TORSDOF 3
ENDMDL
MODEL 5
REMARK VINA RESULT: -5.708074369      1.986      2.885
REMARK  3 active torsions:
REMARK  status: ('A' for Active; 'I' for Inactive)
REMARK       I    between atoms: C1_2  and  N3_7 
REMARK    1  A    between atoms: N2_3  and  O1_5 
REMARK    2  A    between atoms: N3_7  and  N4_8 
REMARK    3  A    between atoms: N3_7  and  C2_11 
ROOT
HETATM    1  N1  UNL     1     -12.720   9.034   9.723  1.00  0.00    -0.060 NA
HETATM    2  C1  UNL     1     -11.716   9.782   9.059  1.00  0.00     0.229 C 
HETATM    3  N2  UNL     1     -11.905  10.095   7.827  1.00  0.00    -0.240 N 
ATOM      4  H2  UNL     1     -11.194  10.633   7.331  1.00  0.00     0.197 HD
HETATM    5  N3  UNL     1     -10.546  10.160   9.765  1.00  0.00    -0.265 N 
ENDROOT
BRANCH   5   6
HETATM    6  N4  UNL     1     -10.662  11.288  10.588  1.00  0.00    -0.340 N 
ATOM      7  H42 UNL     1     -11.432  11.937  10.424  1.00  0.00     0.177 HD
ATOM      8  H41 UNL     1      -9.952  11.388  11.313  1.00  0.00     0.177 HD
ENDBRANCH   5   6
BRANCH   5   9
HETATM    9  C2  UNL     1      -9.296   9.489   9.698  1.00  0.00     0.110 C 
HETATM   10  C3  UNL     1      -9.311   8.090  10.251  1.00  0.00     0.027 C 
HETATM   11  C4  UNL     1      -7.883   7.789  10.709  1.00  0.00     0.002 C 
HETATM   12  C5  UNL     1      -6.908   8.445   9.738  1.00  0.00     0.000 C 
HETATM   13  C6  UNL     1      -6.863   9.922  10.085  1.00  0.00     0.002 C 
HETATM   14  C7  UNL     1      -8.263  10.358  10.428  1.00  0.00     0.027 C 
ENDBRANCH   5   9
BRANCH   3  15
HETATM   15  O1  UNL     1     -13.043   9.716   7.169  1.00  0.00    -0.287 OA
ATOM     16  H1  UNL     1     -13.649   9.094   7.556  1.00  0.00     0.244 HD
ENDBRANCH   3  15
TORSDOF 3
ENDMDL
