MODEL 1
REMARK VINA RESULT: -5.484890937      0.000      0.000
REMARK  3 active torsions:
REMARK  status: ('A' for Active; 'I' for Inactive)
REMARK    1  A    between atoms: C3_3  and  O1_4 
REMARK    2  A    between atoms: C6_8  and  O2_9 
REMARK    3  A    between atoms: C7_11  and  O3_13 
ROOT
HETATM    1  C1  UNL     1      -4.764  11.791   9.942  1.00  0.00     0.016 C 
HETATM    2  C2  UNL     1      -4.714  12.964  10.933  1.00  0.00     0.047 C 
HETATM    3  C3  UNL     1      -4.944  12.432  12.286  1.00  0.00     0.124 C 
HETATM    4  C4  UNL     1      -5.674  13.271  13.260  1.00  0.00     0.035 C 
HETATM    5  C5  UNL     1      -6.549  14.334  12.705  1.00  0.00     0.037 C 
HETATM    6  C6  UNL     1      -6.864  14.166  11.236  1.00  0.00     0.152 C 
HETATM    7  C7  UNL     1      -5.582  14.081  10.484  1.00  0.00     0.086 C 
HETATM    8  C8  UNL     1      -4.834  15.418  10.472  1.00  0.00     0.049 C 
ENDROOT
BRANCH   7   9
HETATM    9  O3  UNL     1      -5.912  13.869   9.124  1.00  0.00    -0.387 OA
ATOM     10  H3  UNL     1      -5.589  14.606   8.620  1.00  0.00     0.210 HD
ENDBRANCH   7   9
BRANCH   6  11
HETATM   11  O2  UNL     1      -7.615  15.259  10.843  1.00  0.00    -0.393 OA
ATOM     12  H2  UNL     1      -8.410  14.930  10.440  1.00  0.00     0.210 HD
ENDBRANCH   6  11
BRANCH   3  13
HETATM   13  O1  UNL     1      -3.695  12.115  12.857  1.00  0.00    -0.395 OA
ATOM     14  H1  UNL     1      -3.783  11.297  13.333  1.00  0.00     0.210 HD
ENDBRANCH   3  13
TORSDOF 3
ENDMDL
MODEL 2
REMARK VINA RESULT: -5.475627293      1.367      3.601
REMARK  3 active torsions:
REMARK  status: ('A' for Active; 'I' for Inactive)
REMARK    1  A    between atoms: C3_3  and  O1_4 
REMARK    2  A    between atoms: C6_8  and  O2_9 
REMARK    3  A    between atoms: C7_11  and  O3_13 
ROOT
HETATM    1  C1  UNL     1      -4.885  15.691  11.759  1.00  0.00     0.016 C 
HETATM    2  C2  UNL     1      -5.692  14.387  11.668  1.00  0.00     0.047 C 
HETATM    3  C3  UNL     1      -7.064  14.662  12.128  1.00  0.00     0.124 C 
HETATM    4  C4  UNL     1      -7.794  13.597  12.847  1.00  0.00     0.035 C 
HETATM    5  C5  UNL     1      -6.974  12.543  13.496  1.00  0.00     0.037 C 
HETATM    6  C6  UNL     1      -5.515  12.909  13.654  1.00  0.00     0.152 C 
HETATM    7  C7  UNL     1      -4.970  13.264  12.314  1.00  0.00     0.086 C 
HETATM    8  C8  UNL     1      -4.868  12.043  11.394  1.00  0.00     0.049 C 
ENDROOT
BRANCH   7   9
HETATM    9  O3  UNL     1      -3.623  13.653  12.506  1.00  0.00    -0.387 OA
ATOM     10  H3  UNL     1      -3.591  14.271  13.227  1.00  0.00     0.210 HD
ENDBRANCH   7   9
BRANCH   6  11
HETATM   11  O2  UNL     1      -4.867  11.814  14.196  1.00  0.00    -0.393 OA
ATOM     12  H2  UNL     1      -3.938  12.009  14.208  1.00  0.00     0.210 HD
ENDBRANCH   6  11
BRANCH   3  13
HETATM   13  O1  UNL     1      -7.843  15.026  11.011  1.00  0.00    -0.395 OA
ATOM     14  H1  UNL     1      -8.054  15.950  11.082  1.00  0.00     0.210 HD
ENDBRANCH   3  13
TORSDOF 3
ENDMDL
MODEL 3
REMARK VINA RESULT: -5.367933811      7.448      8.441
REMARK  3 active torsions:
REMARK  status: ('A' for Active; 'I' for Inactive)
REMARK    1  A    between atoms: C3_3  and  O1_4 
REMARK    2  A    between atoms: C6_8  and  O2_9 
REMARK    3  A    between atoms: C7_11  and  O3_13 
ROOT
HETATM    1  C1  UNL     1     -10.927  11.160   8.188  1.00  0.00     0.016 C 
HETATM    2  C2  UNL     1     -12.222  11.496   8.945  1.00  0.00     0.047 C 
HETATM    3  C3  UNL     1     -11.894  11.644  10.373  1.00  0.00     0.124 C 
HETATM    4  C4  UNL     1     -12.896  11.223  11.374  1.00  0.00     0.035 C 
HETATM    5  C5  UNL     1     -13.917  10.242  10.929  1.00  0.00     0.037 C 
HETATM    6  C6  UNL     1     -13.564   9.529   9.642  1.00  0.00     0.152 C 
HETATM    7  C7  UNL     1     -13.310  10.552   8.591  1.00  0.00     0.086 C 
HETATM    8  C8  UNL     1     -14.591  11.283   8.179  1.00  0.00     0.049 C 
ENDROOT
BRANCH   7   9
HETATM    9  O3  UNL     1     -12.930   9.855   7.419  1.00  0.00    -0.387 OA
ATOM     10  H3  UNL     1     -12.106   9.413   7.589  1.00  0.00     0.210 HD
ENDBRANCH   7   9
BRANCH   6  11
HETATM   11  O2  UNL     1     -14.631   8.712   9.313  1.00  0.00    -0.393 OA
ATOM     12  H2  UNL     1     -14.795   8.816   8.384  1.00  0.00     0.210 HD
ENDBRANCH   6  11
BRANCH   3  13
HETATM   13  O1  UNL     1     -11.594  12.999  10.622  1.00  0.00    -0.395 OA
ATOM     14  H1  UNL     1     -12.068  13.273  11.398  1.00  0.00     0.210 HD
ENDBRANCH   3  13
TORSDOF 3
ENDMDL
MODEL 4
REMARK VINA RESULT: -5.335132744      1.122      1.129
REMARK  3 active torsions:
REMARK  status: ('A' for Active; 'I' for Inactive)
REMARK    1  A    between atoms: C3_3  and  O1_4 
REMARK    2  A    between atoms: C6_8  and  O2_9 
REMARK    3  A    between atoms: C7_11  and  O3_13 
ROOT
HETATM    1  C1  UNL     1      -5.915  11.102  10.110  1.00  0.00     0.016 C 
HETATM    2  C2  UNL     1      -5.673  12.178  11.181  1.00  0.00     0.047 C 
HETATM    3  C3  UNL     1      -6.256  11.705  12.447  1.00  0.00     0.124 C 
HETATM    4  C4  UNL     1      -6.846  12.699  13.368  1.00  0.00     0.035 C 
HETATM    5  C5  UNL     1      -7.270  13.992  12.775  1.00  0.00     0.037 C 
HETATM    6  C6  UNL     1      -7.391  13.967  11.268  1.00  0.00     0.152 C 
HETATM    7  C7  UNL     1      -6.091  13.517  10.698  1.00  0.00     0.086 C 
HETATM    8  C8  UNL     1      -4.989  14.564  10.886  1.00  0.00     0.049 C 
ENDROOT
BRANCH   7   9
HETATM    9  O3  UNL     1      -6.256  13.452   9.293  1.00  0.00    -0.387 OA
ATOM     10  H3  UNL     1      -7.091  13.848   9.073  1.00  0.00     0.210 HD
ENDBRANCH   7   9
BRANCH   6  11
HETATM   11  O2  UNL     1      -7.715  15.247  10.855  1.00  0.00    -0.393 OA
ATOM     12  H2  UNL     1      -7.646  15.268   9.908  1.00  0.00     0.210 HD
ENDBRANCH   6  11
BRANCH   3  13
HETATM   13  O1  UNL     1      -5.260  11.008  13.161  1.00  0.00    -0.395 OA
ATOM     14  H1  UNL     1      -5.280  10.097  12.891  1.00  0.00     0.210 HD
ENDBRANCH   3  13
TORSDOF 3
ENDMDL
MODEL 5
REMARK VINA RESULT: -5.290798985      1.451      2.516
REMARK  3 active torsions:
REMARK  status: ('A' for Active; 'I' for Inactive)
REMARK    1  A    between atoms: C3_3  and  O1_4 
REMARK    2  A    between atoms: C6_8  and  O2_9 
REMARK    3  A    between atoms: C7_11  and  O3_13 
ROOT
HETATM    1  C1  UNL     1      -8.101  13.524  12.737  1.00  0.00     0.016 C 
HETATM    2  C2  UNL     1      -6.700  13.089  12.280  1.00  0.00     0.047 C 
HETATM    3  C3  UNL     1      -5.756  13.354  13.379  1.00  0.00     0.124 C 
HETATM    4  C4  UNL     1      -4.375  13.759  13.042  1.00  0.00     0.035 C 
HETATM    5  C5  UNL     1      -4.161  14.354  11.699  1.00  0.00     0.037 C 
HETATM    6  C6  UNL     1      -5.433  14.810  11.019  1.00  0.00     0.152 C 
HETATM    7  C7  UNL     1      -6.371  13.656  10.949  1.00  0.00     0.086 C 
HETATM    8  C8  UNL     1      -5.886  12.580   9.973  1.00  0.00     0.049 C 
ENDROOT
BRANCH   7   9
HETATM    9  O3  UNL     1      -7.567  14.130  10.359  1.00  0.00    -0.387 OA
ATOM     10  H3  UNL     1      -7.359  14.896   9.839  1.00  0.00     0.210 HD
ENDBRANCH   7   9
BRANCH   6  11
HETATM   11  O2  UNL     1      -5.090  15.267   9.759  1.00  0.00    -0.393 OA
ATOM     12  H2  UNL     1      -5.828  15.763   9.424  1.00  0.00     0.210 HD
ENDBRANCH   6  11
BRANCH   3  13
HETATM   13  O1  UNL     1      -5.671  12.197  14.181  1.00  0.00    -0.395 OA
ATOM     14  H1  UNL     1      -5.334  12.448  15.033  1.00  0.00     0.210 HD
ENDBRANCH   3  13
TORSDOF 3
ENDMDL
