MODEL 1
REMARK VINA RESULT: -6.066967706      0.000      0.000
REMARK  1 active torsions:
REMARK  status: ('A' for Active; 'I' for Inactive)
REMARK    1  A    between atoms: O1_1  and  N1_3 
ROOT
HETATM    1  N1  UNL     1     -13.636   9.576   8.725  1.00  0.00    -0.189 NA
HETATM    2  C1  UNL     1     -14.976   9.676   9.287  1.00  0.00     0.121 C 
HETATM    3  C2  UNL     1     -15.702  10.725   8.439  1.00  0.00     0.017 C 
HETATM    4  C3  UNL     1     -14.836  11.962   8.465  1.00  0.00     0.003 C 
HETATM    5  C4  UNL     1     -13.713  11.854   9.474  1.00  0.00     0.029 C 
HETATM    6  C5  UNL     1     -12.832  10.661   9.245  1.00  0.00     0.062 C 
HETATM    7  C6  UNL     1     -11.678  11.022   8.360  1.00  0.00     0.031 C 
HETATM    8  C7  UNL     1     -10.345  10.579   8.893  1.00  0.00     0.029 C 
HETATM    9  C8  UNL     1     -10.350   9.225   9.511  1.00  0.00     0.232 C 
HETATM   10  N2  UNL     1     -11.566   8.881  10.191  1.00  0.00    -0.073 N 
ATOM     11  H21 UNL     1     -11.414   8.264  10.989  1.00  0.00     0.277 HD
ATOM     12  H22 UNL     1     -12.161   8.256   9.649  1.00  0.00     0.277 HD
HETATM   13  C9  UNL     1     -12.237  10.133  10.558  1.00  0.00     0.259 C 
ENDROOT
BRANCH   1  14
HETATM   14  O1  UNL     1     -13.627   9.487   7.394  1.00  0.00    -0.312 OA
ATOM     15  H1  UNL     1     -12.903   9.952   6.991  1.00  0.00     0.237 HD
ENDBRANCH   1  14
TORSDOF 1
ENDMDL
MODEL 2
REMARK VINA RESULT: -5.978831468      7.025      7.864
REMARK  1 active torsions:
REMARK  status: ('A' for Active; 'I' for Inactive)
REMARK    1  A    between atoms: O1_1  and  N1_3 
ROOT
HETATM    1  N1  UNL     1      -6.591   9.357  12.897  1.00  0.00    -0.189 NA
HETATM    2  C1  UNL     1      -7.819   8.697  12.476  1.00  0.00     0.121 C 
HETATM    3  C2  UNL     1      -7.407   7.732  11.361  1.00  0.00     0.017 C 
HETATM    4  C3  UNL     1      -6.669   8.561  10.337  1.00  0.00     0.003 C 
HETATM    5  C4  UNL     1      -6.787  10.045  10.608  1.00  0.00     0.029 C 
HETATM    6  C5  UNL     1      -6.301  10.432  11.973  1.00  0.00     0.062 C 
HETATM    7  C6  UNL     1      -4.849  10.801  11.929  1.00  0.00     0.031 C 
HETATM    8  C7  UNL     1      -4.535  12.106  12.605  1.00  0.00     0.029 C 
HETATM    9  C8  UNL     1      -5.271  12.329  13.879  1.00  0.00     0.232 C 
HETATM   10  N2  UNL     1      -6.598  11.786  13.909  1.00  0.00    -0.073 N 
ATOM     11  H21 UNL     1      -7.238  12.331  14.486  1.00  0.00     0.277 HD
ATOM     12  H22 UNL     1      -6.659  10.912  14.431  1.00  0.00     0.277 HD
HETATM   13  C9  UNL     1      -7.053  11.653  12.521  1.00  0.00     0.259 C 
ENDROOT
BRANCH   1  14
HETATM   14  O1  UNL     1      -5.574   8.513  13.081  1.00  0.00    -0.312 OA
ATOM     15  H1  UNL     1      -5.575   8.103  13.938  1.00  0.00     0.237 HD
ENDBRANCH   1  14
TORSDOF 1
ENDMDL
MODEL 3
REMARK VINA RESULT: -5.921921878      6.745      8.228
REMARK  1 active torsions:
REMARK  status: ('A' for Active; 'I' for Inactive)
REMARK    1  A    between atoms: O1_1  and  N1_3 
ROOT
HETATM    1  N1  UNL     1      -5.697  10.326  13.095  1.00  0.00    -0.189 NA
HETATM    2  C1  UNL     1      -4.788   9.483  12.332  1.00  0.00     0.121 C 
HETATM    3  C2  UNL     1      -3.825  10.443  11.629  1.00  0.00     0.017 C 
HETATM    4  C3  UNL     1      -4.686  11.419  10.863  1.00  0.00     0.003 C 
HETATM    5  C4  UNL     1      -6.141  11.002  10.837  1.00  0.00     0.029 C 
HETATM    6  C5  UNL     1      -6.725  10.825  12.208  1.00  0.00     0.062 C 
HETATM    7  C6  UNL     1      -7.351  12.102  12.682  1.00  0.00     0.031 C 
HETATM    8  C7  UNL     1      -8.743  11.930  13.219  1.00  0.00     0.029 C 
HETATM    9  C8  UNL     1      -8.933  10.712  14.052  1.00  0.00     0.232 C 
HETATM   10  N2  UNL     1      -8.158   9.577  13.640  1.00  0.00    -0.073 N 
ATOM     11  H21 UNL     1      -8.623   8.689  13.830  1.00  0.00     0.277 HD
ATOM     12  H22 UNL     1      -7.336   9.424  14.224  1.00  0.00     0.277 HD
HETATM   13  C9  UNL     1      -7.828   9.757  12.223  1.00  0.00     0.259 C 
ENDROOT
BRANCH   1  14
HETATM   14  O1  UNL     1      -5.073  11.280  13.789  1.00  0.00    -0.312 OA
ATOM     15  H1  UNL     1      -4.133  11.154  13.843  1.00  0.00     0.237 HD
ENDBRANCH   1  14
TORSDOF 1
ENDMDL
MODEL 4
REMARK VINA RESULT: -5.650415411      4.888      6.339
REMARK  1 active torsions:
REMARK  status: ('A' for Active; 'I' for Inactive)
REMARK    1  A    between atoms: O1_1  and  N1_3 
ROOT
HETATM    1  N1  UNL     1      -7.322   8.399  10.785  1.00  0.00    -0.189 NA
HETATM    2  C1  UNL     1      -8.686   8.022  11.125  1.00  0.00     0.121 C 
HETATM    3  C2  UNL     1      -9.545   8.463   9.936  1.00  0.00     0.017 C 
HETATM    4  C3  UNL     1      -9.253   9.930   9.727  1.00  0.00     0.003 C 
HETATM    5  C4  UNL     1      -8.439  10.520  10.858  1.00  0.00     0.029 C 
HETATM    6  C5  UNL     1      -7.140   9.804  11.080  1.00  0.00     0.062 C 
HETATM    7  C6  UNL     1      -6.044  10.442  10.282  1.00  0.00     0.031 C 
HETATM    8  C7  UNL     1      -4.805  10.732  11.079  1.00  0.00     0.029 C 
HETATM    9  C8  UNL     1      -4.429   9.662  12.042  1.00  0.00     0.232 C 
HETATM   10  N2  UNL     1      -5.539   8.971  12.633  1.00  0.00    -0.073 N 
ATOM     11  H21 UNL     1      -5.349   8.652  13.583  1.00  0.00     0.277 HD
ATOM     12  H22 UNL     1      -5.706   8.056  12.216  1.00  0.00     0.277 HD
HETATM   13  C9  UNL     1      -6.705   9.857  12.552  1.00  0.00     0.259 C 
ENDROOT
BRANCH   1  14
HETATM   14  O1  UNL     1      -6.974   8.059   9.543  1.00  0.00    -0.312 OA
ATOM     15  H1  UNL     1      -6.435   7.277   9.503  1.00  0.00     0.237 HD
ENDBRANCH   1  14
TORSDOF 1
ENDMDL
MODEL 5
REMARK VINA RESULT: -5.577771757      6.571      7.931
REMARK  1 active torsions:
REMARK  status: ('A' for Active; 'I' for Inactive)
REMARK    1  A    between atoms: O1_1  and  N1_3 
ROOT
HETATM    1  N1  UNL     1      -6.989  13.121  11.075  1.00  0.00    -0.189 NA
HETATM    2  C1  UNL     1      -7.537  11.775  10.991  1.00  0.00     0.121 C 
HETATM    3  C2  UNL     1      -8.959  11.871  11.549  1.00  0.00     0.017 C 
HETATM    4  C3  UNL     1      -8.833  12.493  12.919  1.00  0.00     0.003 C 
HETATM    5  C4  UNL     1      -7.393  12.584  13.378  1.00  0.00     0.029 C 
HETATM    6  C5  UNL     1      -6.523  13.350  12.426  1.00  0.00     0.062 C 
HETATM    7  C6  UNL     1      -6.481  14.800  12.802  1.00  0.00     0.031 C 
HETATM    8  C7  UNL     1      -5.092  15.367  12.870  1.00  0.00     0.029 C 
HETATM    9  C8  UNL     1      -4.187  14.905  11.783  1.00  0.00     0.232 C 
HETATM   10  N2  UNL     1      -4.410  13.555  11.350  1.00  0.00    -0.073 N 
ATOM     11  H21 UNL     1      -3.557  13.093  11.035  1.00  0.00     0.277 HD
ATOM     12  H22 UNL     1      -4.924  13.500  10.471  1.00  0.00     0.277 HD
HETATM   13  C9  UNL     1      -5.074  12.843  12.446  1.00  0.00     0.259 C 
ENDROOT
BRANCH   1  14
HETATM   14  O1  UNL     1      -7.825  14.060  10.626  1.00  0.00    -0.312 OA
ATOM     15  H1  UNL     1      -7.830  14.137   9.679  1.00  0.00     0.237 HD
ENDBRANCH   1  14
TORSDOF 1
ENDMDL
