MODEL 1
REMARK VINA RESULT: -6.249367474      0.000      0.000
REMARK  4 active torsions:
REMARK  status: ('A' for Active; 'I' for Inactive)
REMARK    1  A    between atoms: C2_2  and  O1_4 
REMARK    2  A    between atoms: O1_4  and  N1_5 
REMARK       I    between atoms: N1_5  and  C4_7 
REMARK       I    between atoms: C4_7  and  N3_12 
REMARK    3  A    between atoms: N2_8  and  O2_10 
REMARK    4  A    between atoms: N3_12  and  C5_14 
ROOT
HETATM    1  N1  UNL     1     -14.398  16.802   6.817  1.00  0.00    -0.094 N 
ATOM      2  H1  UNL     1     -14.361  17.201   5.879  1.00  0.00     0.213 HD
HETATM    3  C4  UNL     1     -14.869  15.477   7.006  1.00  0.00     0.723 C 
HETATM    4  N2  UNL     1     -15.927  15.256   7.677  1.00  0.00    -0.097 N 
ATOM      5  H2  UNL     1     -16.258  14.301   7.808  1.00  0.00     0.213 HD
HETATM    6  N3  UNL     1     -14.196  14.344   6.466  1.00  0.00    -0.167 N 
ATOM      7  H3  UNL     1     -13.344  13.995   6.904  1.00  0.00     0.186 HD
ENDROOT
BRANCH   1   8
HETATM    8  O1  UNL     1     -14.002  17.529   7.869  1.00  0.00    -0.262 OA
BRANCH   8   9
HETATM    9  C2  UNL     1     -13.920  18.856   7.467  1.00  0.00     0.144 C 
HETATM   10  C1  UNL     1     -15.278  19.484   7.721  1.00  0.00     0.042 C 
HETATM   11  C3  UNL     1     -13.571  18.900   5.996  1.00  0.00     0.042 C 
ENDBRANCH   8   9
ENDBRANCH   1   8
BRANCH   4  12
HETATM   12  O2  UNL     1     -16.618  16.302   8.220  1.00  0.00    -0.276 OA
ATOM     13  H2  UNL     1     -17.189  16.155   8.965  1.00  0.00     0.245 HD
ENDBRANCH   4  12
BRANCH   6  14
HETATM   14  C5  UNL     1     -14.683  13.752   5.400  1.00  0.00     0.165 A 
HETATM   15  N4  UNL     1     -15.497  12.701   5.356  1.00  0.00    -0.344 N 
HETATM   16  C6  UNL     1     -15.877  12.252   4.194  1.00  0.00     0.121 A 
ATOM     17  H4  UNL     1     -15.819  12.255   6.216  1.00  0.00     0.167 HD
HETATM   18  C7  UNL     1     -15.412  12.892   3.077  1.00  0.00     0.093 A 
HETATM   19 CL1  UNL     1     -15.750  12.517   1.381  1.00  0.00    -0.075 Cl
HETATM   20  S1  UNL     1     -14.441  14.124   3.754  1.00  0.00    -0.040 SA
ENDBRANCH   6  14
TORSDOF 4
ENDMDL
MODEL 2
REMARK VINA RESULT: -6.217756027      3.717      6.157
REMARK  4 active torsions:
REMARK  status: ('A' for Active; 'I' for Inactive)
REMARK    1  A    between atoms: C2_2  and  O1_4 
REMARK    2  A    between atoms: O1_4  and  N1_5 
REMARK       I    between atoms: N1_5  and  C4_7 
REMARK       I    between atoms: C4_7  and  N3_12 
REMARK    3  A    between atoms: N2_8  and  O2_10 
REMARK    4  A    between atoms: N3_12  and  C5_14 
ROOT
HETATM    1  N1  UNL     1     -16.053  13.408   4.819  1.00  0.00    -0.094 N 
ATOM      2  H1  UNL     1     -16.439  13.886   4.006  1.00  0.00     0.213 HD
HETATM    3  C4  UNL     1     -15.521  14.160   5.898  1.00  0.00     0.723 C 
HETATM    4  N2  UNL     1     -14.287  14.082   6.195  1.00  0.00    -0.097 N 
ATOM      5  H2  UNL     1     -13.913  14.626   6.972  1.00  0.00     0.213 HD
HETATM    6  N3  UNL     1     -16.324  15.027   6.693  1.00  0.00    -0.167 N 
ATOM      7  H3  UNL     1     -16.949  14.643   7.402  1.00  0.00     0.186 HD
ENDROOT
BRANCH   1   8
HETATM    8  O1  UNL     1     -16.047  12.069   4.868  1.00  0.00    -0.262 OA
BRANCH   8   9
HETATM    9  C2  UNL     1     -16.350  11.593   3.599  1.00  0.00     0.144 C 
HETATM   10  C1  UNL     1     -15.445  12.320   2.622  1.00  0.00     0.042 C 
HETATM   11  C3  UNL     1     -17.805  11.878   3.305  1.00  0.00     0.042 C 
ENDBRANCH   8   9
ENDBRANCH   1   8
BRANCH   4  12
HETATM   12  O2  UNL     1     -13.463  13.268   5.470  1.00  0.00    -0.276 OA
ATOM     13  H2  UNL     1     -12.521  13.334   5.574  1.00  0.00     0.245 HD
ENDBRANCH   4  12
BRANCH   6  14
HETATM   14  C5  UNL     1     -16.253  16.324   6.505  1.00  0.00     0.165 A 
HETATM   15  N4  UNL     1     -16.528  16.999   5.393  1.00  0.00    -0.344 N 
HETATM   16  C6  UNL     1     -16.397  18.295   5.399  1.00  0.00     0.121 A 
ATOM     17  H4  UNL     1     -16.835  16.512   4.551  1.00  0.00     0.167 HD
HETATM   18  C7  UNL     1     -15.982  18.891   6.559  1.00  0.00     0.093 A 
HETATM   19 CL1  UNL     1     -15.716  20.613   6.870  1.00  0.00    -0.075 Cl
HETATM   20  S1  UNL     1     -15.796  17.549   7.599  1.00  0.00    -0.040 SA
ENDBRANCH   6  14
TORSDOF 4
ENDMDL
MODEL 3
REMARK VINA RESULT: -6.151597850      1.228      1.632
REMARK  4 active torsions:
REMARK  status: ('A' for Active; 'I' for Inactive)
REMARK    1  A    between atoms: C2_2  and  O1_4 
REMARK    2  A    between atoms: O1_4  and  N1_5 
REMARK       I    between atoms: N1_5  and  C4_7 
REMARK       I    between atoms: C4_7  and  N3_12 
REMARK    3  A    between atoms: N2_8  and  O2_10 
REMARK    4  A    between atoms: N3_12  and  C5_14 
ROOT
HETATM    1  N1  UNL     1     -16.070  16.399   7.280  1.00  0.00    -0.094 N 
ATOM      2  H1  UNL     1     -17.008  16.112   7.002  1.00  0.00     0.213 HD
HETATM    3  C4  UNL     1     -14.947  15.622   6.897  1.00  0.00     0.723 C 
HETATM    4  N2  UNL     1     -14.226  15.050   7.775  1.00  0.00    -0.097 N 
ATOM      5  H2  UNL     1     -13.420  14.492   7.490  1.00  0.00     0.213 HD
HETATM    6  N3  UNL     1     -14.572  15.443   5.534  1.00  0.00    -0.167 N 
ATOM      7  H3  UNL     1     -14.098  16.192   5.029  1.00  0.00     0.186 HD
ENDROOT
BRANCH   1   8
HETATM    8  O1  UNL     1     -15.899  17.511   8.008  1.00  0.00    -0.262 OA
BRANCH   8   9
HETATM    9  C2  UNL     1     -15.644  18.560   7.135  1.00  0.00     0.144 C 
HETATM   10  C1  UNL     1     -14.197  18.970   7.340  1.00  0.00     0.042 C 
HETATM   11  C3  UNL     1     -16.580  19.702   7.456  1.00  0.00     0.042 C 
ENDBRANCH   8   9
ENDBRANCH   1   8
BRANCH   4  12
HETATM   12  O2  UNL     1     -14.534  15.182   9.099  1.00  0.00    -0.276 OA
ATOM     13  H2  UNL     1     -14.937  14.460   9.565  1.00  0.00     0.245 HD
ENDBRANCH   4  12
BRANCH   6  14
HETATM   14  C5  UNL     1     -14.841  14.306   4.935  1.00  0.00     0.165 A 
HETATM   15  N4  UNL     1     -15.402  13.223   5.465  1.00  0.00    -0.344 N 
HETATM   16  C6  UNL     1     -15.591  12.182   4.707  1.00  0.00     0.121 A 
ATOM     17  H4  UNL     1     -15.680  13.208   6.447  1.00  0.00     0.167 HD
HETATM   18  C7  UNL     1     -15.197  12.262   3.399  1.00  0.00     0.093 A 
HETATM   19 CL1  UNL     1     -15.322  11.024   2.140  1.00  0.00    -0.075 Cl
HETATM   20  S1  UNL     1     -14.567  13.848   3.317  1.00  0.00    -0.040 SA
ENDBRANCH   6  14
TORSDOF 4
ENDMDL
MODEL 4
REMARK VINA RESULT: -6.138088666      1.709      2.102
REMARK  4 active torsions:
REMARK  status: ('A' for Active; 'I' for Inactive)
REMARK    1  A    between atoms: C2_2  and  O1_4 
REMARK    2  A    between atoms: O1_4  and  N1_5 
REMARK       I    between atoms: N1_5  and  C4_7 
REMARK       I    between atoms: C4_7  and  N3_12 
REMARK    3  A    between atoms: N2_8  and  O2_10 
REMARK    4  A    between atoms: N3_12  and  C5_14 
ROOT
HETATM    1  N1  UNL     1     -14.857  15.808   5.172  1.00  0.00    -0.094 N 
ATOM      2  H1  UNL     1     -14.992  16.171   4.229  1.00  0.00     0.213 HD
HETATM    3  C4  UNL     1     -15.031  14.424   5.432  1.00  0.00     0.723 C 
HETATM    4  N2  UNL     1     -15.953  14.022   6.210  1.00  0.00    -0.097 N 
ATOM      5  H2  UNL     1     -16.071  13.025   6.390  1.00  0.00     0.213 HD
HETATM    6  N3  UNL     1     -14.198  13.428   4.846  1.00  0.00    -0.167 N 
ATOM      7  H3  UNL     1     -13.255  13.272   5.201  1.00  0.00     0.186 HD
ENDROOT
BRANCH   1   8
HETATM    8  O1  UNL     1     -14.517  16.639   6.167  1.00  0.00    -0.262 OA
BRANCH   8   9
HETATM    9  C2  UNL     1     -14.462  17.926   5.649  1.00  0.00     0.144 C 
HETATM   10  C1  UNL     1     -13.841  17.826   4.268  1.00  0.00     0.042 C 
HETATM   11  C3  UNL     1     -13.616  18.784   6.561  1.00  0.00     0.042 C 
ENDBRANCH   8   9
ENDBRANCH   1   8
BRANCH   4  12
HETATM   12  O2  UNL     1     -16.786  14.929   6.802  1.00  0.00    -0.276 OA
ATOM     13  H2  UNL     1     -17.713  14.738   6.881  1.00  0.00     0.245 HD
ENDBRANCH   4  12
BRANCH   6  14
HETATM   14  C5  UNL     1     -14.655  12.711   3.845  1.00  0.00     0.165 A 
HETATM   15  N4  UNL     1     -15.068  11.447   3.875  1.00  0.00    -0.344 N 
HETATM   16  C6  UNL     1     -15.491  10.902   2.771  1.00  0.00     0.121 A 
ATOM     17  H4  UNL     1     -15.053  10.915   4.745  1.00  0.00     0.167 HD
HETATM   18  C7  UNL     1     -15.487  11.667   1.636  1.00  0.00     0.093 A 
HETATM   19 CL1  UNL     1     -15.998  11.208   0.004  1.00  0.00    -0.075 Cl
HETATM   20  S1  UNL     1     -14.868  13.151   2.213  1.00  0.00    -0.040 SA
ENDBRANCH   6  14
TORSDOF 4
ENDMDL
MODEL 5
REMARK VINA RESULT: -6.088016862      3.482      6.146
REMARK  4 active torsions:
REMARK  status: ('A' for Active; 'I' for Inactive)
REMARK    1  A    between atoms: C2_2  and  O1_4 
REMARK    2  A    between atoms: O1_4  and  N1_5 
REMARK       I    between atoms: N1_5  and  C4_7 
REMARK       I    between atoms: C4_7  and  N3_12 
REMARK    3  A    between atoms: N2_8  and  O2_10 
REMARK    4  A    between atoms: N3_12  and  C5_14 
ROOT
HETATM    1  N1  UNL     1     -16.102  14.121   5.043  1.00  0.00    -0.094 N 
ATOM      2  H1  UNL     1     -16.427  14.801   4.356  1.00  0.00     0.213 HD
HETATM    3  C4  UNL     1     -15.393  14.556   6.192  1.00  0.00     0.723 C 
HETATM    4  N2  UNL     1     -14.183  14.209   6.376  1.00  0.00    -0.097 N 
ATOM      5  H2  UNL     1     -13.681  14.526   7.205  1.00  0.00     0.213 HD
HETATM    6  N3  UNL     1     -15.985  15.390   7.183  1.00  0.00    -0.167 N 
ATOM      7  H3  UNL     1     -16.639  14.999   7.861  1.00  0.00     0.186 HD
ENDROOT
BRANCH   1   8
HETATM    8  O1  UNL     1     -16.345  12.816   4.859  1.00  0.00    -0.262 OA
BRANCH   8   9
HETATM    9  C2  UNL     1     -16.610  12.616   3.511  1.00  0.00     0.144 C 
HETATM   10  C1  UNL     1     -17.874  11.780   3.425  1.00  0.00     0.042 C 
HETATM   11  C3  UNL     1     -15.440  11.892   2.885  1.00  0.00     0.042 C 
ENDBRANCH   8   9
ENDBRANCH   1   8
BRANCH   4  12
HETATM   12  O2  UNL     1     -13.559  13.410   5.461  1.00  0.00    -0.276 OA
ATOM     13  H2  UNL     1     -12.906  13.779   4.878  1.00  0.00     0.245 HD
ENDBRANCH   4  12
BRANCH   6  14
HETATM   14  C5  UNL     1     -15.680  16.667   7.218  1.00  0.00     0.165 A 
HETATM   15  N4  UNL     1     -15.079  17.332   8.201  1.00  0.00    -0.344 N 
HETATM   16  C6  UNL     1     -14.859  18.606   8.051  1.00  0.00     0.121 A 
ATOM     17  H4  UNL     1     -14.795  16.852   9.055  1.00  0.00     0.167 HD
HETATM   18  C7  UNL     1     -15.263  19.193   6.882  1.00  0.00     0.093 A 
HETATM   19 CL1  UNL     1     -15.102  20.887   6.395  1.00  0.00    -0.075 Cl
HETATM   20  S1  UNL     1     -15.947  17.872   6.042  1.00  0.00    -0.040 SA
ENDBRANCH   6  14
TORSDOF 4
ENDMDL
