MODEL 1
REMARK VINA RESULT: -8.936885647      0.000      0.000
REMARK  3 active torsions:
REMARK  status: ('A' for Active; 'I' for Inactive)
REMARK    1  A    between atoms: C16_19  and  O1_20 
REMARK    2  A    between atoms: C16_19  and  C17_22 
REMARK    3  A    between atoms: C17_22  and  O2_23 
ROOT
HETATM    1  C1  UNL     1      20.380 -14.720   3.941  1.00  0.00     0.010 C 
HETATM    2  C2  UNL     1      19.210 -13.740   4.168  1.00  0.00    -0.010 C 
HETATM    3  C3  UNL     1      19.127 -12.895   2.977  1.00  0.00     0.005 C 
HETATM    4  C4  UNL     1      19.239 -11.419   3.177  1.00  0.00     0.009 C 
HETATM    5  C5  UNL     1      17.959 -10.978   3.882  1.00  0.00    -0.044 C 
HETATM    6  C6  UNL     1      16.766 -11.718   3.456  1.00  0.00     0.015 C 
HETATM    7  C7  UNL     1      17.750  -9.516   3.433  1.00  0.00     0.015 C 
HETATM    8  C8  UNL     1      18.300 -10.912   5.317  1.00  0.00     0.045 C 
HETATM    9  C9  UNL     1      18.502 -12.145   6.084  1.00  0.00    -0.052 C 
HETATM   10  C10 UNL     1      17.297 -12.588   6.819  1.00  0.00     0.013 C 
HETATM   11  N1  UNL     1      16.234 -11.928   6.779  1.00  0.00    -0.402 N 
ATOM     12  H11 UNL     1      15.402 -12.233   7.285  1.00  0.00     0.156 HD
ATOM     13  H12 UNL     1      16.225 -11.082   6.209  1.00  0.00     0.156 HD
HETATM   14  C11 UNL     1      17.310 -13.802   7.635  1.00  0.00     0.080 C 
HETATM   15  C12 UNL     1      18.235 -14.814   7.101  1.00  0.00    -0.031 C 
HETATM   16  C13 UNL     1      17.436 -15.785   6.243  1.00  0.00     0.016 C 
HETATM   17  C14 UNL     1      18.639 -15.630   8.339  1.00  0.00     0.013 C 
HETATM   18  C15 UNL     1      17.865 -15.084   9.485  1.00  0.00     0.041 C 
HETATM   19  C16 UNL     1      17.704 -13.613   9.060  1.00  0.00     0.088 C 
HETATM   20  C18 UNL     1      19.489 -14.326   6.493  1.00  0.00     0.019 C 
HETATM   21  C19 UNL     1      19.362 -13.187   5.506  1.00  0.00     0.021 C 
ENDROOT
BRANCH  19  22
HETATM   22  O1  UNL     1      18.911 -13.020   9.286  1.00  0.00    -0.387 OA
ATOM     23  H1  UNL     1      18.905 -12.238   9.826  1.00  0.00     0.210 HD
ENDBRANCH  19  22
BRANCH  19  24
HETATM   24  C17 UNL     1      16.644 -13.021   9.946  1.00  0.00     0.202 C 
BRANCH  24  25
HETATM   25  O2  UNL     1      17.142 -12.515  11.144  1.00  0.00    -0.398 OA
ATOM     26  H2  UNL     1      16.538 -12.601  11.872  1.00  0.00     0.209 HD
ENDBRANCH  24  25
ENDBRANCH  19  24
TORSDOF 3
ENDMDL
MODEL 2
REMARK VINA RESULT: -8.526748338      2.038      4.293
REMARK  3 active torsions:
REMARK  status: ('A' for Active; 'I' for Inactive)
REMARK    1  A    between atoms: C16_19  and  O1_20 
REMARK    2  A    between atoms: C16_19  and  C17_22 
REMARK    3  A    between atoms: C17_22  and  O2_23 
ROOT
HETATM    1  C1  UNL     1      17.935  -9.719   1.480  1.00  0.00     0.010 C 
HETATM    2  C2  UNL     1      19.010 -10.641   2.092  1.00  0.00    -0.010 C 
HETATM    3  C3  UNL     1      19.984 -10.918   1.037  1.00  0.00     0.005 C 
HETATM    4  C4  UNL     1      20.222 -12.350   0.685  1.00  0.00     0.009 C 
HETATM    5  C5  UNL     1      20.959 -12.972   1.869  1.00  0.00    -0.044 C 
HETATM    6  C6  UNL     1      21.904 -12.060   2.521  1.00  0.00     0.015 C 
HETATM    7  C7  UNL     1      21.802 -14.107   1.251  1.00  0.00     0.015 C 
HETATM    8  C8  UNL     1      19.918 -13.639   2.675  1.00  0.00     0.045 C 
HETATM    9  C9  UNL     1      18.971 -12.841   3.462  1.00  0.00    -0.052 C 
HETATM   10  C10 UNL     1      19.371 -12.675   4.876  1.00  0.00     0.013 C 
HETATM   11  N1  UNL     1      20.416 -13.203   5.321  1.00  0.00    -0.402 N 
ATOM     12  H11 UNL     1      20.692 -13.088   6.297  1.00  0.00     0.156 HD
ATOM     13  H12 UNL     1      20.988 -13.739   4.670  1.00  0.00     0.156 HD
HETATM   14  C11 UNL     1      18.550 -11.905   5.811  1.00  0.00     0.080 C 
HETATM   15  C12 UNL     1      17.827 -10.814   5.138  1.00  0.00    -0.031 C 
HETATM   16  C13 UNL     1      18.637  -9.536   5.297  1.00  0.00     0.016 C 
HETATM   17  C14 UNL     1      16.585 -10.601   6.019  1.00  0.00     0.013 C 
HETATM   18  C15 UNL     1      16.714 -11.527   7.175  1.00  0.00     0.041 C 
HETATM   19  C16 UNL     1      17.510 -12.683   6.542  1.00  0.00     0.088 C 
HETATM   20  C18 UNL     1      17.332 -11.077   3.772  1.00  0.00     0.019 C 
HETATM   21  C19 UNL     1      18.314 -11.702   2.807  1.00  0.00     0.021 C 
ENDROOT
BRANCH  19  22
HETATM   22  O1  UNL     1      16.621 -13.381   5.779  1.00  0.00    -0.387 OA
ATOM     23  H1  UNL     1      16.133 -12.882   5.134  1.00  0.00     0.210 HD
ENDBRANCH  19  22
BRANCH  19  24
HETATM   24  C17 UNL     1      18.019 -13.529   7.676  1.00  0.00     0.202 C 
BRANCH  24  25
HETATM   25  O2  UNL     1      18.560 -12.785   8.722  1.00  0.00    -0.398 OA
ATOM     26  H2  UNL     1      18.020 -12.783   9.503  1.00  0.00     0.209 HD
ENDBRANCH  24  25
ENDBRANCH  19  24
TORSDOF 3
ENDMDL
MODEL 3
REMARK VINA RESULT: -8.514652751      3.601      5.989
REMARK  3 active torsions:
REMARK  status: ('A' for Active; 'I' for Inactive)
REMARK    1  A    between atoms: C16_19  and  O1_20 
REMARK    2  A    between atoms: C16_19  and  C17_22 
REMARK    3  A    between atoms: C17_22  and  O2_23 
ROOT
HETATM    1  C1  UNL     1      19.955 -15.432   5.340  1.00  0.00     0.010 C 
HETATM    2  C2  UNL     1      20.645 -14.810   4.108  1.00  0.00    -0.010 C 
HETATM    3  C3  UNL     1      21.620 -15.788   3.627  1.00  0.00     0.005 C 
HETATM    4  C4  UNL     1      23.045 -15.348   3.543  1.00  0.00     0.009 C 
HETATM    5  C5  UNL     1      23.123 -14.341   2.399  1.00  0.00    -0.044 C 
HETATM    6  C6  UNL     1      22.233 -14.656   1.275  1.00  0.00     0.015 C 
HETATM    7  C7  UNL     1      24.564 -14.469   1.864  1.00  0.00     0.015 C 
HETATM    8  C8  UNL     1      23.047 -13.012   3.036  1.00  0.00     0.045 C 
HETATM    9  C9  UNL     1      21.779 -12.535   3.599  1.00  0.00    -0.052 C 
HETATM   10  C10 UNL     1      21.009 -11.674   2.675  1.00  0.00     0.013 C 
HETATM   11  N1  UNL     1      21.448 -11.388   1.537  1.00  0.00    -0.402 N 
ATOM     12  H11 UNL     1      20.917 -10.794   0.900  1.00  0.00     0.156 HD
ATOM     13  H12 UNL     1      22.349 -11.781   1.266  1.00  0.00     0.156 HD
HETATM   14  C11 UNL     1      19.716 -11.111   3.064  1.00  0.00     0.080 C 
HETATM   15  C12 UNL     1      18.991 -11.989   3.996  1.00  0.00    -0.031 C 
HETATM   16  C13 UNL     1      18.017 -12.837   3.192  1.00  0.00     0.016 C 
HETATM   17  C14 UNL     1      18.100 -11.020   4.790  1.00  0.00     0.013 C 
HETATM   18  C15 UNL     1      18.315  -9.667   4.215  1.00  0.00     0.041 C 
HETATM   19  C16 UNL     1      19.772  -9.778   3.729  1.00  0.00     0.088 C 
HETATM   20  C18 UNL     1      19.797 -12.728   4.988  1.00  0.00     0.019 C 
HETATM   21  C19 UNL     1      21.019 -13.447   4.463  1.00  0.00     0.021 C 
ENDROOT
BRANCH  19  22
HETATM   22  O1  UNL     1      20.550  -9.686   4.845  1.00  0.00    -0.387 OA
ATOM     23  H1  UNL     1      20.500 -10.410   5.458  1.00  0.00     0.210 HD
ENDBRANCH  19  22
BRANCH  19  24
HETATM   24  C17 UNL     1      20.012  -8.611   2.812  1.00  0.00     0.202 C 
BRANCH  24  25
HETATM   25  O2  UNL     1      19.547  -8.820   1.516  1.00  0.00    -0.398 OA
ATOM     26  H2  UNL     1      19.765  -8.115   0.919  1.00  0.00     0.209 HD
ENDBRANCH  24  25
ENDBRANCH  19  24
TORSDOF 3
ENDMDL
MODEL 4
REMARK VINA RESULT: -8.489326956      4.798      7.362
REMARK  3 active torsions:
REMARK  status: ('A' for Active; 'I' for Inactive)
REMARK    1  A    between atoms: C16_19  and  O1_20 
REMARK    2  A    between atoms: C16_19  and  C17_22 
REMARK    3  A    between atoms: C17_22  and  O2_23 
ROOT
HETATM    1  C1  UNL     1      20.410 -13.904   4.768  1.00  0.00     0.010 C 
HETATM    2  C2  UNL     1      20.278 -12.526   4.086  1.00  0.00    -0.010 C 
HETATM    3  C3  UNL     1      19.518 -11.672   4.999  1.00  0.00     0.005 C 
HETATM    4  C4  UNL     1      18.258 -11.064   4.476  1.00  0.00     0.009 C 
HETATM    5  C5  UNL     1      18.674 -10.016   3.448  1.00  0.00    -0.044 C 
HETATM    6  C6  UNL     1      19.912  -9.308   3.794  1.00  0.00     0.015 C 
HETATM    7  C7  UNL     1      17.545  -8.964   3.483  1.00  0.00     0.015 C 
HETATM    8  C8  UNL     1      18.561 -10.683   2.136  1.00  0.00     0.045 C 
HETATM    9  C9  UNL     1      19.535 -11.707   1.742  1.00  0.00    -0.052 C 
HETATM   10  C10 UNL     1      20.641 -11.181   0.912  1.00  0.00     0.013 C 
HETATM   11  N1  UNL     1      20.688  -9.974   0.582  1.00  0.00    -0.402 N 
ATOM     12  H11 UNL     1      21.451  -9.612   0.009  1.00  0.00     0.156 HD
ATOM     13  H12 UNL     1      19.943  -9.364   0.918  1.00  0.00     0.156 HD
HETATM   14  C11 UNL     1      21.709 -12.057   0.430  1.00  0.00     0.080 C 
HETATM   15  C12 UNL     1      21.977 -13.163   1.364  1.00  0.00    -0.031 C 
HETATM   16  C13 UNL     1      23.145 -12.762   2.254  1.00  0.00     0.016 C 
HETATM   17  C14 UNL     1      22.538 -14.274   0.462  1.00  0.00     0.013 C 
HETATM   18  C15 UNL     1      22.625 -13.711  -0.911  1.00  0.00     0.041 C 
HETATM   19  C16 UNL     1      21.464 -12.700  -0.892  1.00  0.00     0.088 C 
HETATM   20  C18 UNL     1      20.818 -13.741   2.072  1.00  0.00     0.019 C 
HETATM   21  C19 UNL     1      19.860 -12.762   2.711  1.00  0.00     0.021 C 
ENDROOT
BRANCH  19  22
HETATM   22  O1  UNL     1      20.321 -13.435  -1.010  1.00  0.00    -0.387 OA
ATOM     23  H1  UNL     1      19.769 -13.242  -1.759  1.00  0.00     0.210 HD
ENDBRANCH  19  22
BRANCH  19  24
HETATM   24  C17 UNL     1      21.650 -11.806  -2.086  1.00  0.00     0.202 C 
BRANCH  24  25
HETATM   25  O2  UNL     1      20.462 -11.514  -2.750  1.00  0.00    -0.398 OA
ATOM     26  H2  UNL     1      20.060 -10.701  -2.467  1.00  0.00     0.209 HD
ENDBRANCH  24  25
ENDBRANCH  19  24
TORSDOF 3
ENDMDL
MODEL 5
REMARK VINA RESULT: -8.439609538      2.559      3.371
REMARK  3 active torsions:
REMARK  status: ('A' for Active; 'I' for Inactive)
REMARK    1  A    between atoms: C16_19  and  O1_20 
REMARK    2  A    between atoms: C16_19  and  C17_22 
REMARK    3  A    between atoms: C17_22  and  O2_23 
ROOT
HETATM    1  C1  UNL     1      21.687 -11.803   5.479  1.00  0.00     0.010 C 
HETATM    2  C2  UNL     1      20.551 -11.960   4.448  1.00  0.00    -0.010 C 
HETATM    3  C3  UNL     1      20.584 -10.772   3.595  1.00  0.00     0.005 C 
HETATM    4  C4  UNL     1      19.339  -9.948   3.522  1.00  0.00     0.009 C 
HETATM    5  C5  UNL     1      18.315 -10.776   2.751  1.00  0.00    -0.044 C 
HETATM    6  C6  UNL     1      18.899 -11.581   1.673  1.00  0.00     0.015 C 
HETATM    7  C7  UNL     1      17.402  -9.733   2.071  1.00  0.00     0.015 C 
HETATM    8  C8  UNL     1      17.481 -11.431   3.778  1.00  0.00     0.045 C 
HETATM    9  C9  UNL     1      18.026 -12.534   4.577  1.00  0.00    -0.052 C 
HETATM   10  C10 UNL     1      17.688 -13.872   4.046  1.00  0.00     0.013 C 
HETATM   11  N1  UNL     1      16.980 -14.003   3.021  1.00  0.00    -0.402 N 
ATOM     12  H11 UNL     1      16.746 -14.926   2.654  1.00  0.00     0.156 HD
ATOM     13  H12 UNL     1      16.658 -13.153   2.558  1.00  0.00     0.156 HD
HETATM   14  C11 UNL     1      18.149 -15.090   4.710  1.00  0.00     0.080 C 
HETATM   15  C12 UNL     1      19.444 -14.894   5.382  1.00  0.00    -0.031 C 
HETATM   16  C13 UNL     1      20.544 -15.370   4.446  1.00  0.00     0.016 C 
HETATM   17  C14 UNL     1      19.425 -15.927   6.520  1.00  0.00     0.013 C 
HETATM   18  C15 UNL     1      18.161 -16.697   6.382  1.00  0.00     0.041 C 
HETATM   19  C16 UNL     1      17.236 -15.638   5.753  1.00  0.00     0.088 C 
HETATM   20  C18 UNL     1      19.682 -13.580   6.012  1.00  0.00     0.019 C 
HETATM   21  C19 UNL     1      19.356 -12.362   5.177  1.00  0.00     0.021 C 
ENDROOT
BRANCH  19  22
HETATM   22  O1  UNL     1      16.888 -14.792   6.764  1.00  0.00    -0.387 OA
ATOM     23  H1  UNL     1      17.433 -14.814   7.542  1.00  0.00     0.210 HD
ENDBRANCH  19  22
BRANCH  19  24
HETATM   24  C17 UNL     1      16.032 -16.372   5.232  1.00  0.00     0.202 C 
BRANCH  24  25
HETATM   25  O2  UNL     1      16.334 -17.618   4.689  1.00  0.00    -0.398 OA
ATOM     26  H2  UNL     1      15.717 -18.297   4.934  1.00  0.00     0.209 HD
ENDBRANCH  24  25
ENDBRANCH  19  24
TORSDOF 3
ENDMDL
