MODEL 1
REMARK VINA RESULT: -8.236277040      0.000      0.000
REMARK  5 active torsions:
REMARK  status: ('A' for Active; 'I' for Inactive)
REMARK    1  A    between atoms: C2_2  and  C4_4 
REMARK    2  A    between atoms: C4_4  and  O1_6 
REMARK    3  A    between atoms: C4_4  and  C6_8 
REMARK    4  A    between atoms: C15_17  and  O2_18 
REMARK    5  A    between atoms: C18_22  and  O3_24 
ROOT
HETATM    1  C6  UNL     1      19.355 -11.280   2.733  1.00  0.00    -0.034 C 
HETATM    2  C7  UNL     1      18.448 -12.394   3.082  1.00  0.00     0.013 C 
HETATM    3  C8  UNL     1      17.720 -12.440   4.370  1.00  0.00    -0.039 C 
HETATM    4  C9  UNL     1      17.380 -11.132   4.987  1.00  0.00     0.046 C 
HETATM    5  C10 UNL     1      18.511 -10.197   5.184  1.00  0.00     0.013 C 
HETATM    6  C11 UNL     1      18.607  -9.276   4.030  1.00  0.00     0.014 C 
HETATM    7  C12 UNL     1      18.818  -9.915   2.662  1.00  0.00    -0.021 C 
HETATM    8  C13 UNL     1      19.727  -8.901   1.971  1.00  0.00     0.019 C 
HETATM    9  C14 UNL     1      17.482  -9.746   1.958  1.00  0.00     0.019 C 
HETATM   10  C15 UNL     1      16.508 -11.333   6.208  1.00  0.00     0.126 C 
HETATM   11  C16 UNL     1      17.336 -12.099   7.192  1.00  0.00     0.035 C 
HETATM   12  C17 UNL     1      17.420 -13.497   6.628  1.00  0.00     0.045 C 
HETATM   13  C18 UNL     1      18.122 -13.549   5.301  1.00  0.00     0.078 C 
HETATM   14  C19 UNL     1      19.565 -13.732   5.586  1.00  0.00     0.051 C 
ENDROOT
BRANCH   1  15
HETATM   15  C4  UNL     1      20.334 -11.762   1.709  1.00  0.00     0.101 C 
HETATM   16  C5  UNL     1      21.108 -13.001   2.211  1.00  0.00     0.056 C 
BRANCH  15  17
HETATM   17  C2  UNL     1      19.836 -12.078   0.354  1.00  0.00    -0.055 C 
HETATM   18  C1  UNL     1      20.004 -11.191  -0.661  1.00  0.00     0.017 C 
HETATM   19  C3  UNL     1      19.131 -13.301  -0.083  1.00  0.00     0.046 C 
ENDBRANCH  15  17
BRANCH  15  20
HETATM   20  O1  UNL     1      21.383 -10.853   1.458  1.00  0.00    -0.381 OA
ATOM     21  H1  UNL     1      21.088 -10.060   1.891  1.00  0.00     0.211 HD
ENDBRANCH  15  20
ENDBRANCH   1  15
BRANCH  13  22
HETATM   22  O3  UNL     1      17.711 -14.782   4.727  1.00  0.00    -0.386 OA
ATOM     23  H3  UNL     1      16.992 -15.126   5.244  1.00  0.00     0.211 HD
ENDBRANCH  13  22
BRANCH  10  24
HETATM   24  O2  UNL     1      16.025 -10.134   6.711  1.00  0.00    -0.395 OA
ATOM     25  H2  UNL     1      16.105 -10.081   7.656  1.00  0.00     0.210 HD
ENDBRANCH  10  24
TORSDOF 5
ENDMDL
MODEL 2
REMARK VINA RESULT: -8.140019575      2.920      6.674
REMARK  5 active torsions:
REMARK  status: ('A' for Active; 'I' for Inactive)
REMARK    1  A    between atoms: C2_2  and  C4_4 
REMARK    2  A    between atoms: C4_4  and  O1_6 
REMARK    3  A    between atoms: C4_4  and  C6_8 
REMARK    4  A    between atoms: C15_17  and  O2_18 
REMARK    5  A    between atoms: C18_22  and  O3_24 
ROOT
HETATM    1  C6  UNL     1      20.796 -13.543   2.115  1.00  0.00    -0.034 C 
HETATM    2  C7  UNL     1      22.015 -12.824   1.689  1.00  0.00     0.013 C 
HETATM    3  C8  UNL     1      22.269 -12.480   0.271  1.00  0.00    -0.039 C 
HETATM    4  C9  UNL     1      21.074 -12.258  -0.582  1.00  0.00     0.046 C 
HETATM    5  C10 UNL     1      20.076 -13.351  -0.594  1.00  0.00     0.013 C 
HETATM    6  C11 UNL     1      19.025 -13.082   0.411  1.00  0.00     0.014 C 
HETATM    7  C12 UNL     1      19.482 -12.941   1.858  1.00  0.00    -0.021 C 
HETATM    8  C13 UNL     1      18.323 -13.574   2.624  1.00  0.00     0.019 C 
HETATM    9  C14 UNL     1      19.346 -11.456   2.152  1.00  0.00     0.019 C 
HETATM   10  C15 UNL     1      21.486 -11.765  -1.953  1.00  0.00     0.126 C 
HETATM   11  C16 UNL     1      22.288 -12.868  -2.570  1.00  0.00     0.035 C 
HETATM   12  C17 UNL     1      23.600 -12.864  -1.823  1.00  0.00     0.045 C 
HETATM   13  C18 UNL     1      23.440 -13.176  -0.363  1.00  0.00     0.078 C 
HETATM   14  C19 UNL     1      23.533 -14.650  -0.227  1.00  0.00     0.051 C 
ENDROOT
BRANCH   1  15
HETATM   15  C4  UNL     1      21.074 -14.227   3.417  1.00  0.00     0.101 C 
HETATM   16  C5  UNL     1      22.512 -14.790   3.461  1.00  0.00     0.056 C 
BRANCH  15  17
HETATM   17  C2  UNL     1      20.864 -13.468   4.668  1.00  0.00    -0.055 C 
HETATM   18  C1  UNL     1      20.125 -14.001   5.675  1.00  0.00     0.017 C 
HETATM   19  C3  UNL     1      21.374 -12.122   5.000  1.00  0.00     0.046 C 
ENDBRANCH  15  17
BRANCH  15  20
HETATM   20  O1  UNL     1      20.305 -15.392   3.618  1.00  0.00    -0.381 OA
ATOM     21  H1  UNL     1      20.117 -15.367   4.549  1.00  0.00     0.211 HD
ENDBRANCH  15  20
ENDBRANCH   1  15
BRANCH  13  22
HETATM   22  O3  UNL     1      24.629 -12.685   0.241  1.00  0.00    -0.386 OA
ATOM     23  H3  UNL     1      25.352 -13.240  -0.031  1.00  0.00     0.211 HD
ENDBRANCH  13  22
BRANCH  10  24
HETATM   24  O2  UNL     1      20.397 -11.379  -2.721  1.00  0.00    -0.395 OA
ATOM     25  H2  UNL     1      20.594 -11.381  -3.651  1.00  0.00     0.210 HD
ENDBRANCH  10  24
TORSDOF 5
ENDMDL
MODEL 3
REMARK VINA RESULT: -7.997969378      1.710      2.317
REMARK  5 active torsions:
REMARK  status: ('A' for Active; 'I' for Inactive)
REMARK    1  A    between atoms: C2_2  and  C4_4 
REMARK    2  A    between atoms: C4_4  and  O1_6 
REMARK    3  A    between atoms: C4_4  and  C6_8 
REMARK    4  A    between atoms: C15_17  and  O2_18 
REMARK    5  A    between atoms: C18_22  and  O3_24 
ROOT
HETATM    1  C6  UNL     1      19.793 -12.245   2.420  1.00  0.00    -0.034 C 
HETATM    2  C7  UNL     1      18.910 -13.382   2.759  1.00  0.00     0.013 C 
HETATM    3  C8  UNL     1      18.639 -13.776   4.160  1.00  0.00    -0.039 C 
HETATM    4  C9  UNL     1      18.691 -12.693   5.176  1.00  0.00     0.046 C 
HETATM    5  C10 UNL     1      19.937 -11.893   5.204  1.00  0.00     0.013 C 
HETATM    6  C11 UNL     1      19.775 -10.681   4.373  1.00  0.00     0.014 C 
HETATM    7  C12 UNL     1      19.446 -10.902   2.900  1.00  0.00    -0.021 C 
HETATM    8  C13 UNL     1      20.208  -9.761   2.227  1.00  0.00     0.019 C 
HETATM    9  C14 UNL     1      17.988 -10.491   2.775  1.00  0.00     0.019 C 
HETATM   10  C15 UNL     1      18.243 -13.210   6.526  1.00  0.00     0.126 C 
HETATM   11  C16 UNL     1      19.236 -14.257   6.923  1.00  0.00     0.035 C 
HETATM   12  C17 UNL     1      18.949 -15.433   6.020  1.00  0.00     0.045 C 
HETATM   13  C18 UNL     1      19.171 -15.120   4.568  1.00  0.00     0.078 C 
HETATM   14  C19 UNL     1      20.592 -15.426   4.275  1.00  0.00     0.051 C 
ENDROOT
BRANCH   1  15
HETATM   15  C4  UNL     1      20.316 -12.441   1.032  1.00  0.00     0.101 C 
HETATM   16  C5  UNL     1      19.493 -11.637   0.002  1.00  0.00     0.056 C 
BRANCH  15  17
HETATM   17  C2  UNL     1      21.742 -12.153   0.772  1.00  0.00    -0.055 C 
HETATM   18  C1  UNL     1      22.697 -12.577   1.641  1.00  0.00     0.017 C 
HETATM   19  C3  UNL     1      22.316 -11.416  -0.373  1.00  0.00     0.046 C 
ENDBRANCH  15  17
BRANCH  15  20
HETATM   20  O1  UNL     1      20.166 -13.759   0.553  1.00  0.00    -0.381 OA
ATOM     21  H1  UNL     1      20.181 -14.280   1.347  1.00  0.00     0.211 HD
ENDBRANCH  15  20
ENDBRANCH   1  15
BRANCH  13  22
HETATM   22  O3  UNL     1      18.439 -16.118   3.871  1.00  0.00    -0.386 OA
ATOM     23  H3  UNL     1      19.046 -16.609   3.329  1.00  0.00     0.211 HD
ENDBRANCH  13  22
BRANCH  10  24
HETATM   24  O2  UNL     1      18.109 -12.194   7.459  1.00  0.00    -0.395 OA
ATOM     25  H2  UNL     1      18.086 -12.524   8.350  1.00  0.00     0.210 HD
ENDBRANCH  10  24
TORSDOF 5
ENDMDL
MODEL 4
REMARK VINA RESULT: -7.994416959      2.335      4.563
REMARK  5 active torsions:
REMARK  status: ('A' for Active; 'I' for Inactive)
REMARK    1  A    between atoms: C2_2  and  C4_4 
REMARK    2  A    between atoms: C4_4  and  O1_6 
REMARK    3  A    between atoms: C4_4  and  C6_8 
REMARK    4  A    between atoms: C15_17  and  O2_18 
REMARK    5  A    between atoms: C18_22  and  O3_24 
ROOT
HETATM    1  C6  UNL     1      19.299 -12.936   4.918  1.00  0.00    -0.034 C 
HETATM    2  C7  UNL     1      19.662 -13.017   6.349  1.00  0.00     0.013 C 
HETATM    3  C8  UNL     1      19.126 -14.073   7.237  1.00  0.00    -0.039 C 
HETATM    4  C9  UNL     1      18.791 -15.371   6.596  1.00  0.00     0.046 C 
HETATM    5  C10 UNL     1      17.874 -15.301   5.436  1.00  0.00     0.013 C 
HETATM    6  C11 UNL     1      18.655 -15.238   4.182  1.00  0.00     0.014 C 
HETATM    7  C12 UNL     1      19.616 -14.064   4.034  1.00  0.00    -0.021 C 
HETATM    8  C13 UNL     1      19.521 -13.758   2.540  1.00  0.00     0.019 C 
HETATM    9  C14 UNL     1      20.995 -14.684   4.192  1.00  0.00     0.019 C 
HETATM   10  C15 UNL     1      18.407 -16.396   7.642  1.00  0.00     0.126 C 
HETATM   11  C16 UNL     1      17.166 -15.877   8.300  1.00  0.00     0.035 C 
HETATM   12  C17 UNL     1      17.627 -14.715   9.146  1.00  0.00     0.045 C 
HETATM   13  C18 UNL     1      18.214 -13.597   8.331  1.00  0.00     0.078 C 
HETATM   14  C19 UNL     1      17.093 -12.699   7.964  1.00  0.00     0.051 C 
ENDROOT
BRANCH   1  15
HETATM   15  C4  UNL     1      19.499 -11.528   4.451  1.00  0.00     0.101 C 
HETATM   16  C5  UNL     1      20.879 -11.350   3.779  1.00  0.00     0.056 C 
BRANCH  15  17
HETATM   17  C2  UNL     1      18.493 -10.939   3.544  1.00  0.00    -0.055 C 
HETATM   18  C1  UNL     1      17.171 -11.193   3.729  1.00  0.00     0.017 C 
HETATM   19  C3  UNL     1      18.735 -10.056   2.384  1.00  0.00     0.046 C 
ENDBRANCH  15  17
BRANCH  15  20
HETATM   20  O1  UNL     1      19.570 -10.589   5.501  1.00  0.00    -0.381 OA
ATOM     21  H1  UNL     1      18.676 -10.275   5.568  1.00  0.00     0.211 HD
ENDBRANCH  15  20
ENDBRANCH   1  15
BRANCH  13  22
HETATM   22  O3  UNL     1      18.986 -12.846   9.258  1.00  0.00    -0.386 OA
ATOM     23  H3  UNL     1      18.611 -11.975   9.320  1.00  0.00     0.211 HD
ENDBRANCH  13  22
BRANCH  10  24
HETATM   24  O2  UNL     1      18.257 -17.665   7.105  1.00  0.00    -0.395 OA
ATOM     25  H2  UNL     1      17.359 -17.971   7.150  1.00  0.00     0.210 HD
ENDBRANCH  10  24
TORSDOF 5
ENDMDL
MODEL 5
REMARK VINA RESULT: -7.980923220      1.416      1.800
REMARK  5 active torsions:
REMARK  status: ('A' for Active; 'I' for Inactive)
REMARK    1  A    between atoms: C2_2  and  C4_4 
REMARK    2  A    between atoms: C4_4  and  O1_6 
REMARK    3  A    between atoms: C4_4  and  C6_8 
REMARK    4  A    between atoms: C15_17  and  O2_18 
REMARK    5  A    between atoms: C18_22  and  O3_24 
ROOT
HETATM    1  C6  UNL     1      19.598 -11.338   2.393  1.00  0.00    -0.034 C 
HETATM    2  C7  UNL     1      18.987 -12.650   2.690  1.00  0.00     0.013 C 
HETATM    3  C8  UNL     1      18.810 -13.139   4.077  1.00  0.00    -0.039 C 
HETATM    4  C9  UNL     1      18.626 -12.104   5.127  1.00  0.00     0.046 C 
HETATM    5  C10 UNL     1      19.666 -11.052   5.187  1.00  0.00     0.013 C 
HETATM    6  C11 UNL     1      19.241  -9.879   4.393  1.00  0.00     0.014 C 
HETATM    7  C12 UNL     1      18.966 -10.119   2.913  1.00  0.00    -0.021 C 
HETATM    8  C13 UNL     1      19.458  -8.818   2.281  1.00  0.00     0.019 C 
HETATM    9  C14 UNL     1      17.453 -10.034   2.793  1.00  0.00     0.019 C 
HETATM   10  C15 UNL     1      18.304 -12.750   6.457  1.00  0.00     0.126 C 
HETATM   11  C16 UNL     1      19.503 -13.566   6.827  1.00  0.00     0.035 C 
HETATM   12  C17 UNL     1      19.480 -14.746   5.886  1.00  0.00     0.045 C 
HETATM   13  C18 UNL     1      19.625 -14.346   4.445  1.00  0.00     0.078 C 
HETATM   14  C19 UNL     1      21.078 -14.324   4.151  1.00  0.00     0.051 C 
ENDROOT
BRANCH   1  15
HETATM   15  C4  UNL     1      20.150 -11.370   1.002  1.00  0.00     0.101 C 
HETATM   16  C5  UNL     1      21.514 -10.648   0.922  1.00  0.00     0.056 C 
BRANCH  15  17
HETATM   17  C2  UNL     1      20.311 -12.681   0.341  1.00  0.00    -0.055 C 
HETATM   18  C1  UNL     1      19.331 -13.166  -0.467  1.00  0.00     0.017 C 
HETATM   19  C3  UNL     1      21.460 -13.605   0.441  1.00  0.00     0.046 C 
ENDBRANCH  15  17
BRANCH  15  20
HETATM   20  O1  UNL     1      19.383 -10.636   0.073  1.00  0.00    -0.381 OA
ATOM     21  H1  UNL     1      19.391  -9.758   0.434  1.00  0.00     0.211 HD
ENDBRANCH  15  20
ENDBRANCH   1  15
BRANCH  13  22
HETATM   22  O3  UNL     1      19.128 -15.458   3.713  1.00  0.00    -0.386 OA
ATOM     23  H3  UNL     1      19.808 -15.748   3.116  1.00  0.00     0.211 HD
ENDBRANCH  13  22
BRANCH  10  24
HETATM   24  O2  UNL     1      17.952 -11.818   7.422  1.00  0.00    -0.395 OA
ATOM     25  H2  UNL     1      18.611 -11.141   7.526  1.00  0.00     0.210 HD
ENDBRANCH  10  24
TORSDOF 5
ENDMDL
