MODEL 1
REMARK VINA RESULT: -8.471775688      0.000      0.000
REMARK  5 active torsions:
REMARK  status: ('A' for Active; 'I' for Inactive)
REMARK    1  A    between atoms: C2_2  and  C3_3 
REMARK    2  A    between atoms: C3_3  and  C4_4 
REMARK    3  A    between atoms: C5_5  and  O1_6 
REMARK    4  A    between atoms: C11_13  and  O2_14 
REMARK    5  A    between atoms: C14_18  and  O3_19 
ROOT
HETATM    1  C4  UNL     1      18.687 -11.483   4.768  1.00  0.00     0.055 C 
HETATM    2  C5  UNL     1      20.126 -11.673   4.950  1.00  0.00     0.069 C 
HETATM    3  C6  UNL     1      20.458 -12.739   5.965  1.00  0.00     0.039 C 
HETATM    4  C7  UNL     1      20.224 -14.028   5.171  1.00  0.00     0.008 C 
HETATM    5  C8  UNL     1      20.383 -13.651   3.718  1.00  0.00    -0.007 C 
HETATM    6  C9  UNL     1      19.069 -13.653   2.983  1.00  0.00     0.013 C 
HETATM    7  C10 UNL     1      18.728 -12.338   2.376  1.00  0.00     0.032 C 
HETATM    8  C11 UNL     1      18.153 -11.393   3.358  1.00  0.00     0.069 C 
HETATM    9  C12 UNL     1      18.143  -9.967   2.813  1.00  0.00     0.041 C 
HETATM   10  C13 UNL     1      18.088 -10.110   1.280  1.00  0.00     0.035 C 
HETATM   11  C14 UNL     1      19.477 -10.512   0.871  1.00  0.00     0.127 C 
HETATM   12  C15 UNL     1      19.878 -11.752   1.579  1.00  0.00    -0.008 C 
HETATM   13  C16 UNL     1      20.252 -12.790   0.534  1.00  0.00     0.019 C 
HETATM   14  C17 UNL     1      20.985 -11.498   2.560  1.00  0.00    -0.000 C 
HETATM   15  C18 UNL     1      22.269 -11.948   1.838  1.00  0.00     0.011 C 
HETATM   16  C19 UNL     1      20.904 -12.255   3.806  1.00  0.00     0.029 C 
ENDROOT
BRANCH   1  17
HETATM   17  C3  UNL     1      18.157 -10.274   5.455  1.00  0.00     0.010 C 
BRANCH  17  18
HETATM   18  C2  UNL     1      17.125 -10.387   6.489  1.00  0.00    -0.004 C 
HETATM   19  C1  UNL     1      16.823 -11.726   7.051  1.00  0.00     0.005 C 
ENDBRANCH  17  18
ENDBRANCH   1  17
BRANCH   2  20
HETATM   20  O1  UNL     1      20.801 -10.465   5.263  1.00  0.00    -0.389 OA
ATOM     21  H1  UNL     1      21.231 -10.081   4.508  1.00  0.00     0.210 HD
ENDBRANCH   2  20
BRANCH   8  22
HETATM   22  O2  UNL     1      16.772 -11.715   3.469  1.00  0.00    -0.389 OA
ATOM     23  H2  UNL     1      16.412 -11.548   2.605  1.00  0.00     0.210 HD
ENDBRANCH   8  22
BRANCH  11  24
HETATM   24  O3  UNL     1      20.311  -9.415   1.151  1.00  0.00    -0.395 OA
ATOM     25  H3  UNL     1      20.419  -9.391   2.095  1.00  0.00     0.210 HD
ENDBRANCH  11  24
TORSDOF 5
ENDMDL
MODEL 2
REMARK VINA RESULT: -8.262538048      2.173      3.746
REMARK  5 active torsions:
REMARK  status: ('A' for Active; 'I' for Inactive)
REMARK    1  A    between atoms: C2_2  and  C3_3 
REMARK    2  A    between atoms: C3_3  and  C4_4 
REMARK    3  A    between atoms: C5_5  and  O1_6 
REMARK    4  A    between atoms: C11_13  and  O2_14 
REMARK    5  A    between atoms: C14_18  and  O3_19 
ROOT
HETATM    1  C4  UNL     1      18.737 -13.825   5.853  1.00  0.00     0.055 C 
HETATM    2  C5  UNL     1      20.009 -13.269   5.393  1.00  0.00     0.069 C 
HETATM    3  C6  UNL     1      20.804 -14.233   4.547  1.00  0.00     0.039 C 
HETATM    4  C7  UNL     1      20.088 -14.144   3.195  1.00  0.00     0.008 C 
HETATM    5  C8  UNL     1      19.409 -12.797   3.176  1.00  0.00    -0.007 C 
HETATM    6  C9  UNL     1      17.912 -12.914   3.298  1.00  0.00     0.013 C 
HETATM    7  C10 UNL     1      17.357 -12.196   4.477  1.00  0.00     0.032 C 
HETATM    8  C11 UNL     1      17.498 -12.969   5.730  1.00  0.00     0.069 C 
HETATM    9  C12 UNL     1      17.255 -12.088   6.953  1.00  0.00     0.041 C 
HETATM   10  C13 UNL     1      16.326 -10.958   6.473  1.00  0.00     0.035 C 
HETATM   11  C14 UNL     1      17.208 -10.031   5.684  1.00  0.00     0.127 C 
HETATM   12  C15 UNL     1      17.874 -10.773   4.586  1.00  0.00    -0.008 C 
HETATM   13  C16 UNL     1      17.527 -10.086   3.276  1.00  0.00     0.019 C 
HETATM   14  C17 UNL     1      19.355 -10.879   4.806  1.00  0.00    -0.000 C 
HETATM   15  C18 UNL     1      19.970  -9.776   3.923  1.00  0.00     0.011 C 
HETATM   16  C19 UNL     1      19.961 -12.144   4.399  1.00  0.00     0.029 C 
ENDROOT
BRANCH   1  17
HETATM   17  C3  UNL     1      18.760 -14.259   7.277  1.00  0.00     0.010 C 
BRANCH  17  18
HETATM   18  C2  UNL     1      18.581 -15.666   7.638  1.00  0.00    -0.004 C 
HETATM   19  C1  UNL     1      18.646 -16.691   6.568  1.00  0.00     0.005 C 
ENDBRANCH  17  18
ENDBRANCH   1  17
BRANCH   2  20
HETATM   20  O1  UNL     1      20.805 -12.772   6.456  1.00  0.00    -0.389 OA
ATOM     21  H1  UNL     1      21.703 -12.607   6.195  1.00  0.00     0.210 HD
ENDBRANCH   2  20
BRANCH   8  22
HETATM   22  O2  UNL     1      16.414 -13.888   5.762  1.00  0.00    -0.389 OA
ATOM     23  H2  UNL     1      16.197 -13.978   6.683  1.00  0.00     0.210 HD
ENDBRANCH   8  22
BRANCH  11  24
HETATM   24  O3  UNL     1      18.110  -9.460   6.599  1.00  0.00    -0.395 OA
ATOM     25  H3  UNL     1      18.044  -9.969   7.399  1.00  0.00     0.210 HD
ENDBRANCH  11  24
TORSDOF 5
ENDMDL
MODEL 3
REMARK VINA RESULT: -8.252751494      3.124      5.925
REMARK  5 active torsions:
REMARK  status: ('A' for Active; 'I' for Inactive)
REMARK    1  A    between atoms: C2_2  and  C3_3 
REMARK    2  A    between atoms: C3_3  and  C4_4 
REMARK    3  A    between atoms: C5_5  and  O1_6 
REMARK    4  A    between atoms: C11_13  and  O2_14 
REMARK    5  A    between atoms: C14_18  and  O3_19 
ROOT
HETATM    1  C4  UNL     1      17.576 -12.913   5.399  1.00  0.00     0.055 C 
HETATM    2  C5  UNL     1      16.681 -13.877   4.759  1.00  0.00     0.069 C 
HETATM    3  C6  UNL     1      16.843 -13.930   3.260  1.00  0.00     0.039 C 
HETATM    4  C7  UNL     1      18.119 -14.763   3.101  1.00  0.00     0.008 C 
HETATM    5  C8  UNL     1      18.230 -15.591   4.358  1.00  0.00    -0.007 C 
HETATM    6  C9  UNL     1      19.349 -15.122   5.250  1.00  0.00     0.013 C 
HETATM    7  C10 UNL     1      18.894 -14.718   6.608  1.00  0.00     0.032 C 
HETATM    8  C11 UNL     1      18.329 -13.351   6.634  1.00  0.00     0.069 C 
HETATM    9  C12 UNL     1      17.558 -13.095   7.926  1.00  0.00     0.041 C 
HETATM   10  C13 UNL     1      18.187 -14.031   8.976  1.00  0.00     0.035 C 
HETATM   11  C14 UNL     1      17.657 -15.400   8.650  1.00  0.00     0.127 C 
HETATM   12  C15 UNL     1      17.990 -15.754   7.249  1.00  0.00    -0.008 C 
HETATM   13  C16 UNL     1      18.771 -17.058   7.266  1.00  0.00     0.019 C 
HETATM   14  C17 UNL     1      16.762 -15.831   6.390  1.00  0.00    -0.000 C 
HETATM   15  C18 UNL     1      16.435 -17.334   6.292  1.00  0.00     0.011 C 
HETATM   16  C19 UNL     1      16.919 -15.336   5.025  1.00  0.00     0.029 C 
ENDROOT
BRANCH   1  17
HETATM   17  C3  UNL     1      16.901 -11.647   5.793  1.00  0.00     0.010 C 
BRANCH  17  18
HETATM   18  C2  UNL     1      17.173 -10.396   5.083  1.00  0.00    -0.004 C 
HETATM   19  C1  UNL     1      17.925 -10.450   3.805  1.00  0.00     0.005 C 
ENDBRANCH  17  18
ENDBRANCH   1  17
BRANCH   2  20
HETATM   20  O1  UNL     1      15.321 -13.670   5.102  1.00  0.00    -0.389 OA
ATOM     21  H1  UNL     1      14.954 -12.894   4.694  1.00  0.00     0.210 HD
ENDBRANCH   2  20
BRANCH   8  22
HETATM   22  O2  UNL     1      19.433 -12.459   6.724  1.00  0.00    -0.389 OA
ATOM     23  H2  UNL     1      19.047 -11.610   6.904  1.00  0.00     0.210 HD
ENDBRANCH   8  22
BRANCH  11  24
HETATM   24  O3  UNL     1      16.275 -15.366   8.904  1.00  0.00    -0.395 OA
ATOM     25  H3  UNL     1      16.118 -14.605   9.451  1.00  0.00     0.210 HD
ENDBRANCH  11  24
TORSDOF 5
ENDMDL
MODEL 4
REMARK VINA RESULT: -8.071735174      2.071      4.172
REMARK  5 active torsions:
REMARK  status: ('A' for Active; 'I' for Inactive)
REMARK    1  A    between atoms: C2_2  and  C3_3 
REMARK    2  A    between atoms: C3_3  and  C4_4 
REMARK    3  A    between atoms: C5_5  and  O1_6 
REMARK    4  A    between atoms: C11_13  and  O2_14 
REMARK    5  A    between atoms: C14_18  and  O3_19 
ROOT
HETATM    1  C4  UNL     1      18.588 -11.520   4.022  1.00  0.00     0.055 C 
HETATM    2  C5  UNL     1      19.707 -12.333   3.546  1.00  0.00     0.069 C 
HETATM    3  C6  UNL     1      21.049 -11.684   3.778  1.00  0.00     0.039 C 
HETATM    4  C7  UNL     1      21.282 -11.944   5.271  1.00  0.00     0.008 C 
HETATM    5  C8  UNL     1      20.451 -13.157   5.612  1.00  0.00    -0.007 C 
HETATM    6  C9  UNL     1      19.256 -12.807   6.459  1.00  0.00     0.013 C 
HETATM    7  C10 UNL     1      17.958 -13.184   5.836  1.00  0.00     0.032 C 
HETATM    8  C11 UNL     1      17.506 -12.199   4.828  1.00  0.00     0.069 C 
HETATM    9  C12 UNL     1      16.383 -12.768   3.964  1.00  0.00     0.041 C 
HETATM   10  C13 UNL     1      15.686 -13.830   4.836  1.00  0.00     0.035 C 
HETATM   11  C14 UNL     1      16.613 -15.014   4.833  1.00  0.00     0.127 C 
HETATM   12  C15 UNL     1      17.953 -14.612   5.326  1.00  0.00    -0.008 C 
HETATM   13  C16 UNL     1      18.302 -15.496   6.512  1.00  0.00     0.019 C 
HETATM   14  C17 UNL     1      18.986 -14.675   4.238  1.00  0.00    -0.000 C 
HETATM   15  C18 UNL     1      19.721 -16.010   4.462  1.00  0.00     0.011 C 
HETATM   16  C19 UNL     1      19.994 -13.618   4.268  1.00  0.00     0.029 C 
ENDROOT
BRANCH   1  17
HETATM   17  C3  UNL     1      17.863 -10.814   2.930  1.00  0.00     0.010 C 
BRANCH  17  18
HETATM   18  C2  UNL     1      18.006  -9.368   2.745  1.00  0.00    -0.004 C 
HETATM   19  C1  UNL     1      18.720  -8.583   3.781  1.00  0.00     0.005 C 
ENDBRANCH  17  18
ENDBRANCH   1  17
BRANCH   2  20
HETATM   20  O1  UNL     1      19.569 -12.711   2.187  1.00  0.00    -0.389 OA
ATOM     21  H1  UNL     1      20.406 -12.833   1.754  1.00  0.00     0.210 HD
ENDBRANCH   2  20
BRANCH   8  22
HETATM   22  O2  UNL     1      16.871 -11.148   5.546  1.00  0.00    -0.389 OA
ATOM     23  H2  UNL     1      16.849 -11.447   6.448  1.00  0.00     0.210 HD
ENDBRANCH   8  22
BRANCH  11  24
HETATM   24  O3  UNL     1      16.627 -15.508   3.516  1.00  0.00    -0.395 OA
ATOM     25  H3  UNL     1      16.050 -16.263   3.504  1.00  0.00     0.210 HD
ENDBRANCH  11  24
TORSDOF 5
ENDMDL
MODEL 5
REMARK VINA RESULT: -8.015746371      1.885      3.837
REMARK  5 active torsions:
REMARK  status: ('A' for Active; 'I' for Inactive)
REMARK    1  A    between atoms: C2_2  and  C3_3 
REMARK    2  A    between atoms: C3_3  and  C4_4 
REMARK    3  A    between atoms: C5_5  and  O1_6 
REMARK    4  A    between atoms: C11_13  and  O2_14 
REMARK    5  A    between atoms: C14_18  and  O3_19 
ROOT
HETATM    1  C4  UNL     1      19.863 -12.653   4.449  1.00  0.00     0.055 C 
HETATM    2  C5  UNL     1      18.720 -12.952   3.586  1.00  0.00     0.069 C 
HETATM    3  C6  UNL     1      17.493 -12.143   3.929  1.00  0.00     0.039 C 
HETATM    4  C7  UNL     1      17.817 -10.782   3.304  1.00  0.00     0.008 C 
HETATM    5  C8  UNL     1      18.813 -11.060   2.205  1.00  0.00    -0.007 C 
HETATM    6  C9  UNL     1      20.194 -10.571   2.552  1.00  0.00     0.013 C 
HETATM    7  C10 UNL     1      21.221 -11.647   2.552  1.00  0.00     0.032 C 
HETATM    8  C11 UNL     1      21.211 -12.442   3.800  1.00  0.00     0.069 C 
HETATM    9  C12 UNL     1      22.006 -13.735   3.639  1.00  0.00     0.041 C 
HETATM   10  C13 UNL     1      23.049 -13.446   2.542  1.00  0.00     0.035 C 
HETATM   11  C14 UNL     1      22.281 -13.477   1.250  1.00  0.00     0.127 C 
HETATM   12  C15 UNL     1      21.167 -12.498   1.297  1.00  0.00    -0.008 C 
HETATM   13  C16 UNL     1      21.328 -11.547   0.122  1.00  0.00     0.019 C 
HETATM   14  C17 UNL     1      19.830 -13.180   1.306  1.00  0.00    -0.000 C 
HETATM   15  C18 UNL     1      19.333 -13.105  -0.150  1.00  0.00     0.011 C 
HETATM   16  C19 UNL     1      18.811 -12.551   2.142  1.00  0.00     0.029 C 
ENDROOT
BRANCH   1  17
HETATM   17  C3  UNL     1      20.101 -13.683   5.496  1.00  0.00     0.010 C 
BRANCH  17  18
HETATM   18  C2  UNL     1      19.514 -13.551   6.831  1.00  0.00    -0.004 C 
HETATM   19  C1  UNL     1      18.641 -14.638   7.337  1.00  0.00     0.005 C 
ENDBRANCH  17  18
ENDBRANCH   1  17
BRANCH   2  20
HETATM   20  O1  UNL     1      18.408 -14.334   3.554  1.00  0.00    -0.389 OA
ATOM     21  H1  UNL     1      18.381 -14.683   2.671  1.00  0.00     0.210 HD
ENDBRANCH   2  20
BRANCH   8  22
HETATM   22  O2  UNL     1      21.965 -11.705   4.754  1.00  0.00    -0.389 OA
ATOM     23  H2  UNL     1      22.159 -10.878   4.326  1.00  0.00     0.210 HD
ENDBRANCH   8  22
BRANCH  11  24
HETATM   24  O3  UNL     1      21.852 -14.804   1.070  1.00  0.00    -0.395 OA
ATOM     25  H3  UNL     1      21.540 -15.105   1.916  1.00  0.00     0.210 HD
ENDBRANCH  11  24
TORSDOF 5
ENDMDL
