MODEL 1
REMARK VINA RESULT: -7.857255447      0.000      0.000
REMARK  3 active torsions:
REMARK  status: ('A' for Active; 'I' for Inactive)
REMARK    1  A    between atoms: C2_3  and  C3_4 
REMARK    2  A    between atoms: C3_4  and  N1_5 
REMARK    3  A    between atoms: N2_11  and  C8_13 
ROOT
HETATM    1  C3  UNL     1      29.156  45.049   9.901  1.00  0.00     0.124 C 
ENDROOT
BRANCH   1   2
HETATM    2  C2  UNL     1      28.732  46.120   8.897  1.00  0.00     0.132 A 
HETATM    3  C1  UNL     1      29.520  46.942   8.182  1.00  0.00     0.282 A 
HETATM    4  O1  UNL     1      30.761  46.706   8.137  1.00  0.00    -0.265 OA
HETATM    5  N6  UNL     1      28.971  47.977   7.546  1.00  0.00    -0.268 N 
HETATM    6  C16 UNL     1      27.668  48.204   7.620  1.00  0.00     0.144 A 
HETATM    7  C19 UNL     1      29.787  48.724   6.772  1.00  0.00     0.144 A 
HETATM    8  N4  UNL     1      26.869  47.367   8.352  1.00  0.00    -0.283 N 
HETATM    9  C17 UNL     1      27.104  49.235   6.909  1.00  0.00     0.139 A 
HETATM   10  N3  UNL     1      27.403  46.364   8.961  1.00  0.00    -0.293 N 
ATOM     11  H4  UNL     1      25.865  47.534   8.414  1.00  0.00     0.188 HD
ATOM     12  H3  UNL     1      26.808  45.739   9.505  1.00  0.00     0.187 HD
HETATM   13  N5  UNL     1      27.904  49.985   6.136  1.00  0.00    -0.352 N 
HETATM   14  C18 UNL     1      29.227  49.741   6.054  1.00  0.00     0.119 A 
ATOM     15  H5  UNL     1      27.503  50.754   5.598  1.00  0.00     0.166 HD
HETATM   16 CL1  UNL     1      30.238  50.691   4.962  1.00  0.00    -0.063 Cl
ENDBRANCH   1   2
BRANCH   1  17
HETATM   17  N1  UNL     1      29.903  44.149   9.176  1.00  0.00    -0.370 N 
HETATM   18  C4  UNL     1      31.000  43.417   9.320  1.00  0.00    -0.013 C 
HETATM   19  C5  UNL     1      31.426  42.908   7.936  1.00  0.00     0.058 C 
HETATM   20  C15 UNL     1      32.126  43.671  10.224  1.00  0.00     0.058 C 
HETATM   21  C6  UNL     1      32.876  43.189   7.684  1.00  0.00     0.057 C 
HETATM   22  C7  UNL     1      33.238  44.595   8.207  1.00  0.00    -0.017 C 
HETATM   23  N2  UNL     1      34.154  45.225   7.422  1.00  0.00    -0.392 N 
HETATM   24  C14 UNL     1      33.274  44.502   9.682  1.00  0.00     0.057 C 
ATOM     25  H2  UNL     1      33.824  46.074   6.964  1.00  0.00     0.159 HD
ATOM     26  H1  UNL     1      29.490  44.001   8.255  1.00  0.00     0.165 HD
BRANCH  23  27
HETATM   27  C8  UNL     1      35.443  44.890   7.158  1.00  0.00     0.081 C 
HETATM   28  C9  UNL     1      35.935  45.276   5.791  1.00  0.00     0.025 C 
HETATM   29  C10 UNL     1      36.985  44.199   5.412  1.00  0.00     0.002 C 
HETATM   30  C11 UNL     1      37.781  43.963   6.686  1.00  0.00     0.000 C 
HETATM   31  C12 UNL     1      37.836  45.206   7.524  1.00  0.00     0.002 C 
HETATM   32  C13 UNL     1      36.475  45.584   8.072  1.00  0.00     0.025 C 
ENDBRANCH  23  27
ENDBRANCH   1  17
TORSDOF 3
ENDMDL
MODEL 2
REMARK VINA RESULT: -7.674342140      3.289      7.399
REMARK  3 active torsions:
REMARK  status: ('A' for Active; 'I' for Inactive)
REMARK    1  A    between atoms: C2_3  and  C3_4 
REMARK    2  A    between atoms: C3_4  and  N1_5 
REMARK    3  A    between atoms: N2_11  and  C8_13 
ROOT
HETATM    1  C3  UNL     1      32.598  51.114   4.269  1.00  0.00     0.124 C 
ENDROOT
BRANCH   1   2
HETATM    2  C2  UNL     1      33.564  50.208   5.032  1.00  0.00     0.132 A 
HETATM    3  C1  UNL     1      33.635  48.866   5.006  1.00  0.00     0.282 A 
HETATM    4  O1  UNL     1      32.997  48.241   4.111  1.00  0.00    -0.265 OA
HETATM    5  N6  UNL     1      34.372  48.237   5.922  1.00  0.00    -0.268 N 
HETATM    6  C16 UNL     1      35.021  48.919   6.854  1.00  0.00     0.144 A 
HETATM    7  C19 UNL     1      34.482  46.897   5.805  1.00  0.00     0.144 A 
HETATM    8  N4  UNL     1      34.945  50.286   6.879  1.00  0.00    -0.283 N 
HETATM    9  C17 UNL     1      35.828  48.265   7.753  1.00  0.00     0.139 A 
HETATM   10  N3  UNL     1      34.235  50.890   5.989  1.00  0.00    -0.293 N 
ATOM     11  H4  UNL     1      35.442  50.818   7.593  1.00  0.00     0.188 HD
ATOM     12  H3  UNL     1      34.179  51.908   6.006  1.00  0.00     0.187 HD
HETATM   13  N5  UNL     1      35.947  46.933   7.648  1.00  0.00    -0.352 N 
HETATM   14  C18 UNL     1      35.294  46.246   6.690  1.00  0.00     0.119 A 
ATOM     15  H5  UNL     1      36.544  46.430   8.305  1.00  0.00     0.166 HD
HETATM   16 CL1  UNL     1      35.537  44.504   6.523  1.00  0.00    -0.063 Cl
ENDBRANCH   1   2
BRANCH   1  17
HETATM   17  N1  UNL     1      31.345  50.615   4.539  1.00  0.00    -0.370 N 
HETATM   18  C4  UNL     1      30.501  50.537   5.560  1.00  0.00    -0.013 C 
HETATM   19  C5  UNL     1      29.413  49.511   5.208  1.00  0.00     0.058 C 
HETATM   20  C15 UNL     1      30.826  50.579   6.989  1.00  0.00     0.058 C 
HETATM   21  C6  UNL     1      29.241  48.512   6.312  1.00  0.00     0.057 C 
HETATM   22  C7  UNL     1      30.620  48.109   6.876  1.00  0.00    -0.017 C 
HETATM   23  N2  UNL     1      30.672  46.800   7.241  1.00  0.00    -0.392 N 
HETATM   24  C14 UNL     1      31.101  49.255   7.676  1.00  0.00     0.057 C 
ATOM     25  H2  UNL     1      31.328  46.226   6.710  1.00  0.00     0.159 HD
ATOM     26  H1  UNL     1      30.947  50.175   3.709  1.00  0.00     0.165 HD
BRANCH  23  27
HETATM   27  C8  UNL     1      29.981  46.142   8.207  1.00  0.00     0.081 C 
HETATM   28  C9  UNL     1      28.608  45.679   7.807  1.00  0.00     0.025 C 
HETATM   29  C10 UNL     1      27.765  45.718   9.108  1.00  0.00     0.002 C 
HETATM   30  C11 UNL     1      28.685  45.169  10.188  1.00  0.00     0.000 C 
HETATM   31  C12 UNL     1      29.652  44.175   9.616  1.00  0.00     0.002 C 
HETATM   32  C13 UNL     1      30.639  44.822   8.665  1.00  0.00     0.025 C 
ENDBRANCH  23  27
ENDBRANCH   1  17
TORSDOF 3
ENDMDL
MODEL 3
REMARK VINA RESULT: -7.634951676      2.675      6.770
REMARK  3 active torsions:
REMARK  status: ('A' for Active; 'I' for Inactive)
REMARK    1  A    between atoms: C2_3  and  C3_4 
REMARK    2  A    between atoms: C3_4  and  N1_5 
REMARK    3  A    between atoms: N2_11  and  C8_13 
ROOT
HETATM    1  C3  UNL     1      34.644  42.600   9.837  1.00  0.00     0.124 C 
ENDROOT
BRANCH   1   2
HETATM    2  C2  UNL     1      35.281  43.746   9.051  1.00  0.00     0.132 A 
HETATM    3  C1  UNL     1      35.131  45.067   9.249  1.00  0.00     0.282 A 
HETATM    4  O1  UNL     1      34.585  45.464  10.318  1.00  0.00    -0.265 OA
HETATM    5  N6  UNL     1      35.562  45.916   8.315  1.00  0.00    -0.268 N 
HETATM    6  C16 UNL     1      36.123  45.470   7.201  1.00  0.00     0.144 A 
HETATM    7  C19 UNL     1      35.470  47.233   8.594  1.00  0.00     0.144 A 
HETATM    8  N4  UNL     1      36.270  44.123   7.001  1.00  0.00    -0.283 N 
HETATM    9  C17 UNL     1      36.620  46.354   6.275  1.00  0.00     0.139 A 
HETATM   10  N3  UNL     1      35.857  43.306   7.909  1.00  0.00    -0.293 N 
ATOM     11  H4  UNL     1      36.701  43.771   6.147  1.00  0.00     0.188 HD
ATOM     12  H3  UNL     1      35.968  42.303   7.762  1.00  0.00     0.187 HD
HETATM   13  N5  UNL     1      36.535  47.667   6.540  1.00  0.00    -0.352 N 
HETATM   14  C18 UNL     1      35.976  48.114   7.682  1.00  0.00     0.119 A 
ATOM     15  H5  UNL     1      36.902  48.338   5.866  1.00  0.00     0.166 HD
HETATM   16 CL1  UNL     1      35.955  49.843   8.041  1.00  0.00    -0.063 Cl
ENDBRANCH   1   2
BRANCH   1  17
HETATM   17  N1  UNL     1      33.307  42.914   9.915  1.00  0.00    -0.370 N 
HETATM   18  C4  UNL     1      32.260  43.028   9.108  1.00  0.00    -0.013 C 
HETATM   19  C5  UNL     1      31.147  43.767   9.865  1.00  0.00     0.058 C 
HETATM   20  C15 UNL     1      32.273  43.304   7.668  1.00  0.00     0.058 C 
HETATM   21  C6  UNL     1      30.610  44.905   9.051  1.00  0.00     0.057 C 
HETATM   22  C7  UNL     1      31.768  45.638   8.343  1.00  0.00    -0.017 C 
HETATM   23  N2  UNL     1      31.565  46.981   8.263  1.00  0.00    -0.392 N 
HETATM   24  C14 UNL     1      32.215  44.759   7.242  1.00  0.00     0.057 C 
ATOM     25  H2  UNL     1      32.236  47.553   8.774  1.00  0.00     0.159 HD
ATOM     26  H1  UNL     1      33.042  43.119  10.879  1.00  0.00     0.165 HD
BRANCH  23  27
HETATM   27  C8  UNL     1      30.600  47.672   7.604  1.00  0.00     0.081 C 
HETATM   28  C9  UNL     1      29.363  47.965   8.406  1.00  0.00     0.025 C 
HETATM   29  C10 UNL     1      28.202  47.989   7.378  1.00  0.00     0.002 C 
HETATM   30  C11 UNL     1      28.761  48.731   6.173  1.00  0.00     0.000 C 
HETATM   31  C12 UNL     1      29.788  49.741   6.592  1.00  0.00     0.002 C 
HETATM   32  C13 UNL     1      31.031  49.087   7.160  1.00  0.00     0.025 C 
ENDBRANCH  23  27
ENDBRANCH   1  17
TORSDOF 3
ENDMDL
MODEL 4
REMARK VINA RESULT: -7.631356733      1.546      1.991
REMARK  3 active torsions:
REMARK  status: ('A' for Active; 'I' for Inactive)
REMARK    1  A    between atoms: C2_3  and  C3_4 
REMARK    2  A    between atoms: C3_4  and  N1_5 
REMARK    3  A    between atoms: N2_11  and  C8_13 
ROOT
HETATM    1  C3  UNL     1      29.494  44.497   9.636  1.00  0.00     0.124 C 
ENDROOT
BRANCH   1   2
HETATM    2  C2  UNL     1      29.324  45.845   8.937  1.00  0.00     0.132 A 
HETATM    3  C1  UNL     1      28.180  46.492   8.653  1.00  0.00     0.282 A 
HETATM    4  O1  UNL     1      27.107  46.089   9.186  1.00  0.00    -0.265 OA
HETATM    5  N6  UNL     1      28.213  47.533   7.821  1.00  0.00    -0.268 N 
HETATM    6  C16 UNL     1      29.351  47.926   7.271  1.00  0.00     0.144 A 
HETATM    7  C19 UNL     1      27.056  48.204   7.633  1.00  0.00     0.144 A 
HETATM    8  N4  UNL     1      30.514  47.263   7.559  1.00  0.00    -0.283 N 
HETATM    9  C17 UNL     1      29.383  49.039   6.466  1.00  0.00     0.139 A 
HETATM   10  N3  UNL     1      30.480  46.260   8.368  1.00  0.00    -0.293 N 
ATOM     11  H4  UNL     1      31.396  47.559   7.140  1.00  0.00     0.188 HD
ATOM     12  H3  UNL     1      31.346  45.767   8.585  1.00  0.00     0.187 HD
HETATM   13  N5  UNL     1      28.241  49.714   6.271  1.00  0.00    -0.352 N 
HETATM   14  C18 UNL     1      27.087  49.318   6.844  1.00  0.00     0.119 A 
ATOM     15  H5  UNL     1      28.245  50.545   5.678  1.00  0.00     0.166 HD
HETATM   16 CL1  UNL     1      25.618  50.276   6.638  1.00  0.00    -0.063 Cl
ENDBRANCH   1   2
BRANCH   1  17
HETATM   17  N1  UNL     1      30.452  43.830   8.909  1.00  0.00    -0.370 N 
HETATM   18  C4  UNL     1      31.630  43.252   9.104  1.00  0.00    -0.013 C 
HETATM   19  C5  UNL     1      32.285  43.017   7.735  1.00  0.00     0.058 C 
HETATM   20  C15 UNL     1      32.593  43.533  10.174  1.00  0.00     0.058 C 
HETATM   21  C6  UNL     1      33.689  43.540   7.716  1.00  0.00     0.057 C 
HETATM   22  C7  UNL     1      33.759  44.892   8.456  1.00  0.00    -0.017 C 
HETATM   23  N2  UNL     1      34.642  45.755   7.886  1.00  0.00    -0.392 N 
HETATM   24  C14 UNL     1      33.644  44.592   9.898  1.00  0.00     0.057 C 
ATOM     25  H2  UNL     1      34.232  46.605   7.499  1.00  0.00     0.159 HD
ATOM     26  H1  UNL     1      30.175  43.759   7.930  1.00  0.00     0.165 HD
BRANCH  23  27
HETATM   27  C8  UNL     1      35.990  45.653   7.754  1.00  0.00     0.081 C 
HETATM   28  C9  UNL     1      36.595  46.525   6.690  1.00  0.00     0.025 C 
HETATM   29  C10 UNL     1      37.832  45.745   6.173  1.00  0.00     0.002 C 
HETATM   30  C11 UNL     1      38.480  45.165   7.422  1.00  0.00     0.000 C 
HETATM   31  C12 UNL     1      38.242  46.049   8.610  1.00  0.00     0.002 C 
HETATM   32  C13 UNL     1      36.780  46.088   9.007  1.00  0.00     0.025 C 
ENDBRANCH  23  27
ENDBRANCH   1  17
TORSDOF 3
ENDMDL
MODEL 5
REMARK VINA RESULT: -7.582968867      2.507      7.076
REMARK  3 active torsions:
REMARK  status: ('A' for Active; 'I' for Inactive)
REMARK    1  A    between atoms: C2_3  and  C3_4 
REMARK    2  A    between atoms: C3_4  and  N1_5 
REMARK    3  A    between atoms: N2_11  and  C8_13 
ROOT
HETATM    1  C3  UNL     1      31.596  43.540   9.424  1.00  0.00     0.124 C 
ENDROOT
BRANCH   1   2
HETATM    2  C2  UNL     1      32.833  44.437   9.410  1.00  0.00     0.132 A 
HETATM    3  C1  UNL     1      33.518  44.884   8.343  1.00  0.00     0.282 A 
HETATM    4  O1  UNL     1      33.007  44.753   7.194  1.00  0.00    -0.265 OA
HETATM    5  N6  UNL     1      34.712  45.448   8.528  1.00  0.00    -0.268 N 
HETATM    6  C16 UNL     1      35.227  45.563   9.743  1.00  0.00     0.144 A 
HETATM    7  C19 UNL     1      35.324  45.959   7.439  1.00  0.00     0.144 A 
HETATM    8  N4  UNL     1      34.527  45.104  10.828  1.00  0.00    -0.283 N 
HETATM    9  C17 UNL     1      36.428  46.203   9.929  1.00  0.00     0.139 A 
HETATM   10  N3  UNL     1      33.371  44.564  10.645  1.00  0.00    -0.293 N 
ATOM     11  H4  UNL     1      34.916  45.188  11.767  1.00  0.00     0.188 HD
ATOM     12  H3  UNL     1      32.849  44.223  11.452  1.00  0.00     0.187 HD
HETATM   13  N5  UNL     1      37.046  46.716   8.854  1.00  0.00    -0.352 N 
HETATM   14  C18 UNL     1      36.512  46.608   7.622  1.00  0.00     0.119 A 
ATOM     15  H5  UNL     1      37.938  47.197   8.972  1.00  0.00     0.166 HD
HETATM   16 CL1  UNL     1      37.308  47.366   6.239  1.00  0.00    -0.063 Cl
ENDBRANCH   1   2
BRANCH   1  17
HETATM   17  N1  UNL     1      30.528  44.399   9.539  1.00  0.00    -0.370 N 
HETATM   18  C4  UNL     1      29.568  44.906   8.776  1.00  0.00    -0.013 C 
HETATM   19  C5  UNL     1      28.934  46.090   9.520  1.00  0.00     0.058 C 
HETATM   20  C15 UNL     1      29.583  45.069   7.319  1.00  0.00     0.058 C 
HETATM   21  C6  UNL     1      28.867  47.302   8.641  1.00  0.00     0.057 C 
HETATM   22  C7  UNL     1      30.167  47.429   7.819  1.00  0.00    -0.017 C 
HETATM   23  N2  UNL     1      30.546  48.723   7.638  1.00  0.00    -0.392 N 
HETATM   24  C14 UNL     1      30.112  46.384   6.776  1.00  0.00     0.057 C 
ATOM     25  H2  UNL     1      31.434  48.980   8.067  1.00  0.00     0.159 HD
ATOM     26  H1  UNL     1      30.451  44.751  10.494  1.00  0.00     0.165 HD
BRANCH  23  27
HETATM   27  C8  UNL     1      29.916  49.723   6.970  1.00  0.00     0.081 C 
HETATM   28  C9  UNL     1      30.782  50.900   6.618  1.00  0.00     0.025 C 
HETATM   29  C10 UNL     1      29.834  52.128   6.634  1.00  0.00     0.002 C 
HETATM   30  C11 UNL     1      28.556  51.644   5.966  1.00  0.00     0.000 C 
HETATM   31  C12 UNL     1      28.850  50.582   4.948  1.00  0.00     0.002 C 
HETATM   32  C13 UNL     1      29.368  49.310   5.586  1.00  0.00     0.025 C 
ENDBRANCH  23  27
ENDBRANCH   1  17
TORSDOF 3
ENDMDL
