MODEL 1
REMARK VINA RESULT: -5.490878522      0.000      0.000
REMARK  12 active torsions:
REMARK  status: ('A' for Active; 'I' for Inactive)
REMARK       I    between atoms: C2_2  and  N1_4 
REMARK    1  A    between atoms: N1_4  and  C3_6 
REMARK    2  A    between atoms: C4_7  and  C5_8 
REMARK    3  A    between atoms: C9_22  and  C10_23 
REMARK    4  A    between atoms: C10_23  and  O3_24 
REMARK    5  A    between atoms: O3_24  and  C11_25 
REMARK    6  A    between atoms: C11_25  and  C12_27 
REMARK    7  A    between atoms: C12_27  and  S1_28 
REMARK    8  A    between atoms: S1_28  and  C13_29 
REMARK    9  A    between atoms: C14_34  and  C15_35 
REMARK   10  A    between atoms: C15_35  and  N9_37 
REMARK   11  A    between atoms: C15_35  and  N10_41 
REMARK   12  A    between atoms: N10_41  and  O5_42 
ROOT
HETATM    1  C5  UNL     1     -10.426   8.778  30.739  1.00  0.00     0.150 A 
HETATM    2  N2  UNL     1     -11.446   8.798  29.891  1.00  0.00    -0.281 N 
ATOM      3  H2  UNL     1     -12.330   9.204  30.199  1.00  0.00     0.188 HD
HETATM    4  N3  UNL     1     -11.364   8.313  28.662  1.00  0.00    -0.262 N 
ATOM      5  H3  UNL     1     -12.183   8.358  28.056  1.00  0.00     0.190 HD
HETATM    6  C6  UNL     1     -10.232   7.764  28.190  1.00  0.00     0.297 A 
HETATM    7  O2  UNL     1     -10.130   7.290  27.013  1.00  0.00    -0.263 OA
HETATM    8  C7  UNL     1      -9.136   7.721  29.042  1.00  0.00     0.185 A 
HETATM    9  C8  UNL     1      -7.884   7.133  28.582  1.00  0.00     0.123 C 
HETATM   10  N4  UNL     1      -6.887   6.659  28.225  1.00  0.00    -0.190 NA
HETATM   11  N5  UNL     1      -9.264   8.221  30.272  1.00  0.00    -0.326 N 
ATOM     12  H5  UNL     1      -8.457   8.188  30.896  1.00  0.00     0.168 HD
ENDROOT
BRANCH   1  13
HETATM   13  C4  UNL     1     -10.501   9.269  32.105  1.00  0.00     0.110 A 
HETATM   14  C3  UNL     1     -10.055  10.503  32.439  1.00  0.00     0.116 A 
HETATM   15  C18 UNL     1     -10.158  10.972  33.764  1.00  0.00     0.203 A 
HETATM   16  C17 UNL     1     -10.732  10.154  34.747  1.00  0.00     0.088 A 
HETATM   17  O6  UNL     1      -9.749  12.104  34.076  1.00  0.00    -0.286 OA
HETATM   18  C9  UNL     1     -11.170   8.927  34.383  1.00  0.00     0.059 A 
HETATM   19  N6  UNL     1     -11.045   8.511  33.070  1.00  0.00    -0.350 N 
ATOM     20  H6  UNL     1     -11.383   7.581  32.822  1.00  0.00     0.166 HD
BRANCH  14  21
HETATM   21  N1  UNL     1      -9.492  11.407  31.479  1.00  0.00    -0.322 N 
HETATM   22  C2  UNL     1     -10.368  12.330  30.829  1.00  0.00     0.218 C 
HETATM   23  C1  UNL     1      -9.781  13.261  29.844  1.00  0.00     0.117 C 
HETATM   24  O1  UNL     1     -11.587  12.350  31.084  1.00  0.00    -0.274 OA
ATOM     25  H1  UNL     1      -8.495  11.392  31.266  1.00  0.00     0.169 HD
ENDBRANCH  14  21
BRANCH  18  26
HETATM   26  C10 UNL     1     -11.808   7.955  35.278  1.00  0.00     0.175 C 
BRANCH  26  27
HETATM   27  O3  UNL     1     -13.112   7.766  35.374  1.00  0.00    -0.288 OA
BRANCH  27  28
HETATM   28  C11 UNL     1     -14.122   8.135  36.198  1.00  0.00     0.273 C 
HETATM   29  O4  UNL     1     -15.014   7.355  36.538  1.00  0.00    -0.264 OA
BRANCH  28  30
HETATM   30  C12 UNL     1     -14.110   9.551  36.681  1.00  0.00     0.193 C 
BRANCH  30  31
HETATM   31  S1  UNL     1     -15.059  10.678  35.666  1.00  0.00    -0.083 SA
BRANCH  31  32
HETATM   32  C13 UNL     1     -14.690  10.448  33.943  1.00  0.00     0.161 A 
HETATM   33  N7  UNL     1     -13.746  11.130  33.221  1.00  0.00    -0.278 N 
HETATM   34  N8  UNL     1     -13.726  10.720  31.971  1.00  0.00    -0.284 N 
ATOM     35  H7  UNL     1     -13.140  11.858  33.601  1.00  0.00     0.189 HD
HETATM   36  C14 UNL     1     -14.643   9.766  31.827  1.00  0.00     0.153 A 
ATOM     37  H8  UNL     1     -13.112  11.074  31.237  1.00  0.00     0.188 HD
HETATM   38  N11 UNL     1     -15.223   9.613  33.039  1.00  0.00    -0.321 N 
ATOM     39  H11 UNL     1     -15.970   8.948  33.240  1.00  0.00     0.169 HD
BRANCH  36  40
HETATM   40  C15 UNL     1     -15.022   8.950  30.618  1.00  0.00     0.273 C 
HETATM   41  C16 UNL     1     -14.880   9.915  29.444  1.00  0.00     0.077 C 
BRANCH  40  42
HETATM   42  N9  UNL     1     -16.384   8.489  30.740  1.00  0.00    -0.047 N 
ATOM     43  H93 UNL     1     -16.902   9.013  31.445  1.00  0.00     0.277 HD
ATOM     44  H92 UNL     1     -16.947   8.738  29.926  1.00  0.00     0.277 HD
ATOM     45  H91 UNL     1     -16.397   7.486  30.922  1.00  0.00     0.277 HD
ENDBRANCH  40  42
BRANCH  40  46
HETATM   46  N10 UNL     1     -14.152   7.804  30.492  1.00  0.00    -0.056 NA
BRANCH  46  47
HETATM   47  O5  UNL     1     -13.587   7.562  31.695  1.00  0.00    -0.293 OA
ATOM     48  H5  UNL     1     -13.544   8.380  32.176  1.00  0.00     0.238 HD
ENDBRANCH  46  47
ENDBRANCH  40  46
ENDBRANCH  36  40
ENDBRANCH  31  32
ENDBRANCH  30  31
ENDBRANCH  28  30
ENDBRANCH  27  28
ENDBRANCH  26  27
ENDBRANCH  18  26
ENDBRANCH   1  13
TORSDOF 12
ENDMDL
MODEL 2
REMARK VINA RESULT: -5.447826383      2.864      5.912
REMARK  12 active torsions:
REMARK  status: ('A' for Active; 'I' for Inactive)
REMARK       I    between atoms: C2_2  and  N1_4 
REMARK    1  A    between atoms: N1_4  and  C3_6 
REMARK    2  A    between atoms: C4_7  and  C5_8 
REMARK    3  A    between atoms: C9_22  and  C10_23 
REMARK    4  A    between atoms: C10_23  and  O3_24 
REMARK    5  A    between atoms: O3_24  and  C11_25 
REMARK    6  A    between atoms: C11_25  and  C12_27 
REMARK    7  A    between atoms: C12_27  and  S1_28 
REMARK    8  A    between atoms: S1_28  and  C13_29 
REMARK    9  A    between atoms: C14_34  and  C15_35 
REMARK   10  A    between atoms: C15_35  and  N9_37 
REMARK   11  A    between atoms: C15_35  and  N10_41 
REMARK   12  A    between atoms: N10_41  and  O5_42 
ROOT
HETATM    1  C5  UNL     1      -7.753  11.593  29.994  1.00  0.00     0.150 A 
HETATM    2  N2  UNL     1      -6.868  12.514  29.639  1.00  0.00    -0.281 N 
ATOM      3  H2  UNL     1      -5.876  12.283  29.687  1.00  0.00     0.188 HD
HETATM    4  N3  UNL     1      -7.220  13.723  29.225  1.00  0.00    -0.262 N 
ATOM      5  H3  UNL     1      -6.492  14.389  28.965  1.00  0.00     0.190 HD
HETATM    6  C6  UNL     1      -8.508  14.096  29.138  1.00  0.00     0.297 A 
HETATM    7  O2  UNL     1      -8.870  15.251  28.746  1.00  0.00    -0.263 OA
HETATM    8  C7  UNL     1      -9.471  13.163  29.500  1.00  0.00     0.185 A 
HETATM    9  C8  UNL     1     -10.884  13.516  29.427  1.00  0.00     0.123 C 
HETATM   10  N4  UNL     1     -12.010  13.794  29.380  1.00  0.00    -0.190 NA
HETATM   11  N5  UNL     1      -9.072  11.958  29.910  1.00  0.00    -0.326 N 
ATOM     12  H5  UNL     1      -9.782  11.275  30.175  1.00  0.00     0.168 HD
ENDROOT
BRANCH   1  13
HETATM   13  C4  UNL     1      -7.393  10.273  30.486  1.00  0.00     0.110 A 
HETATM   14  C3  UNL     1      -7.245  10.027  31.809  1.00  0.00     0.116 A 
HETATM   15  C18 UNL     1      -6.920   8.735  32.268  1.00  0.00     0.203 A 
HETATM   16  C17 UNL     1      -6.750   7.692  31.348  1.00  0.00     0.088 A 
HETATM   17  O6  UNL     1      -6.783   8.504  33.483  1.00  0.00    -0.286 OA
HETATM   18  C9  UNL     1      -6.906   7.968  30.032  1.00  0.00     0.059 A 
HETATM   19  N6  UNL     1      -7.223   9.253  29.630  1.00  0.00    -0.350 N 
ATOM     20  H6  UNL     1      -7.335   9.435  28.632  1.00  0.00     0.166 HD
BRANCH  14  21
HETATM   21  N1  UNL     1      -7.441  11.035  32.809  1.00  0.00    -0.322 N 
HETATM   22  C2  UNL     1      -8.770  11.271  33.276  1.00  0.00     0.218 C 
HETATM   23  C1  UNL     1      -8.963  12.309  34.310  1.00  0.00     0.117 C 
HETATM   24  O1  UNL     1      -9.735  10.624  32.828  1.00  0.00    -0.274 OA
ATOM     25  H1  UNL     1      -6.653  11.569  33.177  1.00  0.00     0.169 HD
ENDBRANCH  14  21
BRANCH  18  26
HETATM   26  C10 UNL     1      -6.781   6.996  28.941  1.00  0.00     0.175 C 
BRANCH  26  27
HETATM   27  O3  UNL     1      -7.799   6.474  28.280  1.00  0.00    -0.288 OA
BRANCH  27  28
HETATM   28  C11 UNL     1      -9.144   6.384  28.416  1.00  0.00     0.273 C 
HETATM   29  O4  UNL     1      -9.676   5.597  29.203  1.00  0.00    -0.264 OA
BRANCH  28  30
HETATM   30  C12 UNL     1      -9.968   7.290  27.556  1.00  0.00     0.193 C 
BRANCH  30  31
HETATM   31  S1  UNL     1     -10.424   8.831  28.343  1.00  0.00    -0.083 SA
BRANCH  31  32
HETATM   32  C13 UNL     1     -11.431   8.539  29.778  1.00  0.00     0.161 A 
HETATM   33  N7  UNL     1     -12.067   7.366  30.093  1.00  0.00    -0.278 N 
HETATM   34  N8  UNL     1     -12.732   7.484  31.221  1.00  0.00    -0.284 N 
ATOM     35  H7  UNL     1     -12.030   6.517  29.528  1.00  0.00     0.189 HD
HETATM   36  C14 UNL     1     -12.559   8.719  31.685  1.00  0.00     0.153 A 
ATOM     37  H8  UNL     1     -13.286   6.751  31.667  1.00  0.00     0.188 HD
HETATM   38  N11 UNL     1     -11.765   9.351  30.791  1.00  0.00    -0.321 N 
ATOM     39  H11 UNL     1     -11.458  10.320  30.877  1.00  0.00     0.169 HD
BRANCH  36  40
HETATM   40  C15 UNL     1     -13.079   9.374  32.940  1.00  0.00     0.273 C 
HETATM   41  C16 UNL     1     -14.588   9.154  32.890  1.00  0.00     0.077 C 
BRANCH  40  42
HETATM   42  N9  UNL     1     -12.765  10.782  32.928  1.00  0.00    -0.047 N 
ATOM     43  H93 UNL     1     -12.159  11.046  33.704  1.00  0.00     0.277 HD
ATOM     44  H92 UNL     1     -12.140  11.029  32.160  1.00  0.00     0.277 HD
ATOM     45  H91 UNL     1     -13.626  11.331  32.912  1.00  0.00     0.277 HD
ENDBRANCH  40  42
BRANCH  40  46
HETATM   46  N10 UNL     1     -12.477   8.772  34.107  1.00  0.00    -0.056 NA
BRANCH  46  47
HETATM   47  O5  UNL     1     -11.262   8.293  33.761  1.00  0.00    -0.293 OA
ATOM     48  H5  UNL     1     -10.661   8.453  34.479  1.00  0.00     0.238 HD
ENDBRANCH  46  47
ENDBRANCH  40  46
ENDBRANCH  36  40
ENDBRANCH  31  32
ENDBRANCH  30  31
ENDBRANCH  28  30
ENDBRANCH  27  28
ENDBRANCH  26  27
ENDBRANCH  18  26
ENDBRANCH   1  13
TORSDOF 12
ENDMDL
MODEL 3
REMARK VINA RESULT: -5.400422015      2.503      5.934
REMARK  12 active torsions:
REMARK  status: ('A' for Active; 'I' for Inactive)
REMARK       I    between atoms: C2_2  and  N1_4 
REMARK    1  A    between atoms: N1_4  and  C3_6 
REMARK    2  A    between atoms: C4_7  and  C5_8 
REMARK    3  A    between atoms: C9_22  and  C10_23 
REMARK    4  A    between atoms: C10_23  and  O3_24 
REMARK    5  A    between atoms: O3_24  and  C11_25 
REMARK    6  A    between atoms: C11_25  and  C12_27 
REMARK    7  A    between atoms: C12_27  and  S1_28 
REMARK    8  A    between atoms: S1_28  and  C13_29 
REMARK    9  A    between atoms: C14_34  and  C15_35 
REMARK   10  A    between atoms: C15_35  and  N9_37 
REMARK   11  A    between atoms: C15_35  and  N10_41 
REMARK   12  A    between atoms: N10_41  and  O5_42 
ROOT
HETATM    1  C5  UNL     1     -11.916   8.450  33.570  1.00  0.00     0.150 A 
HETATM    2  N2  UNL     1     -11.609   8.139  34.822  1.00  0.00    -0.281 N 
ATOM      3  H2  UNL     1     -10.634   8.203  35.116  1.00  0.00     0.188 HD
HETATM    4  N3  UNL     1     -12.515   7.748  35.705  1.00  0.00    -0.262 N 
ATOM      5  H3  UNL     1     -12.217   7.523  36.654  1.00  0.00     0.190 HD
HETATM    6  C6  UNL     1     -13.816   7.641  35.386  1.00  0.00     0.297 A 
HETATM    7  O2  UNL     1     -14.705   7.266  36.217  1.00  0.00    -0.263 OA
HETATM    8  C7  UNL     1     -14.185   7.957  34.085  1.00  0.00     0.185 A 
HETATM    9  C8  UNL     1     -15.584   7.856  33.684  1.00  0.00     0.123 C 
HETATM   10  N4  UNL     1     -16.694   7.768  33.357  1.00  0.00    -0.190 NA
HETATM   11  N5  UNL     1     -13.240   8.346  33.229  1.00  0.00    -0.326 N 
ATOM     12  H5  UNL     1     -13.515   8.578  32.274  1.00  0.00     0.168 HD
ENDROOT
BRANCH   1  13
HETATM   13  C4  UNL     1     -10.936   8.845  32.572  1.00  0.00     0.110 A 
HETATM   14  C3  UNL     1     -10.035   9.826  32.814  1.00  0.00     0.116 A 
HETATM   15  C18 UNL     1      -9.076  10.179  31.842  1.00  0.00     0.203 A 
HETATM   16  C17 UNL     1      -9.052   9.505  30.614  1.00  0.00     0.088 A 
HETATM   17  O6  UNL     1      -8.247  11.080  32.060  1.00  0.00    -0.286 OA
HETATM   18  C9  UNL     1      -9.964   8.528  30.401  1.00  0.00     0.059 A 
HETATM   19  N6  UNL     1     -10.886   8.220  31.385  1.00  0.00    -0.350 N 
ATOM     20  H6  UNL     1     -11.563   7.479  31.199  1.00  0.00     0.166 HD
BRANCH  14  21
HETATM   21  N1  UNL     1      -9.977  10.531  34.060  1.00  0.00    -0.322 N 
HETATM   22  C2  UNL     1     -10.775  11.707  34.207  1.00  0.00     0.218 C 
HETATM   23  C1  UNL     1     -10.712  12.427  35.496  1.00  0.00     0.117 C 
HETATM   24  O1  UNL     1     -11.500  12.113  33.280  1.00  0.00    -0.274 OA
ATOM     25  H1  UNL     1      -9.382  10.203  34.821  1.00  0.00     0.169 HD
ENDBRANCH  14  21
BRANCH  18  26
HETATM   26  C10 UNL     1     -10.067   7.715  29.184  1.00  0.00     0.175 C 
BRANCH  26  27
HETATM   27  O3  UNL     1     -10.798   8.031  28.130  1.00  0.00    -0.288 OA
BRANCH  27  28
HETATM   28  C11 UNL     1     -10.653   8.735  26.982  1.00  0.00     0.273 C 
HETATM   29  O4  UNL     1     -11.196   8.397  25.928  1.00  0.00    -0.264 OA
BRANCH  28  30
HETATM   30  C12 UNL     1      -9.789   9.955  27.048  1.00  0.00     0.193 C 
BRANCH  30  31
HETATM   31  S1  UNL     1     -10.667  11.451  27.486  1.00  0.00    -0.083 SA
BRANCH  31  32
HETATM   32  C13 UNL     1     -11.882  11.130  28.743  1.00  0.00     0.161 A 
HETATM   33  N7  UNL     1     -11.835  11.567  30.042  1.00  0.00    -0.278 N 
HETATM   34  N8  UNL     1     -12.889  11.154  30.712  1.00  0.00    -0.284 N 
ATOM     35  H7  UNL     1     -11.085  12.135  30.435  1.00  0.00     0.189 HD
HETATM   36  C14 UNL     1     -13.657  10.442  29.891  1.00  0.00     0.153 A 
ATOM     37  H8  UNL     1     -13.084  11.347  31.695  1.00  0.00     0.188 HD
HETATM   38  N11 UNL     1     -13.027  10.435  28.694  1.00  0.00    -0.321 N 
ATOM     39  H11 UNL     1     -13.379   9.962  27.861  1.00  0.00     0.169 HD
BRANCH  36  40
HETATM   40  C15 UNL     1     -14.979   9.759  30.136  1.00  0.00     0.273 C 
HETATM   41  C16 UNL     1     -15.838  10.144  28.936  1.00  0.00     0.077 C 
BRANCH  40  42
HETATM   42  N9  UNL     1     -15.564  10.244  31.363  1.00  0.00    -0.047 N 
ATOM     43  H93 UNL     1     -15.949   9.487  31.928  1.00  0.00     0.277 HD
ATOM     44  H92 UNL     1     -14.857  10.575  32.019  1.00  0.00     0.277 HD
ATOM     45  H91 UNL     1     -16.261  10.960  31.157  1.00  0.00     0.277 HD
ENDBRANCH  40  42
BRANCH  40  46
HETATM   46  N10 UNL     1     -14.794   8.330  30.241  1.00  0.00    -0.056 NA
BRANCH  46  47
HETATM   47  O5  UNL     1     -13.479   8.058  30.099  1.00  0.00    -0.293 OA
ATOM     48  H5  UNL     1     -13.067   8.112  30.953  1.00  0.00     0.238 HD
ENDBRANCH  46  47
ENDBRANCH  40  46
ENDBRANCH  36  40
ENDBRANCH  31  32
ENDBRANCH  30  31
ENDBRANCH  28  30
ENDBRANCH  27  28
ENDBRANCH  26  27
ENDBRANCH  18  26
ENDBRANCH   1  13
TORSDOF 12
ENDMDL
MODEL 4
REMARK VINA RESULT: -5.348652212      2.356      4.036
REMARK  12 active torsions:
REMARK  status: ('A' for Active; 'I' for Inactive)
REMARK       I    between atoms: C2_2  and  N1_4 
REMARK    1  A    between atoms: N1_4  and  C3_6 
REMARK    2  A    between atoms: C4_7  and  C5_8 
REMARK    3  A    between atoms: C9_22  and  C10_23 
REMARK    4  A    between atoms: C10_23  and  O3_24 
REMARK    5  A    between atoms: O3_24  and  C11_25 
REMARK    6  A    between atoms: C11_25  and  C12_27 
REMARK    7  A    between atoms: C12_27  and  S1_28 
REMARK    8  A    between atoms: S1_28  and  C13_29 
REMARK    9  A    between atoms: C14_34  and  C15_35 
REMARK   10  A    between atoms: C15_35  and  N9_37 
REMARK   11  A    between atoms: C15_35  and  N10_41 
REMARK   12  A    between atoms: N10_41  and  O5_42 
ROOT
HETATM    1  C5  UNL     1     -10.203   7.093  29.429  1.00  0.00     0.150 A 
HETATM    2  N2  UNL     1     -10.066   6.125  28.533  1.00  0.00    -0.281 N 
ATOM      3  H2  UNL     1     -10.878   5.856  27.977  1.00  0.00     0.188 HD
HETATM    4  N3  UNL     1      -8.920   5.492  28.332  1.00  0.00    -0.262 N 
ATOM      5  H3  UNL     1      -8.878   4.756  27.627  1.00  0.00     0.190 HD
HETATM    6  C6  UNL     1      -7.811   5.794  29.029  1.00  0.00     0.297 A 
HETATM    7  O2  UNL     1      -6.700   5.199  28.854  1.00  0.00    -0.263 OA
HETATM    8  C7  UNL     1      -7.907   6.802  29.979  1.00  0.00     0.185 A 
HETATM    9  C8  UNL     1      -6.735   7.168  30.765  1.00  0.00     0.123 C 
HETATM   10  N4  UNL     1      -5.807   7.458  31.401  1.00  0.00    -0.190 NA
HETATM   11  N5  UNL     1      -9.080   7.413  30.148  1.00  0.00    -0.326 N 
ATOM     12  H5  UNL     1      -9.146   8.153  30.847  1.00  0.00     0.168 HD
ENDROOT
BRANCH   1  13
HETATM   13  C4  UNL     1     -11.458   7.776  29.696  1.00  0.00     0.110 A 
HETATM   14  C3  UNL     1     -11.785   8.927  29.063  1.00  0.00     0.116 A 
HETATM   15  C18 UNL     1     -13.017   9.562  29.317  1.00  0.00     0.203 A 
HETATM   16  C17 UNL     1     -13.916   8.996  30.231  1.00  0.00     0.088 A 
HETATM   17  O6  UNL     1     -13.323  10.621  28.738  1.00  0.00    -0.286 OA
HETATM   18  C9  UNL     1     -13.562   7.844  30.846  1.00  0.00     0.059 A 
HETATM   19  N6  UNL     1     -12.340   7.259  30.566  1.00  0.00    -0.350 N 
ATOM     20  H6  UNL     1     -12.097   6.392  31.044  1.00  0.00     0.166 HD
BRANCH  14  21
HETATM   21  N1  UNL     1     -10.933   9.543  28.089  1.00  0.00    -0.322 N 
HETATM   22  C2  UNL     1      -9.919  10.437  28.550  1.00  0.00     0.218 C 
HETATM   23  C1  UNL     1      -9.042  11.066  27.540  1.00  0.00     0.117 C 
HETATM   24  O1  UNL     1      -9.778  10.681  29.763  1.00  0.00    -0.274 OA
ATOM     25  H1  UNL     1     -11.046   9.348  27.094  1.00  0.00     0.169 HD
ENDBRANCH  14  21
BRANCH  18  26
HETATM   26  C10 UNL     1     -14.387   7.111  31.813  1.00  0.00     0.175 C 
BRANCH  26  27
HETATM   27  O3  UNL     1     -15.657   7.370  32.065  1.00  0.00    -0.288 OA
BRANCH  27  28
HETATM   28  C11 UNL     1     -16.489   7.371  33.135  1.00  0.00     0.273 C 
HETATM   29  O4  UNL     1     -17.092   6.359  33.501  1.00  0.00    -0.264 OA
BRANCH  28  30
HETATM   30  C12 UNL     1     -16.650   8.670  33.859  1.00  0.00     0.193 C 
BRANCH  30  31
HETATM   31  S1  UNL     1     -15.626   8.825  35.318  1.00  0.00    -0.083 SA
BRANCH  31  32
HETATM   32  C13 UNL     1     -13.902   8.762  34.895  1.00  0.00     0.161 A 
HETATM   33  N7  UNL     1     -13.007   7.801  35.291  1.00  0.00    -0.278 N 
HETATM   34  N8  UNL     1     -11.810   8.049  34.806  1.00  0.00    -0.284 N 
ATOM     35  H7  UNL     1     -13.239   7.002  35.881  1.00  0.00     0.189 HD
HETATM   36  C14 UNL     1     -11.871   9.165  34.083  1.00  0.00     0.153 A 
ATOM     37  H8  UNL     1     -10.975   7.482  34.958  1.00  0.00     0.188 HD
HETATM   38  N11 UNL     1     -13.154   9.589  34.150  1.00  0.00    -0.321 N 
ATOM     39  H11 UNL     1     -13.507  10.429  33.691  1.00  0.00     0.169 HD
BRANCH  36  40
HETATM   40  C15 UNL     1     -10.801   9.882  33.300  1.00  0.00     0.273 C 
HETATM   41  C16 UNL     1      -9.971  10.605  34.357  1.00  0.00     0.077 C 
BRANCH  40  42
HETATM   42  N9  UNL     1     -11.404  10.824  32.388  1.00  0.00    -0.047 N 
ATOM     43  H93 UNL     1     -12.242  11.253  32.781  1.00  0.00     0.277 HD
ATOM     44  H92 UNL     1     -10.840  11.668  32.282  1.00  0.00     0.277 HD
ATOM     45  H91 UNL     1     -11.590  10.373  31.493  1.00  0.00     0.277 HD
ENDBRANCH  40  42
BRANCH  40  46
HETATM   46  N10 UNL     1     -10.016   8.936  32.541  1.00  0.00    -0.056 NA
BRANCH  46  47
HETATM   47  O5  UNL     1      -8.847   9.525  32.205  1.00  0.00    -0.293 OA
ATOM     48  H5  UNL     1      -9.032  10.403  31.893  1.00  0.00     0.238 HD
ENDBRANCH  46  47
ENDBRANCH  40  46
ENDBRANCH  36  40
ENDBRANCH  31  32
ENDBRANCH  30  31
ENDBRANCH  28  30
ENDBRANCH  27  28
ENDBRANCH  26  27
ENDBRANCH  18  26
ENDBRANCH   1  13
TORSDOF 12
ENDMDL
MODEL 5
REMARK VINA RESULT: -5.331768377      2.442      5.073
REMARK  12 active torsions:
REMARK  status: ('A' for Active; 'I' for Inactive)
REMARK       I    between atoms: C2_2  and  N1_4 
REMARK    1  A    between atoms: N1_4  and  C3_6 
REMARK    2  A    between atoms: C4_7  and  C5_8 
REMARK    3  A    between atoms: C9_22  and  C10_23 
REMARK    4  A    between atoms: C10_23  and  O3_24 
REMARK    5  A    between atoms: O3_24  and  C11_25 
REMARK    6  A    between atoms: C11_25  and  C12_27 
REMARK    7  A    between atoms: C12_27  and  S1_28 
REMARK    8  A    between atoms: S1_28  and  C13_29 
REMARK    9  A    between atoms: C14_34  and  C15_35 
REMARK   10  A    between atoms: C15_35  and  N9_37 
REMARK   11  A    between atoms: C15_35  and  N10_41 
REMARK   12  A    between atoms: N10_41  and  O5_42 
ROOT
HETATM    1  C5  UNL     1     -10.251  11.025  29.920  1.00  0.00     0.150 A 
HETATM    2  N2  UNL     1      -9.523  11.681  30.813  1.00  0.00    -0.281 N 
ATOM      3  H2  UNL     1      -9.409  11.277  31.743  1.00  0.00     0.188 HD
HETATM    4  N3  UNL     1      -8.939  12.840  30.549  1.00  0.00    -0.262 N 
ATOM      5  H3  UNL     1      -8.391  13.297  31.278  1.00  0.00     0.190 HD
HETATM    6  C6  UNL     1      -9.047  13.431  29.347  1.00  0.00     0.297 A 
HETATM    7  O2  UNL     1      -8.496  14.545  29.070  1.00  0.00    -0.263 OA
HETATM    8  C7  UNL     1      -9.800  12.780  28.378  1.00  0.00     0.185 A 
HETATM    9  C8  UNL     1      -9.952  13.378  27.057  1.00  0.00     0.123 C 
HETATM   10  N4  UNL     1     -10.084  13.853  26.006  1.00  0.00    -0.190 NA
HETATM   11  N5  UNL     1     -10.370  11.615  28.688  1.00  0.00    -0.326 N 
ATOM     12  H5  UNL     1     -10.922  11.139  27.974  1.00  0.00     0.168 HD
ENDROOT
BRANCH   1  13
HETATM   13  C4  UNL     1     -10.933   9.771  30.196  1.00  0.00     0.110 A 
HETATM   14  C3  UNL     1     -10.327   8.577  29.997  1.00  0.00     0.116 A 
HETATM   15  C18 UNL     1     -10.995   7.373  30.294  1.00  0.00     0.203 A 
HETATM   16  C17 UNL     1     -12.300   7.410  30.804  1.00  0.00     0.088 A 
HETATM   17  O6  UNL     1     -10.443   6.273  30.112  1.00  0.00    -0.286 OA
HETATM   18  C9  UNL     1     -12.879   8.618  30.994  1.00  0.00     0.059 A 
HETATM   19  N6  UNL     1     -12.183   9.772  30.686  1.00  0.00    -0.350 N 
ATOM     20  H6  UNL     1     -12.642  10.671  30.838  1.00  0.00     0.166 HD
BRANCH  14  21
HETATM   21  N1  UNL     1      -8.982   8.464  29.514  1.00  0.00    -0.322 N 
HETATM   22  C2  UNL     1      -7.916   8.584  30.457  1.00  0.00     0.218 C 
HETATM   23  C1  UNL     1      -6.532   8.463  29.953  1.00  0.00     0.117 C 
HETATM   24  O1  UNL     1      -8.143   8.784  31.665  1.00  0.00    -0.274 OA
ATOM     25  H1  UNL     1      -8.791   8.302  28.525  1.00  0.00     0.169 HD
ENDBRANCH  14  21
BRANCH  18  26
HETATM   26  C10 UNL     1     -14.226   8.838  31.534  1.00  0.00     0.175 C 
BRANCH  26  27
HETATM   27  O3  UNL     1     -14.985   7.895  32.064  1.00  0.00    -0.288 OA
BRANCH  27  28
HETATM   28  C11 UNL     1     -15.118   7.265  33.255  1.00  0.00     0.273 C 
HETATM   29  O4  UNL     1     -15.278   6.045  33.340  1.00  0.00    -0.264 OA
BRANCH  28  30
HETATM   30  C12 UNL     1     -15.065   8.124  34.479  1.00  0.00     0.193 C 
BRANCH  30  31
HETATM   31  S1  UNL     1     -13.600   7.887  35.477  1.00  0.00    -0.083 SA
BRANCH  31  32
HETATM   32  C13 UNL     1     -12.248   8.865  34.865  1.00  0.00     0.161 A 
HETATM   33  N7  UNL     1     -11.206   8.413  34.097  1.00  0.00    -0.278 N 
HETATM   34  N8  UNL     1     -10.375   9.392  33.815  1.00  0.00    -0.284 N 
ATOM     35  H7  UNL     1     -11.092   7.448  33.786  1.00  0.00     0.189 HD
HETATM   36  C14 UNL     1     -10.832  10.508  34.378  1.00  0.00     0.153 A 
ATOM     37  H8  UNL     1      -9.523   9.309  33.258  1.00  0.00     0.188 HD
HETATM   38  N11 UNL     1     -11.974  10.169  35.017  1.00  0.00    -0.321 N 
ATOM     39  H11 UNL     1     -12.554  10.821  35.545  1.00  0.00     0.169 HD
BRANCH  36  40
HETATM   40  C15 UNL     1     -10.279  11.911  34.355  1.00  0.00     0.273 C 
HETATM   41  C16 UNL     1      -8.773  11.727  34.198  1.00  0.00     0.077 C 
BRANCH  40  42
HETATM   42  N9  UNL     1     -10.587  12.582  35.595  1.00  0.00    -0.047 N 
ATOM     43  H93 UNL     1     -10.919  11.934  36.308  1.00  0.00     0.277 HD
ATOM     44  H92 UNL     1      -9.747  12.911  36.071  1.00  0.00     0.277 HD
ATOM     45  H91 UNL     1     -11.252  13.337  35.426  1.00  0.00     0.277 HD
ENDBRANCH  40  42
BRANCH  40  46
HETATM   46  N10 UNL     1     -10.856  12.660  33.263  1.00  0.00    -0.056 NA
BRANCH  46  47
HETATM   47  O5  UNL     1     -11.892  11.953  32.761  1.00  0.00    -0.293 OA
ATOM     48  H5  UNL     1     -11.670  11.681  31.879  1.00  0.00     0.238 HD
ENDBRANCH  46  47
ENDBRANCH  40  46
ENDBRANCH  36  40
ENDBRANCH  31  32
ENDBRANCH  30  31
ENDBRANCH  28  30
ENDBRANCH  27  28
ENDBRANCH  26  27
ENDBRANCH  18  26
ENDBRANCH   1  13
TORSDOF 12
ENDMDL
