MODEL 1
REMARK VINA RESULT: -6.173768187      0.000      0.000
REMARK  12 active torsions:
REMARK  status: ('A' for Active; 'I' for Inactive)
REMARK       I    between atoms: C1_2  and  N3_4 
REMARK    1  A    between atoms: N3_4  and  N4_6 
REMARK    2  A    between atoms: N4_6  and  C2_8 
REMARK    3  A    between atoms: C2_8  and  C11_33 
REMARK    4  A    between atoms: C3_9  and  O1_10 
REMARK    5  A    between atoms: C3_9  and  N5_12 
REMARK    6  A    between atoms: N5_12  and  N6_14 
REMARK    7  A    between atoms: C4_16  and  C5_17 
REMARK    8  A    between atoms: C4_16  and  C7_22 
REMARK    9  A    between atoms: C5_17  and  C6_19 
REMARK   10  A    between atoms: C9_27  and  C10_28 
REMARK   11  A    between atoms: C10_28  and  O7_29 
REMARK   12  A    between atoms: C10_28  and  O8_31 
ROOT
HETATM    1  C2  UNL     1     -10.636   7.930  29.478  1.00  0.00     0.117 C 
HETATM    2  C3  UNL     1     -11.295   7.363  30.621  1.00  0.00     0.185 C 
ENDROOT
BRANCH   2   3
HETATM    3  O1  UNL     1     -11.504   6.060  30.528  1.00  0.00    -0.343 OA
ATOM      4  H1  UNL     1     -11.623   5.628  31.366  1.00  0.00     0.219 HD
ENDBRANCH   2   3
BRANCH   2   5
HETATM    5  N5  UNL     1     -11.742   7.973  31.804  1.00  0.00    -0.278 N 
ATOM      6  H5  UNL     1     -12.559   7.608  32.293  1.00  0.00     0.189 HD
BRANCH   5   7
HETATM    7  N6  UNL     1     -11.070   9.067  32.299  1.00  0.00    -0.293 N 
HETATM    8  C4  UNL     1     -11.316   9.754  33.400  1.00  0.00     0.125 C 
ATOM      9  H6  UNL     1     -10.278   9.390  31.742  1.00  0.00     0.187 HD
BRANCH   8  10
HETATM   10  C5  UNL     1     -10.388  10.834  33.585  1.00  0.00     0.277 C 
HETATM   11  O2  UNL     1      -9.615  10.938  34.537  1.00  0.00    -0.278 OA
BRANCH  10  12
HETATM   12  C6  UNL     1     -10.342  11.920  32.563  1.00  0.00     0.253 C 
HETATM   13  O3  UNL     1      -9.344  12.612  32.328  1.00  0.00    -0.642 OA
HETATM   14  O4  UNL     1     -11.521  12.145  31.841  1.00  0.00    -0.642 OA
ENDBRANCH  10  12
ENDBRANCH   8  10
BRANCH   8  15
HETATM   15  C7  UNL     1     -12.504   9.364  34.130  1.00  0.00     0.077 A 
HETATM   16  S1  UNL     1     -12.493   8.115  35.400  1.00  0.00    -0.016 SA
HETATM   17  C8  UNL     1     -14.162   8.028  35.656  1.00  0.00     0.332 A 
HETATM   18  O5  UNL     1     -14.828   7.283  36.477  1.00  0.00    -0.251 OA
HETATM   19  O6  UNL     1     -14.603   8.884  34.832  1.00  0.00    -0.268 OA
HETATM   20  C9  UNL     1     -13.840   9.562  34.070  1.00  0.00     0.131 A 
BRANCH  20  21
HETATM   21  C10 UNL     1     -14.507  10.573  33.143  1.00  0.00     0.314 C 
BRANCH  21  22
HETATM   22  O7  UNL     1     -14.028  10.300  31.813  1.00  0.00    -0.365 OA
ATOM     23  H7  UNL     1     -14.743  10.492  31.218  1.00  0.00     0.213 HD
ENDBRANCH  21  22
BRANCH  21  24
HETATM   24  O8  UNL     1     -14.083  11.846  33.414  1.00  0.00    -0.365 OA
ATOM     25  H8  UNL     1     -14.782  12.367  33.792  1.00  0.00     0.213 HD
ENDBRANCH  21  24
ENDBRANCH  20  21
ENDBRANCH   8  15
ENDBRANCH   5   7
ENDBRANCH   2   5
BRANCH   1  26
HETATM   26  N4  UNL     1     -10.335   7.056  28.522  1.00  0.00    -0.293 N 
ATOM     27  H4  UNL     1     -11.084   6.465  28.159  1.00  0.00     0.187 HD
BRANCH  26  28
HETATM   28  N3  UNL     1      -9.099   6.905  28.003  1.00  0.00    -0.275 N 
HETATM   29  C1  UNL     1      -8.179   6.203  28.604  1.00  0.00     0.215 C 
HETATM   30  N1  UNL     1      -8.410   5.543  29.849  1.00  0.00    -0.065 NA
HETATM   31  N2  UNL     1      -6.911   6.116  27.998  1.00  0.00    -0.065 NA
ATOM     32  H3  UNL     1      -8.877   7.352  27.113  1.00  0.00     0.189 HD
ENDBRANCH  26  28
ENDBRANCH   1  26
BRANCH   1  33
HETATM   33  C11 UNL     1     -10.242   9.315  29.225  1.00  0.00     0.040 A 
HETATM   34  C12 UNL     1     -10.846  10.367  28.624  1.00  0.00     0.031 A 
HETATM   35  C13 UNL     1     -10.195  11.558  28.580  1.00  0.00    -0.023 A 
HETATM   36  C14 UNL     1      -8.960  11.620  29.150  1.00  0.00     0.077 A 
HETATM   37  C17 UNL     1     -10.695  12.870  27.963  1.00  0.00     0.043 C 
HETATM   38  S2  UNL     1      -8.737  10.045  29.727  1.00  0.00    -0.070 SA
HETATM   39  N7  UNL     1      -8.183  12.845  29.150  1.00  0.00    -0.384 N 
HETATM   40  C15 UNL     1      -8.780  14.137  28.958  1.00  0.00     0.120 C 
ATOM     41  H7  UNL     1      -7.174  12.786  29.290  1.00  0.00     0.160 HD
HETATM   42  C16 UNL     1     -10.259  13.980  28.893  1.00  0.00     0.024 C 
ENDBRANCH   1  33
TORSDOF 12
ENDMDL
MODEL 2
REMARK VINA RESULT: -6.090769682      0.808      1.116
REMARK  12 active torsions:
REMARK  status: ('A' for Active; 'I' for Inactive)
REMARK       I    between atoms: C1_2  and  N3_4 
REMARK    1  A    between atoms: N3_4  and  N4_6 
REMARK    2  A    between atoms: N4_6  and  C2_8 
REMARK    3  A    between atoms: C2_8  and  C11_33 
REMARK    4  A    between atoms: C3_9  and  O1_10 
REMARK    5  A    between atoms: C3_9  and  N5_12 
REMARK    6  A    between atoms: N5_12  and  N6_14 
REMARK    7  A    between atoms: C4_16  and  C5_17 
REMARK    8  A    between atoms: C4_16  and  C7_22 
REMARK    9  A    between atoms: C5_17  and  C6_19 
REMARK   10  A    between atoms: C9_27  and  C10_28 
REMARK   11  A    between atoms: C10_28  and  O7_29 
REMARK   12  A    between atoms: C10_28  and  O8_31 
ROOT
HETATM    1  C2  UNL     1     -10.498   8.232  29.648  1.00  0.00     0.117 C 
HETATM    2  C3  UNL     1     -11.162   7.561  30.730  1.00  0.00     0.185 C 
ENDROOT
BRANCH   2   3
HETATM    3  O1  UNL     1     -11.354   6.268  30.523  1.00  0.00    -0.343 OA
ATOM      4  H1  UNL     1     -10.611   5.726  30.762  1.00  0.00     0.219 HD
ENDBRANCH   2   3
BRANCH   2   5
HETATM    5  N5  UNL     1     -11.630   8.062  31.956  1.00  0.00    -0.278 N 
ATOM      6  H5  UNL     1     -12.446   7.645  32.403  1.00  0.00     0.189 HD
BRANCH   5   7
HETATM    7  N6  UNL     1     -10.981   9.119  32.548  1.00  0.00    -0.293 N 
HETATM    8  C4  UNL     1     -11.290   9.754  33.665  1.00  0.00     0.125 C 
ATOM      9  H6  UNL     1     -10.150   9.458  32.062  1.00  0.00     0.187 HD
BRANCH   8  10
HETATM   10  C5  UNL     1     -10.365  10.810  33.965  1.00  0.00     0.277 C 
HETATM   11  O2  UNL     1      -9.584  10.807  34.916  1.00  0.00    -0.278 OA
BRANCH  10  12
HETATM   12  C6  UNL     1     -10.332  12.006  33.075  1.00  0.00     0.253 C 
HETATM   13  O3  UNL     1      -9.433  12.857  33.085  1.00  0.00    -0.642 OA
HETATM   14  O4  UNL     1     -11.401  12.146  32.180  1.00  0.00    -0.642 OA
ENDBRANCH  10  12
ENDBRANCH   8  10
BRANCH   8  15
HETATM   15  C7  UNL     1     -12.529   9.345  34.295  1.00  0.00     0.077 A 
HETATM   16  S1  UNL     1     -12.605   8.079  35.546  1.00  0.00    -0.016 SA
HETATM   17  C8  UNL     1     -14.289   7.975  35.670  1.00  0.00     0.332 A 
HETATM   18  O5  UNL     1     -15.010   7.214  36.427  1.00  0.00    -0.251 OA
HETATM   19  O6  UNL     1     -14.671   8.839  34.825  1.00  0.00    -0.268 OA
HETATM   20  C9  UNL     1     -13.857   9.533  34.134  1.00  0.00     0.131 A 
BRANCH  20  21
HETATM   21  C10 UNL     1     -14.459  10.552  33.170  1.00  0.00     0.314 C 
BRANCH  21  22
HETATM   22  O7  UNL     1     -13.885  10.291  31.875  1.00  0.00    -0.365 OA
ATOM     23  H7  UNL     1     -12.943  10.263  31.992  1.00  0.00     0.213 HD
ENDBRANCH  21  22
BRANCH  21  24
HETATM   24  O8  UNL     1     -14.059  11.822  33.482  1.00  0.00    -0.365 OA
ATOM     25  H8  UNL     1     -14.104  11.977  34.418  1.00  0.00     0.213 HD
ENDBRANCH  21  24
ENDBRANCH  20  21
ENDBRANCH   8  15
ENDBRANCH   5   7
ENDBRANCH   2   5
BRANCH   1  26
HETATM   26  N4  UNL     1     -10.176   7.447  28.624  1.00  0.00    -0.293 N 
ATOM     27  H4  UNL     1     -10.919   6.906  28.181  1.00  0.00     0.187 HD
BRANCH  26  28
HETATM   28  N3  UNL     1      -8.924   7.324  28.136  1.00  0.00    -0.275 N 
HETATM   29  C1  UNL     1      -8.080   6.454  28.614  1.00  0.00     0.215 C 
HETATM   30  N1  UNL     1      -8.414   5.567  29.683  1.00  0.00    -0.065 NA
HETATM   31  N2  UNL     1      -6.787   6.409  28.056  1.00  0.00    -0.065 NA
ATOM     32  H3  UNL     1      -8.630   7.930  27.370  1.00  0.00     0.189 HD
ENDBRANCH  26  28
ENDBRANCH   1  26
BRANCH   1  33
HETATM   33  C11 UNL     1     -10.120   9.638  29.519  1.00  0.00     0.040 A 
HETATM   34  C12 UNL     1      -9.038  10.357  29.901  1.00  0.00     0.031 A 
HETATM   35  C13 UNL     1      -8.989  11.680  29.594  1.00  0.00    -0.023 A 
HETATM   36  C14 UNL     1     -10.045  12.205  28.913  1.00  0.00     0.077 A 
HETATM   37  C17 UNL     1      -7.864  12.669  29.918  1.00  0.00     0.043 C 
HETATM   38  S2  UNL     1     -11.065  10.869  28.717  1.00  0.00    -0.070 SA
HETATM   39  N7  UNL     1     -10.089  13.607  28.543  1.00  0.00    -0.384 N 
HETATM   40  C15 UNL     1      -8.909  14.423  28.470  1.00  0.00     0.120 C 
ATOM     41  H7  UNL     1     -10.992  14.029  28.327  1.00  0.00     0.160 HD
HETATM   42  C16 UNL     1      -7.715  13.567  28.710  1.00  0.00     0.024 C 
ENDBRANCH   1  33
TORSDOF 12
ENDMDL
MODEL 3
REMARK VINA RESULT: -6.069703479      2.025      4.132
REMARK  12 active torsions:
REMARK  status: ('A' for Active; 'I' for Inactive)
REMARK       I    between atoms: C1_2  and  N3_4 
REMARK    1  A    between atoms: N3_4  and  N4_6 
REMARK    2  A    between atoms: N4_6  and  C2_8 
REMARK    3  A    between atoms: C2_8  and  C11_33 
REMARK    4  A    between atoms: C3_9  and  O1_10 
REMARK    5  A    between atoms: C3_9  and  N5_12 
REMARK    6  A    between atoms: N5_12  and  N6_14 
REMARK    7  A    between atoms: C4_16  and  C5_17 
REMARK    8  A    between atoms: C4_16  and  C7_22 
REMARK    9  A    between atoms: C5_17  and  C6_19 
REMARK   10  A    between atoms: C9_27  and  C10_28 
REMARK   11  A    between atoms: C10_28  and  O7_29 
REMARK   12  A    between atoms: C10_28  and  O8_31 
ROOT
HETATM    1  C2  UNL     1     -10.456   7.899  29.411  1.00  0.00     0.117 C 
HETATM    2  C3  UNL     1     -11.188   7.248  30.462  1.00  0.00     0.185 C 
ENDROOT
BRANCH   2   3
HETATM    3  O1  UNL     1     -11.331   5.945  30.288  1.00  0.00    -0.343 OA
ATOM      4  H1  UNL     1     -10.763   5.419  30.839  1.00  0.00     0.219 HD
ENDBRANCH   2   3
BRANCH   2   5
HETATM    5  N5  UNL     1     -11.763   7.780  31.627  1.00  0.00    -0.278 N 
ATOM      6  H5  UNL     1     -11.188   8.292  32.296  1.00  0.00     0.189 HD
BRANCH   5   7
HETATM    7  N6  UNL     1     -13.107   7.604  31.861  1.00  0.00    -0.293 N 
HETATM    8  C4  UNL     1     -14.093   8.465  31.680  1.00  0.00     0.125 C 
ATOM      9  H6  UNL     1     -13.378   6.689  32.222  1.00  0.00     0.187 HD
BRANCH   8  10
HETATM   10  C5  UNL     1     -15.369   7.913  32.034  1.00  0.00     0.277 C 
HETATM   11  O2  UNL     1     -16.417   8.120  31.422  1.00  0.00    -0.278 OA
BRANCH  10  12
HETATM   12  C6  UNL     1     -15.456   7.021  33.227  1.00  0.00     0.253 C 
HETATM   13  O3  UNL     1     -15.240   5.803  33.203  1.00  0.00    -0.642 OA
HETATM   14  O4  UNL     1     -15.807   7.633  34.438  1.00  0.00    -0.642 OA
ENDBRANCH  10  12
ENDBRANCH   8  10
BRANCH   8  15
HETATM   15  C7  UNL     1     -13.695   9.797  31.274  1.00  0.00     0.077 A 
HETATM   16  S1  UNL     1     -13.872  10.392  29.604  1.00  0.00    -0.016 SA
HETATM   17  C8  UNL     1     -13.056  11.862  29.792  1.00  0.00     0.332 A 
HETATM   18  O5  UNL     1     -12.826  12.789  28.921  1.00  0.00    -0.251 OA
HETATM   19  O6  UNL     1     -12.721  11.825  31.014  1.00  0.00    -0.268 OA
HETATM   20  C9  UNL     1     -13.009  10.848  31.778  1.00  0.00     0.131 A 
BRANCH  20  21
HETATM   21  C10 UNL     1     -12.562  10.949  33.233  1.00  0.00     0.314 C 
BRANCH  21  22
HETATM   22  O7  UNL     1     -11.761  12.140  33.341  1.00  0.00    -0.365 OA
ATOM     23  H7  UNL     1     -11.108  12.097  32.653  1.00  0.00     0.213 HD
ENDBRANCH  21  22
BRANCH  21  24
HETATM   24  O8  UNL     1     -11.715   9.925  33.561  1.00  0.00    -0.365 OA
ATOM     25  H8  UNL     1     -11.359  10.041  34.435  1.00  0.00     0.213 HD
ENDBRANCH  21  24
ENDBRANCH  20  21
ENDBRANCH   8  15
ENDBRANCH   5   7
ENDBRANCH   2   5
BRANCH   1  26
HETATM   26  N4  UNL     1     -10.035   7.088  28.445  1.00  0.00    -0.293 N 
ATOM     27  H4  UNL     1     -10.722   6.492  27.984  1.00  0.00     0.187 HD
BRANCH  26  28
HETATM   28  N3  UNL     1      -8.751   7.007  28.038  1.00  0.00    -0.275 N 
HETATM   29  C1  UNL     1      -7.885   6.238  28.636  1.00  0.00     0.215 C 
HETATM   30  N1  UNL     1      -8.227   5.425  29.759  1.00  0.00    -0.065 NA
HETATM   31  N2  UNL     1      -6.561   6.232  28.155  1.00  0.00    -0.065 NA
ATOM     32  H3  UNL     1      -8.449   7.564  27.238  1.00  0.00     0.189 HD
ENDBRANCH  26  28
ENDBRANCH   1  26
BRANCH   1  33
HETATM   33  C11 UNL     1     -10.103   9.310  29.260  1.00  0.00     0.040 A 
HETATM   34  C12 UNL     1      -9.620  10.251  30.105  1.00  0.00     0.031 A 
HETATM   35  C13 UNL     1      -9.370  11.497  29.624  1.00  0.00    -0.023 A 
HETATM   36  C14 UNL     1      -9.623  11.722  28.306  1.00  0.00     0.077 A 
HETATM   37  C17 UNL     1      -8.816  12.699  30.397  1.00  0.00     0.043 C 
HETATM   38  S2  UNL     1     -10.194  10.221  27.773  1.00  0.00    -0.070 SA
HETATM   39  N7  UNL     1      -9.394  13.020  27.698  1.00  0.00    -0.384 N 
HETATM   40  C15 UNL     1      -8.518  13.999  28.279  1.00  0.00     0.120 C 
ATOM     41  H7  UNL     1      -9.873  13.245  26.826  1.00  0.00     0.160 HD
HETATM   42  C16 UNL     1      -7.852  13.404  29.469  1.00  0.00     0.024 C 
ENDBRANCH   1  33
TORSDOF 12
ENDMDL
MODEL 4
REMARK VINA RESULT: -6.024752146      1.704      3.608
REMARK  12 active torsions:
REMARK  status: ('A' for Active; 'I' for Inactive)
REMARK       I    between atoms: C1_2  and  N3_4 
REMARK    1  A    between atoms: N3_4  and  N4_6 
REMARK    2  A    between atoms: N4_6  and  C2_8 
REMARK    3  A    between atoms: C2_8  and  C11_33 
REMARK    4  A    between atoms: C3_9  and  O1_10 
REMARK    5  A    between atoms: C3_9  and  N5_12 
REMARK    6  A    between atoms: N5_12  and  N6_14 
REMARK    7  A    between atoms: C4_16  and  C5_17 
REMARK    8  A    between atoms: C4_16  and  C7_22 
REMARK    9  A    between atoms: C5_17  and  C6_19 
REMARK   10  A    between atoms: C9_27  and  C10_28 
REMARK   11  A    between atoms: C10_28  and  O7_29 
REMARK   12  A    between atoms: C10_28  and  O8_31 
ROOT
HETATM    1  C2  UNL     1     -11.386   8.439  29.903  1.00  0.00     0.117 C 
HETATM    2  C3  UNL     1     -12.305   7.662  30.687  1.00  0.00     0.185 C 
ENDROOT
BRANCH   2   3
HETATM    3  O1  UNL     1     -12.074   6.360  30.650  1.00  0.00    -0.343 OA
ATOM      4  H1  UNL     1     -12.190   5.924  31.486  1.00  0.00     0.219 HD
ENDBRANCH   2   3
BRANCH   2   5
HETATM    5  N5  UNL     1     -13.391   8.071  31.477  1.00  0.00    -0.278 N 
ATOM      6  H5  UNL     1     -14.180   8.558  31.052  1.00  0.00     0.189 HD
BRANCH   5   7
HETATM    7  N6  UNL     1     -13.386   7.809  32.827  1.00  0.00    -0.293 N 
HETATM    8  C4  UNL     1     -13.034   8.608  33.818  1.00  0.00     0.125 C 
ATOM      9  H6  UNL     1     -13.695   6.875  33.099  1.00  0.00     0.187 HD
BRANCH   8  10
HETATM   10  C5  UNL     1     -13.168   7.976  35.100  1.00  0.00     0.277 C 
HETATM   11  O2  UNL     1     -12.228   7.685  35.840  1.00  0.00    -0.278 OA
BRANCH  10  12
HETATM   12  C6  UNL     1     -14.536   7.638  35.591  1.00  0.00     0.253 C 
HETATM   13  O3  UNL     1     -14.796   7.309  36.755  1.00  0.00    -0.642 OA
HETATM   14  O4  UNL     1     -15.570   7.709  34.649  1.00  0.00    -0.642 OA
ENDBRANCH  10  12
ENDBRANCH   8  10
BRANCH   8  15
HETATM   15  C7  UNL     1     -12.492   9.892  33.426  1.00  0.00     0.077 A 
HETATM   16  S1  UNL     1     -10.775  10.322  33.634  1.00  0.00    -0.016 SA
HETATM   17  C8  UNL     1     -10.886  11.949  33.187  1.00  0.00     0.332 A 
HETATM   18  O5  UNL     1      -9.958  12.848  33.127  1.00  0.00    -0.251 OA
HETATM   19  O6  UNL     1     -12.120  12.069  32.922  1.00  0.00    -0.268 OA
HETATM   20  C9  UNL     1     -12.941  11.101  33.019  1.00  0.00     0.131 A 
BRANCH  20  21
HETATM   21  C10 UNL     1     -14.394  11.384  32.648  1.00  0.00     0.314 C 
BRANCH  21  22
HETATM   22  O7  UNL     1     -14.881  12.362  33.586  1.00  0.00    -0.365 OA
ATOM     23  H7  UNL     1     -15.616  12.798  33.171  1.00  0.00     0.213 HD
ENDBRANCH  21  22
BRANCH  21  24
HETATM   24  O8  UNL     1     -15.179  10.282  32.850  1.00  0.00    -0.365 OA
ATOM     25  H8  UNL     1     -15.760  10.134  32.113  1.00  0.00     0.213 HD
ENDBRANCH  21  24
ENDBRANCH  20  21
ENDBRANCH   8  15
ENDBRANCH   5   7
ENDBRANCH   2   5
BRANCH   1  26
HETATM   26  N4  UNL     1     -10.452   7.728  29.278  1.00  0.00    -0.293 N 
ATOM     27  H4  UNL     1     -10.483   7.684  28.259  1.00  0.00     0.187 HD
BRANCH  26  28
HETATM   28  N3  UNL     1      -9.466   7.060  29.912  1.00  0.00    -0.275 N 
HETATM   29  C1  UNL     1      -8.716   6.190  29.297  1.00  0.00     0.215 C 
HETATM   30  N1  UNL     1      -8.878   5.879  27.912  1.00  0.00    -0.065 NA
HETATM   31  N2  UNL     1      -7.722   5.526  30.044  1.00  0.00    -0.065 NA
ATOM     32  H3  UNL     1      -9.302   7.243  30.902  1.00  0.00     0.189 HD
ENDBRANCH  26  28
ENDBRANCH   1  26
BRANCH   1  33
HETATM   33  C11 UNL     1     -11.326   9.886  29.705  1.00  0.00     0.040 A 
HETATM   34  C12 UNL     1     -10.342  10.808  29.819  1.00  0.00     0.031 A 
HETATM   35  C13 UNL     1     -10.623  12.106  29.528  1.00  0.00    -0.023 A 
HETATM   36  C14 UNL     1     -11.893  12.400  29.137  1.00  0.00     0.077 A 
HETATM   37  C17 UNL     1      -9.662  13.299  29.579  1.00  0.00     0.043 C 
HETATM   38  S2  UNL     1     -12.656  10.889  29.179  1.00  0.00    -0.070 SA
HETATM   39  N7  UNL     1     -12.293  13.756  28.810  1.00  0.00    -0.384 N 
HETATM   40  C15 UNL     1     -11.345  14.776  28.461  1.00  0.00     0.120 C 
ATOM     41  H7  UNL     1     -13.285  13.992  28.830  1.00  0.00     0.160 HD
HETATM   42  C16 UNL     1      -9.988  14.169  28.385  1.00  0.00     0.024 C 
ENDBRANCH   1  33
TORSDOF 12
ENDMDL
MODEL 5
REMARK VINA RESULT: -6.014014461      1.715      2.291
REMARK  12 active torsions:
REMARK  status: ('A' for Active; 'I' for Inactive)
REMARK       I    between atoms: C1_2  and  N3_4 
REMARK    1  A    between atoms: N3_4  and  N4_6 
REMARK    2  A    between atoms: N4_6  and  C2_8 
REMARK    3  A    between atoms: C2_8  and  C11_33 
REMARK    4  A    between atoms: C3_9  and  O1_10 
REMARK    5  A    between atoms: C3_9  and  N5_12 
REMARK    6  A    between atoms: N5_12  and  N6_14 
REMARK    7  A    between atoms: C4_16  and  C5_17 
REMARK    8  A    between atoms: C4_16  and  C7_22 
REMARK    9  A    between atoms: C5_17  and  C6_19 
REMARK   10  A    between atoms: C9_27  and  C10_28 
REMARK   11  A    between atoms: C10_28  and  O7_29 
REMARK   12  A    between atoms: C10_28  and  O8_31 
ROOT
HETATM    1  C2  UNL     1     -10.390   7.976  29.383  1.00  0.00     0.117 C 
HETATM    2  C3  UNL     1     -11.134   7.447  30.492  1.00  0.00     0.185 C 
ENDROOT
BRANCH   2   3
HETATM    3  O1  UNL     1     -11.335   6.141  30.429  1.00  0.00    -0.343 OA
ATOM      4  H1  UNL     1     -11.806   5.788  31.174  1.00  0.00     0.219 HD
ENDBRANCH   2   3
BRANCH   2   5
HETATM    5  N5  UNL     1     -11.669   8.098  31.615  1.00  0.00    -0.278 N 
ATOM      6  H5  UNL     1     -11.532   7.708  32.548  1.00  0.00     0.189 HD
BRANCH   5   7
HETATM    7  N6  UNL     1     -12.379   9.264  31.449  1.00  0.00    -0.293 N 
HETATM    8  C4  UNL     1     -13.235   9.831  32.281  1.00  0.00     0.125 C 
ATOM      9  H6  UNL     1     -12.225   9.755  30.569  1.00  0.00     0.187 HD
BRANCH   8  10
HETATM   10  C5  UNL     1     -13.776  11.052  31.755  1.00  0.00     0.277 C 
HETATM   11  O2  UNL     1     -14.532  11.805  32.369  1.00  0.00    -0.278 OA
BRANCH  10  12
HETATM   12  C6  UNL     1     -13.410  11.458  30.367  1.00  0.00     0.253 C 
HETATM   13  O3  UNL     1     -12.596  12.349  30.094  1.00  0.00    -0.642 OA
HETATM   14  O4  UNL     1     -14.046  10.765  29.328  1.00  0.00    -0.642 OA
ENDBRANCH  10  12
ENDBRANCH   8  10
BRANCH   8  15
HETATM   15  C7  UNL     1     -13.537   9.078  33.480  1.00  0.00     0.077 A 
HETATM   16  S1  UNL     1     -12.862   9.490  35.077  1.00  0.00    -0.016 SA
HETATM   17  C8  UNL     1     -13.431   8.142  35.926  1.00  0.00     0.332 A 
HETATM   18  O5  UNL     1     -13.276   7.833  37.172  1.00  0.00    -0.251 OA
HETATM   19  O6  UNL     1     -14.054   7.504  35.025  1.00  0.00    -0.268 OA
HETATM   20  C9  UNL     1     -14.137   7.916  33.823  1.00  0.00     0.131 A 
BRANCH  20  21
HETATM   21  C10 UNL     1     -14.938   7.056  32.849  1.00  0.00     0.314 C 
BRANCH  21  22
HETATM   22  O7  UNL     1     -15.173   5.795  33.503  1.00  0.00    -0.365 OA
ATOM     23  H7  UNL     1     -15.178   5.130  32.825  1.00  0.00     0.213 HD
ENDBRANCH  21  22
BRANCH  21  24
HETATM   24  O8  UNL     1     -14.197   6.745  31.742  1.00  0.00    -0.365 OA
ATOM     25  H8  UNL     1     -14.757   6.535  31.003  1.00  0.00     0.213 HD
ENDBRANCH  21  24
ENDBRANCH  20  21
ENDBRANCH   8  15
ENDBRANCH   5   7
ENDBRANCH   2   5
BRANCH   1  26
HETATM   26  N4  UNL     1     -10.017   7.070  28.483  1.00  0.00    -0.293 N 
ATOM     27  H4  UNL     1     -10.731   6.447  28.106  1.00  0.00     0.187 HD
BRANCH  26  28
HETATM   28  N3  UNL     1      -8.750   6.927  28.041  1.00  0.00    -0.275 N 
HETATM   29  C1  UNL     1      -7.888   6.163  28.652  1.00  0.00     0.215 C 
HETATM   30  N1  UNL     1      -8.217   5.422  29.827  1.00  0.00    -0.065 NA
HETATM   31  N2  UNL     1      -6.582   6.089  28.130  1.00  0.00    -0.065 NA
ATOM     32  H3  UNL     1      -8.459   7.430  27.203  1.00  0.00     0.189 HD
ENDBRANCH  26  28
ENDBRANCH   1  26
BRANCH   1  33
HETATM   33  C11 UNL     1      -9.978   9.352  29.112  1.00  0.00     0.040 A 
HETATM   34  C12 UNL     1     -10.341  10.276  28.190  1.00  0.00     0.031 A 
HETATM   35  C13 UNL     1      -9.766  11.506  28.234  1.00  0.00    -0.023 A 
HETATM   36  C14 UNL     1      -8.849  11.735  29.214  1.00  0.00     0.077 A 
HETATM   37  C17 UNL     1     -10.037  12.693  27.303  1.00  0.00     0.043 C 
HETATM   38  S2  UNL     1      -8.809  10.258  30.040  1.00  0.00    -0.070 SA
HETATM   39  N7  UNL     1      -8.176  13.014  29.341  1.00  0.00    -0.384 N 
HETATM   40  C15 UNL     1      -8.698  14.221  28.765  1.00  0.00     0.120 C 
ATOM     41  H7  UNL     1      -7.297  13.056  29.859  1.00  0.00     0.160 HD
HETATM   42  C16 UNL     1     -10.031  13.933  28.169  1.00  0.00     0.024 C 
ENDBRANCH   1  33
TORSDOF 12
ENDMDL
