MODEL 1
REMARK VINA RESULT: -5.721953963      0.000      0.000
REMARK  14 active torsions:
REMARK  status: ('A' for Active; 'I' for Inactive)
REMARK    1  A    between atoms: C3_3  and  N1_4 
REMARK    2  A    between atoms: C4_5  and  O1_6 
REMARK    3  A    between atoms: C5_8  and  C6_9 
REMARK    4  A    between atoms: C6_9  and  N2_10 
REMARK    5  A    between atoms: N2_10  and  N3_12 
REMARK       I    between atoms: N3_12  and  C7_14 
REMARK       I    between atoms: C7_14  and  N4_15 
REMARK       I    between atoms: C7_14  and  N6_32 
REMARK    6  A    between atoms: N4_15  and  N5_17 
REMARK    7  A    between atoms: N5_17  and  C8_19 
REMARK    8  A    between atoms: C8_19  and  C9_20 
REMARK    9  A    between atoms: C11_22  and  O2_23 
REMARK   10  A    between atoms: C12_25  and  O3_26 
REMARK   11  A    between atoms: C13_28  and  O4_29 
REMARK   12  A    between atoms: N6_32  and  N7_34 
REMARK   13  A    between atoms: N7_34  and  C16_36 
REMARK   14  A    between atoms: N10_44  and  N11_45 
ROOT
HETATM    1  C1  UNL     1     -10.006  12.900  33.408  1.00  0.00     0.014 C 
HETATM    2  C2  UNL     1      -9.769  11.735  33.607  1.00  0.00    -0.097 C 
HETATM    3  C3  UNL     1      -9.501  10.297  33.846  1.00  0.00     0.228 C 
ENDROOT
BRANCH   3   4
HETATM    4  N1  UNL     1     -10.603   9.526  33.302  1.00  0.00    -0.265 N 
HETATM    5  C4  UNL     1     -10.710   9.099  32.010  1.00  0.00     0.178 A 
HETATM    6  C5  UNL     1     -11.891   8.401  31.881  1.00  0.00     0.128 A 
HETATM    7  N10 UNL     1     -12.501   8.399  33.078  1.00  0.00    -0.206 N 
HETATM    8  C19 UNL     1     -11.708   9.084  33.927  1.00  0.00     0.350 A 
HETATM    9  O5  UNL     1     -12.002   9.266  35.144  1.00  0.00    -0.244 OA
BRANCH   5  10
HETATM   10  O1  UNL     1      -9.757   9.354  31.029  1.00  0.00    -0.344 OA
ATOM     11  H1  UNL     1      -9.461   8.708  30.399  1.00  0.00     0.219 HD
ENDBRANCH   5  10
BRANCH   6  12
HETATM   12  C6  UNL     1     -12.360   7.783  30.631  1.00  0.00     0.143 C 
BRANCH  12  13
HETATM   13  N2  UNL     1     -11.524   7.070  29.965  1.00  0.00    -0.295 N 
ATOM     14  H2  UNL     1     -11.275   6.130  30.274  1.00  0.00     0.186 HD
BRANCH  13  15
HETATM   15  N3  UNL     1     -10.966   7.612  28.807  1.00  0.00    -0.130 N 
HETATM   16  C7  UNL     1     -10.025   7.026  28.174  1.00  0.00     0.726 C 
HETATM   17  N4  UNL     1      -9.539   5.785  28.671  1.00  0.00    -0.130 N 
HETATM   18  N6  UNL     1      -9.479   7.603  27.002  1.00  0.00    -0.127 N 
ATOM     19  H4  UNL     1     -10.205   5.103  29.033  1.00  0.00     0.205 HD
ATOM     20  H6  UNL     1      -9.909   7.407  26.098  1.00  0.00     0.205 HD
ATOM     21  H3  UNL     1     -11.321   8.502  28.456  1.00  0.00     0.205 HD
BRANCH  17  22
HETATM   22  N5  UNL     1      -8.215   5.482  28.677  1.00  0.00    -0.297 N 
ATOM     23  H5  UNL     1      -7.826   5.378  27.740  1.00  0.00     0.186 HD
BRANCH  22  24
HETATM   24  C8  UNL     1      -7.365   5.302  29.582  1.00  0.00     0.119 C 
BRANCH  24  25
HETATM   25  C9  UNL     1      -6.680   6.256  30.422  1.00  0.00    -0.014 A 
HETATM   26  C10 UNL     1      -7.101   7.541  30.645  1.00  0.00     0.052 A 
HETATM   27  C11 UNL     1      -6.396   8.423  31.471  1.00  0.00     0.102 A 
HETATM   28  C12 UNL     1      -5.242   8.013  32.089  1.00  0.00     0.132 A 
HETATM   29  C13 UNL     1      -4.795   6.735  31.888  1.00  0.00     0.104 A 
HETATM   30  C15 UNL     1      -5.507   5.890  31.072  1.00  0.00     0.052 A 
BRANCH  27  31
HETATM   31  O2  UNL     1      -6.827   9.723  31.693  1.00  0.00    -0.358 OA
ATOM     32  H2  UNL     1      -6.777  10.129  32.550  1.00  0.00     0.217 HD
ENDBRANCH  27  31
BRANCH  28  33
HETATM   33  O3  UNL     1      -4.519   8.880  32.922  1.00  0.00    -0.356 OA
ATOM     34  H3  UNL     1      -3.673   9.221  32.657  1.00  0.00     0.218 HD
ENDBRANCH  28  33
BRANCH  29  35
HETATM   35  O4  UNL     1      -3.637   6.325  32.510  1.00  0.00    -0.353 OA
HETATM   36  C14 UNL     1      -3.668   5.293  33.500  1.00  0.00     0.210 C 
ENDBRANCH  29  35
ENDBRANCH  24  25
ENDBRANCH  22  24
ENDBRANCH  17  22
BRANCH  18  37
HETATM   37  N7  UNL     1      -8.361   8.436  27.067  1.00  0.00    -0.264 N 
ATOM     38  H7  UNL     1      -7.478   8.161  26.636  1.00  0.00     0.189 HD
BRANCH  37  39
HETATM   39  C16 UNL     1      -8.475   9.580  27.694  1.00  0.00     0.180 A 
HETATM   40  N8  UNL     1      -7.720  10.054  28.691  1.00  0.00    -0.278 N 
HETATM   41  N9  UNL     1      -7.991  11.196  29.172  1.00  0.00    -0.296 N 
ATOM     42  H8  UNL     1      -6.942   9.507  29.057  1.00  0.00     0.189 HD
HETATM   43  C17 UNL     1      -9.004  11.901  28.690  1.00  0.00     0.066 A 
ATOM     44  H9  UNL     1      -7.426  11.573  29.933  1.00  0.00     0.187 HD
HETATM   45  C18 UNL     1      -9.483  13.259  29.119  1.00  0.00     0.078 C 
HETATM   46  S1  UNL     1      -9.595  10.854  27.477  1.00  0.00    -0.037 SA
ENDBRANCH  37  39
ENDBRANCH  18  37
ENDBRANCH  13  15
ENDBRANCH  12  13
ENDBRANCH   6  12
BRANCH   7  47
HETATM   47  N11 UNL     1     -13.726   7.788  33.339  1.00  0.00    -0.334 N 
ATOM     48 2H11 UNL     1     -14.648   8.217  33.406  1.00  0.00     0.177 HD
ATOM     49 1H11 UNL     1     -13.849   6.788  33.504  1.00  0.00     0.177 HD
ENDBRANCH   7  47
ENDBRANCH   3   4
TORSDOF 14
ENDMDL
MODEL 2
REMARK VINA RESULT: -5.504329510      0.913      1.833
REMARK  14 active torsions:
REMARK  status: ('A' for Active; 'I' for Inactive)
REMARK    1  A    between atoms: C3_3  and  N1_4 
REMARK    2  A    between atoms: C4_5  and  O1_6 
REMARK    3  A    between atoms: C5_8  and  C6_9 
REMARK    4  A    between atoms: C6_9  and  N2_10 
REMARK    5  A    between atoms: N2_10  and  N3_12 
REMARK       I    between atoms: N3_12  and  C7_14 
REMARK       I    between atoms: C7_14  and  N4_15 
REMARK       I    between atoms: C7_14  and  N6_32 
REMARK    6  A    between atoms: N4_15  and  N5_17 
REMARK    7  A    between atoms: N5_17  and  C8_19 
REMARK    8  A    between atoms: C8_19  and  C9_20 
REMARK    9  A    between atoms: C11_22  and  O2_23 
REMARK   10  A    between atoms: C12_25  and  O3_26 
REMARK   11  A    between atoms: C13_28  and  O4_29 
REMARK   12  A    between atoms: N6_32  and  N7_34 
REMARK   13  A    between atoms: N7_34  and  C16_36 
REMARK   14  A    between atoms: N10_44  and  N11_45 
ROOT
HETATM    1  C1  UNL     1      -9.679  12.929  34.224  1.00  0.00     0.014 C 
HETATM    2  C2  UNL     1      -9.265  11.890  33.774  1.00  0.00    -0.097 C 
HETATM    3  C3  UNL     1      -8.778  10.604  33.222  1.00  0.00     0.228 C 
ENDROOT
BRANCH   3   4
HETATM    4  N1  UNL     1      -9.924   9.775  32.904  1.00  0.00    -0.265 N 
HETATM    5  C4  UNL     1     -10.196   9.235  31.679  1.00  0.00     0.178 A 
HETATM    6  C5  UNL     1     -11.367   8.515  31.774  1.00  0.00     0.128 A 
HETATM    7  N10 UNL     1     -11.808   8.610  33.040  1.00  0.00    -0.206 N 
HETATM    8  C19 UNL     1     -10.923   9.375  33.710  1.00  0.00     0.350 A 
HETATM    9  O5  UNL     1     -11.052   9.659  34.936  1.00  0.00    -0.244 OA
BRANCH   5  10
HETATM   10  O1  UNL     1      -9.393   9.416  30.558  1.00  0.00    -0.344 OA
ATOM     11  H1  UNL     1      -9.727   9.474  29.671  1.00  0.00     0.219 HD
ENDBRANCH   5  10
BRANCH   6  12
HETATM   12  C6  UNL     1     -11.987   7.785  30.657  1.00  0.00     0.143 C 
BRANCH  12  13
HETATM   13  N2  UNL     1     -11.222   7.083  29.901  1.00  0.00    -0.295 N 
ATOM     14  H2  UNL     1     -10.872   6.175  30.209  1.00  0.00     0.186 HD
BRANCH  13  15
HETATM   15  N3  UNL     1     -10.881   7.592  28.648  1.00  0.00    -0.130 N 
HETATM   16  C7  UNL     1      -9.977   7.053  27.925  1.00  0.00     0.726 C 
HETATM   17  N4  UNL     1      -9.306   5.901  28.419  1.00  0.00    -0.130 N 
HETATM   18  N6  UNL     1      -9.653   7.596  26.658  1.00  0.00    -0.127 N 
ATOM     19  H4  UNL     1      -9.845   5.187  28.908  1.00  0.00     0.205 HD
ATOM     20  H6  UNL     1     -10.177   7.298  25.835  1.00  0.00     0.205 HD
ATOM     21  H3  UNL     1     -11.367   8.419  28.300  1.00  0.00     0.205 HD
BRANCH  17  22
HETATM   22  N5  UNL     1      -7.968   5.724  28.259  1.00  0.00    -0.297 N 
ATOM     23  H5  UNL     1      -7.687   5.686  27.279  1.00  0.00     0.186 HD
BRANCH  22  24
HETATM   24  C8  UNL     1      -7.003   5.597  29.050  1.00  0.00     0.119 C 
BRANCH  24  25
HETATM   25  C9  UNL     1      -6.510   6.490  30.071  1.00  0.00    -0.014 A 
HETATM   26  C10 UNL     1      -5.957   6.087  31.258  1.00  0.00     0.052 A 
HETATM   27  C11 UNL     1      -5.494   6.999  32.212  1.00  0.00     0.102 A 
HETATM   28  C12 UNL     1      -5.587   8.348  31.977  1.00  0.00     0.132 A 
HETATM   29  C13 UNL     1      -6.134   8.783  30.800  1.00  0.00     0.104 A 
HETATM   30  C15 UNL     1      -6.580   7.866  29.881  1.00  0.00     0.052 A 
BRANCH  27  31
HETATM   31  O2  UNL     1      -4.935   6.586  33.413  1.00  0.00    -0.358 OA
ATOM     32  H2  UNL     1      -4.060   6.844  33.675  1.00  0.00     0.217 HD
ENDBRANCH  27  31
BRANCH  28  33
HETATM   33  O3  UNL     1      -5.130   9.280  32.920  1.00  0.00    -0.356 OA
ATOM     34  H3  UNL     1      -5.497   9.312  33.795  1.00  0.00     0.218 HD
ENDBRANCH  28  33
BRANCH  29  35
HETATM   35  O4  UNL     1      -6.225  10.137  30.565  1.00  0.00    -0.353 OA
HETATM   36  C14 UNL     1      -5.124  10.855  30.000  1.00  0.00     0.210 C 
ENDBRANCH  29  35
ENDBRANCH  24  25
ENDBRANCH  22  24
ENDBRANCH  17  22
BRANCH  18  37
HETATM   37  N7  UNL     1      -8.627   8.532  26.519  1.00  0.00    -0.264 N 
ATOM     38  H7  UNL     1      -7.782   8.307  25.993  1.00  0.00     0.189 HD
BRANCH  37  39
HETATM   39  C16 UNL     1      -8.777   9.705  27.081  1.00  0.00     0.180 A 
HETATM   40  N8  UNL     1      -8.019  10.272  28.025  1.00  0.00    -0.278 N 
HETATM   41  N9  UNL     1      -8.329  11.427  28.446  1.00  0.00    -0.296 N 
ATOM     42  H8  UNL     1      -7.205   9.784  28.399  1.00  0.00     0.189 HD
HETATM   43  C17 UNL     1      -9.387  12.055  27.954  1.00  0.00     0.066 A 
ATOM     44  H9  UNL     1      -7.762  11.875  29.166  1.00  0.00     0.187 HD
HETATM   45  C18 UNL     1      -9.918  13.414  28.316  1.00  0.00     0.078 C 
HETATM   46  S1  UNL     1      -9.961  10.911  26.823  1.00  0.00    -0.037 SA
ENDBRANCH  37  39
ENDBRANCH  18  37
ENDBRANCH  13  15
ENDBRANCH  12  13
ENDBRANCH   6  12
BRANCH   7  47
HETATM   47  N11 UNL     1     -12.970   8.008  33.518  1.00  0.00    -0.334 N 
ATOM     48 2H11 UNL     1     -13.801   7.729  32.996  1.00  0.00     0.177 HD
ATOM     49 1H11 UNL     1     -13.136   7.766  34.495  1.00  0.00     0.177 HD
ENDBRANCH   7  47
ENDBRANCH   3   4
TORSDOF 14
ENDMDL
MODEL 3
REMARK VINA RESULT: -5.482437015      3.107      6.914
REMARK  14 active torsions:
REMARK  status: ('A' for Active; 'I' for Inactive)
REMARK    1  A    between atoms: C3_3  and  N1_4 
REMARK    2  A    between atoms: C4_5  and  O1_6 
REMARK    3  A    between atoms: C5_8  and  C6_9 
REMARK    4  A    between atoms: C6_9  and  N2_10 
REMARK    5  A    between atoms: N2_10  and  N3_12 
REMARK       I    between atoms: N3_12  and  C7_14 
REMARK       I    between atoms: C7_14  and  N4_15 
REMARK       I    between atoms: C7_14  and  N6_32 
REMARK    6  A    between atoms: N4_15  and  N5_17 
REMARK    7  A    between atoms: N5_17  and  C8_19 
REMARK    8  A    between atoms: C8_19  and  C9_20 
REMARK    9  A    between atoms: C11_22  and  O2_23 
REMARK   10  A    between atoms: C12_25  and  O3_26 
REMARK   11  A    between atoms: C13_28  and  O4_29 
REMARK   12  A    between atoms: N6_32  and  N7_34 
REMARK   13  A    between atoms: N7_34  and  C16_36 
REMARK   14  A    between atoms: N10_44  and  N11_45 
ROOT
HETATM    1  C1  UNL     1     -10.548   8.845  34.544  1.00  0.00     0.014 C 
HETATM    2  C2  UNL     1     -11.018   9.915  34.245  1.00  0.00    -0.097 C 
HETATM    3  C3  UNL     1     -11.579  11.231  33.861  1.00  0.00     0.228 C 
ENDROOT
BRANCH   3   4
HETATM    4  N1  UNL     1     -10.995  11.630  32.594  1.00  0.00    -0.265 N 
HETATM    5  C4  UNL     1     -11.554  11.426  31.365  1.00  0.00     0.178 A 
HETATM    6  C5  UNL     1     -10.702  11.942  30.412  1.00  0.00     0.128 A 
HETATM    7  N10 UNL     1      -9.635  12.455  31.047  1.00  0.00    -0.206 N 
HETATM    8  C19 UNL     1      -9.829  12.258  32.367  1.00  0.00     0.350 A 
HETATM    9  O5  UNL     1      -8.997  12.630  33.245  1.00  0.00    -0.244 OA
BRANCH   5  10
HETATM   10  O1  UNL     1     -12.779  10.798  31.166  1.00  0.00    -0.344 OA
ATOM     11  H1  UNL     1     -13.607  11.146  31.474  1.00  0.00     0.219 HD
ENDBRANCH   5  10
BRANCH   6  12
HETATM   12  C6  UNL     1     -10.959  11.912  28.964  1.00  0.00     0.143 C 
BRANCH  12  13
HETATM   13  N2  UNL     1     -11.589  10.898  28.488  1.00  0.00    -0.295 N 
ATOM     14  H2  UNL     1     -12.567  10.974  28.207  1.00  0.00     0.186 HD
BRANCH  13  15
HETATM   15  N3  UNL     1     -10.901   9.691  28.363  1.00  0.00    -0.130 N 
HETATM   16  C7  UNL     1     -11.399   8.587  28.767  1.00  0.00     0.726 C 
HETATM   17  N4  UNL     1     -12.692   8.599  29.359  1.00  0.00    -0.130 N 
HETATM   18  N6  UNL     1     -10.675   7.379  28.627  1.00  0.00    -0.127 N 
ATOM     19  H4  UNL     1     -13.417   9.189  28.951  1.00  0.00     0.205 HD
ATOM     20  H6  UNL     1     -10.754   6.842  27.763  1.00  0.00     0.205 HD
ATOM     21  H3  UNL     1      -9.974   9.691  27.937  1.00  0.00     0.205 HD
BRANCH  17  22
HETATM   22  N5  UNL     1     -12.991   7.847  30.450  1.00  0.00    -0.297 N 
ATOM     23  H5  UNL     1     -12.187   7.694  31.060  1.00  0.00     0.186 HD
BRANCH  22  24
HETATM   24  C8  UNL     1     -14.037   7.299  30.874  1.00  0.00     0.119 C 
BRANCH  24  25
HETATM   25  C9  UNL     1     -14.754   7.489  32.111  1.00  0.00    -0.014 A 
HETATM   26  C10 UNL     1     -16.040   7.072  32.339  1.00  0.00     0.052 A 
HETATM   27  C11 UNL     1     -16.686   7.283  33.562  1.00  0.00     0.102 A 
HETATM   28  C12 UNL     1     -16.033   7.927  34.583  1.00  0.00     0.132 A 
HETATM   29  C13 UNL     1     -14.748   8.355  34.388  1.00  0.00     0.104 A 
HETATM   30  C15 UNL     1     -14.138   8.134  33.178  1.00  0.00     0.052 A 
BRANCH  27  31
HETATM   31  O2  UNL     1     -17.988   6.860  33.787  1.00  0.00    -0.358 OA
ATOM     32  H2  UNL     1     -18.385   6.894  34.649  1.00  0.00     0.217 HD
ENDBRANCH  27  31
BRANCH  28  33
HETATM   33  O3  UNL     1     -16.662   8.149  35.817  1.00  0.00    -0.356 OA
ATOM     34  H3  UNL     1     -16.807   9.030  36.141  1.00  0.00     0.218 HD
ENDBRANCH  28  33
BRANCH  29  35
HETATM   35  O4  UNL     1     -14.095   9.000  35.414  1.00  0.00    -0.353 OA
HETATM   36  C14 UNL     1     -13.497   8.255  36.480  1.00  0.00     0.210 C 
ENDBRANCH  29  35
ENDBRANCH  24  25
ENDBRANCH  22  24
ENDBRANCH  17  22
BRANCH  18  37
HETATM   37  N7  UNL     1      -9.855   6.911  29.655  1.00  0.00    -0.264 N 
ATOM     38  H7  UNL     1     -10.128   7.017  30.632  1.00  0.00     0.189 HD
BRANCH  37  39
HETATM   39  C16 UNL     1      -8.726   6.331  29.332  1.00  0.00     0.180 A 
HETATM   40  N8  UNL     1      -8.472   5.547  28.279  1.00  0.00    -0.278 N 
HETATM   41  N9  UNL     1      -7.303   5.075  28.136  1.00  0.00    -0.296 N 
ATOM     42  H8  UNL     1      -9.204   5.333  27.603  1.00  0.00     0.189 HD
HETATM   43  C17 UNL     1      -6.356   5.358  29.019  1.00  0.00     0.066 A 
ATOM     44  H9  UNL     1      -7.092   4.475  27.339  1.00  0.00     0.187 HD
HETATM   45  C18 UNL     1      -4.924   4.903  29.029  1.00  0.00     0.078 C 
HETATM   46  S1  UNL     1      -7.204   6.360  30.111  1.00  0.00    -0.037 SA
ENDBRANCH  37  39
ENDBRANCH  18  37
ENDBRANCH  13  15
ENDBRANCH  12  13
ENDBRANCH   6  12
BRANCH   7  47
HETATM   47  N11 UNL     1      -8.557  13.067  30.411  1.00  0.00    -0.334 N 
ATOM     48 2H11 UNL     1      -8.028  12.740  29.604  1.00  0.00     0.177 HD
ATOM     49 1H11 UNL     1      -8.150  13.959  30.694  1.00  0.00     0.177 HD
ENDBRANCH   7  47
ENDBRANCH   3   4
TORSDOF 14
ENDMDL
MODEL 4
REMARK VINA RESULT: -5.424450511      3.203      6.464
REMARK  14 active torsions:
REMARK  status: ('A' for Active; 'I' for Inactive)
REMARK    1  A    between atoms: C3_3  and  N1_4 
REMARK    2  A    between atoms: C4_5  and  O1_6 
REMARK    3  A    between atoms: C5_8  and  C6_9 
REMARK    4  A    between atoms: C6_9  and  N2_10 
REMARK    5  A    between atoms: N2_10  and  N3_12 
REMARK       I    between atoms: N3_12  and  C7_14 
REMARK       I    between atoms: C7_14  and  N4_15 
REMARK       I    between atoms: C7_14  and  N6_32 
REMARK    6  A    between atoms: N4_15  and  N5_17 
REMARK    7  A    between atoms: N5_17  and  C8_19 
REMARK    8  A    between atoms: C8_19  and  C9_20 
REMARK    9  A    between atoms: C11_22  and  O2_23 
REMARK   10  A    between atoms: C12_25  and  O3_26 
REMARK   11  A    between atoms: C13_28  and  O4_29 
REMARK   12  A    between atoms: N6_32  and  N7_34 
REMARK   13  A    between atoms: N7_34  and  C16_36 
REMARK   14  A    between atoms: N10_44  and  N11_45 
ROOT
HETATM    1  C1  UNL     1      -4.009  11.040  29.555  1.00  0.00     0.014 C 
HETATM    2  C2  UNL     1      -4.808  11.444  28.747  1.00  0.00    -0.097 C 
HETATM    3  C3  UNL     1      -5.806  11.933  27.767  1.00  0.00     0.228 C 
ENDROOT
BRANCH   3   4
HETATM    4  N1  UNL     1      -7.128  11.793  28.347  1.00  0.00    -0.265 N 
HETATM    5  C4  UNL     1      -7.663  12.605  29.306  1.00  0.00     0.178 A 
HETATM    6  C5  UNL     1      -8.932  12.153  29.597  1.00  0.00     0.128 A 
HETATM    7  N10 UNL     1      -9.173  11.078  28.829  1.00  0.00    -0.206 N 
HETATM    8  C19 UNL     1      -8.072  10.874  28.077  1.00  0.00     0.350 A 
HETATM    9  O5  UNL     1      -7.977   9.930  27.241  1.00  0.00    -0.244 OA
BRANCH   5  10
HETATM   10  O1  UNL     1      -6.995  13.692  29.860  1.00  0.00    -0.344 OA
ATOM     11  H1  UNL     1      -7.430  14.409  30.306  1.00  0.00     0.219 HD
ENDBRANCH   5  10
BRANCH   6  12
HETATM   12  C6  UNL     1      -9.828  12.772  30.586  1.00  0.00     0.143 C 
BRANCH  12  13
HETATM   13  N2  UNL     1      -9.390  12.917  31.785  1.00  0.00    -0.295 N 
ATOM     14  H2  UNL     1      -8.749  13.676  32.019  1.00  0.00     0.186 HD
BRANCH  13  15
HETATM   15  N3  UNL     1      -9.811  12.011  32.758  1.00  0.00    -0.130 N 
HETATM   16  C7  UNL     1      -9.028  11.120  33.232  1.00  0.00     0.726 C 
HETATM   17  N4  UNL     1      -7.693  11.058  32.749  1.00  0.00    -0.130 N 
HETATM   18  N6  UNL     1      -9.487  10.214  34.219  1.00  0.00    -0.127 N 
ATOM     19  H4  UNL     1      -7.186  11.928  32.585  1.00  0.00     0.205 HD
ATOM     20  H6  UNL     1      -9.429  10.472  35.204  1.00  0.00     0.205 HD
ATOM     21  H3  UNL     1     -10.770  12.062  33.101  1.00  0.00     0.205 HD
BRANCH  17  22
HETATM   22  N5  UNL     1      -7.072   9.876  32.498  1.00  0.00    -0.297 N 
ATOM     23  H5  UNL     1      -7.059   9.254  33.307  1.00  0.00     0.186 HD
BRANCH  22  24
HETATM   24  C8  UNL     1      -6.512   9.380  31.491  1.00  0.00     0.119 C 
BRANCH  24  25
HETATM   25  C9  UNL     1      -6.985   8.389  30.554  1.00  0.00    -0.014 A 
HETATM   26  C10 UNL     1      -6.234   7.853  29.541  1.00  0.00     0.052 A 
HETATM   27  C11 UNL     1      -6.745   6.893  28.662  1.00  0.00     0.102 A 
HETATM   28  C12 UNL     1      -8.039   6.457  28.796  1.00  0.00     0.132 A 
HETATM   29  C13 UNL     1      -8.816   6.972  29.798  1.00  0.00     0.104 A 
HETATM   30  C15 UNL     1      -8.288   7.912  30.648  1.00  0.00     0.052 A 
BRANCH  27  31
HETATM   31  O2  UNL     1      -5.980   6.355  27.637  1.00  0.00    -0.358 OA
ATOM     32  H2  UNL     1      -5.902   5.417  27.508  1.00  0.00     0.217 HD
ENDBRANCH  27  31
BRANCH  28  33
HETATM   33  O3  UNL     1      -8.572   5.495  27.925  1.00  0.00    -0.356 OA
ATOM     34  H3  UNL     1      -9.282   4.926  28.199  1.00  0.00     0.218 HD
ENDBRANCH  28  33
BRANCH  29  35
HETATM   35  O4  UNL     1     -10.114   6.532  29.932  1.00  0.00    -0.353 OA
HETATM   36  C14 UNL     1     -11.084   7.324  30.622  1.00  0.00     0.210 C 
ENDBRANCH  29  35
ENDBRANCH  24  25
ENDBRANCH  22  24
ENDBRANCH  17  22
BRANCH  18  37
HETATM   37  N7  UNL     1     -10.016   8.973  33.863  1.00  0.00    -0.264 N 
ATOM     38  H7  UNL     1      -9.440   8.272  33.396  1.00  0.00     0.189 HD
BRANCH  37  39
HETATM   39  C16 UNL     1     -11.272   8.730  34.144  1.00  0.00     0.180 A 
HETATM   40  N8  UNL     1     -11.767   7.919  35.084  1.00  0.00    -0.278 N 
HETATM   41  N9  UNL     1     -13.025   7.817  35.204  1.00  0.00    -0.296 N 
ATOM     42  H8  UNL     1     -11.142   7.391  35.694  1.00  0.00     0.189 HD
HETATM   43  C17 UNL     1     -13.829   8.506  34.407  1.00  0.00     0.066 A 
ATOM     44  H9  UNL     1     -13.419   7.202  35.916  1.00  0.00     0.187 HD
HETATM   45  C18 UNL     1     -15.332   8.524  34.388  1.00  0.00     0.078 C 
HETATM   46  S1  UNL     1     -12.702   9.344  33.436  1.00  0.00    -0.037 SA
ENDBRANCH  37  39
ENDBRANCH  18  37
ENDBRANCH  13  15
ENDBRANCH  12  13
ENDBRANCH   6  12
BRANCH   7  47
HETATM   47  N11 UNL     1     -10.359  10.347  28.843  1.00  0.00    -0.334 N 
ATOM     48 2H11 UNL     1     -10.686   9.683  29.545  1.00  0.00     0.177 HD
ATOM     49 1H11 UNL     1     -11.074  10.391  28.117  1.00  0.00     0.177 HD
ENDBRANCH   7  47
ENDBRANCH   3   4
TORSDOF 14
ENDMDL
MODEL 5
REMARK VINA RESULT: -5.416941844      2.526      5.486
REMARK  14 active torsions:
REMARK  status: ('A' for Active; 'I' for Inactive)
REMARK    1  A    between atoms: C3_3  and  N1_4 
REMARK    2  A    between atoms: C4_5  and  O1_6 
REMARK    3  A    between atoms: C5_8  and  C6_9 
REMARK    4  A    between atoms: C6_9  and  N2_10 
REMARK    5  A    between atoms: N2_10  and  N3_12 
REMARK       I    between atoms: N3_12  and  C7_14 
REMARK       I    between atoms: C7_14  and  N4_15 
REMARK       I    between atoms: C7_14  and  N6_32 
REMARK    6  A    between atoms: N4_15  and  N5_17 
REMARK    7  A    between atoms: N5_17  and  C8_19 
REMARK    8  A    between atoms: C8_19  and  C9_20 
REMARK    9  A    between atoms: C11_22  and  O2_23 
REMARK   10  A    between atoms: C12_25  and  O3_26 
REMARK   11  A    between atoms: C13_28  and  O4_29 
REMARK   12  A    between atoms: N6_32  and  N7_34 
REMARK   13  A    between atoms: N7_34  and  C16_36 
REMARK   14  A    between atoms: N10_44  and  N11_45 
ROOT
HETATM    1  C1  UNL     1     -11.908  14.644  28.601  1.00  0.00     0.014 C 
HETATM    2  C2  UNL     1     -11.533  13.682  29.222  1.00  0.00    -0.097 C 
HETATM    3  C3  UNL     1     -11.059  12.492  29.967  1.00  0.00     0.228 C 
ENDROOT
BRANCH   3   4
HETATM    4  N1  UNL     1     -10.013  11.850  29.194  1.00  0.00    -0.265 N 
HETATM    5  C4  UNL     1     -10.209  10.918  28.216  1.00  0.00     0.178 A 
HETATM    6  C5  UNL     1      -8.978  10.548  27.718  1.00  0.00     0.128 A 
HETATM    7  N10 UNL     1      -8.039  11.242  28.381  1.00  0.00    -0.206 N 
HETATM    8  C19 UNL     1      -8.682  12.027  29.270  1.00  0.00     0.350 A 
HETATM    9  O5  UNL     1      -8.077  12.810  30.057  1.00  0.00    -0.244 OA
BRANCH   5  10
HETATM   10  O1  UNL     1     -11.462  10.455  27.828  1.00  0.00    -0.344 OA
ATOM     11  H1  UNL     1     -11.604   9.641  27.359  1.00  0.00     0.219 HD
ENDBRANCH   5  10
BRANCH   6  12
HETATM   12  C6  UNL     1      -8.778   9.559  26.647  1.00  0.00     0.143 C 
BRANCH  12  13
HETATM   13  N2  UNL     1      -9.593   8.568  26.586  1.00  0.00    -0.295 N 
ATOM     14  H2  UNL     1     -10.529   8.683  26.197  1.00  0.00     0.186 HD
BRANCH  13  15
HETATM   15  N3  UNL     1      -9.166   7.329  27.066  1.00  0.00    -0.130 N 
HETATM   16  C7  UNL     1      -9.695   6.786  28.093  1.00  0.00     0.726 C 
HETATM   17  N4  UNL     1     -10.749   7.470  28.759  1.00  0.00    -0.130 N 
HETATM   18  N6  UNL     1      -9.238   5.529  28.556  1.00  0.00    -0.127 N 
ATOM     19  H4  UNL     1     -11.458   7.947  28.203  1.00  0.00     0.205 HD
ATOM     20  H6  UNL     1      -9.642   4.674  28.171  1.00  0.00     0.205 HD
ATOM     21  H3  UNL     1      -8.410   6.844  26.582  1.00  0.00     0.205 HD
BRANCH  17  22
HETATM   22  N5  UNL     1     -10.839   7.506  30.115  1.00  0.00    -0.297 N 
ATOM     23  H5  UNL     1     -11.079   6.602  30.522  1.00  0.00     0.186 HD
BRANCH  22  24
HETATM   24  C8  UNL     1     -10.692   8.407  30.976  1.00  0.00     0.119 C 
BRANCH  24  25
HETATM   25  C9  UNL     1      -9.494   9.053  31.455  1.00  0.00    -0.014 A 
HETATM   26  C10 UNL     1      -8.224   8.746  31.041  1.00  0.00     0.052 A 
HETATM   27  C11 UNL     1      -7.098   9.407  31.541  1.00  0.00     0.102 A 
HETATM   28  C12 UNL     1      -7.241  10.400  32.477  1.00  0.00     0.132 A 
HETATM   29  C13 UNL     1      -8.496  10.731  32.910  1.00  0.00     0.104 A 
HETATM   30  C15 UNL     1      -9.585  10.066  32.403  1.00  0.00     0.052 A 
BRANCH  27  31
HETATM   31  O2  UNL     1      -5.814   9.091  31.119  1.00  0.00    -0.358 OA
ATOM     32  H2  UNL     1      -5.573   9.093  30.200  1.00  0.00     0.217 HD
ENDBRANCH  27  31
BRANCH  28  33
HETATM   33  O3  UNL     1      -6.125  11.076  32.991  1.00  0.00    -0.356 OA
ATOM     34  H3  UNL     1      -6.034  11.232  33.924  1.00  0.00     0.218 HD
ENDBRANCH  28  33
BRANCH  29  35
HETATM   35  O4  UNL     1      -8.638  11.729  33.849  1.00  0.00    -0.353 OA
HETATM   36  C14 UNL     1      -9.690  12.692  33.737  1.00  0.00     0.210 C 
ENDBRANCH  29  35
ENDBRANCH  24  25
ENDBRANCH  22  24
ENDBRANCH  17  22
BRANCH  18  37
HETATM   37  N7  UNL     1      -8.243   5.441  29.531  1.00  0.00    -0.264 N 
ATOM     38  H7  UNL     1      -8.481   5.457  30.523  1.00  0.00     0.189 HD
BRANCH  37  39
HETATM   39  C16 UNL     1      -6.998   5.336  29.139  1.00  0.00     0.180 A 
HETATM   40  N8  UNL     1      -6.526   4.744  28.037  1.00  0.00    -0.278 N 
HETATM   41  N9  UNL     1      -5.275   4.747  27.829  1.00  0.00    -0.296 N 
ATOM     42  H8  UNL     1      -7.161   4.298  27.376  1.00  0.00     0.189 HD
HETATM   43  C17 UNL     1      -4.457   5.330  28.694  1.00  0.00     0.066 A 
ATOM     44  H9  UNL     1      -4.898   4.300  26.994  1.00  0.00     0.187 HD
HETATM   45  C18 UNL     1      -2.959   5.442  28.631  1.00  0.00     0.078 C 
HETATM   46  S1  UNL     1      -5.558   5.902  29.867  1.00  0.00    -0.037 SA
ENDBRANCH  37  39
ENDBRANCH  18  37
ENDBRANCH  13  15
ENDBRANCH  12  13
ENDBRANCH   6  12
BRANCH   7  47
HETATM   47  N11 UNL     1      -6.669  11.136  28.152  1.00  0.00    -0.334 N 
ATOM     48 2H11 UNL     1      -5.903  11.530  28.697  1.00  0.00     0.177 HD
ATOM     49 1H11 UNL     1      -6.251  10.627  27.373  1.00  0.00     0.177 HD
ENDBRANCH   7  47
ENDBRANCH   3   4
TORSDOF 14
ENDMDL
