MODEL 1
REMARK VINA RESULT: -6.637888403      0.000      0.000
REMARK  11 active torsions:
REMARK  status: ('A' for Active; 'I' for Inactive)
REMARK    1  A    between atoms: C4_7  and  N4_8 
REMARK    2  A    between atoms: N4_8  and  C5_10 
REMARK    3  A    between atoms: C6_13  and  N6_14 
REMARK    4  A    between atoms: C9_23  and  C10_24 
REMARK    5  A    between atoms: C10_24  and  C11_26 
REMARK    6  A    between atoms: C11_26  and  C12_27 
REMARK    7  A    between atoms: C11_26  and  N10_32 
REMARK    8  A    between atoms: C12_27  and  N9_28 
REMARK    9  A    between atoms: N10_32  and  N11_34 
REMARK   10  A    between atoms: C13_36  and  C14_37 
REMARK   11  A    between atoms: C17_40  and  N12_41 
ROOT
HETATM    1  C5  UNL     1      -7.213  10.454  32.094  1.00  0.00     0.133 A 
HETATM    2  N5  UNL     1      -6.088  10.692  32.785  1.00  0.00    -0.176 N 
ATOM      3  H5  UNL     1      -5.990  11.591  33.258  1.00  0.00     0.186 HD
HETATM    4  C6  UNL     1      -5.070   9.797  32.887  1.00  0.00     0.679 A 
HETATM    5  N7  UNL     1      -5.179   8.614  32.272  1.00  0.00    -0.176 N 
ATOM      6  H7  UNL     1      -4.416   7.940  32.346  1.00  0.00     0.186 HD
HETATM    7  C7  UNL     1      -6.279   8.294  31.554  1.00  0.00     0.135 A 
HETATM    8  N8  UNL     1      -6.365   7.099  30.951  1.00  0.00    -0.350 N 
ATOM      9  H8  UNL     1      -5.597   6.432  31.031  1.00  0.00     0.166 HD
HETATM   10  C8  UNL     1      -7.475   6.774  30.230  1.00  0.00     0.105 A 
HETATM   11  C9  UNL     1      -8.519   7.640  30.104  1.00  0.00     0.028 A 
HETATM   12  C18 UNL     1      -8.404   8.870  30.738  1.00  0.00     0.035 A 
HETATM   13  C19 UNL     1      -7.295   9.208  31.464  1.00  0.00     0.054 A 
ENDROOT
BRANCH  11  14
HETATM   14  C10 UNL     1      -9.723   7.324  29.377  1.00  0.00     0.186 C 
HETATM   15  O1  UNL     1     -10.234   6.154  29.447  1.00  0.00    -0.290 OA
BRANCH  14  16
HETATM   16  C11 UNL     1     -10.417   8.315  28.528  1.00  0.00     0.199 C 
BRANCH  16  17
HETATM   17  C12 UNL     1     -10.203   7.860  27.068  1.00  0.00     0.264 C 
BRANCH  17  18
HETATM   18  N9  UNL     1      -8.892   8.257  26.607  1.00  0.00    -0.077 N 
ATOM     19  H93 UNL     1      -8.150   7.747  27.086  1.00  0.00     0.274 HD
ATOM     20  H92 UNL     1      -8.709   7.933  25.657  1.00  0.00     0.274 HD
ATOM     21  H91 UNL     1      -8.776   9.267  26.693  1.00  0.00     0.274 HD
ENDBRANCH  17  18
ENDBRANCH  16  17
BRANCH  16  22
HETATM   22  N10 UNL     1     -11.868   8.280  28.780  1.00  0.00    -0.323 N 
ATOM     23  H10 UNL     1     -12.505   8.467  28.005  1.00  0.00     0.181 HD
BRANCH  22  24
HETATM   24  N11 UNL     1     -12.401   8.004  30.024  1.00  0.00    -0.314 N 
HETATM   25  C13 UNL     1     -13.578   8.340  30.397  1.00  0.00     0.125 C 
ATOM     26  H11 UNL     1     -11.817   7.499  30.690  1.00  0.00     0.185 HD
BRANCH  25  27
HETATM   27  C14 UNL     1     -14.020   7.985  31.744  1.00  0.00     0.024 A 
HETATM   28  C15 UNL     1     -14.946   7.042  32.121  1.00  0.00     0.023 A 
HETATM   29  C16 UNL     1     -15.179   6.903  33.427  1.00  0.00     0.045 A 
HETATM   30  C17 UNL     1     -14.486   7.702  34.293  1.00  0.00     0.144 A 
HETATM   31  S1  UNL     1     -13.516   8.635  33.246  1.00  0.00    -0.065 SA
BRANCH  30  32
HETATM   32  N12 UNL     1     -14.562   7.738  35.711  1.00  0.00    -0.108 N 
HETATM   33  O2  UNL     1     -15.666   7.784  36.260  1.00  0.00    -0.531 OA
HETATM   34  O3  UNL     1     -13.431   7.725  36.461  1.00  0.00    -0.531 OA
ENDBRANCH  30  32
ENDBRANCH  25  27
ENDBRANCH  22  24
ENDBRANCH  16  22
ENDBRANCH  14  16
ENDBRANCH  11  14
BRANCH   1  35
HETATM   35  N4  UNL     1      -8.199  11.249  31.963  1.00  0.00    -0.343 N 
ATOM     36  H4  UNL     1      -8.198  11.844  31.135  1.00  0.00     0.164 HD
BRANCH  35  37
HETATM   37  C4  UNL     1      -9.302  11.394  32.848  1.00  0.00     0.286 C 
HETATM   38  N3  UNL     1      -9.076  10.618  34.068  1.00  0.00    -0.195 NA
HETATM   39  N2  UNL     1     -10.130  10.807  34.941  1.00  0.00    -0.217 NA
HETATM   40  C3  UNL     1     -10.075   9.565  34.325  1.00  0.00     0.221 A 
HETATM   41  C2  UNL     1     -11.084  11.792  34.524  1.00  0.00     0.218 C 
HETATM   42  N1  UNL     1     -10.372  13.028  34.171  1.00  0.00    -0.221 NA
HETATM   43  C1  UNL     1      -9.845  13.530  35.441  1.00  0.00     0.133 C 
HETATM   44  N13 UNL     1      -9.365  12.801  33.249  1.00  0.00    -0.121 NA
ENDBRANCH  35  37
ENDBRANCH   1  35
BRANCH   4  45
HETATM   45  N6  UNL     1      -4.022  10.111  33.573  1.00  0.00    -0.234 N 
ATOM     46  H62 UNL     1      -3.913   9.824  34.545  1.00  0.00     0.174 HD
ATOM     47  H61 UNL     1      -3.285  10.659  33.130  1.00  0.00     0.174 HD
ENDBRANCH   4  45
TORSDOF 11
ENDMDL
MODEL 2
REMARK VINA RESULT: -6.444913810      2.537      5.480
REMARK  11 active torsions:
REMARK  status: ('A' for Active; 'I' for Inactive)
REMARK    1  A    between atoms: C4_7  and  N4_8 
REMARK    2  A    between atoms: N4_8  and  C5_10 
REMARK    3  A    between atoms: C6_13  and  N6_14 
REMARK    4  A    between atoms: C9_23  and  C10_24 
REMARK    5  A    between atoms: C10_24  and  C11_26 
REMARK    6  A    between atoms: C11_26  and  C12_27 
REMARK    7  A    between atoms: C11_26  and  N10_32 
REMARK    8  A    between atoms: C12_27  and  N9_28 
REMARK    9  A    between atoms: N10_32  and  N11_34 
REMARK   10  A    between atoms: C13_36  and  C14_37 
REMARK   11  A    between atoms: C17_40  and  N12_41 
ROOT
HETATM    1  C5  UNL     1      -6.694   5.361  29.080  1.00  0.00     0.133 A 
HETATM    2  N5  UNL     1      -6.123   4.743  28.034  1.00  0.00    -0.176 N 
ATOM      3  H5  UNL     1      -6.721   4.216  27.397  1.00  0.00     0.186 HD
HETATM    4  C6  UNL     1      -4.788   4.785  27.780  1.00  0.00     0.679 A 
HETATM    5  N7  UNL     1      -3.989   5.470  28.604  1.00  0.00    -0.176 N 
ATOM      6  H7  UNL     1      -2.987   5.502  28.416  1.00  0.00     0.186 HD
HETATM    7  C7  UNL     1      -4.482   6.120  29.682  1.00  0.00     0.135 A 
HETATM    8  N8  UNL     1      -3.660   6.804  30.491  1.00  0.00    -0.350 N 
ATOM      9  H8  UNL     1      -2.659   6.830  30.295  1.00  0.00     0.166 HD
HETATM   10  C8  UNL     1      -4.158   7.463  31.575  1.00  0.00     0.105 A 
HETATM   11  C9  UNL     1      -5.488   7.450  31.866  1.00  0.00     0.028 A 
HETATM   12  C18 UNL     1      -6.317   6.734  31.013  1.00  0.00     0.035 A 
HETATM   13  C19 UNL     1      -5.830   6.069  29.922  1.00  0.00     0.054 A 
ENDROOT
BRANCH  11  14
HETATM   14  C10 UNL     1      -6.058   8.158  32.985  1.00  0.00     0.186 C 
HETATM   15  O1  UNL     1      -5.938   7.698  34.172  1.00  0.00    -0.290 OA
BRANCH  14  16
HETATM   16  C11 UNL     1      -6.797   9.428  32.824  1.00  0.00     0.199 C 
BRANCH  16  17
HETATM   17  C12 UNL     1      -5.792  10.442  32.237  1.00  0.00     0.264 C 
BRANCH  17  18
HETATM   18  N9  UNL     1      -6.319  11.026  31.025  1.00  0.00    -0.077 N 
ATOM     19  H93 UNL     1      -7.313  11.238  31.105  1.00  0.00     0.274 HD
ATOM     20  H92 UNL     1      -5.973  11.975  30.879  1.00  0.00     0.274 HD
ATOM     21  H91 UNL     1      -6.121  10.423  30.226  1.00  0.00     0.274 HD
ENDBRANCH  17  18
ENDBRANCH  16  17
BRANCH  16  22
HETATM   22  N10 UNL     1      -7.876   9.271  31.833  1.00  0.00    -0.323 N 
ATOM     23  H10 UNL     1      -7.654   9.388  30.844  1.00  0.00     0.181 HD
BRANCH  22  24
HETATM   24  N11 UNL     1      -9.177   8.972  32.190  1.00  0.00    -0.314 N 
HETATM   25  C13 UNL     1      -9.814   9.541  33.141  1.00  0.00     0.125 C 
ATOM     26  H11 UNL     1      -9.661   8.249  31.659  1.00  0.00     0.185 HD
BRANCH  25  27
HETATM   27  C14 UNL     1     -11.189   9.131  33.415  1.00  0.00     0.024 A 
HETATM   28  C15 UNL     1     -12.286   9.208  32.591  1.00  0.00     0.023 A 
HETATM   29  C16 UNL     1     -13.447   8.763  33.074  1.00  0.00     0.045 A 
HETATM   30  C17 UNL     1     -13.464   8.265  34.347  1.00  0.00     0.144 A 
HETATM   31  S1  UNL     1     -11.840   8.434  34.837  1.00  0.00    -0.065 SA
BRANCH  30  32
HETATM   32  N12 UNL     1     -14.567   7.740  35.073  1.00  0.00    -0.108 N 
HETATM   33  O2  UNL     1     -15.673   7.665  34.530  1.00  0.00    -0.531 OA
HETATM   34  O3  UNL     1     -14.411   7.324  36.356  1.00  0.00    -0.531 OA
ENDBRANCH  30  32
ENDBRANCH  25  27
ENDBRANCH  22  24
ENDBRANCH  16  22
ENDBRANCH  14  16
ENDBRANCH  11  14
BRANCH   1  35
HETATM   35  N4  UNL     1      -7.934   5.361  29.369  1.00  0.00    -0.343 N 
ATOM     36  H4  UNL     1      -8.235   4.696  30.081  1.00  0.00     0.164 HD
BRANCH  35  37
HETATM   37  C4  UNL     1      -8.942   6.190  28.806  1.00  0.00     0.286 C 
HETATM   38  N3  UNL     1      -9.492   7.082  29.826  1.00  0.00    -0.195 NA
HETATM   39  N2  UNL     1     -10.434   7.917  29.256  1.00  0.00    -0.217 NA
HETATM   40  C3  UNL     1     -10.935   6.918  30.078  1.00  0.00     0.221 A 
HETATM   41  C2  UNL     1     -10.538   7.814  27.829  1.00  0.00     0.218 C 
HETATM   42  N1  UNL     1      -9.198   7.937  27.241  1.00  0.00    -0.221 NA
HETATM   43  C1  UNL     1      -8.807   9.325  27.490  1.00  0.00     0.133 C 
HETATM   44  N13 UNL     1      -8.303   7.042  27.800  1.00  0.00    -0.121 NA
ENDBRANCH  35  37
ENDBRANCH   1  35
BRANCH   4  45
HETATM   45  N6  UNL     1      -4.325   4.159  26.749  1.00  0.00    -0.234 N 
ATOM     46  H62 UNL     1      -4.734   4.277  25.823  1.00  0.00     0.174 HD
ATOM     47  H61 UNL     1      -3.528   3.533  26.865  1.00  0.00     0.174 HD
ENDBRANCH   4  45
TORSDOF 11
ENDMDL
MODEL 3
REMARK VINA RESULT: -6.347171078      2.176      3.660
REMARK  11 active torsions:
REMARK  status: ('A' for Active; 'I' for Inactive)
REMARK    1  A    between atoms: C4_7  and  N4_8 
REMARK    2  A    between atoms: N4_8  and  C5_10 
REMARK    3  A    between atoms: C6_13  and  N6_14 
REMARK    4  A    between atoms: C9_23  and  C10_24 
REMARK    5  A    between atoms: C10_24  and  C11_26 
REMARK    6  A    between atoms: C11_26  and  C12_27 
REMARK    7  A    between atoms: C11_26  and  N10_32 
REMARK    8  A    between atoms: C12_27  and  N9_28 
REMARK    9  A    between atoms: N10_32  and  N11_34 
REMARK   10  A    between atoms: C13_36  and  C14_37 
REMARK   11  A    between atoms: C17_40  and  N12_41 
ROOT
HETATM    1  C5  UNL     1     -11.012  11.076  33.388  1.00  0.00     0.133 A 
HETATM    2  N5  UNL     1     -10.847  12.098  34.243  1.00  0.00    -0.176 N 
ATOM      3  H5  UNL     1     -11.670  12.476  34.711  1.00  0.00     0.186 HD
HETATM    4  C6  UNL     1      -9.637  12.655  34.514  1.00  0.00     0.679 A 
HETATM    5  N7  UNL     1      -8.547  12.175  33.908  1.00  0.00    -0.176 N 
ATOM      6  H7  UNL     1      -7.638  12.592  34.110  1.00  0.00     0.186 HD
HETATM    7  C7  UNL     1      -8.625  11.147  33.033  1.00  0.00     0.135 A 
HETATM    8  N8  UNL     1      -7.516  10.681  32.441  1.00  0.00    -0.350 N 
ATOM      9  H8  UNL     1      -6.611  11.104  32.650  1.00  0.00     0.166 HD
HETATM   10  C8  UNL     1      -7.594   9.642  31.562  1.00  0.00     0.105 A 
HETATM   11  C9  UNL     1      -8.784   9.053  31.263  1.00  0.00     0.028 A 
HETATM   12  C18 UNL     1      -9.917   9.555  31.887  1.00  0.00     0.035 A 
HETATM   13  C19 UNL     1      -9.852  10.597  32.772  1.00  0.00     0.054 A 
ENDROOT
BRANCH  11  14
HETATM   14  C10 UNL     1      -8.905   7.933  30.361  1.00  0.00     0.186 C 
HETATM   15  O1  UNL     1      -7.996   7.035  30.317  1.00  0.00    -0.290 OA
BRANCH  14  16
HETATM   16  C11 UNL     1     -10.064   7.767  29.459  1.00  0.00     0.199 C 
BRANCH  16  17
HETATM   17  C12 UNL     1      -9.492   7.302  28.102  1.00  0.00     0.264 C 
BRANCH  17  18
HETATM   18  N9  UNL     1      -9.276   5.873  28.113  1.00  0.00    -0.077 N 
ATOM     19  H93 UNL     1      -8.386   5.626  28.545  1.00  0.00     0.274 HD
ATOM     20  H92 UNL     1      -9.898   5.399  28.769  1.00  0.00     0.274 HD
ATOM     21  H91 UNL     1      -9.359   5.495  27.169  1.00  0.00     0.274 HD
ENDBRANCH  17  18
ENDBRANCH  16  17
BRANCH  16  22
HETATM   22  N10 UNL     1     -10.944   6.691  29.946  1.00  0.00    -0.323 N 
ATOM     23  H10 UNL     1     -10.650   5.722  29.817  1.00  0.00     0.181 HD
BRANCH  22  24
HETATM   24  N11 UNL     1     -12.150   6.941  30.571  1.00  0.00    -0.314 N 
HETATM   25  C13 UNL     1     -12.869   7.980  30.365  1.00  0.00     0.125 C 
ATOM     26  H11 UNL     1     -12.491   6.252  31.240  1.00  0.00     0.185 HD
BRANCH  25  27
HETATM   27  C14 UNL     1     -14.128   8.122  31.093  1.00  0.00     0.024 A 
HETATM   28  C15 UNL     1     -15.078   9.108  30.976  1.00  0.00     0.023 A 
HETATM   29  C16 UNL     1     -16.154   9.015  31.759  1.00  0.00     0.045 A 
HETATM   30  C17 UNL     1     -16.235   7.955  32.617  1.00  0.00     0.144 A 
HETATM   31  S1  UNL     1     -14.790   7.106  32.302  1.00  0.00    -0.065 SA
BRANCH  30  32
HETATM   32  N12 UNL     1     -17.270   7.646  33.540  1.00  0.00    -0.108 N 
HETATM   33  O2  UNL     1     -17.537   6.466  33.784  1.00  0.00    -0.531 OA
HETATM   34  O3  UNL     1     -17.967   8.639  34.151  1.00  0.00    -0.531 OA
ENDBRANCH  30  32
ENDBRANCH  25  27
ENDBRANCH  22  24
ENDBRANCH  16  22
ENDBRANCH  14  16
ENDBRANCH  11  14
BRANCH   1  35
HETATM   35  N4  UNL     1     -12.115  10.511  33.094  1.00  0.00    -0.343 N 
ATOM     36  H4  UNL     1     -12.246  10.250  32.117  1.00  0.00     0.164 HD
BRANCH  35  37
HETATM   37  C4  UNL     1     -13.182  10.207  33.983  1.00  0.00     0.286 C 
HETATM   38  N3  UNL     1     -12.655   9.701  35.250  1.00  0.00    -0.195 NA
HETATM   39  N2  UNL     1     -13.698   9.458  36.124  1.00  0.00    -0.217 NA
HETATM   40  C3  UNL     1     -13.081   8.333  35.595  1.00  0.00     0.221 A 
HETATM   41  C2  UNL     1     -14.984   9.880  35.652  1.00  0.00     0.218 C 
HETATM   42  N1  UNL     1     -14.895  11.275  35.203  1.00  0.00    -0.221 NA
HETATM   43  C1  UNL     1     -14.673  12.047  36.427  1.00  0.00     0.133 C 
HETATM   44  N13 UNL     1     -13.877  11.461  34.285  1.00  0.00    -0.121 NA
ENDBRANCH  35  37
ENDBRANCH   1  35
BRANCH   4  45
HETATM   45  N6  UNL     1      -9.572  13.638  35.351  1.00  0.00    -0.234 N 
ATOM     46  H62 UNL     1      -9.534  13.482  36.358  1.00  0.00     0.174 HD
ATOM     47  H61 UNL     1      -9.556  14.593  34.994  1.00  0.00     0.174 HD
ENDBRANCH   4  45
TORSDOF 11
ENDMDL
MODEL 4
REMARK VINA RESULT: -6.316925959      3.915      6.553
REMARK  11 active torsions:
REMARK  status: ('A' for Active; 'I' for Inactive)
REMARK    1  A    between atoms: C4_7  and  N4_8 
REMARK    2  A    between atoms: N4_8  and  C5_10 
REMARK    3  A    between atoms: C6_13  and  N6_14 
REMARK    4  A    between atoms: C9_23  and  C10_24 
REMARK    5  A    between atoms: C10_24  and  C11_26 
REMARK    6  A    between atoms: C11_26  and  C12_27 
REMARK    7  A    between atoms: C11_26  and  N10_32 
REMARK    8  A    between atoms: C12_27  and  N9_28 
REMARK    9  A    between atoms: N10_32  and  N11_34 
REMARK   10  A    between atoms: C13_36  and  C14_37 
REMARK   11  A    between atoms: C17_40  and  N12_41 
ROOT
HETATM    1  C5  UNL     1     -10.295   8.721  31.561  1.00  0.00     0.133 A 
HETATM    2  N5  UNL     1     -11.576   8.879  31.928  1.00  0.00    -0.176 N 
ATOM      3  H5  UNL     1     -11.799   9.603  32.611  1.00  0.00     0.186 HD
HETATM    4  C6  UNL     1     -12.592   8.121  31.437  1.00  0.00     0.679 A 
HETATM    5  N7  UNL     1     -12.319   7.166  30.542  1.00  0.00    -0.176 N 
ATOM      6  H7  UNL     1     -13.079   6.595  30.172  1.00  0.00     0.186 HD
HETATM    7  C7  UNL     1     -11.055   6.940  30.119  1.00  0.00     0.135 A 
HETATM    8  N8  UNL     1     -10.808   5.978  29.217  1.00  0.00    -0.350 N 
ATOM      9  H8  UNL     1     -11.575   5.414  28.853  1.00  0.00     0.166 HD
HETATM   10  C8  UNL     1      -9.534   5.753  28.787  1.00  0.00     0.105 A 
HETATM   11  C9  UNL     1      -8.487   6.490  29.251  1.00  0.00     0.028 A 
HETATM   12  C18 UNL     1      -8.769   7.478  30.184  1.00  0.00     0.035 A 
HETATM   13  C19 UNL     1     -10.044   7.713  30.624  1.00  0.00     0.054 A 
ENDROOT
BRANCH  11  14
HETATM   14  C10 UNL     1      -7.130   6.303  28.800  1.00  0.00     0.186 C 
HETATM   15  O1  UNL     1      -6.658   5.127  28.636  1.00  0.00    -0.290 OA
BRANCH  14  16
HETATM   16  C11 UNL     1      -6.231   7.440  28.509  1.00  0.00     0.199 C 
BRANCH  16  17
HETATM   17  C12 UNL     1      -4.891   6.825  28.052  1.00  0.00     0.264 C 
BRANCH  17  18
HETATM   18  N9  UNL     1      -4.843   6.744  26.609  1.00  0.00    -0.077 N 
ATOM     19  H93 UNL     1      -4.344   5.913  26.292  1.00  0.00     0.274 HD
ATOM     20  H92 UNL     1      -5.758   6.533  26.210  1.00  0.00     0.274 HD
ATOM     21  H91 UNL     1      -4.446   7.599  26.219  1.00  0.00     0.274 HD
ENDBRANCH  17  18
ENDBRANCH  16  17
BRANCH  16  22
HETATM   22  N10 UNL     1      -6.750   8.228  27.378  1.00  0.00    -0.323 N 
ATOM     23  H10 UNL     1      -6.879   7.767  26.478  1.00  0.00     0.181 HD
BRANCH  22  24
HETATM   24  N11 UNL     1      -7.069   9.568  27.489  1.00  0.00    -0.314 N 
HETATM   25  C13 UNL     1      -7.160  10.200  28.597  1.00  0.00     0.125 C 
ATOM     26  H11 UNL     1      -7.244  10.088  26.629  1.00  0.00     0.185 HD
BRANCH  25  27
HETATM   27  C14 UNL     1      -7.505  11.620  28.574  1.00  0.00     0.024 A 
HETATM   28  C15 UNL     1      -6.797  12.682  29.083  1.00  0.00     0.023 A 
HETATM   29  C16 UNL     1      -7.327  13.897  28.934  1.00  0.00     0.045 A 
HETATM   30  C17 UNL     1      -8.529  14.000  28.292  1.00  0.00     0.144 A 
HETATM   31  S1  UNL     1      -8.888  12.378  27.908  1.00  0.00    -0.065 SA
BRANCH  30  32
HETATM   32  N12 UNL     1      -9.284  15.172  28.018  1.00  0.00    -0.108 N 
HETATM   33  O2  UNL     1      -8.750  16.280  28.127  1.00  0.00    -0.531 OA
HETATM   34  O3  UNL     1     -10.585  15.080  27.640  1.00  0.00    -0.531 OA
ENDBRANCH  30  32
ENDBRANCH  25  27
ENDBRANCH  22  24
ENDBRANCH  16  22
ENDBRANCH  14  16
ENDBRANCH  11  14
BRANCH   1  35
HETATM   35  N4  UNL     1      -9.301   9.397  31.983  1.00  0.00    -0.343 N 
ATOM     36  H4  UNL     1      -8.376   9.013  31.795  1.00  0.00     0.164 HD
BRANCH  35  37
HETATM   37  C4  UNL     1      -9.347  10.631  32.688  1.00  0.00     0.286 C 
HETATM   38  N3  UNL     1     -10.348  11.517  32.092  1.00  0.00    -0.195 NA
HETATM   39  N2  UNL     1     -10.419  12.692  32.815  1.00  0.00    -0.217 NA
HETATM   40  C3  UNL     1      -9.816  12.788  31.570  1.00  0.00     0.221 A 
HETATM   41  C2  UNL     1      -9.634  12.704  34.015  1.00  0.00     0.218 C 
HETATM   42  N1  UNL     1      -9.939  11.500  34.799  1.00  0.00    -0.221 NA
HETATM   43  C1  UNL     1     -11.318  11.690  35.252  1.00  0.00     0.133 C 
HETATM   44  N13 UNL     1      -9.797  10.345  34.052  1.00  0.00    -0.121 NA
ENDBRANCH  35  37
ENDBRANCH   1  35
BRANCH   4  45
HETATM   45  N6  UNL     1     -13.797   8.342  31.848  1.00  0.00    -0.234 N 
ATOM     46  H62 UNL     1     -14.460   8.884  31.294  1.00  0.00     0.174 HD
ATOM     47  H61 UNL     1     -14.091   7.963  32.747  1.00  0.00     0.174 HD
ENDBRANCH   4  45
TORSDOF 11
ENDMDL
MODEL 5
REMARK VINA RESULT: -6.300436606      1.483      1.951
REMARK  11 active torsions:
REMARK  status: ('A' for Active; 'I' for Inactive)
REMARK    1  A    between atoms: C4_7  and  N4_8 
REMARK    2  A    between atoms: N4_8  and  C5_10 
REMARK    3  A    between atoms: C6_13  and  N6_14 
REMARK    4  A    between atoms: C9_23  and  C10_24 
REMARK    5  A    between atoms: C10_24  and  C11_26 
REMARK    6  A    between atoms: C11_26  and  C12_27 
REMARK    7  A    between atoms: C11_26  and  N10_32 
REMARK    8  A    between atoms: C12_27  and  N9_28 
REMARK    9  A    between atoms: N10_32  and  N11_34 
REMARK   10  A    between atoms: C13_36  and  C14_37 
REMARK   11  A    between atoms: C17_40  and  N12_41 
ROOT
HETATM    1  C5  UNL     1      -6.543  10.266  31.708  1.00  0.00     0.133 A 
HETATM    2  N5  UNL     1      -5.578  10.607  32.576  1.00  0.00    -0.176 N 
ATOM      3  H5  UNL     1      -5.553  11.566  32.922  1.00  0.00     0.186 HD
HETATM    4  C6  UNL     1      -4.631   9.737  33.018  1.00  0.00     0.679 A 
HETATM    5  N7  UNL     1      -4.646   8.476  32.575  1.00  0.00    -0.176 N 
ATOM      6  H7  UNL     1      -3.936   7.822  32.905  1.00  0.00     0.186 HD
HETATM    7  C7  UNL     1      -5.584   8.050  31.698  1.00  0.00     0.135 A 
HETATM    8  N8  UNL     1      -5.579   6.779  31.273  1.00  0.00    -0.350 N 
ATOM      9  H8  UNL     1      -4.866   6.132  31.608  1.00  0.00     0.166 HD
HETATM   10  C8  UNL     1      -6.527   6.349  30.392  1.00  0.00     0.105 A 
HETATM   11  C9  UNL     1      -7.495   7.185  29.926  1.00  0.00     0.028 A 
HETATM   12  C18 UNL     1      -7.476   8.496  30.381  1.00  0.00     0.035 A 
HETATM   13  C19 UNL     1      -6.531   8.940  31.265  1.00  0.00     0.054 A 
ENDROOT
BRANCH  11  14
HETATM   14  C10 UNL     1      -8.532   6.762  29.017  1.00  0.00     0.186 C 
HETATM   15  O1  UNL     1      -8.312   5.829  28.172  1.00  0.00    -0.290 OA
BRANCH  14  16
HETATM   16  C11 UNL     1      -9.878   7.372  29.015  1.00  0.00     0.199 C 
BRANCH  16  17
HETATM   17  C12 UNL     1     -10.215   7.672  27.539  1.00  0.00     0.264 C 
BRANCH  17  18
HETATM   18  N9  UNL     1      -9.100   8.328  26.894  1.00  0.00    -0.077 N 
ATOM     19  H93 UNL     1      -8.921   9.250  27.289  1.00  0.00     0.274 HD
ATOM     20  H92 UNL     1      -8.211   7.886  27.129  1.00  0.00     0.274 HD
ATOM     21  H91 UNL     1      -9.249   8.369  25.885  1.00  0.00     0.274 HD
ENDBRANCH  17  18
ENDBRANCH  16  17
BRANCH  16  22
HETATM   22  N10 UNL     1     -10.881   6.405  29.496  1.00  0.00    -0.323 N 
ATOM     23  H10 UNL     1     -10.897   5.472  29.085  1.00  0.00     0.181 HD
BRANCH  22  24
HETATM   24  N11 UNL     1     -11.799   6.713  30.482  1.00  0.00    -0.314 N 
HETATM   25  C13 UNL     1     -12.437   7.819  30.555  1.00  0.00     0.125 C 
ATOM     26  H11 UNL     1     -11.980   6.011  31.198  1.00  0.00     0.185 HD
BRANCH  25  27
HETATM   27  C14 UNL     1     -13.383   8.017  31.651  1.00  0.00     0.024 A 
HETATM   28  C15 UNL     1     -13.221   8.753  32.800  1.00  0.00     0.023 A 
HETATM   29  C16 UNL     1     -14.243   8.780  33.657  1.00  0.00     0.045 A 
HETATM   30  C17 UNL     1     -15.370   8.077  33.336  1.00  0.00     0.144 A 
HETATM   31  S1  UNL     1     -14.967   7.392  31.828  1.00  0.00    -0.065 SA
BRANCH  30  32
HETATM   32  N12 UNL     1     -16.573   7.954  34.082  1.00  0.00    -0.108 N 
HETATM   33  O2  UNL     1     -16.858   8.809  34.925  1.00  0.00    -0.531 OA
HETATM   34  O3  UNL     1     -17.407   6.902  33.873  1.00  0.00    -0.531 OA
ENDBRANCH  30  32
ENDBRANCH  25  27
ENDBRANCH  22  24
ENDBRANCH  16  22
ENDBRANCH  14  16
ENDBRANCH  11  14
BRANCH   1  35
HETATM   35  N4  UNL     1      -7.456  11.032  31.259  1.00  0.00    -0.343 N 
ATOM     36  H4  UNL     1      -7.501  11.142  30.246  1.00  0.00     0.164 HD
BRANCH  35  37
HETATM   37  C4  UNL     1      -8.420  11.748  32.020  1.00  0.00     0.286 C 
HETATM   38  N3  UNL     1      -9.759  11.532  31.473  1.00  0.00    -0.195 NA
HETATM   39  N2  UNL     1     -10.692  12.191  32.250  1.00  0.00    -0.217 NA
HETATM   40  C3  UNL     1     -10.441  12.752  31.006  1.00  0.00     0.221 A 
HETATM   41  C2  UNL     1     -10.163  12.785  33.443  1.00  0.00     0.218 C 
HETATM   42  N1  UNL     1      -9.382  11.778  34.174  1.00  0.00    -0.221 NA
HETATM   43  C1  UNL     1     -10.372  10.807  34.644  1.00  0.00     0.133 C 
HETATM   44  N13 UNL     1      -8.421  11.186  33.373  1.00  0.00    -0.121 NA
ENDBRANCH  35  37
ENDBRANCH   1  35
BRANCH   4  45
HETATM   45  N6  UNL     1      -3.738  10.152  33.854  1.00  0.00    -0.234 N 
ATOM     46  H62 UNL     1      -2.860  10.564  33.539  1.00  0.00     0.174 HD
ATOM     47  H61 UNL     1      -3.916  10.067  34.855  1.00  0.00     0.174 HD
ENDBRANCH   4  45
TORSDOF 11
ENDMDL
