MODEL 1
REMARK VINA RESULT: -5.815532321      0.000      0.000
REMARK  15 active torsions:
REMARK  status: ('A' for Active; 'I' for Inactive)
REMARK    1  A    between atoms: C2_4  and  O1_5 
REMARK    2  A    between atoms: C2_4  and  C4_7 
REMARK    3  A    between atoms: C4_7  and  N2_8 
REMARK    4  A    between atoms: C4_7  and  C12_34 
REMARK       I    between atoms: N2_8  and  C5_10 
REMARK    5  A    between atoms: C5_10  and  C6_12 
REMARK    6  A    between atoms: C6_12  and  N3_13 
REMARK    7  A    between atoms: C6_12  and  C7_17 
REMARK    8  A    between atoms: C7_17  and  O3_18 
REMARK    9  A    between atoms: C7_17  and  N4_20 
REMARK   10  A    between atoms: N4_20  and  C8_22 
REMARK   11  A    between atoms: C9_26  and  C10_27 
REMARK   12  A    between atoms: C10_27  and  O5_28 
REMARK   13  A    between atoms: C10_27  and  O6_30 
REMARK   14  A    between atoms: C14_36  and  C15_37 
REMARK   15  A    between atoms: C20_42  and  N7_43 
ROOT
HETATM    1  N2  UNL     1     -10.192   9.950  31.688  1.00  0.00    -0.342 N 
ATOM      2  H2  UNL     1     -10.017  10.151  30.703  1.00  0.00     0.163 HD
HETATM    3  C5  UNL     1     -11.172   8.992  32.009  1.00  0.00     0.253 C 
HETATM    4  O2  UNL     1     -11.345   8.779  33.256  1.00  0.00    -0.271 OA
ENDROOT
BRANCH   1   5
HETATM    5  C4  UNL     1      -9.417  10.667  32.680  1.00  0.00     0.211 C 
BRANCH   5   6
HETATM    6  C2  UNL     1      -9.533  12.132  32.513  1.00  0.00     0.142 C 
HETATM    7  N1  UNL     1      -9.962  12.911  33.427  1.00  0.00    -0.377 N 
HETATM    8  C1  UNL     1     -10.395  12.515  34.739  1.00  0.00     0.148 C 
ATOM      9  H1  UNL     1     -10.002  13.906  33.207  1.00  0.00     0.160 HD
BRANCH   6  10
HETATM   10  O1  UNL     1      -9.159  12.704  31.307  1.00  0.00    -0.342 OA
HETATM   11  C3  UNL     1     -10.128  13.143  30.372  1.00  0.00     0.211 C 
ENDBRANCH   6  10
ENDBRANCH   5   6
BRANCH   5  12
HETATM   12  C12 UNL     1      -7.991  10.228  32.500  1.00  0.00     0.066 A 
HETATM   13  C13 UNL     1      -7.422   9.065  32.991  1.00  0.00     0.070 A 
HETATM   14  C14 UNL     1      -6.075   9.025  32.603  1.00  0.00     0.113 A 
HETATM   15  O9  UNL     1      -5.929  10.123  31.933  1.00  0.00    -0.237 OA
HETATM   16  N8  UNL     1      -6.995  10.838  31.849  1.00  0.00    -0.262 N 
ATOM     17  H8  UNL     1      -7.068  11.732  31.361  1.00  0.00     0.194 HD
BRANCH  14  18
HETATM   18  C15 UNL     1      -5.176   7.935  32.953  1.00  0.00     0.033 A 
HETATM   19  C16 UNL     1      -4.482   7.988  34.179  1.00  0.00     0.017 A 
HETATM   20  C17 UNL     1      -3.645   6.989  34.612  1.00  0.00     0.001 A 
HETATM   21  C18 UNL     1      -3.443   5.866  33.845  1.00  0.00     0.002 A 
HETATM   22  C19 UNL     1      -4.095   5.787  32.660  1.00  0.00     0.037 A 
HETATM   23  C20 UNL     1      -4.964   6.817  32.205  1.00  0.00     0.116 A 
BRANCH  23  24
HETATM   24  N7  UNL     1      -5.575   6.590  30.946  1.00  0.00    -0.115 N 
HETATM   25  O7  UNL     1      -4.906   6.912  29.893  1.00  0.00    -0.532 OA
HETATM   26  O8  UNL     1      -6.802   6.057  30.794  1.00  0.00    -0.532 OA
ENDBRANCH  23  24
ENDBRANCH  14  18
ENDBRANCH   5  12
ENDBRANCH   1   5
BRANCH   3  27
HETATM   27  C6  UNL     1     -11.986   8.239  31.033  1.00  0.00     0.322 C 
BRANCH  27  28
HETATM   28  N3  UNL     1     -12.336   9.124  29.933  1.00  0.00    -0.062 N 
ATOM     29  H33 UNL     1     -13.313   9.032  29.655  1.00  0.00     0.275 HD
ATOM     30  H32 UNL     1     -12.361  10.104  30.214  1.00  0.00     0.275 HD
ATOM     31  H31 UNL     1     -11.693   8.956  29.160  1.00  0.00     0.275 HD
ENDBRANCH  27  28
BRANCH  27  32
HETATM   32  C7  UNL     1     -11.136   7.073  30.502  1.00  0.00     0.259 C 
BRANCH  32  33
HETATM   33  O3  UNL     1     -11.974   5.956  30.487  1.00  0.00    -0.374 OA
ATOM     34  H3  UNL     1     -11.613   5.346  31.118  1.00  0.00     0.212 HD
ENDBRANCH  32  33
BRANCH  32  35
HETATM   35  N4  UNL     1     -10.704   7.284  29.162  1.00  0.00    -0.345 N 
ATOM     36  H4  UNL     1     -11.450   7.405  28.477  1.00  0.00     0.163 HD
BRANCH  35  37
HETATM   37  C8  UNL     1      -9.529   7.344  28.699  1.00  0.00     0.150 A 
HETATM   38  N5  UNL     1      -8.706   6.389  28.232  1.00  0.00    -0.243 N 
HETATM   39  O4  UNL     1      -7.576   6.912  27.862  1.00  0.00    -0.233 OA
ATOM     40  H5  UNL     1      -8.937   5.397  28.176  1.00  0.00     0.196 HD
HETATM   41  C9  UNL     1      -7.556   8.202  28.044  1.00  0.00     0.158 A 
HETATM   42  C11 UNL     1      -8.797   8.525  28.583  1.00  0.00     0.128 A 
HETATM   43  N6  UNL     1      -9.282   9.800  28.963  1.00  0.00    -0.095 NA
BRANCH  41  44
HETATM   44  C10 UNL     1      -6.471   9.178  27.757  1.00  0.00     0.317 C 
BRANCH  44  45
HETATM   45  O5  UNL     1      -5.925   9.720  28.918  1.00  0.00    -0.365 OA
ATOM     46  H5  UNL     1      -5.051  10.065  28.779  1.00  0.00     0.213 HD
ENDBRANCH  44  45
BRANCH  44  47
HETATM   47  O6  UNL     1      -6.838  10.137  26.824  1.00  0.00    -0.365 OA
ATOM     48  H6  UNL     1      -6.593  11.019  27.081  1.00  0.00     0.213 HD
ENDBRANCH  44  47
ENDBRANCH  41  44
ENDBRANCH  35  37
ENDBRANCH  32  35
ENDBRANCH  27  32
ENDBRANCH   3  27
TORSDOF 15
ENDMDL
MODEL 2
REMARK VINA RESULT: -5.627218538      1.731      2.648
REMARK  15 active torsions:
REMARK  status: ('A' for Active; 'I' for Inactive)
REMARK    1  A    between atoms: C2_4  and  O1_5 
REMARK    2  A    between atoms: C2_4  and  C4_7 
REMARK    3  A    between atoms: C4_7  and  N2_8 
REMARK    4  A    between atoms: C4_7  and  C12_34 
REMARK       I    between atoms: N2_8  and  C5_10 
REMARK    5  A    between atoms: C5_10  and  C6_12 
REMARK    6  A    between atoms: C6_12  and  N3_13 
REMARK    7  A    between atoms: C6_12  and  C7_17 
REMARK    8  A    between atoms: C7_17  and  O3_18 
REMARK    9  A    between atoms: C7_17  and  N4_20 
REMARK   10  A    between atoms: N4_20  and  C8_22 
REMARK   11  A    between atoms: C9_26  and  C10_27 
REMARK   12  A    between atoms: C10_27  and  O5_28 
REMARK   13  A    between atoms: C10_27  and  O6_30 
REMARK   14  A    between atoms: C14_36  and  C15_37 
REMARK   15  A    between atoms: C20_42  and  N7_43 
ROOT
HETATM    1  N2  UNL     1      -9.192   9.857  32.231  1.00  0.00    -0.342 N 
ATOM      2  H2  UNL     1      -9.133   9.166  31.483  1.00  0.00     0.163 HD
HETATM    3  C5  UNL     1     -10.175   9.681  33.223  1.00  0.00     0.253 C 
HETATM    4  O2  UNL     1     -10.201  10.574  34.136  1.00  0.00    -0.271 OA
ENDROOT
BRANCH   1   5
HETATM    5  C4  UNL     1      -8.261  10.966  32.214  1.00  0.00     0.211 C 
BRANCH   5   6
HETATM    6  C2  UNL     1      -8.253  11.657  30.907  1.00  0.00     0.142 C 
HETATM    7  N1  UNL     1      -9.161  12.475  30.540  1.00  0.00    -0.377 N 
HETATM    8  C1  UNL     1     -10.313  12.858  31.309  1.00  0.00     0.148 C 
ATOM      9  H1  UNL     1      -9.059  12.896  29.616  1.00  0.00     0.160 HD
BRANCH   6  10
HETATM   10  O1  UNL     1      -7.214  11.415  30.023  1.00  0.00    -0.342 OA
HETATM   11  C3  UNL     1      -6.569  12.474  29.340  1.00  0.00     0.211 C 
ENDBRANCH   6  10
ENDBRANCH   5   6
BRANCH   5  12
HETATM   12  C12 UNL     1      -6.907  10.384  32.509  1.00  0.00     0.066 A 
HETATM   13  C13 UNL     1      -6.603   9.041  32.648  1.00  0.00     0.070 A 
HETATM   14  C14 UNL     1      -5.232   8.914  32.915  1.00  0.00     0.113 A 
HETATM   15  O9  UNL     1      -4.819  10.141  32.920  1.00  0.00    -0.237 OA
HETATM   16  N8  UNL     1      -5.740  11.011  32.693  1.00  0.00    -0.262 N 
ATOM     17  H8  UNL     1      -5.600  12.021  32.659  1.00  0.00     0.194 HD
BRANCH  14  18
HETATM   18  C15 UNL     1      -4.573   7.632  33.118  1.00  0.00     0.033 A 
HETATM   19  C16 UNL     1      -3.850   7.416  34.309  1.00  0.00     0.017 A 
HETATM   20  C17 UNL     1      -3.230   6.227  34.606  1.00  0.00     0.001 A 
HETATM   21  C18 UNL     1      -3.290   5.171  33.729  1.00  0.00     0.002 A 
HETATM   22  C19 UNL     1      -3.977   5.348  32.574  1.00  0.00     0.037 A 
HETATM   23  C20 UNL     1      -4.621   6.576  32.259  1.00  0.00     0.116 A 
BRANCH  23  24
HETATM   24  N7  UNL     1      -5.301   6.609  31.015  1.00  0.00    -0.115 N 
HETATM   25  O7  UNL     1      -6.436   6.005  30.942  1.00  0.00    -0.532 OA
HETATM   26  O8  UNL     1      -4.830   7.235  29.920  1.00  0.00    -0.532 OA
ENDBRANCH  23  24
ENDBRANCH  14  18
ENDBRANCH   5  12
ENDBRANCH   1   5
BRANCH   3  27
HETATM   27  C6  UNL     1     -11.146   8.569  33.280  1.00  0.00     0.322 C 
BRANCH  27  28
HETATM   28  N3  UNL     1     -11.458   8.292  34.674  1.00  0.00    -0.062 N 
ATOM     29  H33 UNL     1     -11.834   7.353  34.810  1.00  0.00     0.275 HD
ATOM     30  H32 UNL     1     -10.621   8.192  35.249  1.00  0.00     0.275 HD
ATOM     31  H31 UNL     1     -12.085   9.017  35.020  1.00  0.00     0.275 HD
ENDBRANCH  27  28
BRANCH  27  32
HETATM   32  C7  UNL     1     -12.422   9.012  32.548  1.00  0.00     0.259 C 
BRANCH  32  33
HETATM   33  O3  UNL     1     -12.446  10.407  32.617  1.00  0.00    -0.374 OA
ATOM     34  H3  UNL     1     -12.899  10.702  31.836  1.00  0.00     0.212 HD
ENDBRANCH  32  33
BRANCH  32  35
HETATM   35  N4  UNL     1     -12.401   8.667  31.166  1.00  0.00    -0.345 N 
ATOM     36  H4  UNL     1     -13.031   9.206  30.572  1.00  0.00     0.163 HD
BRANCH  35  37
HETATM   37  C8  UNL     1     -11.714   7.789  30.570  1.00  0.00     0.150 A 
HETATM   38  N5  UNL     1     -11.770   6.446  30.594  1.00  0.00    -0.243 N 
HETATM   39  O4  UNL     1     -10.854   5.944  29.823  1.00  0.00    -0.233 OA
ATOM     40  H5  UNL     1     -12.437   5.900  31.141  1.00  0.00     0.196 HD
HETATM   41  C9  UNL     1     -10.144   6.872  29.246  1.00  0.00     0.158 A 
HETATM   42  C11 UNL     1     -10.664   8.080  29.700  1.00  0.00     0.128 A 
HETATM   43  N6  UNL     1     -10.246   9.392  29.372  1.00  0.00    -0.095 NA
BRANCH  41  44
HETATM   44  C10 UNL     1      -9.008   6.737  28.295  1.00  0.00     0.317 C 
BRANCH  44  45
HETATM   45  O5  UNL     1      -8.815   5.421  27.885  1.00  0.00    -0.365 OA
ATOM     46  H5  UNL     1      -8.469   5.364  27.002  1.00  0.00     0.213 HD
ENDBRANCH  44  45
BRANCH  44  47
HETATM   47  O6  UNL     1      -7.848   7.348  28.747  1.00  0.00    -0.365 OA
ATOM     48  H6  UNL     1      -8.016   8.122  29.273  1.00  0.00     0.213 HD
ENDBRANCH  44  47
ENDBRANCH  41  44
ENDBRANCH  35  37
ENDBRANCH  32  35
ENDBRANCH  27  32
ENDBRANCH   3  27
TORSDOF 15
ENDMDL
MODEL 3
REMARK VINA RESULT: -5.624970046      1.504      2.302
REMARK  15 active torsions:
REMARK  status: ('A' for Active; 'I' for Inactive)
REMARK    1  A    between atoms: C2_4  and  O1_5 
REMARK    2  A    between atoms: C2_4  and  C4_7 
REMARK    3  A    between atoms: C4_7  and  N2_8 
REMARK    4  A    between atoms: C4_7  and  C12_34 
REMARK       I    between atoms: N2_8  and  C5_10 
REMARK    5  A    between atoms: C5_10  and  C6_12 
REMARK    6  A    between atoms: C6_12  and  N3_13 
REMARK    7  A    between atoms: C6_12  and  C7_17 
REMARK    8  A    between atoms: C7_17  and  O3_18 
REMARK    9  A    between atoms: C7_17  and  N4_20 
REMARK   10  A    between atoms: N4_20  and  C8_22 
REMARK   11  A    between atoms: C9_26  and  C10_27 
REMARK   12  A    between atoms: C10_27  and  O5_28 
REMARK   13  A    between atoms: C10_27  and  O6_30 
REMARK   14  A    between atoms: C14_36  and  C15_37 
REMARK   15  A    between atoms: C20_42  and  N7_43 
ROOT
HETATM    1  N2  UNL     1     -10.808   9.587  33.020  1.00  0.00    -0.342 N 
ATOM      2  H2  UNL     1     -10.584   9.052  32.180  1.00  0.00     0.163 HD
HETATM    3  C5  UNL     1     -12.059   9.378  33.628  1.00  0.00     0.253 C 
HETATM    4  O2  UNL     1     -12.284  10.071  34.677  1.00  0.00    -0.271 OA
ENDROOT
BRANCH   1   5
HETATM    5  C4  UNL     1      -9.820  10.520  33.520  1.00  0.00     0.211 C 
BRANCH   5   6
HETATM    6  C2  UNL     1     -10.099  11.904  33.081  1.00  0.00     0.142 C 
HETATM    7  N1  UNL     1      -9.868  12.930  33.803  1.00  0.00    -0.377 N 
HETATM    8  C1  UNL     1      -9.312  12.922  35.128  1.00  0.00     0.148 C 
ATOM      9  H1  UNL     1     -10.100  13.840  33.404  1.00  0.00     0.160 HD
BRANCH   6  10
HETATM   10  O1  UNL     1     -10.640  12.115  31.823  1.00  0.00    -0.342 OA
HETATM   11  C3  UNL     1      -9.987  12.934  30.870  1.00  0.00     0.211 C 
ENDBRANCH   6  10
ENDBRANCH   5   6
BRANCH   5  12
HETATM   12  C12 UNL     1      -8.493  10.057  32.986  1.00  0.00     0.066 A 
HETATM   13  C13 UNL     1      -7.767   8.963  33.427  1.00  0.00     0.070 A 
HETATM   14  C14 UNL     1      -6.590   8.869  32.671  1.00  0.00     0.113 A 
HETATM   15  O9  UNL     1      -6.682   9.874  31.859  1.00  0.00    -0.237 OA
HETATM   16  N8  UNL     1      -7.750  10.577  32.003  1.00  0.00    -0.262 N 
ATOM     17  H8  UNL     1      -7.991  11.402  31.454  1.00  0.00     0.194 HD
BRANCH  14  18
HETATM   18  C15 UNL     1      -5.592   7.829  32.873  1.00  0.00     0.033 A 
HETATM   19  C16 UNL     1      -4.777   7.877  34.023  1.00  0.00     0.017 A 
HETATM   20  C17 UNL     1      -3.838   6.920  34.317  1.00  0.00     0.001 A 
HETATM   21  C18 UNL     1      -3.648   5.847  33.479  1.00  0.00     0.002 A 
HETATM   22  C19 UNL     1      -4.416   5.774  32.365  1.00  0.00     0.037 A 
HETATM   23  C20 UNL     1      -5.390   6.761  32.053  1.00  0.00     0.116 A 
BRANCH  23  24
HETATM   24  N7  UNL     1      -6.116   6.547  30.854  1.00  0.00    -0.115 N 
HETATM   25  O7  UNL     1      -5.660   7.089  29.778  1.00  0.00    -0.532 OA
HETATM   26  O8  UNL     1      -7.241   5.810  30.780  1.00  0.00    -0.532 OA
ENDBRANCH  23  24
ENDBRANCH  14  18
ENDBRANCH   5  12
ENDBRANCH   1   5
BRANCH   3  27
HETATM   27  C6  UNL     1     -13.097   8.440  33.154  1.00  0.00     0.322 C 
BRANCH  27  28
HETATM   28  N3  UNL     1     -14.090   8.270  34.203  1.00  0.00    -0.062 N 
ATOM     29  H33 UNL     1     -14.837   7.629  33.934  1.00  0.00     0.275 HD
ATOM     30  H32 UNL     1     -13.730   7.741  34.997  1.00  0.00     0.275 HD
ATOM     31  H31 UNL     1     -14.442   9.188  34.474  1.00  0.00     0.275 HD
ENDBRANCH  27  28
BRANCH  27  32
HETATM   32  C7  UNL     1     -13.765   9.055  31.913  1.00  0.00     0.259 C 
BRANCH  32  33
HETATM   33  O3  UNL     1     -13.216  10.332  31.769  1.00  0.00    -0.374 OA
ATOM     34  H3  UNL     1     -13.745  10.775  31.117  1.00  0.00     0.212 HD
ENDBRANCH  32  33
BRANCH  32  35
HETATM   35  N4  UNL     1     -13.459   8.337  30.721  1.00  0.00    -0.345 N 
ATOM     36  H4  UNL     1     -14.226   8.253  30.054  1.00  0.00     0.163 HD
BRANCH  35  37
HETATM   37  C8  UNL     1     -12.374   7.790  30.372  1.00  0.00     0.150 A 
HETATM   38  N5  UNL     1     -11.915   6.538  30.537  1.00  0.00    -0.243 N 
HETATM   39  O4  UNL     1     -10.730   6.422  30.018  1.00  0.00    -0.233 OA
ATOM     40  H5  UNL     1     -12.423   5.787  31.004  1.00  0.00     0.196 HD
HETATM   41  C9  UNL     1     -10.323   7.540  29.486  1.00  0.00     0.158 A 
HETATM   42  C11 UNL     1     -11.353   8.452  29.691  1.00  0.00     0.128 A 
HETATM   43  N6  UNL     1     -11.409   9.812  29.303  1.00  0.00    -0.095 NA
BRANCH  41  44
HETATM   44  C10 UNL     1      -9.042   7.842  28.791  1.00  0.00     0.317 C 
BRANCH  44  45
HETATM   45  O5  UNL     1      -8.408   6.694  28.325  1.00  0.00    -0.365 OA
ATOM     46  H5  UNL     1      -7.759   6.366  28.937  1.00  0.00     0.213 HD
ENDBRANCH  44  45
BRANCH  44  47
HETATM   47  O6  UNL     1      -8.208   8.669  29.531  1.00  0.00    -0.365 OA
ATOM     48  H6  UNL     1      -7.293   8.415  29.479  1.00  0.00     0.213 HD
ENDBRANCH  44  47
ENDBRANCH  41  44
ENDBRANCH  35  37
ENDBRANCH  32  35
ENDBRANCH  27  32
ENDBRANCH   3  27
TORSDOF 15
ENDMDL
MODEL 4
REMARK VINA RESULT: -5.533549626      1.243      1.619
REMARK  15 active torsions:
REMARK  status: ('A' for Active; 'I' for Inactive)
REMARK    1  A    between atoms: C2_4  and  O1_5 
REMARK    2  A    between atoms: C2_4  and  C4_7 
REMARK    3  A    between atoms: C4_7  and  N2_8 
REMARK    4  A    between atoms: C4_7  and  C12_34 
REMARK       I    between atoms: N2_8  and  C5_10 
REMARK    5  A    between atoms: C5_10  and  C6_12 
REMARK    6  A    between atoms: C6_12  and  N3_13 
REMARK    7  A    between atoms: C6_12  and  C7_17 
REMARK    8  A    between atoms: C7_17  and  O3_18 
REMARK    9  A    between atoms: C7_17  and  N4_20 
REMARK   10  A    between atoms: N4_20  and  C8_22 
REMARK   11  A    between atoms: C9_26  and  C10_27 
REMARK   12  A    between atoms: C10_27  and  O5_28 
REMARK   13  A    between atoms: C10_27  and  O6_30 
REMARK   14  A    between atoms: C14_36  and  C15_37 
REMARK   15  A    between atoms: C20_42  and  N7_43 
ROOT
HETATM    1  N2  UNL     1      -9.807   9.232  32.163  1.00  0.00    -0.342 N 
ATOM      2  H2  UNL     1      -9.381   8.640  31.449  1.00  0.00     0.163 HD
HETATM    3  C5  UNL     1     -11.187   9.097  32.403  1.00  0.00     0.253 C 
HETATM    4  O2  UNL     1     -11.665   9.860  33.309  1.00  0.00    -0.271 OA
ENDROOT
BRANCH   1   5
HETATM    5  C4  UNL     1      -8.957  10.164  32.875  1.00  0.00     0.211 C 
BRANCH   5   6
HETATM    6  C2  UNL     1      -9.163  11.555  32.415  1.00  0.00     0.142 C 
HETATM    7  N1  UNL     1      -9.262  12.549  33.209  1.00  0.00    -0.377 N 
HETATM    8  C1  UNL     1      -9.192  12.495  34.643  1.00  0.00     0.148 C 
ATOM      9  H1  UNL     1      -9.404  13.467  32.786  1.00  0.00     0.160 HD
BRANCH   6  10
HETATM   10  O1  UNL     1      -9.255  11.808  31.056  1.00  0.00    -0.342 OA
HETATM   11  C3  UNL     1      -9.864  12.991  30.570  1.00  0.00     0.211 C 
ENDBRANCH   6  10
ENDBRANCH   5   6
BRANCH   5  12
HETATM   12  C12 UNL     1      -7.543   9.729  32.617  1.00  0.00     0.066 A 
HETATM   13  C13 UNL     1      -6.931   8.590  33.111  1.00  0.00     0.070 A 
HETATM   14  C14 UNL     1      -5.612   8.543  32.637  1.00  0.00     0.113 A 
HETATM   15  O9  UNL     1      -5.522   9.616  31.917  1.00  0.00    -0.237 OA
HETATM   16  N8  UNL     1      -6.598  10.321  31.878  1.00  0.00    -0.262 N 
ATOM     17  H8  UNL     1      -6.712  11.194  31.363  1.00  0.00     0.194 HD
BRANCH  14  18
HETATM   18  C15 UNL     1      -4.682   7.474  32.966  1.00  0.00     0.033 A 
HETATM   19  C16 UNL     1      -4.068   7.468  34.236  1.00  0.00     0.017 A 
HETATM   20  C17 UNL     1      -3.209   6.481  34.650  1.00  0.00     0.001 A 
HETATM   21  C18 UNL     1      -2.902   5.428  33.820  1.00  0.00     0.002 A 
HETATM   22  C19 UNL     1      -3.476   5.407  32.593  1.00  0.00     0.037 A 
HETATM   23  C20 UNL     1      -4.366   6.426  32.156  1.00  0.00     0.116 A 
BRANCH  23  24
HETATM   24  N7  UNL     1      -4.886   6.265  30.847  1.00  0.00    -0.115 N 
HETATM   25  O7  UNL     1      -4.149   6.649  29.863  1.00  0.00    -0.532 OA
HETATM   26  O8  UNL     1      -6.094   5.733  30.580  1.00  0.00    -0.532 OA
ENDBRANCH  23  24
ENDBRANCH  14  18
ENDBRANCH   5  12
ENDBRANCH   1   5
BRANCH   3  27
HETATM   27  C6  UNL     1     -12.091   8.163  31.702  1.00  0.00     0.322 C 
BRANCH  27  28
HETATM   28  N3  UNL     1     -13.337   8.069  32.447  1.00  0.00    -0.062 N 
ATOM     29  H33 UNL     1     -13.512   8.895  33.021  1.00  0.00     0.275 HD
ATOM     30  H32 UNL     1     -14.158   8.139  31.846  1.00  0.00     0.275 HD
ATOM     31  H31 UNL     1     -13.328   7.209  32.995  1.00  0.00     0.275 HD
ENDBRANCH  27  28
BRANCH  27  32
HETATM   32  C7  UNL     1     -12.374   8.732  30.302  1.00  0.00     0.259 C 
BRANCH  32  33
HETATM   33  O3  UNL     1     -11.850  10.027  30.296  1.00  0.00    -0.374 OA
ATOM     34  H3  UNL     1     -12.001  10.369  29.423  1.00  0.00     0.212 HD
ENDBRANCH  32  33
BRANCH  32  35
HETATM   35  N4  UNL     1     -11.700   8.008  29.277  1.00  0.00    -0.345 N 
ATOM     36  H4  UNL     1     -12.142   7.132  28.999  1.00  0.00     0.163 HD
BRANCH  35  37
HETATM   37  C8  UNL     1     -10.634   8.297  28.662  1.00  0.00     0.150 A 
HETATM   38  N5  UNL     1     -10.407   9.071  27.587  1.00  0.00    -0.243 N 
HETATM   39  O4  UNL     1      -9.142   9.073  27.294  1.00  0.00    -0.233 OA
ATOM     40  H5  UNL     1     -11.126   9.584  27.076  1.00  0.00     0.196 HD
HETATM   41  C9  UNL     1      -8.453   8.332  28.115  1.00  0.00     0.158 A 
HETATM   42  C11 UNL     1      -9.376   7.810  29.015  1.00  0.00     0.128 A 
HETATM   43  N6  UNL     1      -9.139   6.941  30.108  1.00  0.00    -0.095 NA
BRANCH  41  44
HETATM   44  C10 UNL     1      -6.990   8.060  28.139  1.00  0.00     0.317 C 
BRANCH  44  45
HETATM   45  O5  UNL     1      -6.699   6.712  27.948  1.00  0.00    -0.365 OA
ATOM     46  H5  UNL     1      -7.127   6.356  27.178  1.00  0.00     0.213 HD
ENDBRANCH  44  45
BRANCH  44  47
HETATM   47  O6  UNL     1      -6.357   8.607  29.246  1.00  0.00    -0.365 OA
ATOM     48  H6  UNL     1      -5.480   8.266  29.378  1.00  0.00     0.213 HD
ENDBRANCH  44  47
ENDBRANCH  41  44
ENDBRANCH  35  37
ENDBRANCH  32  35
ENDBRANCH  27  32
ENDBRANCH   3  27
TORSDOF 15
ENDMDL
MODEL 5
REMARK VINA RESULT: -5.490055246      2.662      7.422
REMARK  15 active torsions:
REMARK  status: ('A' for Active; 'I' for Inactive)
REMARK    1  A    between atoms: C2_4  and  O1_5 
REMARK    2  A    between atoms: C2_4  and  C4_7 
REMARK    3  A    between atoms: C4_7  and  N2_8 
REMARK    4  A    between atoms: C4_7  and  C12_34 
REMARK       I    between atoms: N2_8  and  C5_10 
REMARK    5  A    between atoms: C5_10  and  C6_12 
REMARK    6  A    between atoms: C6_12  and  N3_13 
REMARK    7  A    between atoms: C6_12  and  C7_17 
REMARK    8  A    between atoms: C7_17  and  O3_18 
REMARK    9  A    between atoms: C7_17  and  N4_20 
REMARK   10  A    between atoms: N4_20  and  C8_22 
REMARK   11  A    between atoms: C9_26  and  C10_27 
REMARK   12  A    between atoms: C10_27  and  O5_28 
REMARK   13  A    between atoms: C10_27  and  O6_30 
REMARK   14  A    between atoms: C14_36  and  C15_37 
REMARK   15  A    between atoms: C20_42  and  N7_43 
ROOT
HETATM    1  N2  UNL     1      -8.407   8.303  30.141  1.00  0.00    -0.342 N 
ATOM      2  H2  UNL     1      -8.780   9.137  29.686  1.00  0.00     0.163 HD
HETATM    3  C5  UNL     1      -7.228   8.429  30.899  1.00  0.00     0.253 C 
HETATM    4  O2  UNL     1      -6.810   7.355  31.448  1.00  0.00    -0.271 OA
ENDROOT
BRANCH   1   5
HETATM    5  C4  UNL     1      -9.121   7.054  29.972  1.00  0.00     0.211 C 
BRANCH   5   6
HETATM    6  C2  UNL     1      -9.096   6.593  28.567  1.00  0.00     0.142 C 
HETATM    7  N1  UNL     1      -8.193   5.826  28.096  1.00  0.00    -0.377 N 
HETATM    8  C1  UNL     1      -7.076   5.291  28.823  1.00  0.00     0.148 C 
ATOM      9  H1  UNL     1      -8.270   5.570  27.111  1.00  0.00     0.160 HD
BRANCH   6  10
HETATM   10  O1  UNL     1     -10.099   7.007  27.705  1.00  0.00    -0.342 OA
HETATM   11  C3  UNL     1      -9.929   8.139  26.871  1.00  0.00     0.211 C 
ENDBRANCH   6  10
ENDBRANCH   5   6
BRANCH   5  12
HETATM   12  C12 UNL     1     -10.533   7.311  30.416  1.00  0.00     0.066 A 
HETATM   13  C13 UNL     1     -11.010   8.468  31.010  1.00  0.00     0.070 A 
HETATM   14  C14 UNL     1     -12.379   8.311  31.268  1.00  0.00     0.113 A 
HETATM   15  O9  UNL     1     -12.625   7.117  30.831  1.00  0.00    -0.237 OA
HETATM   16  N8  UNL     1     -11.603   6.512  30.337  1.00  0.00    -0.262 N 
ATOM     17  H8  UNL     1     -11.607   5.569  29.947  1.00  0.00     0.194 HD
BRANCH  14  18
HETATM   18  C15 UNL     1     -13.197   9.341  31.890  1.00  0.00     0.033 A 
HETATM   19  C16 UNL     1     -12.728   9.974  33.059  1.00  0.00     0.017 A 
HETATM   20  C17 UNL     1     -13.411  10.983  33.693  1.00  0.00     0.001 A 
HETATM   21  C18 UNL     1     -14.614  11.428  33.201  1.00  0.00     0.002 A 
HETATM   22  C19 UNL     1     -15.092  10.838  32.078  1.00  0.00     0.037 A 
HETATM   23  C20 UNL     1     -14.391   9.792  31.416  1.00  0.00     0.116 A 
BRANCH  23  24
HETATM   24  N7  UNL     1     -15.018   9.276  30.254  1.00  0.00    -0.115 N 
HETATM   25  O7  UNL     1     -15.774   8.243  30.395  1.00  0.00    -0.532 OA
HETATM   26  O8  UNL     1     -14.870   9.805  29.025  1.00  0.00    -0.532 OA
ENDBRANCH  23  24
ENDBRANCH  14  18
ENDBRANCH   5  12
ENDBRANCH   1   5
BRANCH   3  27
HETATM   27  C6  UNL     1      -6.466   9.679  31.098  1.00  0.00     0.322 C 
BRANCH  27  28
HETATM   28  N3  UNL     1      -6.341  10.359  29.818  1.00  0.00    -0.062 N 
ATOM     29  H33 UNL     1      -6.724   9.813  29.047  1.00  0.00     0.275 HD
ATOM     30  H32 UNL     1      -6.962  11.165  29.742  1.00  0.00     0.275 HD
ATOM     31  H31 UNL     1      -5.362  10.607  29.673  1.00  0.00     0.275 HD
ENDBRANCH  27  28
BRANCH  27  32
HETATM   32  C7  UNL     1      -7.254  10.567  32.075  1.00  0.00     0.259 C 
BRANCH  32  33
HETATM   33  O3  UNL     1      -6.326  11.043  33.003  1.00  0.00    -0.374 OA
ATOM     34  H3  UNL     1      -6.543  10.631  33.830  1.00  0.00     0.212 HD
ENDBRANCH  32  33
BRANCH  32  35
HETATM   35  N4  UNL     1      -7.820  11.707  31.435  1.00  0.00    -0.345 N 
ATOM     36  H4  UNL     1      -7.147  12.377  31.062  1.00  0.00     0.163 HD
BRANCH  35  37
HETATM   37  C8  UNL     1      -9.036  12.007  31.262  1.00  0.00     0.150 A 
HETATM   38  N5  UNL     1      -9.925  12.618  32.063  1.00  0.00    -0.243 N 
HETATM   39  O4  UNL     1     -11.076  12.711  31.469  1.00  0.00    -0.233 OA
ATOM     40  H5  UNL     1      -9.724  12.960  33.003  1.00  0.00     0.196 HD
HETATM   41  C9  UNL     1     -11.048  12.192  30.274  1.00  0.00     0.158 A 
HETATM   42  C11 UNL     1      -9.749  11.724  30.098  1.00  0.00     0.128 A 
HETATM   43  N6  UNL     1      -9.199  11.075  28.966  1.00  0.00    -0.095 NA
BRANCH  41  44
HETATM   44  C10 UNL     1     -12.135  12.090  29.264  1.00  0.00     0.317 C 
BRANCH  44  45
HETATM   45  O5  UNL     1     -13.350  12.572  29.744  1.00  0.00    -0.365 OA
ATOM     46  H5  UNL     1     -13.331  13.509  29.898  1.00  0.00     0.213 HD
ENDBRANCH  44  45
BRANCH  44  47
HETATM   47  O6  UNL     1     -12.231  10.827  28.697  1.00  0.00    -0.365 OA
ATOM     48  H6  UNL     1     -11.523  10.637  28.092  1.00  0.00     0.213 HD
ENDBRANCH  44  47
ENDBRANCH  41  44
ENDBRANCH  35  37
ENDBRANCH  32  35
ENDBRANCH  27  32
ENDBRANCH   3  27
TORSDOF 15
ENDMDL
