MODEL 1
REMARK VINA RESULT: -8.287388142      0.000      0.000
REMARK  11 active torsions:
REMARK  status: ('A' for Active; 'I' for Inactive)
REMARK    1  A    between atoms: O1_2  and  C2_3 
REMARK    2  A    between atoms: C2_3  and  C3_7 
REMARK    3  A    between atoms: C4_9  and  N2_10 
REMARK    4  A    between atoms: N2_10  and  N3_12 
REMARK    5  A    between atoms: N3_12  and  C5_14 
REMARK    6  A    between atoms: C8_17  and  N4_18 
REMARK    7  A    between atoms: C10_22  and  N5_23 
REMARK    8  A    between atoms: C11_26  and  C12_27 
REMARK       I    between atoms: C12_27  and  N6_29 
REMARK    9  A    between atoms: N6_29  and  N7_31 
REMARK       I    between atoms: N7_31  and  C13_33 
REMARK   10  A    between atoms: C13_33  and  C14_35 
REMARK   11  A    between atoms: C14_35  and  N8_36 
ROOT
HETATM    1  C3  UNL     1      46.100 -48.050  74.853  1.00  0.00     0.082 A 
HETATM    2  S1  UNL     1      46.573 -49.245  76.015  1.00  0.00    -0.064 SA
HETATM    3  C4  UNL     1      47.195 -50.406  74.961  1.00  0.00     0.107 A 
HETATM    4  C11 UNL     1      47.026 -49.849  73.708  1.00  0.00     0.094 A 
HETATM    5  C15 UNL     1      46.460 -48.635  73.677  1.00  0.00     0.086 A 
HETATM    6  N9  UNL     1      46.210 -47.902  72.445  1.00  0.00    -0.100 NA
ENDROOT
BRANCH   3   7
HETATM    7  N2  UNL     1      47.760 -51.683  75.323  1.00  0.00    -0.292 N 
ATOM      8  H2  UNL     1      47.162 -52.477  75.552  1.00  0.00     0.187 HD
BRANCH   7   9
HETATM    9  N3  UNL     1      49.111 -51.794  75.347  1.00  0.00    -0.297 N 
ATOM     10  H3  UNL     1      49.444 -52.480  74.669  1.00  0.00     0.187 HD
BRANCH   9  11
HETATM   11  C5  UNL     1      50.165 -51.219  76.053  1.00  0.00     0.081 A 
HETATM   12  C6  UNL     1      50.696 -52.016  77.105  1.00  0.00     0.036 A 
HETATM   13  C7  UNL     1      51.748 -51.648  77.862  1.00  0.00     0.038 A 
HETATM   14  C8  UNL     1      52.342 -50.438  77.605  1.00  0.00     0.105 A 
HETATM   15  C9  UNL     1      51.856 -49.651  76.601  1.00  0.00     0.074 A 
HETATM   16  C10 UNL     1      50.740 -50.019  75.785  1.00  0.00     0.133 A 
BRANCH  14  17
HETATM   17  N4  UNL     1      53.454 -50.039  78.405  1.00  0.00    -0.116 N 
HETATM   18  O2  UNL     1      54.011 -48.942  78.184  1.00  0.00    -0.532 OA
HETATM   19  O3  UNL     1      53.937 -50.816  79.412  1.00  0.00    -0.532 OA
ENDBRANCH  14  17
BRANCH  16  20
HETATM   20  N5  UNL     1      50.408 -49.110  74.784  1.00  0.00    -0.113 N 
HETATM   21  O4  UNL     1      50.606 -49.537  73.584  1.00  0.00    -0.532 OA
HETATM   22  O5  UNL     1      49.903 -47.892  74.863  1.00  0.00    -0.532 OA
ENDBRANCH  16  20
ENDBRANCH   9  11
ENDBRANCH   7   9
ENDBRANCH   3   7
BRANCH   4  23
HETATM   23  C12 UNL     1      47.462 -50.635  72.529  1.00  0.00     0.274 C 
HETATM   24  O6  UNL     1      46.899 -51.766  72.271  1.00  0.00    -0.266 OA
HETATM   25  N6  UNL     1      48.460 -50.284  71.618  1.00  0.00    -0.263 N 
ATOM     26  H6  UNL     1      48.982 -49.412  71.713  1.00  0.00     0.190 HD
BRANCH  25  27
HETATM   27  N7  UNL     1      48.721 -51.192  70.550  1.00  0.00    -0.266 N 
HETATM   28  C13 UNL     1      48.603 -50.728  69.224  1.00  0.00     0.261 C 
HETATM   29  O7  UNL     1      48.276 -49.548  68.986  1.00  0.00    -0.270 OA
ATOM     30  H7  UNL     1      48.988 -52.158  70.741  1.00  0.00     0.190 HD
BRANCH  28  31
HETATM   31  C14 UNL     1      48.881 -51.698  68.118  1.00  0.00     0.333 C 
BRANCH  31  32
HETATM   32  N8  UNL     1      47.965 -51.466  67.000  1.00  0.00    -0.071 N 
ATOM     33  H83 UNL     1      47.000 -51.365  67.314  1.00  0.00     0.274 HD
ATOM     34  H82 UNL     1      48.088 -50.539  66.593  1.00  0.00     0.274 HD
ATOM     35  H81 UNL     1      48.066 -52.206  66.305  1.00  0.00     0.274 HD
ENDBRANCH  31  32
ENDBRANCH  28  31
ENDBRANCH  25  27
ENDBRANCH   4  23
BRANCH   1  36
HETATM   36  C2  UNL     1      45.464 -46.750  75.149  1.00  0.00     0.154 C 
HETATM   37  N1  UNL     1      45.957 -45.788  75.779  1.00  0.00    -0.379 N 
ATOM     38  H12 UNL     1      45.518 -44.890  75.983  1.00  0.00     0.158 HD
ATOM     39  H11 UNL     1      46.907 -45.916  76.127  1.00  0.00     0.158 HD
BRANCH  36  40
HETATM   40  O1  UNL     1      44.149 -46.571  74.667  1.00  0.00    -0.340 OA
HETATM   41  C1  UNL     1      43.177 -47.499  75.098  1.00  0.00     0.211 C 
ENDBRANCH  36  40
ENDBRANCH   1  36
TORSDOF 11
ENDMDL
MODEL 2
REMARK VINA RESULT: -7.691141640      2.500      5.657
REMARK  11 active torsions:
REMARK  status: ('A' for Active; 'I' for Inactive)
REMARK    1  A    between atoms: O1_2  and  C2_3 
REMARK    2  A    between atoms: C2_3  and  C3_7 
REMARK    3  A    between atoms: C4_9  and  N2_10 
REMARK    4  A    between atoms: N2_10  and  N3_12 
REMARK    5  A    between atoms: N3_12  and  C5_14 
REMARK    6  A    between atoms: C8_17  and  N4_18 
REMARK    7  A    between atoms: C10_22  and  N5_23 
REMARK    8  A    between atoms: C11_26  and  C12_27 
REMARK       I    between atoms: C12_27  and  N6_29 
REMARK    9  A    between atoms: N6_29  and  N7_31 
REMARK       I    between atoms: N7_31  and  C13_33 
REMARK   10  A    between atoms: C13_33  and  C14_35 
REMARK   11  A    between atoms: C14_35  and  N8_36 
ROOT
HETATM    1  C3  UNL     1      48.481 -50.914  72.132  1.00  0.00     0.082 A 
HETATM    2  S1  UNL     1      49.555 -49.832  72.957  1.00  0.00    -0.064 SA
HETATM    3  C4  UNL     1      48.607 -49.501  74.312  1.00  0.00     0.107 A 
HETATM    4  C11 UNL     1      47.456 -50.239  74.107  1.00  0.00     0.094 A 
HETATM    5  C15 UNL     1      47.414 -50.959  72.978  1.00  0.00     0.086 A 
HETATM    6  N9  UNL     1      46.282 -51.794  72.605  1.00  0.00    -0.100 NA
ENDROOT
BRANCH   3   7
HETATM    7  N2  UNL     1      48.950 -48.633  75.412  1.00  0.00    -0.292 N 
ATOM      8  H2  UNL     1      48.862 -47.620  75.330  1.00  0.00     0.187 HD
BRANCH   7   9
HETATM    9  N3  UNL     1      49.392 -49.207  76.558  1.00  0.00    -0.297 N 
ATOM     10  H3  UNL     1      48.895 -48.848  77.374  1.00  0.00     0.187 HD
BRANCH   9  11
HETATM   11  C5  UNL     1      50.345 -50.158  76.917  1.00  0.00     0.081 A 
HETATM   12  C6  UNL     1      49.863 -51.493  77.010  1.00  0.00     0.036 A 
HETATM   13  C7  UNL     1      50.648 -52.551  77.294  1.00  0.00     0.038 A 
HETATM   14  C8  UNL     1      51.985 -52.329  77.505  1.00  0.00     0.105 A 
HETATM   15  C9  UNL     1      52.478 -51.059  77.423  1.00  0.00     0.074 A 
HETATM   16  C10 UNL     1      51.665 -49.920  77.124  1.00  0.00     0.133 A 
BRANCH  14  17
HETATM   17  N4  UNL     1      52.822 -53.444  77.811  1.00  0.00    -0.116 N 
HETATM   18  O2  UNL     1      53.781 -53.298  78.600  1.00  0.00    -0.532 OA
HETATM   19  O3  UNL     1      52.615 -54.676  77.270  1.00  0.00    -0.532 OA
ENDBRANCH  14  17
BRANCH  16  20
HETATM   20  N5  UNL     1      52.345 -48.708  77.042  1.00  0.00    -0.113 N 
HETATM   21  O4  UNL     1      51.824 -47.855  76.228  1.00  0.00    -0.532 OA
HETATM   22  O5  UNL     1      53.421 -48.282  77.677  1.00  0.00    -0.532 OA
ENDBRANCH  16  20
ENDBRANCH   9  11
ENDBRANCH   7   9
ENDBRANCH   3   7
BRANCH   4  23
HETATM   23  C12 UNL     1      46.383 -50.158  75.127  1.00  0.00     0.274 C 
HETATM   24  O6  UNL     1      46.652 -50.418  76.361  1.00  0.00    -0.266 OA
HETATM   25  N6  UNL     1      45.047 -49.818  74.902  1.00  0.00    -0.263 N 
ATOM     26  H6  UNL     1      44.708 -49.591  73.968  1.00  0.00     0.190 HD
BRANCH  25  27
HETATM   27  N7  UNL     1      44.177 -49.802  76.033  1.00  0.00    -0.266 N 
HETATM   28  C13 UNL     1      43.780 -48.556  76.562  1.00  0.00     0.261 C 
HETATM   29  O7  UNL     1      44.181 -47.489  76.054  1.00  0.00    -0.270 OA
ATOM     30  H7  UNL     1      43.849 -50.672  76.450  1.00  0.00     0.190 HD
BRANCH  28  31
HETATM   31  C14 UNL     1      42.867 -48.562  77.747  1.00  0.00     0.333 C 
BRANCH  31  32
HETATM   32  N8  UNL     1      41.665 -49.346  77.454  1.00  0.00    -0.071 N 
ATOM     33  H83 UNL     1      40.824 -48.905  77.825  1.00  0.00     0.274 HD
ATOM     34  H82 UNL     1      41.424 -49.318  76.464  1.00  0.00     0.274 HD
ATOM     35  H81 UNL     1      41.778 -50.301  77.794  1.00  0.00     0.274 HD
ENDBRANCH  31  32
ENDBRANCH  28  31
ENDBRANCH  25  27
ENDBRANCH   4  23
BRANCH   1  36
HETATM   36  C2  UNL     1      48.734 -51.573  70.835  1.00  0.00     0.154 C 
HETATM   37  N1  UNL     1      48.485 -52.759  70.523  1.00  0.00    -0.379 N 
ATOM     38  H12 UNL     1      48.660 -53.214  69.627  1.00  0.00     0.158 HD
ATOM     39  H11 UNL     1      48.057 -53.335  71.248  1.00  0.00     0.158 HD
BRANCH  36  40
HETATM   40  O1  UNL     1      49.326 -50.775  69.831  1.00  0.00    -0.340 OA
HETATM   41  C1  UNL     1      48.611 -50.630  68.623  1.00  0.00     0.211 C 
ENDBRANCH  36  40
ENDBRANCH   1  36
TORSDOF 11
ENDMDL
MODEL 3
REMARK VINA RESULT: -7.662896704      3.152      3.710
REMARK  11 active torsions:
REMARK  status: ('A' for Active; 'I' for Inactive)
REMARK    1  A    between atoms: O1_2  and  C2_3 
REMARK    2  A    between atoms: C2_3  and  C3_7 
REMARK    3  A    between atoms: C4_9  and  N2_10 
REMARK    4  A    between atoms: N2_10  and  N3_12 
REMARK    5  A    between atoms: N3_12  and  C5_14 
REMARK    6  A    between atoms: C8_17  and  N4_18 
REMARK    7  A    between atoms: C10_22  and  N5_23 
REMARK    8  A    between atoms: C11_26  and  C12_27 
REMARK       I    between atoms: C12_27  and  N6_29 
REMARK    9  A    between atoms: N6_29  and  N7_31 
REMARK       I    between atoms: N7_31  and  C13_33 
REMARK   10  A    between atoms: C13_33  and  C14_35 
REMARK   11  A    between atoms: C14_35  and  N8_36 
ROOT
HETATM    1  C3  UNL     1      44.711 -47.307  74.810  1.00  0.00     0.082 A 
HETATM    2  S1  UNL     1      46.443 -47.279  74.863  1.00  0.00    -0.064 SA
HETATM    3  C4  UNL     1      46.734 -48.939  74.906  1.00  0.00     0.107 A 
HETATM    4  C11 UNL     1      45.472 -49.503  74.878  1.00  0.00     0.094 A 
HETATM    5  C15 UNL     1      44.446 -48.643  74.829  1.00  0.00     0.086 A 
HETATM    6  N9  UNL     1      43.053 -49.063  74.793  1.00  0.00    -0.100 NA
ENDROOT
BRANCH   3   7
HETATM    7  N2  UNL     1      48.021 -49.588  74.963  1.00  0.00    -0.292 N 
ATOM      8  H2  UNL     1      48.510 -49.863  74.111  1.00  0.00     0.187 HD
BRANCH   7   9
HETATM    9  N3  UNL     1      48.560 -49.819  76.185  1.00  0.00    -0.297 N 
ATOM     10  H3  UNL     1      47.900 -49.605  76.933  1.00  0.00     0.187 HD
BRANCH   9  11
HETATM   11  C5  UNL     1      49.778 -50.271  76.689  1.00  0.00     0.081 A 
HETATM   12  C6  UNL     1      49.763 -51.593  77.213  1.00  0.00     0.036 A 
HETATM   13  C7  UNL     1      50.856 -52.216  77.696  1.00  0.00     0.038 A 
HETATM   14  C8  UNL     1      52.049 -51.539  77.682  1.00  0.00     0.105 A 
HETATM   15  C9  UNL     1      52.096 -50.268  77.186  1.00  0.00     0.074 A 
HETATM   16  C10 UNL     1      50.949 -49.586  76.669  1.00  0.00     0.133 A 
BRANCH  14  17
HETATM   17  N4  UNL     1      53.210 -52.190  78.196  1.00  0.00    -0.116 N 
HETATM   18  O2  UNL     1      53.226 -53.437  78.295  1.00  0.00    -0.532 OA
HETATM   19  O3  UNL     1      54.315 -51.499  78.588  1.00  0.00    -0.532 OA
ENDBRANCH  14  17
BRANCH  16  20
HETATM   20  N5  UNL     1      51.192 -48.309  76.168  1.00  0.00    -0.113 N 
HETATM   21  O4  UNL     1      50.468 -47.985  75.152  1.00  0.00    -0.532 OA
HETATM   22  O5  UNL     1      52.025 -47.370  76.577  1.00  0.00    -0.532 OA
ENDBRANCH  16  20
ENDBRANCH   9  11
ENDBRANCH   7   9
ENDBRANCH   3   7
BRANCH   4  23
HETATM   23  C12 UNL     1      45.366 -50.982  74.922  1.00  0.00     0.274 C 
HETATM   24  O6  UNL     1      46.250 -51.667  75.564  1.00  0.00    -0.266 OA
HETATM   25  N6  UNL     1      44.376 -51.762  74.321  1.00  0.00    -0.263 N 
ATOM     26  H6  UNL     1      43.621 -51.339  73.784  1.00  0.00     0.190 HD
BRANCH  25  27
HETATM   27  N7  UNL     1      44.466 -53.176  74.489  1.00  0.00    -0.266 N 
HETATM   28  C13 UNL     1      44.949 -53.955  73.417  1.00  0.00     0.261 C 
HETATM   29  O7  UNL     1      45.290 -53.421  72.343  1.00  0.00    -0.270 OA
ATOM     30  H7  UNL     1      44.187 -53.615  75.367  1.00  0.00     0.190 HD
BRANCH  28  31
HETATM   31  C14 UNL     1      45.035 -55.436  73.616  1.00  0.00     0.333 C 
BRANCH  31  32
HETATM   32  N8  UNL     1      43.865 -55.915  74.352  1.00  0.00    -0.071 N 
ATOM     33  H83 UNL     1      43.743 -55.423  75.237  1.00  0.00     0.274 HD
ATOM     34  H82 UNL     1      42.992 -55.636  73.904  1.00  0.00     0.274 HD
ATOM     35  H81 UNL     1      43.921 -56.925  74.482  1.00  0.00     0.274 HD
ENDBRANCH  31  32
ENDBRANCH  28  31
ENDBRANCH  25  27
ENDBRANCH   4  23
BRANCH   1  36
HETATM   36  C2  UNL     1      43.820 -46.130  74.764  1.00  0.00     0.154 C 
HETATM   37  N1  UNL     1      42.634 -46.089  74.368  1.00  0.00    -0.379 N 
ATOM     38  H12 UNL     1      42.019 -45.276  74.337  1.00  0.00     0.158 HD
ATOM     39  H11 UNL     1      42.237 -46.969  74.041  1.00  0.00     0.158 HD
BRANCH  36  40
HETATM   40  O1  UNL     1      44.369 -44.910  75.217  1.00  0.00    -0.340 OA
HETATM   41  C1  UNL     1      43.684 -43.728  74.865  1.00  0.00     0.211 C 
ENDBRANCH  36  40
ENDBRANCH   1  36
TORSDOF 11
ENDMDL
MODEL 4
REMARK VINA RESULT: -7.639733239      2.325      2.945
REMARK  11 active torsions:
REMARK  status: ('A' for Active; 'I' for Inactive)
REMARK    1  A    between atoms: O1_2  and  C2_3 
REMARK    2  A    between atoms: C2_3  and  C3_7 
REMARK    3  A    between atoms: C4_9  and  N2_10 
REMARK    4  A    between atoms: N2_10  and  N3_12 
REMARK    5  A    between atoms: N3_12  and  C5_14 
REMARK    6  A    between atoms: C8_17  and  N4_18 
REMARK    7  A    between atoms: C10_22  and  N5_23 
REMARK    8  A    between atoms: C11_26  and  C12_27 
REMARK       I    between atoms: C12_27  and  N6_29 
REMARK    9  A    between atoms: N6_29  and  N7_31 
REMARK       I    between atoms: N7_31  and  C13_33 
REMARK   10  A    between atoms: C13_33  and  C14_35 
REMARK   11  A    between atoms: C14_35  and  N8_36 
ROOT
HETATM    1  C3  UNL     1      44.899 -48.243  74.859  1.00  0.00     0.082 A 
HETATM    2  S1  UNL     1      46.349 -47.369  75.228  1.00  0.00    -0.064 SA
HETATM    3  C4  UNL     1      47.465 -48.372  74.459  1.00  0.00     0.107 A 
HETATM    4  C11 UNL     1      46.694 -49.384  73.919  1.00  0.00     0.094 A 
HETATM    5  C15 UNL     1      45.375 -49.296  74.138  1.00  0.00     0.086 A 
HETATM    6  N9  UNL     1      44.417 -50.272  73.641  1.00  0.00    -0.100 NA
ENDROOT
BRANCH   3   7
HETATM    7  N2  UNL     1      48.895 -48.186  74.403  1.00  0.00    -0.292 N 
ATOM      8  H2  UNL     1      49.369 -48.020  73.515  1.00  0.00     0.187 HD
BRANCH   7   9
HETATM    9  N3  UNL     1      49.587 -48.240  75.567  1.00  0.00    -0.297 N 
ATOM     10  H3  UNL     1      49.583 -47.340  76.048  1.00  0.00     0.187 HD
BRANCH   9  11
HETATM   11  C5  UNL     1      50.302 -49.200  76.281  1.00  0.00     0.081 A 
HETATM   12  C6  UNL     1      51.691 -48.932  76.432  1.00  0.00     0.036 A 
HETATM   13  C7  UNL     1      52.530 -49.718  77.134  1.00  0.00     0.038 A 
HETATM   14  C8  UNL     1      52.019 -50.840  77.736  1.00  0.00     0.105 A 
HETATM   15  C9  UNL     1      50.689 -51.124  77.609  1.00  0.00     0.074 A 
HETATM   16  C10 UNL     1      49.779 -50.305  76.869  1.00  0.00     0.133 A 
BRANCH  14  17
HETATM   17  N4  UNL     1      52.902 -51.681  78.476  1.00  0.00    -0.116 N 
HETATM   18  O2  UNL     1      53.627 -51.184  79.365  1.00  0.00    -0.532 OA
HETATM   19  O3  UNL     1      52.987 -53.020  78.250  1.00  0.00    -0.532 OA
ENDBRANCH  14  17
BRANCH  16  20
HETATM   20  N5  UNL     1      48.452 -50.729  76.881  1.00  0.00    -0.113 N 
HETATM   21  O4  UNL     1      48.259 -51.902  76.383  1.00  0.00    -0.532 OA
HETATM   22  O5  UNL     1      47.366 -50.135  77.339  1.00  0.00    -0.532 OA
ENDBRANCH  16  20
ENDBRANCH   9  11
ENDBRANCH   7   9
ENDBRANCH   3   7
BRANCH   4  23
HETATM   23  C12 UNL     1      47.382 -50.466  73.174  1.00  0.00     0.274 C 
HETATM   24  O6  UNL     1      48.021 -50.189  72.090  1.00  0.00    -0.266 OA
HETATM   25  N6  UNL     1      47.422 -51.818  73.521  1.00  0.00    -0.263 N 
ATOM     26  H6  UNL     1      46.954 -52.164  74.358  1.00  0.00     0.190 HD
BRANCH  25  27
HETATM   27  N7  UNL     1      48.145 -52.693  72.658  1.00  0.00    -0.266 N 
HETATM   28  C13 UNL     1      47.438 -53.708  71.979  1.00  0.00     0.261 C 
HETATM   29  O7  UNL     1      46.207 -53.840  72.130  1.00  0.00    -0.270 OA
ATOM     30  H7  UNL     1      49.152 -52.588  72.533  1.00  0.00     0.190 HD
BRANCH  28  31
HETATM   31  C14 UNL     1      48.216 -54.615  71.078  1.00  0.00     0.333 C 
BRANCH  31  32
HETATM   32  N8  UNL     1      48.665 -53.884  69.892  1.00  0.00    -0.071 N 
ATOM     33  H83 UNL     1      47.893 -53.673  69.260  1.00  0.00     0.274 HD
ATOM     34  H82 UNL     1      48.941 -52.928  70.115  1.00  0.00     0.274 HD
ATOM     35  H81 UNL     1      49.412 -54.398  69.424  1.00  0.00     0.274 HD
ENDBRANCH  31  32
ENDBRANCH  28  31
ENDBRANCH  25  27
ENDBRANCH   4  23
BRANCH   1  36
HETATM   36  C2  UNL     1      43.529 -47.873  75.268  1.00  0.00     0.154 C 
HETATM   37  N1  UNL     1      42.551 -47.634  74.525  1.00  0.00    -0.379 N 
ATOM     38  H12 UNL     1      41.605 -47.379  74.808  1.00  0.00     0.158 HD
ATOM     39  H11 UNL     1      42.720 -47.705  73.522  1.00  0.00     0.158 HD
BRANCH  36  40
HETATM   40  O1  UNL     1      43.294 -47.776  76.658  1.00  0.00    -0.340 OA
HETATM   41  C1  UNL     1      43.659 -48.887  77.448  1.00  0.00     0.211 C 
ENDBRANCH  36  40
ENDBRANCH   1  36
TORSDOF 11
ENDMDL
MODEL 5
REMARK VINA RESULT: -7.629735156      3.941      7.226
REMARK  11 active torsions:
REMARK  status: ('A' for Active; 'I' for Inactive)
REMARK    1  A    between atoms: O1_2  and  C2_3 
REMARK    2  A    between atoms: C2_3  and  C3_7 
REMARK    3  A    between atoms: C4_9  and  N2_10 
REMARK    4  A    between atoms: N2_10  and  N3_12 
REMARK    5  A    between atoms: N3_12  and  C5_14 
REMARK    6  A    between atoms: C8_17  and  N4_18 
REMARK    7  A    between atoms: C10_22  and  N5_23 
REMARK    8  A    between atoms: C11_26  and  C12_27 
REMARK       I    between atoms: C12_27  and  N6_29 
REMARK    9  A    between atoms: N6_29  and  N7_31 
REMARK       I    between atoms: N7_31  and  C13_33 
REMARK   10  A    between atoms: C13_33  and  C14_35 
REMARK   11  A    between atoms: C14_35  and  N8_36 
ROOT
HETATM    1  C3  UNL     1      48.406 -55.064  74.839  1.00  0.00     0.082 A 
HETATM    2  S1  UNL     1      49.531 -53.899  74.221  1.00  0.00    -0.064 SA
HETATM    3  C4  UNL     1      48.439 -52.713  73.726  1.00  0.00     0.107 A 
HETATM    4  C11 UNL     1      47.202 -53.239  74.048  1.00  0.00     0.094 A 
HETATM    5  C15 UNL     1      47.210 -54.450  74.620  1.00  0.00     0.086 A 
HETATM    6  N9  UNL     1      46.000 -55.150  75.025  1.00  0.00    -0.100 NA
ENDROOT
BRANCH   3   7
HETATM    7  N2  UNL     1      48.760 -51.452  73.105  1.00  0.00    -0.292 N 
ATOM      8  H2  UNL     1      48.977 -51.395  72.110  1.00  0.00     0.187 HD
BRANCH   7   9
HETATM    9  N3  UNL     1      48.765 -50.344  73.886  1.00  0.00    -0.297 N 
ATOM     10  H3  UNL     1      49.630 -50.265  74.422  1.00  0.00     0.187 HD
BRANCH   9  11
HETATM   11  C5  UNL     1      47.901 -49.283  74.151  1.00  0.00     0.081 A 
HETATM   12  C6  UNL     1      47.747 -48.955  75.526  1.00  0.00     0.036 A 
HETATM   13  C7  UNL     1      46.995 -47.930  75.969  1.00  0.00     0.038 A 
HETATM   14  C8  UNL     1      46.339 -47.158  75.044  1.00  0.00     0.105 A 
HETATM   15  C9  UNL     1      46.466 -47.447  73.716  1.00  0.00     0.074 A 
HETATM   16  C10 UNL     1      47.258 -48.531  73.222  1.00  0.00     0.133 A 
BRANCH  14  17
HETATM   17  N4  UNL     1      45.536 -46.072  75.505  1.00  0.00    -0.116 N 
HETATM   18  O2  UNL     1      45.979 -45.309  76.392  1.00  0.00    -0.532 OA
HETATM   19  O3  UNL     1      44.291 -45.831  75.012  1.00  0.00    -0.532 OA
ENDBRANCH  14  17
BRANCH  16  20
HETATM   20  N5  UNL     1      47.303 -48.652  71.835  1.00  0.00    -0.113 N 
HETATM   21  O4  UNL     1      46.421 -47.953  71.206  1.00  0.00    -0.532 OA
HETATM   22  O5  UNL     1      48.115 -49.348  71.060  1.00  0.00    -0.532 OA
ENDBRANCH  16  20
ENDBRANCH   9  11
ENDBRANCH   7   9
ENDBRANCH   3   7
BRANCH   4  23
HETATM   23  C12 UNL     1      45.997 -52.439  73.722  1.00  0.00     0.274 C 
HETATM   24  O6  UNL     1      45.940 -51.793  72.608  1.00  0.00    -0.266 OA
HETATM   25  N6  UNL     1      44.858 -52.291  74.516  1.00  0.00    -0.263 N 
ATOM     26  H6  UNL     1      44.780 -52.751  75.423  1.00  0.00     0.190 HD
BRANCH  25  27
HETATM   27  N7  UNL     1      43.808 -51.469  74.008  1.00  0.00    -0.266 N 
HETATM   28  C13 UNL     1      43.592 -50.207  74.600  1.00  0.00     0.261 C 
HETATM   29  O7  UNL     1      44.301 -49.815  75.548  1.00  0.00    -0.270 OA
ATOM     30  H7  UNL     1      43.226 -51.787  73.234  1.00  0.00     0.190 HD
BRANCH  28  31
HETATM   31  C14 UNL     1      42.486 -49.361  74.051  1.00  0.00     0.333 C 
BRANCH  31  32
HETATM   32  N8  UNL     1      42.516 -48.032  74.662  1.00  0.00    -0.071 N 
ATOM     33  H83 UNL     1      41.736 -47.890  75.304  1.00  0.00     0.274 HD
ATOM     34  H82 UNL     1      43.280 -47.938  75.332  1.00  0.00     0.274 HD
ATOM     35  H81 UNL     1      42.551 -47.313  73.939  1.00  0.00     0.274 HD
ENDBRANCH  31  32
ENDBRANCH  28  31
ENDBRANCH  25  27
ENDBRANCH   4  23
BRANCH   1  36
HETATM   36  C2  UNL     1      48.744 -56.373  75.433  1.00  0.00     0.154 C 
HETATM   37  N1  UNL     1      47.972 -57.336  75.641  1.00  0.00    -0.379 N 
ATOM     38  H12 UNL     1      48.206 -58.240  76.051  1.00  0.00     0.158 HD
ATOM     39  H11 UNL     1      46.999 -57.200  75.369  1.00  0.00     0.158 HD
BRANCH  36  40
HETATM   40  O1  UNL     1      50.092 -56.561  75.810  1.00  0.00    -0.340 OA
HETATM   41  C1  UNL     1      50.869 -57.421  75.004  1.00  0.00     0.211 C 
ENDBRANCH  36  40
ENDBRANCH   1  36
TORSDOF 11
ENDMDL
