MODEL 1
REMARK VINA RESULT: -7.081812170      0.000      0.000
REMARK  12 active torsions:
REMARK  status: ('A' for Active; 'I' for Inactive)
REMARK    1  A    between atoms: N1_2  and  C1_4 
REMARK    2  A    between atoms: C4_7  and  N2_8 
REMARK    3  A    between atoms: C8_14  and  O4_15 
REMARK    4  A    between atoms: C9_17  and  N4_18 
REMARK    5  A    between atoms: N4_18  and  C10_20 
REMARK    6  A    between atoms: C10_20  and  C11_21 
REMARK    7  A    between atoms: C11_21  and  S1_22 
REMARK    8  A    between atoms: S1_22  and  S2_23 
REMARK    9  A    between atoms: S2_23  and  C12_24 
REMARK   10  A    between atoms: C14_29  and  O5_30 
REMARK   11  A    between atoms: C15_32  and  C16_33 
REMARK   12  A    between atoms: C16_33  and  O6_34 
ROOT
HETATM    1  N4  UNL     1      48.760 -49.904  77.426  1.00  0.00    -0.385 N 
ATOM      2  H4  UNL     1      48.757 -49.378  78.301  1.00  0.00     0.159 HD
ENDROOT
BRANCH   1   3
HETATM    3  C9  UNL     1      48.370 -49.261  76.203  1.00  0.00     0.097 A 
HETATM    4  C1  UNL     1      49.273 -48.661  75.411  1.00  0.00     0.132 A 
HETATM    5  C2  UNL     1      48.799 -47.982  74.273  1.00  0.00     0.041 A 
HETATM    6  C3  UNL     1      47.459 -47.951  74.002  1.00  0.00     0.036 A 
HETATM    7  C4  UNL     1      46.501 -48.574  74.814  1.00  0.00     0.083 A 
HETATM    8  C8  UNL     1      46.992 -49.227  75.917  1.00  0.00     0.122 A 
BRANCH   4   9
HETATM    9  N1  UNL     1      50.691 -48.685  75.582  1.00  0.00    -0.113 N 
HETATM   10  O1  UNL     1      51.288 -47.895  76.353  1.00  0.00    -0.532 OA
HETATM   11  O2  UNL     1      51.391 -49.639  74.889  1.00  0.00    -0.532 OA
ENDBRANCH   4   9
BRANCH   7  12
HETATM   12  N2  UNL     1      45.136 -48.516  74.464  1.00  0.00    -0.289 N 
HETATM   13  C5  UNL     1      44.344 -47.290  74.582  1.00  0.00     0.171 C 
HETATM   14  C6  UNL     1      43.016 -47.614  75.265  1.00  0.00     0.191 C 
HETATM   15  O3  UNL     1      42.930 -48.982  75.508  1.00  0.00    -0.372 OA
HETATM   16  C7  UNL     1      43.088 -49.653  74.305  1.00  0.00     0.302 C 
HETATM   17  N3  UNL     1      44.513 -49.696  73.992  1.00  0.00    -0.112 NA
ENDBRANCH   7  12
BRANCH   8  18
HETATM   18  O4  UNL     1      46.117 -49.872  76.780  1.00  0.00    -0.356 OA
ATOM     19  H4  UNL     1      46.107 -50.822  76.816  1.00  0.00     0.218 HD
ENDBRANCH   8  18
ENDBRANCH   1   3
BRANCH   1  20
HETATM   20  C10 UNL     1      49.152 -51.279  77.424  1.00  0.00     0.131 C 
BRANCH  20  21
HETATM   21  C11 UNL     1      50.577 -51.620  77.670  1.00  0.00     0.105 C 
BRANCH  21  22
HETATM   22  S1  UNL     1      51.185 -52.882  76.557  1.00  0.00    -0.092 SA
BRANCH  22  23
HETATM   23  S2  UNL     1      49.615 -54.230  75.984  1.00  0.00    -0.037 SA
BRANCH  23  24
HETATM   24  C12 UNL     1      48.784 -53.463  74.564  1.00  0.00     0.396 C 
HETATM   25  N5  UNL     1      49.622 -52.397  74.102  1.00  0.00    -0.036 N 
HETATM   26  C13 UNL     1      48.905 -51.417  73.314  1.00  0.00     0.270 C 
ATOM     27  H52 UNL     1      50.110 -51.953  74.881  1.00  0.00     0.281 HD
ATOM     28  H51 UNL     1      50.425 -52.760  73.590  1.00  0.00     0.281 HD
HETATM   29  C14 UNL     1      47.603 -52.016  72.830  1.00  0.00     0.175 C 
HETATM   30  C15 UNL     1      46.802 -52.383  74.056  1.00  0.00     0.178 C 
HETATM   31  O7  UNL     1      47.541 -53.036  75.017  1.00  0.00    -0.341 OA
BRANCH  29  32
HETATM   32  O5  UNL     1      46.899 -51.023  72.157  1.00  0.00    -0.391 OA
ATOM     33  H5  UNL     1      45.975 -51.239  72.201  1.00  0.00     0.210 HD
ENDBRANCH  29  32
BRANCH  30  34
HETATM   34  C16 UNL     1      45.586 -53.163  73.617  1.00  0.00     0.198 C 
BRANCH  34  35
HETATM   35  O6  UNL     1      44.714 -52.425  72.852  1.00  0.00    -0.398 OA
ATOM     36  H6  UNL     1      44.090 -52.959  72.375  1.00  0.00     0.209 HD
ENDBRANCH  34  35
ENDBRANCH  30  34
ENDBRANCH  23  24
ENDBRANCH  22  23
ENDBRANCH  21  22
ENDBRANCH  20  21
ENDBRANCH   1  20
TORSDOF 12
ENDMDL
MODEL 2
REMARK VINA RESULT: -7.079150917      2.039      4.221
REMARK  12 active torsions:
REMARK  status: ('A' for Active; 'I' for Inactive)
REMARK    1  A    between atoms: N1_2  and  C1_4 
REMARK    2  A    between atoms: C4_7  and  N2_8 
REMARK    3  A    between atoms: C8_14  and  O4_15 
REMARK    4  A    between atoms: C9_17  and  N4_18 
REMARK    5  A    between atoms: N4_18  and  C10_20 
REMARK    6  A    between atoms: C10_20  and  C11_21 
REMARK    7  A    between atoms: C11_21  and  S1_22 
REMARK    8  A    between atoms: S1_22  and  S2_23 
REMARK    9  A    between atoms: S2_23  and  C12_24 
REMARK   10  A    between atoms: C14_29  and  O5_30 
REMARK   11  A    between atoms: C15_32  and  C16_33 
REMARK   12  A    between atoms: C16_33  and  O6_34 
ROOT
HETATM    1  N4  UNL     1      47.902 -52.308  73.155  1.00  0.00    -0.385 N 
ATOM      2  H4  UNL     1      47.556 -53.024  72.516  1.00  0.00     0.159 HD
ENDROOT
BRANCH   1   3
HETATM    3  C9  UNL     1      47.213 -51.051  73.261  1.00  0.00     0.097 A 
HETATM    4  C1  UNL     1      47.558 -49.999  72.503  1.00  0.00     0.132 A 
HETATM    5  C2  UNL     1      46.889 -48.782  72.726  1.00  0.00     0.041 A 
HETATM    6  C3  UNL     1      45.920 -48.699  73.688  1.00  0.00     0.036 A 
HETATM    7  C4  UNL     1      45.542 -49.787  74.487  1.00  0.00     0.083 A 
HETATM    8  C8  UNL     1      46.213 -50.960  74.248  1.00  0.00     0.122 A 
BRANCH   4   9
HETATM    9  N1  UNL     1      48.516 -50.004  71.442  1.00  0.00    -0.113 N 
HETATM   10  O1  UNL     1      48.179 -49.978  70.234  1.00  0.00    -0.532 OA
HETATM   11  O2  UNL     1      49.841 -50.004  71.794  1.00  0.00    -0.532 OA
ENDBRANCH   4   9
BRANCH   7  12
HETATM   12  N2  UNL     1      44.522 -49.634  75.449  1.00  0.00    -0.289 N 
HETATM   13  C5  UNL     1      43.199 -49.103  75.116  1.00  0.00     0.171 C 
HETATM   14  C6  UNL     1      42.807 -48.049  76.151  1.00  0.00     0.191 C 
HETATM   15  O3  UNL     1      43.791 -47.958  77.130  1.00  0.00    -0.372 OA
HETATM   16  C7  UNL     1      43.969 -49.213  77.691  1.00  0.00     0.302 C 
HETATM   17  N3  UNL     1      44.801 -50.001  76.788  1.00  0.00    -0.112 NA
ENDBRANCH   7  12
BRANCH   8  18
HETATM   18  O4  UNL     1      45.907 -52.090  74.993  1.00  0.00    -0.356 OA
ATOM     19  H4  UNL     1      46.442 -52.871  74.905  1.00  0.00     0.218 HD
ENDBRANCH   8  18
ENDBRANCH   1   3
BRANCH   1  20
HETATM   20  C10 UNL     1      49.069 -52.557  73.940  1.00  0.00     0.131 C 
BRANCH  20  21
HETATM   21  C11 UNL     1      49.270 -53.912  74.519  1.00  0.00     0.105 C 
BRANCH  21  22
HETATM   22  S1  UNL     1      50.899 -54.124  75.226  1.00  0.00    -0.092 SA
BRANCH  22  23
HETATM   23  S2  UNL     1      51.119 -52.968  77.023  1.00  0.00    -0.037 SA
BRANCH  23  24
HETATM   24  C12 UNL     1      51.434 -51.261  76.489  1.00  0.00     0.396 C 
HETATM   25  N5  UNL     1      52.624 -50.819  77.151  1.00  0.00    -0.036 N 
HETATM   26  C13 UNL     1      52.735 -49.375  77.206  1.00  0.00     0.270 C 
ATOM     27  H52 UNL     1      52.696 -51.226  78.083  1.00  0.00     0.281 HD
ATOM     28  H51 UNL     1      53.453 -51.232  76.725  1.00  0.00     0.281 HD
HETATM   29  C14 UNL     1      51.814 -48.761  76.176  1.00  0.00     0.175 C 
HETATM   30  C15 UNL     1      50.409 -49.188  76.528  1.00  0.00     0.178 C 
HETATM   31  O7  UNL     1      50.303 -50.527  76.828  1.00  0.00    -0.341 OA
BRANCH  29  32
HETATM   32  O5  UNL     1      51.875 -47.378  76.318  1.00  0.00    -0.391 OA
ATOM     33  H5  UNL     1      51.070 -47.013  75.970  1.00  0.00     0.210 HD
ENDBRANCH  29  32
BRANCH  30  34
HETATM   34  C16 UNL     1      49.485 -48.760  75.412  1.00  0.00     0.198 C 
BRANCH  34  35
HETATM   35  O6  UNL     1      50.148 -48.424  74.256  1.00  0.00    -0.398 OA
ATOM     36  H6  UNL     1      49.583 -48.400  73.493  1.00  0.00     0.209 HD
ENDBRANCH  34  35
ENDBRANCH  30  34
ENDBRANCH  23  24
ENDBRANCH  22  23
ENDBRANCH  21  22
ENDBRANCH  20  21
ENDBRANCH   1  20
TORSDOF 12
ENDMDL
MODEL 3
REMARK VINA RESULT: -6.960224735      1.773      4.115
REMARK  12 active torsions:
REMARK  status: ('A' for Active; 'I' for Inactive)
REMARK    1  A    between atoms: N1_2  and  C1_4 
REMARK    2  A    between atoms: C4_7  and  N2_8 
REMARK    3  A    between atoms: C8_14  and  O4_15 
REMARK    4  A    between atoms: C9_17  and  N4_18 
REMARK    5  A    between atoms: N4_18  and  C10_20 
REMARK    6  A    between atoms: C10_20  and  C11_21 
REMARK    7  A    between atoms: C11_21  and  S1_22 
REMARK    8  A    between atoms: S1_22  and  S2_23 
REMARK    9  A    between atoms: S2_23  and  C12_24 
REMARK   10  A    between atoms: C14_29  and  O5_30 
REMARK   11  A    between atoms: C15_32  and  C16_33 
REMARK   12  A    between atoms: C16_33  and  O6_34 
ROOT
HETATM    1  N4  UNL     1      48.132 -52.435  73.295  1.00  0.00    -0.385 N 
ATOM      2  H4  UNL     1      47.731 -52.948  72.510  1.00  0.00     0.159 HD
ENDROOT
BRANCH   1   3
HETATM    3  C9  UNL     1      47.655 -51.117  73.607  1.00  0.00     0.097 A 
HETATM    4  C1  UNL     1      48.329 -50.021  73.224  1.00  0.00     0.132 A 
HETATM    5  C2  UNL     1      47.839 -48.770  73.640  1.00  0.00     0.041 A 
HETATM    6  C3  UNL     1      46.707 -48.697  74.406  1.00  0.00     0.036 A 
HETATM    7  C4  UNL     1      45.987 -49.829  74.813  1.00  0.00     0.083 A 
HETATM    8  C8  UNL     1      46.490 -51.035  74.394  1.00  0.00     0.122 A 
BRANCH   4   9
HETATM    9  N1  UNL     1      49.484 -49.994  72.383  1.00  0.00    -0.113 N 
HETATM   10  O1  UNL     1      50.570 -49.486  72.749  1.00  0.00    -0.532 OA
HETATM   11  O2  UNL     1      49.375 -50.583  71.149  1.00  0.00    -0.532 OA
ENDBRANCH   4   9
BRANCH   7  12
HETATM   12  N2  UNL     1      44.818 -49.679  75.589  1.00  0.00    -0.289 N 
HETATM   13  C5  UNL     1      43.562 -49.175  75.031  1.00  0.00     0.171 C 
HETATM   14  C6  UNL     1      42.988 -48.113  75.967  1.00  0.00     0.191 C 
HETATM   15  O3  UNL     1      43.794 -47.992  77.096  1.00  0.00    -0.372 OA
HETATM   16  C7  UNL     1      43.893 -49.236  77.699  1.00  0.00     0.302 C 
HETATM   17  N3  UNL     1      44.875 -50.023  76.960  1.00  0.00    -0.112 NA
ENDBRANCH   7  12
BRANCH   8  18
HETATM   18  O4  UNL     1      45.843 -52.210  74.750  1.00  0.00    -0.356 OA
ATOM     19  H4  UNL     1      45.406 -52.728  74.082  1.00  0.00     0.218 HD
ENDBRANCH   8  18
ENDBRANCH   1   3
BRANCH   1  20
HETATM   20  C10 UNL     1      49.166 -53.031  74.081  1.00  0.00     0.131 C 
BRANCH  20  21
HETATM   21  C11 UNL     1      48.918 -54.354  74.711  1.00  0.00     0.105 C 
BRANCH  21  22
HETATM   22  S1  UNL     1      49.402 -54.399  76.432  1.00  0.00    -0.092 SA
BRANCH  22  23
HETATM   23  S2  UNL     1      51.225 -53.310  76.752  1.00  0.00    -0.037 SA
BRANCH  23  24
HETATM   24  C12 UNL     1      50.734 -51.603  77.128  1.00  0.00     0.396 C 
HETATM   25  N5  UNL     1      49.305 -51.579  77.219  1.00  0.00    -0.036 N 
HETATM   26  C13 UNL     1      48.751 -50.253  77.039  1.00  0.00     0.270 C 
ATOM     27  H52 UNL     1      48.886 -52.241  76.565  1.00  0.00     0.281 HD
ATOM     28  H51 UNL     1      48.988 -51.991  78.096  1.00  0.00     0.281 HD
HETATM   29  C14 UNL     1      49.836 -49.222  77.255  1.00  0.00     0.175 C 
HETATM   30  C15 UNL     1      50.905 -49.482  76.221  1.00  0.00     0.178 C 
HETATM   31  O7  UNL     1      51.239 -50.813  76.103  1.00  0.00    -0.341 OA
BRANCH  29  32
HETATM   32  O5  UNL     1      49.294 -47.969  76.985  1.00  0.00    -0.391 OA
ATOM     33  H5  UNL     1      50.001 -47.401  76.701  1.00  0.00     0.210 HD
ENDBRANCH  29  32
BRANCH  30  34
HETATM   34  C16 UNL     1      52.093 -48.602  76.529  1.00  0.00     0.198 C 
BRANCH  34  35
HETATM   35  O6  UNL     1      51.900 -47.286  76.178  1.00  0.00    -0.398 OA
ATOM     36  H6  UNL     1      52.409 -46.679  76.703  1.00  0.00     0.209 HD
ENDBRANCH  34  35
ENDBRANCH  30  34
ENDBRANCH  23  24
ENDBRANCH  22  23
ENDBRANCH  21  22
ENDBRANCH  20  21
ENDBRANCH   1  20
TORSDOF 12
ENDMDL
MODEL 4
REMARK VINA RESULT: -6.798956528      3.083      6.645
REMARK  12 active torsions:
REMARK  status: ('A' for Active; 'I' for Inactive)
REMARK    1  A    between atoms: N1_2  and  C1_4 
REMARK    2  A    between atoms: C4_7  and  N2_8 
REMARK    3  A    between atoms: C8_14  and  O4_15 
REMARK    4  A    between atoms: C9_17  and  N4_18 
REMARK    5  A    between atoms: N4_18  and  C10_20 
REMARK    6  A    between atoms: C10_20  and  C11_21 
REMARK    7  A    between atoms: C11_21  and  S1_22 
REMARK    8  A    between atoms: S1_22  and  S2_23 
REMARK    9  A    between atoms: S2_23  and  C12_24 
REMARK   10  A    between atoms: C14_29  and  O5_30 
REMARK   11  A    between atoms: C15_32  and  C16_33 
REMARK   12  A    between atoms: C16_33  and  O6_34 
ROOT
HETATM    1  N4  UNL     1      48.286 -50.449  76.472  1.00  0.00    -0.385 N 
ATOM      2  H4  UNL     1      47.580 -50.076  77.108  1.00  0.00     0.159 HD
ENDROOT
BRANCH   1   3
HETATM    3  C9  UNL     1      49.668 -50.105  76.657  1.00  0.00     0.097 A 
HETATM    4  C1  UNL     1      50.185 -48.982  76.134  1.00  0.00     0.132 A 
HETATM    5  C2  UNL     1      51.565 -48.760  76.290  1.00  0.00     0.041 A 
HETATM    6  C3  UNL     1      52.335 -49.671  76.960  1.00  0.00     0.036 A 
HETATM    7  C4  UNL     1      51.814 -50.848  77.516  1.00  0.00     0.083 A 
HETATM    8  C8  UNL     1      50.466 -51.039  77.346  1.00  0.00     0.122 A 
BRANCH   4   9
HETATM    9  N1  UNL     1      49.454 -47.950  75.468  1.00  0.00    -0.113 N 
HETATM   10  O1  UNL     1      49.767 -47.535  74.326  1.00  0.00    -0.532 OA
HETATM   11  O2  UNL     1      48.359 -47.439  76.116  1.00  0.00    -0.532 OA
ENDBRANCH   4   9
BRANCH   7  12
HETATM   12  N2  UNL     1      52.663 -51.736  78.209  1.00  0.00    -0.289 N 
HETATM   13  C5  UNL     1      53.612 -51.284  79.228  1.00  0.00     0.171 C 
HETATM   14  C6  UNL     1      54.971 -51.936  78.973  1.00  0.00     0.191 C 
HETATM   15  O3  UNL     1      54.880 -52.811  77.894  1.00  0.00    -0.372 OA
HETATM   16  C7  UNL     1      53.886 -53.739  78.163  1.00  0.00     0.302 C 
HETATM   17  N3  UNL     1      52.595 -53.114  77.892  1.00  0.00    -0.112 NA
ENDBRANCH   7  12
BRANCH   8  18
HETATM   18  O4  UNL     1      49.862 -52.177  77.863  1.00  0.00    -0.356 OA
ATOM     19  H4  UNL     1      49.981 -53.012  77.426  1.00  0.00     0.218 HD
ENDBRANCH   8  18
ENDBRANCH   1   3
BRANCH   1  20
HETATM   20  C10 UNL     1      47.895 -51.311  75.401  1.00  0.00     0.131 C 
BRANCH  20  21
HETATM   21  C11 UNL     1      48.439 -51.060  74.041  1.00  0.00     0.105 C 
BRANCH  21  22
HETATM   22  S1  UNL     1      47.177 -50.561  72.876  1.00  0.00    -0.092 SA
BRANCH  22  23
HETATM   23  S2  UNL     1      46.699 -48.479  73.098  1.00  0.00    -0.037 SA
BRANCH  23  24
HETATM   24  C12 UNL     1      45.220 -48.409  74.150  1.00  0.00     0.396 C 
HETATM   25  N5  UNL     1      45.663 -48.202  75.496  1.00  0.00    -0.036 N 
HETATM   26  C13 UNL     1      44.675 -48.594  76.480  1.00  0.00     0.270 C 
ATOM     27  H52 UNL     1      46.552 -48.672  75.665  1.00  0.00     0.281 HD
ATOM     28  H51 UNL     1      45.957 -47.236  75.639  1.00  0.00     0.281 HD
HETATM   29  C14 UNL     1      43.317 -48.683  75.821  1.00  0.00     0.175 C 
HETATM   30  C15 UNL     1      43.417 -49.732  74.741  1.00  0.00     0.178 C 
HETATM   31  O7  UNL     1      44.548 -49.611  73.964  1.00  0.00    -0.341 OA
BRANCH  29  32
HETATM   32  O5  UNL     1      42.411 -49.149  76.769  1.00  0.00    -0.391 OA
ATOM     33  H5  UNL     1      41.988 -48.396  77.164  1.00  0.00     0.210 HD
ENDBRANCH  29  32
BRANCH  30  34
HETATM   34  C16 UNL     1      42.142 -49.710  73.931  1.00  0.00     0.198 C 
BRANCH  34  35
HETATM   35  O6  UNL     1      41.153 -50.509  74.453  1.00  0.00    -0.398 OA
ATOM     36  H6  UNL     1      40.738 -51.065  73.804  1.00  0.00     0.209 HD
ENDBRANCH  34  35
ENDBRANCH  30  34
ENDBRANCH  23  24
ENDBRANCH  22  23
ENDBRANCH  21  22
ENDBRANCH  20  21
ENDBRANCH   1  20
TORSDOF 12
ENDMDL
MODEL 5
REMARK VINA RESULT: -6.780241247      2.093      4.458
REMARK  12 active torsions:
REMARK  status: ('A' for Active; 'I' for Inactive)
REMARK    1  A    between atoms: N1_2  and  C1_4 
REMARK    2  A    between atoms: C4_7  and  N2_8 
REMARK    3  A    between atoms: C8_14  and  O4_15 
REMARK    4  A    between atoms: C9_17  and  N4_18 
REMARK    5  A    between atoms: N4_18  and  C10_20 
REMARK    6  A    between atoms: C10_20  and  C11_21 
REMARK    7  A    between atoms: C11_21  and  S1_22 
REMARK    8  A    between atoms: S1_22  and  S2_23 
REMARK    9  A    between atoms: S2_23  and  C12_24 
REMARK   10  A    between atoms: C14_29  and  O5_30 
REMARK   11  A    between atoms: C15_32  and  C16_33 
REMARK   12  A    between atoms: C16_33  and  O6_34 
ROOT
HETATM    1  N4  UNL     1      47.925 -52.441  73.475  1.00  0.00    -0.385 N 
ATOM      2  H4  UNL     1      47.284 -53.210  73.275  1.00  0.00     0.159 HD
ENDROOT
BRANCH   1   3
HETATM    3  C9  UNL     1      47.556 -51.096  73.133  1.00  0.00     0.097 A 
HETATM    4  C1  UNL     1      47.915 -50.550  71.960  1.00  0.00     0.132 A 
HETATM    5  C2  UNL     1      47.586 -49.201  71.736  1.00  0.00     0.041 A 
HETATM    6  C3  UNL     1      46.919 -48.489  72.696  1.00  0.00     0.036 A 
HETATM    7  C4  UNL     1      46.533 -49.042  73.925  1.00  0.00     0.083 A 
HETATM    8  C8  UNL     1      46.869 -50.358  74.116  1.00  0.00     0.122 A 
BRANCH   4   9
HETATM    9  N1  UNL     1      48.562 -51.226  70.880  1.00  0.00    -0.113 N 
HETATM   10  O1  UNL     1      49.410 -50.662  70.146  1.00  0.00    -0.532 OA
HETATM   11  O2  UNL     1      48.246 -52.546  70.686  1.00  0.00    -0.532 OA
ENDBRANCH   4   9
BRANCH   7  12
HETATM   12  N2  UNL     1      45.833 -48.254  74.862  1.00  0.00    -0.289 N 
HETATM   13  C5  UNL     1      44.403 -48.427  75.124  1.00  0.00     0.171 C 
HETATM   14  C6  UNL     1      43.724 -47.057  75.127  1.00  0.00     0.191 C 
HETATM   15  O3  UNL     1      44.676 -46.058  74.947  1.00  0.00    -0.372 OA
HETATM   16  C7  UNL     1      45.634 -46.179  75.942  1.00  0.00     0.302 C 
HETATM   17  N3  UNL     1      46.547 -47.254  75.565  1.00  0.00    -0.112 NA
ENDBRANCH   7  12
BRANCH   8  18
HETATM   18  O4  UNL     1      46.528 -50.989  75.304  1.00  0.00    -0.356 OA
ATOM     19  H4  UNL     1      45.672 -51.394  75.393  1.00  0.00     0.218 HD
ENDBRANCH   8  18
ENDBRANCH   1   3
BRANCH   1  20
HETATM   20  C10 UNL     1      49.185 -52.708  74.095  1.00  0.00     0.131 C 
BRANCH  20  21
HETATM   21  C11 UNL     1      49.302 -53.871  75.012  1.00  0.00     0.105 C 
BRANCH  21  22
HETATM   22  S1  UNL     1      49.581 -53.385  76.710  1.00  0.00    -0.092 SA
BRANCH  22  23
HETATM   23  S2  UNL     1      51.660 -52.979  77.068  1.00  0.00    -0.037 SA
BRANCH  23  24
HETATM   24  C12 UNL     1      51.934 -51.260  76.551  1.00  0.00     0.396 C 
HETATM   25  N5  UNL     1      52.835 -50.668  77.494  1.00  0.00    -0.036 N 
HETATM   26  C13 UNL     1      52.776 -49.221  77.500  1.00  0.00     0.270 C 
ATOM     27  H52 UNL     1      52.682 -51.043  78.431  1.00  0.00     0.281 HD
ATOM     28  H51 UNL     1      53.790 -50.993  77.341  1.00  0.00     0.281 HD
HETATM   29  C14 UNL     1      52.126 -48.741  76.221  1.00  0.00     0.175 C 
HETATM   30  C15 UNL     1      50.732 -49.317  76.190  1.00  0.00     0.178 C 
HETATM   31  O7  UNL     1      50.685 -50.653  76.521  1.00  0.00    -0.341 OA
BRANCH  29  32
HETATM   32  O5  UNL     1      52.001 -47.357  76.300  1.00  0.00    -0.391 OA
ATOM     33  H5  UNL     1      52.083 -47.108  77.213  1.00  0.00     0.210 HD
ENDBRANCH  29  32
BRANCH  30  34
HETATM   34  C16 UNL     1      50.123 -49.024  74.839  1.00  0.00     0.198 C 
BRANCH  34  35
HETATM   35  O6  UNL     1      49.743 -47.711  74.688  1.00  0.00    -0.398 OA
ATOM     36  H6  UNL     1      49.644 -47.451  73.779  1.00  0.00     0.209 HD
ENDBRANCH  34  35
ENDBRANCH  30  34
ENDBRANCH  23  24
ENDBRANCH  22  23
ENDBRANCH  21  22
ENDBRANCH  20  21
ENDBRANCH   1  20
TORSDOF 12
ENDMDL
