MODEL 1
REMARK VINA RESULT: -7.587419272      0.000      0.000
REMARK  11 active torsions:
REMARK  status: ('A' for Active; 'I' for Inactive)
REMARK    1  A    between atoms: N1_2  and  C1_4 
REMARK    2  A    between atoms: C3_6  and  N2_7 
REMARK    3  A    between atoms: C4_10  and  N3_11 
REMARK    4  A    between atoms: N3_11  and  N4_13 
REMARK    5  A    between atoms: N4_13  and  C5_15 
REMARK    6  A    between atoms: C5_15  and  O5_16 
REMARK    7  A    between atoms: C5_15  and  C6_18 
REMARK    8  A    between atoms: N7_24  and  N8_26 
REMARK    9  A    between atoms: C8_28  and  C9_29 
REMARK   10  A    between atoms: C12_34  and  O6_35 
REMARK   11  A    between atoms: C13_38  and  N10_39 
ROOT
HETATM    1  C5  UNL     1      46.762 -54.597  74.169  1.00  0.00     0.310 C 
ENDROOT
BRANCH   1   2
HETATM    2  N4  UNL     1      48.056 -54.406  74.653  1.00  0.00    -0.300 N 
ATOM      3  H4  UNL     1      48.286 -54.738  75.589  1.00  0.00     0.183 HD
BRANCH   2   4
HETATM    4  N3  UNL     1      49.016 -53.795  73.923  1.00  0.00    -0.298 N 
ATOM      5  H3  UNL     1      49.504 -54.299  73.183  1.00  0.00     0.187 HD
BRANCH   4   6
HETATM    6  C4  UNL     1      49.335 -52.435  74.206  1.00  0.00     0.114 A 
HETATM    7  C3  UNL     1      48.840 -51.397  73.440  1.00  0.00     0.135 A 
HETATM    8  C2  UNL     1      49.141 -50.073  73.718  1.00  0.00     0.074 A 
HETATM    9  C1  UNL     1      49.952 -49.724  74.775  1.00  0.00     0.107 A 
HETATM   10  C14 UNL     1      50.448 -50.731  75.539  1.00  0.00     0.074 A 
HETATM   11  C13 UNL     1      50.144 -52.070  75.257  1.00  0.00     0.135 A 
BRANCH   7  12
HETATM   12  N2  UNL     1      47.999 -51.666  72.341  1.00  0.00    -0.113 N 
HETATM   13  O3  UNL     1      46.978 -50.986  72.178  1.00  0.00    -0.532 OA
HETATM   14  O4  UNL     1      48.306 -52.664  71.468  1.00  0.00    -0.532 OA
ENDBRANCH   7  12
BRANCH   9  15
HETATM   15  N1  UNL     1      50.259 -48.352  75.057  1.00  0.00    -0.116 N 
HETATM   16  O1  UNL     1      49.699 -47.473  74.375  1.00  0.00    -0.532 OA
HETATM   17  O2  UNL     1      51.144 -48.061  76.051  1.00  0.00    -0.532 OA
ENDBRANCH   9  15
BRANCH  11  18
HETATM   18  N10 UNL     1      50.715 -53.060  76.098  1.00  0.00    -0.113 N 
HETATM   19  O8  UNL     1      51.945 -53.273  76.160  1.00  0.00    -0.532 OA
HETATM   20  O9  UNL     1      49.894 -53.818  76.872  1.00  0.00    -0.532 OA
ENDBRANCH  11  18
ENDBRANCH   4   6
ENDBRANCH   2   4
ENDBRANCH   1   2
BRANCH   1  21
HETATM   21  O5  UNL     1      46.807 -55.113  72.851  1.00  0.00    -0.368 OA
ATOM     22  H5  UNL     1      45.942 -55.081  72.459  1.00  0.00     0.212 HD
ENDBRANCH   1  21
BRANCH   1  23
HETATM   23  C6  UNL     1      45.852 -53.450  74.166  1.00  0.00     0.192 A 
HETATM   24  N5  UNL     1      44.988 -53.091  73.215  1.00  0.00    -0.276 N 
HETATM   25  N6  UNL     1      44.359 -51.998  73.603  1.00  0.00    -0.262 N 
ATOM     26  H5  UNL     1      44.838 -53.581  72.333  1.00  0.00     0.189 HD
HETATM   27  C7  UNL     1      44.846 -51.683  74.811  1.00  0.00     0.260 A 
ATOM     28  H6  UNL     1      43.641 -51.491  73.085  1.00  0.00     0.190 HD
HETATM   29  N7  UNL     1      44.505 -50.668  75.568  1.00  0.00    -0.264 N 
HETATM   30  O7  UNL     1      45.736 -52.566  75.123  1.00  0.00    -0.258 OA
ATOM     31  H7  UNL     1      44.968 -50.559  76.470  1.00  0.00     0.190 HD
BRANCH  29  32
HETATM   32  N8  UNL     1      43.559 -49.752  75.208  1.00  0.00    -0.308 N 
HETATM   33  C8  UNL     1      43.667 -48.517  74.958  1.00  0.00     0.123 C 
ATOM     34  H8  UNL     1      42.612 -50.123  75.126  1.00  0.00     0.186 HD
BRANCH  33  35
HETATM   35  C9  UNL     1      44.893 -47.742  75.001  1.00  0.00     0.033 A 
HETATM   36  C10 UNL     1      45.373 -46.888  75.963  1.00  0.00     0.034 A 
HETATM   37  C11 UNL     1      46.596 -46.368  75.573  1.00  0.00     0.091 A 
HETATM   38  N9  UNL     1      46.879 -46.893  74.373  1.00  0.00    -0.346 N 
HETATM   39  C12 UNL     1      45.885 -47.715  74.008  1.00  0.00     0.151 A 
ATOM     40  H9  UNL     1      47.718 -46.699  73.825  1.00  0.00     0.167 HD
BRANCH  39  41
HETATM   41  O6  UNL     1      45.868 -48.421  72.812  1.00  0.00    -0.345 OA
ATOM     42  H6  UNL     1      46.598 -48.529  72.214  1.00  0.00     0.219 HD
ENDBRANCH  39  41
ENDBRANCH  33  35
ENDBRANCH  29  32
ENDBRANCH   1  23
TORSDOF 11
ENDMDL
MODEL 2
REMARK VINA RESULT: -7.546698505      0.146      2.596
REMARK  11 active torsions:
REMARK  status: ('A' for Active; 'I' for Inactive)
REMARK    1  A    between atoms: N1_2  and  C1_4 
REMARK    2  A    between atoms: C3_6  and  N2_7 
REMARK    3  A    between atoms: C4_10  and  N3_11 
REMARK    4  A    between atoms: N3_11  and  N4_13 
REMARK    5  A    between atoms: N4_13  and  C5_15 
REMARK    6  A    between atoms: C5_15  and  O5_16 
REMARK    7  A    between atoms: C5_15  and  C6_18 
REMARK    8  A    between atoms: N7_24  and  N8_26 
REMARK    9  A    between atoms: C8_28  and  C9_29 
REMARK   10  A    between atoms: C12_34  and  O6_35 
REMARK   11  A    between atoms: C13_38  and  N10_39 
ROOT
HETATM    1  C5  UNL     1      46.809 -54.582  74.259  1.00  0.00     0.310 C 
ENDROOT
BRANCH   1   2
HETATM    2  N4  UNL     1      48.074 -54.396  74.815  1.00  0.00    -0.300 N 
ATOM      3  H4  UNL     1      48.243 -54.707  75.771  1.00  0.00     0.183 HD
BRANCH   2   4
HETATM    4  N3  UNL     1      49.085 -53.816  74.130  1.00  0.00    -0.298 N 
ATOM      5  H3  UNL     1      49.636 -54.356  73.463  1.00  0.00     0.187 HD
BRANCH   4   6
HETATM    6  C4  UNL     1      49.368 -52.438  74.356  1.00  0.00     0.114 A 
HETATM    7  C3  UNL     1      50.121 -52.016  75.435  1.00  0.00     0.135 A 
HETATM    8  C2  UNL     1      50.406 -50.677  75.652  1.00  0.00     0.074 A 
HETATM    9  C1  UNL     1      49.952 -49.696  74.800  1.00  0.00     0.107 A 
HETATM   10  C14 UNL     1      49.210 -50.091  73.733  1.00  0.00     0.074 A 
HETATM   11  C13 UNL     1      48.921 -51.445  73.514  1.00  0.00     0.135 A 
BRANCH   7  12
HETATM   12  N2  UNL     1      50.628 -52.956  76.355  1.00  0.00    -0.113 N 
HETATM   13  O3  UNL     1      51.846 -52.998  76.570  1.00  0.00    -0.532 OA
HETATM   14  O4  UNL     1      49.788 -53.811  77.000  1.00  0.00    -0.532 OA
ENDBRANCH   7  12
BRANCH   9  15
HETATM   15  N1  UNL     1      50.251 -48.312  75.030  1.00  0.00    -0.116 N 
HETATM   16  O1  UNL     1      49.693 -47.464  74.308  1.00  0.00    -0.532 OA
HETATM   17  O2  UNL     1      51.125 -47.978  76.018  1.00  0.00    -0.532 OA
ENDBRANCH   9  15
BRANCH  11  18
HETATM   18  N10 UNL     1      48.129 -51.770  72.382  1.00  0.00    -0.113 N 
HETATM   19  O8  UNL     1      48.380 -52.739  71.634  1.00  0.00    -0.532 OA
HETATM   20  O9  UNL     1      47.051 -50.997  72.091  1.00  0.00    -0.532 OA
ENDBRANCH  11  18
ENDBRANCH   4   6
ENDBRANCH   2   4
ENDBRANCH   1   2
BRANCH   1  21
HETATM   21  O5  UNL     1      46.926 -55.079  72.938  1.00  0.00    -0.368 OA
ATOM     22  H5  UNL     1      46.067 -55.146  72.537  1.00  0.00     0.212 HD
ENDBRANCH   1  21
BRANCH   1  23
HETATM   23  C6  UNL     1      45.897 -53.436  74.223  1.00  0.00     0.192 A 
HETATM   24  N5  UNL     1      45.074 -53.074  73.237  1.00  0.00    -0.276 N 
HETATM   25  N6  UNL     1      44.427 -51.984  73.604  1.00  0.00    -0.262 N 
ATOM     26  H5  UNL     1      44.963 -53.560  72.347  1.00  0.00     0.189 HD
HETATM   27  C7  UNL     1      44.862 -51.674  74.833  1.00  0.00     0.260 A 
ATOM     28  H6  UNL     1      43.731 -51.476  73.058  1.00  0.00     0.190 HD
HETATM   29  N7  UNL     1      44.487 -50.663  75.579  1.00  0.00    -0.264 N 
HETATM   30  O7  UNL     1      45.739 -52.556  75.178  1.00  0.00    -0.258 OA
ATOM     31  H7  UNL     1      44.911 -50.557  76.501  1.00  0.00     0.190 HD
BRANCH  29  32
HETATM   32  N8  UNL     1      43.555 -49.747  75.183  1.00  0.00    -0.308 N 
HETATM   33  C8  UNL     1      43.678 -48.517  74.915  1.00  0.00     0.123 C 
ATOM     34  H8  UNL     1      42.608 -50.113  75.087  1.00  0.00     0.186 HD
BRANCH  33  35
HETATM   35  C9  UNL     1      44.909 -47.750  74.972  1.00  0.00     0.033 A 
HETATM   36  C10 UNL     1      45.377 -46.888  75.933  1.00  0.00     0.034 A 
HETATM   37  C11 UNL     1      46.611 -46.380  75.559  1.00  0.00     0.091 A 
HETATM   38  N9  UNL     1      46.912 -46.921  74.371  1.00  0.00    -0.346 N 
HETATM   39  C12 UNL     1      45.919 -47.740  73.997  1.00  0.00     0.151 A 
ATOM     40  H9  UNL     1      47.761 -46.739  73.836  1.00  0.00     0.167 HD
BRANCH  39  41
HETATM   41  O6  UNL     1      45.919 -48.459  72.809  1.00  0.00    -0.345 OA
ATOM     42  H6  UNL     1      46.630 -48.506  72.180  1.00  0.00     0.219 HD
ENDBRANCH  39  41
ENDBRANCH  33  35
ENDBRANCH  29  32
ENDBRANCH   1  23
TORSDOF 11
ENDMDL
MODEL 3
REMARK VINA RESULT: -7.362738164      2.607      4.702
REMARK  11 active torsions:
REMARK  status: ('A' for Active; 'I' for Inactive)
REMARK    1  A    between atoms: N1_2  and  C1_4 
REMARK    2  A    between atoms: C3_6  and  N2_7 
REMARK    3  A    between atoms: C4_10  and  N3_11 
REMARK    4  A    between atoms: N3_11  and  N4_13 
REMARK    5  A    between atoms: N4_13  and  C5_15 
REMARK    6  A    between atoms: C5_15  and  O5_16 
REMARK    7  A    between atoms: C5_15  and  C6_18 
REMARK    8  A    between atoms: N7_24  and  N8_26 
REMARK    9  A    between atoms: C8_28  and  C9_29 
REMARK   10  A    between atoms: C12_34  and  O6_35 
REMARK   11  A    between atoms: C13_38  and  N10_39 
ROOT
HETATM    1  C5  UNL     1      49.541 -50.093  72.905  1.00  0.00     0.310 C 
ENDROOT
BRANCH   1   2
HETATM    2  N4  UNL     1      49.734 -51.301  73.576  1.00  0.00    -0.300 N 
ATOM      3  H4  UNL     1      50.162 -52.080  73.075  1.00  0.00     0.183 HD
BRANCH   2   4
HETATM    4  N3  UNL     1      49.374 -51.474  74.867  1.00  0.00    -0.298 N 
ATOM      5  H3  UNL     1      48.390 -51.510  75.131  1.00  0.00     0.187 HD
BRANCH   4   6
HETATM    6  C4  UNL     1      50.394 -51.605  75.855  1.00  0.00     0.114 A 
HETATM    7  C3  UNL     1      50.981 -52.823  76.138  1.00  0.00     0.135 A 
HETATM    8  C2  UNL     1      51.979 -52.951  77.091  1.00  0.00     0.074 A 
HETATM    9  C1  UNL     1      52.437 -51.868  77.807  1.00  0.00     0.107 A 
HETATM   10  C14 UNL     1      51.872 -50.662  77.542  1.00  0.00     0.074 A 
HETATM   11  C13 UNL     1      50.862 -50.532  76.579  1.00  0.00     0.135 A 
BRANCH   7  12
HETATM   12  N2  UNL     1      50.573 -53.982  75.449  1.00  0.00    -0.113 N 
HETATM   13  O3  UNL     1      50.332 -55.015  76.087  1.00  0.00    -0.532 OA
HETATM   14  O4  UNL     1      50.445 -53.969  74.094  1.00  0.00    -0.532 OA
ENDBRANCH   7  12
BRANCH   9  15
HETATM   15  N1  UNL     1      53.471 -52.008  78.791  1.00  0.00    -0.116 N 
HETATM   16  O1  UNL     1      53.703 -51.039  79.539  1.00  0.00    -0.532 OA
HETATM   17  O2  UNL     1      54.155 -53.182  78.872  1.00  0.00    -0.532 OA
ENDBRANCH   9  15
BRANCH  11  18
HETATM   18  N10 UNL     1      50.317 -49.238  76.374  1.00  0.00    -0.113 N 
HETATM   19  O8  UNL     1      49.157 -48.927  76.721  1.00  0.00    -0.532 OA
HETATM   20  O9  UNL     1      51.082 -48.291  75.772  1.00  0.00    -0.532 OA
ENDBRANCH  11  18
ENDBRANCH   4   6
ENDBRANCH   2   4
ENDBRANCH   1   2
BRANCH   1  21
HETATM   21  O5  UNL     1      50.735 -49.332  72.919  1.00  0.00    -0.368 OA
ATOM     22  H5  UNL     1      50.773 -48.800  73.705  1.00  0.00     0.212 HD
ENDBRANCH   1  21
BRANCH   1  23
HETATM   23  C6  UNL     1      48.453 -49.222  73.355  1.00  0.00     0.192 A 
HETATM   24  N5  UNL     1      48.547 -48.088  74.052  1.00  0.00    -0.276 N 
HETATM   25  N6  UNL     1      47.332 -47.612  74.253  1.00  0.00    -0.262 N 
ATOM     26  H5  UNL     1      49.414 -47.660  74.377  1.00  0.00     0.189 HD
HETATM   27  C7  UNL     1      46.483 -48.469  73.670  1.00  0.00     0.260 A 
ATOM     28  H6  UNL     1      47.088 -46.758  74.754  1.00  0.00     0.190 HD
HETATM   29  N7  UNL     1      45.175 -48.387  73.624  1.00  0.00    -0.264 N 
HETATM   30  O7  UNL     1      47.178 -49.421  73.142  1.00  0.00    -0.258 OA
ATOM     31  H7  UNL     1      44.660 -49.121  73.139  1.00  0.00     0.190 HD
BRANCH  29  32
HETATM   32  N8  UNL     1      44.470 -47.365  74.194  1.00  0.00    -0.308 N 
HETATM   33  C8  UNL     1      43.943 -47.273  75.339  1.00  0.00     0.123 C 
ATOM     34  H8  UNL     1      44.349 -46.545  73.599  1.00  0.00     0.186 HD
BRANCH  33  35
HETATM   35  C9  UNL     1      43.965 -48.290  76.374  1.00  0.00     0.033 A 
HETATM   36  C10 UNL     1      44.914 -49.237  76.671  1.00  0.00     0.034 A 
HETATM   37  C11 UNL     1      44.504 -50.000  77.753  1.00  0.00     0.091 A 
HETATM   38  N9  UNL     1      43.306 -49.532  78.129  1.00  0.00    -0.346 N 
HETATM   39  C12 UNL     1      42.960 -48.515  77.328  1.00  0.00     0.151 A 
ATOM     40  H9  UNL     1      42.747 -49.894  78.902  1.00  0.00     0.167 HD
BRANCH  39  41
HETATM   41  O6  UNL     1      41.770 -47.809  77.450  1.00  0.00    -0.345 OA
ATOM     42  H6  UNL     1      40.997 -47.914  76.909  1.00  0.00     0.219 HD
ENDBRANCH  39  41
ENDBRANCH  33  35
ENDBRANCH  29  32
ENDBRANCH   1  23
TORSDOF 11
ENDMDL
MODEL 4
REMARK VINA RESULT: -7.362277970      3.491      7.243
REMARK  11 active torsions:
REMARK  status: ('A' for Active; 'I' for Inactive)
REMARK    1  A    between atoms: N1_2  and  C1_4 
REMARK    2  A    between atoms: C3_6  and  N2_7 
REMARK    3  A    between atoms: C4_10  and  N3_11 
REMARK    4  A    between atoms: N3_11  and  N4_13 
REMARK    5  A    between atoms: N4_13  and  C5_15 
REMARK    6  A    between atoms: C5_15  and  O5_16 
REMARK    7  A    between atoms: C5_15  and  C6_18 
REMARK    8  A    between atoms: N7_24  and  N8_26 
REMARK    9  A    between atoms: C8_28  and  C9_29 
REMARK   10  A    between atoms: C12_34  and  O6_35 
REMARK   11  A    between atoms: C13_38  and  N10_39 
ROOT
HETATM    1  C5  UNL     1      49.728 -50.139  73.807  1.00  0.00     0.310 C 
ENDROOT
BRANCH   1   2
HETATM    2  N4  UNL     1      48.952 -50.979  73.008  1.00  0.00    -0.300 N 
ATOM      3  H4  UNL     1      49.416 -51.706  72.462  1.00  0.00     0.183 HD
BRANCH   2   4
HETATM    4  N3  UNL     1      47.608 -50.864  72.932  1.00  0.00    -0.298 N 
ATOM      5  H3  UNL     1      47.053 -51.572  72.451  1.00  0.00     0.187 HD
BRANCH   4   6
HETATM    6  C4  UNL     1      46.979 -49.735  73.534  1.00  0.00     0.114 A 
HETATM    7  C3  UNL     1      46.542 -49.758  74.844  1.00  0.00     0.135 A 
HETATM    8  C2  UNL     1      45.939 -48.660  75.436  1.00  0.00     0.074 A 
HETATM    9  C1  UNL     1      45.742 -47.485  74.743  1.00  0.00     0.107 A 
HETATM   10  C14 UNL     1      46.164 -47.444  73.453  1.00  0.00     0.074 A 
HETATM   11  C13 UNL     1      46.774 -48.556  72.855  1.00  0.00     0.135 A 
BRANCH   7  12
HETATM   12  N2  UNL     1      46.708 -50.920  75.625  1.00  0.00    -0.113 N 
HETATM   13  O3  UNL     1      45.983 -51.901  75.416  1.00  0.00    -0.532 OA
HETATM   14  O4  UNL     1      47.656 -50.964  76.601  1.00  0.00    -0.532 OA
ENDBRANCH   7  12
BRANCH   9  15
HETATM   15  N1  UNL     1      45.117 -46.352  75.361  1.00  0.00    -0.116 N 
HETATM   16  O1  UNL     1      43.974 -46.034  74.982  1.00  0.00    -0.532 OA
HETATM   17  O2  UNL     1      45.789 -45.670  76.329  1.00  0.00    -0.532 OA
ENDBRANCH   9  15
BRANCH  11  18
HETATM   18  N10 UNL     1      47.174 -48.431  71.500  1.00  0.00    -0.113 N 
HETATM   19  O8  UNL     1      48.216 -48.953  71.048  1.00  0.00    -0.532 OA
HETATM   20  O9  UNL     1      46.396 -47.713  70.648  1.00  0.00    -0.532 OA
ENDBRANCH  11  18
ENDBRANCH   4   6
ENDBRANCH   2   4
ENDBRANCH   1   2
BRANCH   1  21
HETATM   21  O5  UNL     1      50.647 -49.418  73.006  1.00  0.00    -0.368 OA
ATOM     22  H5  UNL     1      51.536 -49.608  73.280  1.00  0.00     0.212 HD
ENDBRANCH   1  21
BRANCH   1  23
HETATM   23  C6  UNL     1      50.478 -50.740  74.912  1.00  0.00     0.192 A 
HETATM   24  N5  UNL     1      50.425 -52.000  75.350  1.00  0.00    -0.276 N 
HETATM   25  N6  UNL     1      51.258 -52.132  76.364  1.00  0.00    -0.262 N 
ATOM     26  H5  UNL     1      49.837 -52.738  74.964  1.00  0.00     0.189 HD
HETATM   27  C7  UNL     1      51.829 -50.934  76.550  1.00  0.00     0.260 A 
ATOM     28  H6  UNL     1      51.433 -52.980  76.902  1.00  0.00     0.190 HD
HETATM   29  N7  UNL     1      52.723 -50.609  77.453  1.00  0.00    -0.264 N 
HETATM   30  O7  UNL     1      51.346 -50.122  75.670  1.00  0.00    -0.258 OA
ATOM     31  H7  UNL     1      53.068 -49.650  77.472  1.00  0.00     0.190 HD
BRANCH  29  32
HETATM   32  N8  UNL     1      53.214 -51.494  78.371  1.00  0.00    -0.308 N 
HETATM   33  C8  UNL     1      53.772 -51.291  79.487  1.00  0.00     0.123 C 
ATOM     34  H8  UNL     1      53.114 -52.476  78.114  1.00  0.00     0.186 HD
BRANCH  33  35
HETATM   35  C9  UNL     1      54.038 -49.997  80.086  1.00  0.00     0.033 A 
HETATM   36  C10 UNL     1      53.912 -49.576  81.387  1.00  0.00     0.034 A 
HETATM   37  C11 UNL     1      54.282 -48.244  81.495  1.00  0.00     0.091 A 
HETATM   38  N9  UNL     1      54.637 -47.836  80.269  1.00  0.00    -0.346 N 
HETATM   39  C12 UNL     1      54.502 -48.856  79.410  1.00  0.00     0.151 A 
ATOM     40  H9  UNL     1      54.958 -46.898  80.028  1.00  0.00     0.167 HD
BRANCH  39  41
HETATM   41  O6  UNL     1      54.787 -48.766  78.054  1.00  0.00    -0.345 OA
ATOM     42  H6  UNL     1      55.640 -48.605  77.670  1.00  0.00     0.219 HD
ENDBRANCH  39  41
ENDBRANCH  33  35
ENDBRANCH  29  32
ENDBRANCH   1  23
TORSDOF 11
ENDMDL
MODEL 5
REMARK VINA RESULT: -7.323945386      2.628      4.568
REMARK  11 active torsions:
REMARK  status: ('A' for Active; 'I' for Inactive)
REMARK    1  A    between atoms: N1_2  and  C1_4 
REMARK    2  A    between atoms: C3_6  and  N2_7 
REMARK    3  A    between atoms: C4_10  and  N3_11 
REMARK    4  A    between atoms: N3_11  and  N4_13 
REMARK    5  A    between atoms: N4_13  and  C5_15 
REMARK    6  A    between atoms: C5_15  and  O5_16 
REMARK    7  A    between atoms: C5_15  and  C6_18 
REMARK    8  A    between atoms: N7_24  and  N8_26 
REMARK    9  A    between atoms: C8_28  and  C9_29 
REMARK   10  A    between atoms: C12_34  and  O6_35 
REMARK   11  A    between atoms: C13_38  and  N10_39 
ROOT
HETATM    1  C5  UNL     1      49.551 -50.115  72.927  1.00  0.00     0.310 C 
ENDROOT
BRANCH   1   2
HETATM    2  N4  UNL     1      49.782 -51.292  73.639  1.00  0.00    -0.300 N 
ATOM      3  H4  UNL     1      50.227 -52.076  73.164  1.00  0.00     0.183 HD
BRANCH   2   4
HETATM    4  N3  UNL     1      49.435 -51.429  74.939  1.00  0.00    -0.298 N 
ATOM      5  H3  UNL     1      48.452 -51.461  75.212  1.00  0.00     0.187 HD
BRANCH   4   6
HETATM    6  C4  UNL     1      50.464 -51.526  75.920  1.00  0.00     0.114 A 
HETATM    7  C3  UNL     1      50.920 -50.418  76.608  1.00  0.00     0.135 A 
HETATM    8  C2  UNL     1      51.914 -50.511  77.570  1.00  0.00     0.074 A 
HETATM    9  C1  UNL     1      52.500 -51.716  77.888  1.00  0.00     0.107 A 
HETATM   10  C14 UNL     1      52.064 -52.816  77.221  1.00  0.00     0.074 A 
HETATM   11  C13 UNL     1      51.059 -52.722  76.249  1.00  0.00     0.135 A 
BRANCH   7  12
HETATM   12  N2  UNL     1      50.372 -49.146  76.346  1.00  0.00    -0.113 N 
HETATM   13  O3  UNL     1      51.057 -48.300  75.756  1.00  0.00    -0.532 OA
HETATM   14  O4  UNL     1      49.103 -48.850  76.737  1.00  0.00    -0.532 OA
ENDBRANCH   7  12
BRANCH   9  15
HETATM   15  N1  UNL     1      53.528 -51.805  78.884  1.00  0.00    -0.116 N 
HETATM   16  O1  UNL     1      54.190 -52.858  78.951  1.00  0.00    -0.532 OA
HETATM   17  O2  UNL     1      53.740 -50.747  79.714  1.00  0.00    -0.532 OA
ENDBRANCH   9  15
BRANCH  11  18
HETATM   18  N10 UNL     1      50.672 -53.918  75.591  1.00  0.00    -0.113 N 
HETATM   19  O8  UNL     1      50.669 -54.039  74.347  1.00  0.00    -0.532 OA
HETATM   20  O9  UNL     1      50.285 -54.984  76.340  1.00  0.00    -0.532 OA
ENDBRANCH  11  18
ENDBRANCH   4   6
ENDBRANCH   2   4
ENDBRANCH   1   2
BRANCH   1  21
HETATM   21  O5  UNL     1      50.728 -49.328  72.895  1.00  0.00    -0.368 OA
ATOM     22  H5  UNL     1      51.218 -49.505  72.101  1.00  0.00     0.212 HD
ENDBRANCH   1  21
BRANCH   1  23
HETATM   23  C6  UNL     1      48.451 -49.252  73.362  1.00  0.00     0.192 A 
HETATM   24  N5  UNL     1      48.528 -48.100  74.032  1.00  0.00    -0.276 N 
HETATM   25  N6  UNL     1      47.307 -47.640  74.226  1.00  0.00    -0.262 N 
ATOM     26  H5  UNL     1      49.390 -47.649  74.342  1.00  0.00     0.189 HD
HETATM   27  C7  UNL     1      46.470 -48.524  73.668  1.00  0.00     0.260 A 
ATOM     28  H6  UNL     1      47.050 -46.778  74.708  1.00  0.00     0.190 HD
HETATM   29  N7  UNL     1      45.161 -48.465  73.626  1.00  0.00    -0.264 N 
HETATM   30  O7  UNL     1      47.179 -49.476  73.160  1.00  0.00    -0.258 OA
ATOM     31  H7  UNL     1      44.655 -49.220  73.162  1.00  0.00     0.190 HD
BRANCH  29  32
HETATM   32  N8  UNL     1      44.441 -47.443  74.175  1.00  0.00    -0.308 N 
HETATM   33  C8  UNL     1      43.912 -47.334  75.318  1.00  0.00     0.123 C 
ATOM     34  H8  UNL     1      44.308 -46.637  73.564  1.00  0.00     0.186 HD
BRANCH  33  35
HETATM   35  C9  UNL     1      43.948 -48.329  76.373  1.00  0.00     0.033 A 
HETATM   36  C10 UNL     1      44.900 -49.272  76.675  1.00  0.00     0.034 A 
HETATM   37  C11 UNL     1      44.506 -50.012  77.779  1.00  0.00     0.091 A 
HETATM   38  N9  UNL     1      43.315 -49.533  78.165  1.00  0.00    -0.346 N 
HETATM   39  C12 UNL     1      42.958 -48.532  77.348  1.00  0.00     0.151 A 
ATOM     40  H9  UNL     1      42.768 -49.877  78.955  1.00  0.00     0.167 HD
BRANCH  39  41
HETATM   41  O6  UNL     1      41.773 -47.820  77.474  1.00  0.00    -0.345 OA
ATOM     42  H6  UNL     1      40.949 -48.155  77.807  1.00  0.00     0.219 HD
ENDBRANCH  39  41
ENDBRANCH  33  35
ENDBRANCH  29  32
ENDBRANCH   1  23
TORSDOF 11
ENDMDL
