MODEL 1
REMARK VINA RESULT: -6.636222175      0.000      0.000
REMARK  9 active torsions:
REMARK  status: ('A' for Active; 'I' for Inactive)
REMARK    1  A    between atoms: C2_2  and  C3_3 
REMARK    2  A    between atoms: C3_3  and  N1_4 
REMARK    3  A    between atoms: N1_4  and  C4_6 
REMARK    4  A    between atoms: C7_9  and  C8_10 
REMARK    5  A    between atoms: C8_10  and  C9_11 
REMARK    6  A    between atoms: C9_11  and  N2_12 
REMARK    7  A    between atoms: N2_12  and  C10_14 
REMARK    8  A    between atoms: C13_19  and  N4_20 
REMARK    9  A    between atoms: N4_20  and  C14_22 
ROOT
HETATM    1  C9  UNL     1     -22.494  91.657  12.322  1.00  0.00     0.142 C 
ENDROOT
BRANCH   1   2
HETATM    2  C8  UNL     1     -20.992  91.585  12.448  1.00  0.00     0.060 C 
BRANCH   2   3
HETATM    3  C7  UNL     1     -20.537  90.477  13.306  1.00  0.00    -0.041 A 
HETATM    4  C6  UNL     1     -21.334  89.871  14.255  1.00  0.00     0.012 A 
HETATM    5  C5  UNL     1     -20.835  88.839  15.021  1.00  0.00     0.049 A 
HETATM    6  C4  UNL     1     -19.541  88.394  14.859  1.00  0.00     0.101 A 
HETATM    7  N6  UNL     1     -18.774  88.991  13.934  1.00  0.00    -0.352 N 
HETATM    8  C15 UNL     1     -19.253  89.997  13.184  1.00  0.00     0.096 A 
ATOM      9  H6  UNL     1     -17.812  88.678  13.800  1.00  0.00     0.166 HD
BRANCH   6  10
HETATM   10  N1  UNL     1     -19.117  87.424  15.601  1.00  0.00    -0.373 N 
ATOM     11  H1  UNL     1     -19.660  86.563  15.643  1.00  0.00     0.161 HD
BRANCH  10  12
HETATM   12  C3  UNL     1     -17.893  87.521  16.376  1.00  0.00     0.147 C 
BRANCH  12  13
HETATM   13  C2  UNL     1     -18.232  88.187  17.649  1.00  0.00    -0.018 C 
HETATM   14  C1  UNL     1     -17.952  89.447  17.833  1.00  0.00     0.008 C 
ENDBRANCH  12  13
ENDBRANCH  10  12
ENDBRANCH   6  10
ENDBRANCH   2   3
ENDBRANCH   1   2
BRANCH   1  15
HETATM   15  N2  UNL     1     -22.980  92.731  13.152  1.00  0.00    -0.226 N 
ATOM     16  H2  UNL     1     -22.326  93.233  13.752  1.00  0.00     0.177 HD
BRANCH  15  17
HETATM   17  C10 UNL     1     -24.230  93.074  13.151  1.00  0.00     0.679 A 
HETATM   18  N3  UNL     1     -24.790  93.455  11.991  1.00  0.00    -0.202 N 
HETATM   19  C11 UNL     1     -26.099  93.832  11.901  1.00  0.00     0.110 A 
ATOM     20  H3  UNL     1     -24.216  93.463  11.148  1.00  0.00     0.183 HD
HETATM   21  C12 UNL     1     -26.863  93.816  13.045  1.00  0.00     0.067 A 
HETATM   22  C13 UNL     1     -26.279  93.425  14.221  1.00  0.00     0.124 A 
HETATM   23  N5  UNL     1     -24.977  93.060  14.259  1.00  0.00    -0.177 N 
ATOM     24  H5  UNL     1     -24.560  92.771  15.144  1.00  0.00     0.186 HD
BRANCH  22  25
HETATM   25  N4  UNL     1     -26.968  93.402  15.295  1.00  0.00    -0.320 N 
ATOM     26  H4  UNL     1     -27.361  94.265  15.670  1.00  0.00     0.169 HD
BRANCH  25  27
HETATM   27  C14 UNL     1     -27.186  92.172  15.964  1.00  0.00     0.354 C 
HETATM   28  O1  UNL     1     -26.448  91.172  15.743  1.00  0.00    -0.283 OA
ENDBRANCH  25  27
ENDBRANCH  22  25
ENDBRANCH  15  17
ENDBRANCH   1  15
TORSDOF 9
ENDMDL
MODEL 2
REMARK VINA RESULT: -6.519439176      1.236      1.616
REMARK  9 active torsions:
REMARK  status: ('A' for Active; 'I' for Inactive)
REMARK    1  A    between atoms: C2_2  and  C3_3 
REMARK    2  A    between atoms: C3_3  and  N1_4 
REMARK    3  A    between atoms: N1_4  and  C4_6 
REMARK    4  A    between atoms: C7_9  and  C8_10 
REMARK    5  A    between atoms: C8_10  and  C9_11 
REMARK    6  A    between atoms: C9_11  and  N2_12 
REMARK    7  A    between atoms: N2_12  and  C10_14 
REMARK    8  A    between atoms: C13_19  and  N4_20 
REMARK    9  A    between atoms: N4_20  and  C14_22 
ROOT
HETATM    1  C9  UNL     1     -22.408  92.984  12.137  1.00  0.00     0.142 C 
ENDROOT
BRANCH   1   2
HETATM    2  C8  UNL     1     -22.614  91.493  12.029  1.00  0.00     0.060 C 
BRANCH   2   3
HETATM    3  C7  UNL     1     -22.052  90.749  13.169  1.00  0.00    -0.041 A 
HETATM    4  C6  UNL     1     -20.762  90.917  13.628  1.00  0.00     0.012 A 
HETATM    5  C5  UNL     1     -20.309  90.182  14.703  1.00  0.00     0.049 A 
HETATM    6  C4  UNL     1     -21.124  89.272  15.338  1.00  0.00     0.101 A 
HETATM    7  N6  UNL     1     -22.377  89.115  14.883  1.00  0.00    -0.352 N 
HETATM    8  C15 UNL     1     -22.826  89.828  13.837  1.00  0.00     0.096 A 
ATOM      9  H6  UNL     1     -22.998  88.445  15.338  1.00  0.00     0.166 HD
BRANCH   6  10
HETATM   10  N1  UNL     1     -20.655  88.605  16.340  1.00  0.00    -0.373 N 
ATOM     11  H1  UNL     1     -20.773  87.593  16.358  1.00  0.00     0.161 HD
BRANCH  10  12
HETATM   12  C3  UNL     1     -19.964  89.250  17.443  1.00  0.00     0.147 C 
BRANCH  12  13
HETATM   13  C2  UNL     1     -18.702  88.516  17.659  1.00  0.00    -0.018 C 
HETATM   14  C1  UNL     1     -17.560  89.146  17.649  1.00  0.00     0.008 C 
ENDBRANCH  12  13
ENDBRANCH  10  12
ENDBRANCH   6  10
ENDBRANCH   2   3
ENDBRANCH   1   2
BRANCH   1  15
HETATM   15  N2  UNL     1     -23.155  93.478  13.267  1.00  0.00    -0.226 N 
ATOM     16  H2  UNL     1     -22.660  93.718  14.126  1.00  0.00     0.177 HD
BRANCH  15  17
HETATM   17  C10 UNL     1     -24.442  93.623  13.217  1.00  0.00     0.679 A 
HETATM   18  N3  UNL     1     -24.986  94.129  12.098  1.00  0.00    -0.202 N 
HETATM   19  C11 UNL     1     -26.331  94.316  11.960  1.00  0.00     0.110 A 
ATOM     20  H3  UNL     1     -24.372  94.383  11.324  1.00  0.00     0.183 HD
HETATM   21  C12 UNL     1     -27.150  93.970  13.010  1.00  0.00     0.067 A 
HETATM   22  C13 UNL     1     -26.581  93.454  14.146  1.00  0.00     0.124 A 
HETATM   23  N5  UNL     1     -25.241  93.288  14.233  1.00  0.00    -0.177 N 
ATOM     24  H5  UNL     1     -24.837  92.902  15.086  1.00  0.00     0.186 HD
BRANCH  22  25
HETATM   25  N4  UNL     1     -27.320  93.125  15.132  1.00  0.00    -0.320 N 
ATOM     26  H4  UNL     1     -28.267  93.496  15.209  1.00  0.00     0.169 HD
BRANCH  25  27
HETATM   27  C14 UNL     1     -26.819  92.243  16.121  1.00  0.00     0.354 C 
HETATM   28  O1  UNL     1     -26.506  91.054  15.835  1.00  0.00    -0.283 OA
ENDBRANCH  25  27
ENDBRANCH  22  25
ENDBRANCH  15  17
ENDBRANCH   1  15
TORSDOF 9
ENDMDL
MODEL 3
REMARK VINA RESULT: -6.491746709      0.699      1.124
REMARK  9 active torsions:
REMARK  status: ('A' for Active; 'I' for Inactive)
REMARK    1  A    between atoms: C2_2  and  C3_3 
REMARK    2  A    between atoms: C3_3  and  N1_4 
REMARK    3  A    between atoms: N1_4  and  C4_6 
REMARK    4  A    between atoms: C7_9  and  C8_10 
REMARK    5  A    between atoms: C8_10  and  C9_11 
REMARK    6  A    between atoms: C9_11  and  N2_12 
REMARK    7  A    between atoms: N2_12  and  C10_14 
REMARK    8  A    between atoms: C13_19  and  N4_20 
REMARK    9  A    between atoms: N4_20  and  C14_22 
ROOT
HETATM    1  C9  UNL     1     -22.369  91.275  12.834  1.00  0.00     0.142 C 
ENDROOT
BRANCH   1   2
HETATM    2  C8  UNL     1     -20.889  91.276  12.538  1.00  0.00     0.060 C 
BRANCH   2   3
HETATM    3  C7  UNL     1     -20.141  90.288  13.335  1.00  0.00    -0.041 A 
HETATM    4  C6  UNL     1     -18.794  90.040  13.174  1.00  0.00     0.012 A 
HETATM    5  C5  UNL     1     -18.165  89.099  13.960  1.00  0.00     0.049 A 
HETATM    6  C4  UNL     1     -18.859  88.389  14.915  1.00  0.00     0.101 A 
HETATM    7  N6  UNL     1     -20.170  88.637  15.063  1.00  0.00    -0.352 N 
HETATM    8  C15 UNL     1     -20.790  89.554  14.301  1.00  0.00     0.096 A 
ATOM      9  H6  UNL     1     -20.704  88.122  15.763  1.00  0.00     0.166 HD
BRANCH   6  10
HETATM   10  N1  UNL     1     -18.227  87.516  15.627  1.00  0.00    -0.373 N 
ATOM     11  H1  UNL     1     -17.679  86.798  15.154  1.00  0.00     0.161 HD
BRANCH  10  12
HETATM   12  C3  UNL     1     -18.270  87.523  17.078  1.00  0.00     0.147 C 
BRANCH  12  13
HETATM   13  C2  UNL     1     -17.537  88.721  17.533  1.00  0.00    -0.018 C 
HETATM   14  C1  UNL     1     -18.184  89.775  17.949  1.00  0.00     0.008 C 
ENDBRANCH  12  13
ENDBRANCH  10  12
ENDBRANCH   6  10
ENDBRANCH   2   3
ENDBRANCH   1   2
BRANCH   1  15
HETATM   15  N2  UNL     1     -22.783  92.622  13.144  1.00  0.00    -0.226 N 
ATOM     16  H2  UNL     1     -22.086  93.299  13.453  1.00  0.00     0.177 HD
BRANCH  15  17
HETATM   17  C10 UNL     1     -24.021  92.990  13.040  1.00  0.00     0.679 A 
HETATM   18  N3  UNL     1     -24.504  93.278  11.820  1.00  0.00    -0.202 N 
HETATM   19  C11 UNL     1     -25.795  93.673  11.620  1.00  0.00     0.110 A 
ATOM     20  H3  UNL     1     -23.883  93.198  11.015  1.00  0.00     0.183 HD
HETATM   21  C12 UNL     1     -26.623  93.777  12.714  1.00  0.00     0.067 A 
HETATM   22  C13 UNL     1     -26.118  93.480  13.953  1.00  0.00     0.124 A 
HETATM   23  N5  UNL     1     -24.830  93.091  14.099  1.00  0.00    -0.177 N 
ATOM     24  H5  UNL     1     -24.472  92.873  15.029  1.00  0.00     0.186 HD
BRANCH  22  25
HETATM   25  N4  UNL     1     -26.867  93.567  14.982  1.00  0.00    -0.320 N 
ATOM     26  H4  UNL     1     -27.229  94.475  15.275  1.00  0.00     0.169 HD
BRANCH  25  27
HETATM   27  C14 UNL     1     -27.193  92.400  15.715  1.00  0.00     0.354 C 
HETATM   28  O1  UNL     1     -26.462  91.373  15.663  1.00  0.00    -0.283 OA
ENDBRANCH  25  27
ENDBRANCH  22  25
ENDBRANCH  15  17
ENDBRANCH   1  15
TORSDOF 9
ENDMDL
MODEL 4
REMARK VINA RESULT: -6.314990799      1.997      7.521
REMARK  9 active torsions:
REMARK  status: ('A' for Active; 'I' for Inactive)
REMARK    1  A    between atoms: C2_2  and  C3_3 
REMARK    2  A    between atoms: C3_3  and  N1_4 
REMARK    3  A    between atoms: N1_4  and  C4_6 
REMARK    4  A    between atoms: C7_9  and  C8_10 
REMARK    5  A    between atoms: C8_10  and  C9_11 
REMARK    6  A    between atoms: C9_11  and  N2_12 
REMARK    7  A    between atoms: N2_12  and  C10_14 
REMARK    8  A    between atoms: C13_19  and  N4_20 
REMARK    9  A    between atoms: N4_20  and  C14_22 
ROOT
HETATM    1  C9  UNL     1     -18.362  90.741  11.961  1.00  0.00     0.142 C 
ENDROOT
BRANCH   1   2
HETATM    2  C8  UNL     1     -18.788  92.189  12.000  1.00  0.00     0.060 C 
BRANCH   2   3
HETATM    3  C7  UNL     1     -20.236  92.359  12.212  1.00  0.00    -0.041 A 
HETATM    4  C6  UNL     1     -20.988  93.336  11.595  1.00  0.00     0.012 A 
HETATM    5  C5  UNL     1     -22.340  93.431  11.846  1.00  0.00     0.049 A 
HETATM    6  C4  UNL     1     -22.966  92.561  12.711  1.00  0.00     0.101 A 
HETATM    7  N6  UNL     1     -22.225  91.613  13.307  1.00  0.00    -0.352 N 
HETATM    8  C15 UNL     1     -20.908  91.514  13.067  1.00  0.00     0.096 A 
ATOM      9  H6  UNL     1     -22.669  90.959  13.952  1.00  0.00     0.166 HD
BRANCH   6  10
HETATM   10  N1  UNL     1     -24.236  92.689  12.915  1.00  0.00    -0.373 N 
ATOM     11  H1  UNL     1     -24.803  91.850  13.030  1.00  0.00     0.161 HD
BRANCH  10  12
HETATM   12  C3  UNL     1     -24.881  93.988  12.987  1.00  0.00     0.147 C 
BRANCH  12  13
HETATM   13  C2  UNL     1     -26.223  93.845  12.388  1.00  0.00    -0.018 C 
HETATM   14  C1  UNL     1     -27.284  94.223  13.045  1.00  0.00     0.008 C 
ENDBRANCH  12  13
ENDBRANCH  10  12
ENDBRANCH   6  10
ENDBRANCH   2   3
ENDBRANCH   1   2
BRANCH   1  15
HETATM   15  N2  UNL     1     -17.497  90.479  13.085  1.00  0.00    -0.226 N 
ATOM     16  H2  UNL     1     -16.536  90.822  13.065  1.00  0.00     0.177 HD
BRANCH  15  17
HETATM   17  C10 UNL     1     -17.912  89.819  14.119  1.00  0.00     0.679 A 
HETATM   18  N3  UNL     1     -17.444  90.163  15.330  1.00  0.00    -0.202 N 
HETATM   19  C11 UNL     1     -17.828  89.521  16.472  1.00  0.00     0.110 A 
ATOM     20  H3  UNL     1     -16.778  90.933  15.399  1.00  0.00     0.183 HD
HETATM   21  C12 UNL     1     -18.728  88.485  16.367  1.00  0.00     0.067 A 
HETATM   22  C13 UNL     1     -19.198  88.144  15.125  1.00  0.00     0.124 A 
HETATM   23  N5  UNL     1     -18.786  88.813  14.023  1.00  0.00    -0.177 N 
ATOM     24  H5  UNL     1     -19.148  88.545  13.108  1.00  0.00     0.186 HD
BRANCH  22  25
HETATM   25  N4  UNL     1     -20.033  87.188  15.003  1.00  0.00    -0.320 N 
ATOM     26  H4  UNL     1     -19.705  86.222  14.972  1.00  0.00     0.169 HD
BRANCH  25  27
HETATM   27  C14 UNL     1     -21.418  87.472  14.911  1.00  0.00     0.354 C 
HETATM   28  O1  UNL     1     -21.846  88.387  14.154  1.00  0.00    -0.283 OA
ENDBRANCH  25  27
ENDBRANCH  22  25
ENDBRANCH  15  17
ENDBRANCH   1  15
TORSDOF 9
ENDMDL
MODEL 5
REMARK VINA RESULT: -6.293867487      2.055      7.438
REMARK  9 active torsions:
REMARK  status: ('A' for Active; 'I' for Inactive)
REMARK    1  A    between atoms: C2_2  and  C3_3 
REMARK    2  A    between atoms: C3_3  and  N1_4 
REMARK    3  A    between atoms: N1_4  and  C4_6 
REMARK    4  A    between atoms: C7_9  and  C8_10 
REMARK    5  A    between atoms: C8_10  and  C9_11 
REMARK    6  A    between atoms: C9_11  and  N2_12 
REMARK    7  A    between atoms: N2_12  and  C10_14 
REMARK    8  A    between atoms: C13_19  and  N4_20 
REMARK    9  A    between atoms: N4_20  and  C14_22 
ROOT
HETATM    1  C9  UNL     1     -17.886  90.535  13.233  1.00  0.00     0.142 C 
ENDROOT
BRANCH   1   2
HETATM    2  C8  UNL     1     -18.859  90.406  12.086  1.00  0.00     0.060 C 
BRANCH   2   3
HETATM    3  C7  UNL     1     -20.176  90.996  12.378  1.00  0.00    -0.041 A 
HETATM    4  C6  UNL     1     -20.685  92.093  11.714  1.00  0.00     0.012 A 
HETATM    5  C5  UNL     1     -21.928  92.588  12.046  1.00  0.00     0.049 A 
HETATM    6  C4  UNL     1     -22.685  92.005  13.038  1.00  0.00     0.101 A 
HETATM    7  N6  UNL     1     -22.181  90.939  13.679  1.00  0.00    -0.352 N 
HETATM    8  C15 UNL     1     -20.970  90.451  13.361  1.00  0.00     0.096 A 
ATOM      9  H6  UNL     1     -22.724  90.493  14.418  1.00  0.00     0.166 HD
BRANCH   6  10
HETATM   10  N1  UNL     1     -23.844  92.505  13.315  1.00  0.00    -0.373 N 
ATOM     11  H1  UNL     1     -24.534  91.919  13.784  1.00  0.00     0.161 HD
BRANCH  10  12
HETATM   12  C3  UNL     1     -24.197  93.873  12.979  1.00  0.00     0.147 C 
BRANCH  12  13
HETATM   13  C2  UNL     1     -25.499  93.831  12.283  1.00  0.00    -0.018 C 
HETATM   14  C1  UNL     1     -25.553  93.808  10.980  1.00  0.00     0.008 C 
ENDBRANCH  12  13
ENDBRANCH  10  12
ENDBRANCH   6  10
ENDBRANCH   2   3
ENDBRANCH   1   2
BRANCH   1  15
HETATM   15  N2  UNL     1     -17.730  89.246  13.860  1.00  0.00    -0.226 N 
ATOM     16  H2  UNL     1     -17.350  88.470  13.318  1.00  0.00     0.177 HD
BRANCH  15  17
HETATM   17  C10 UNL     1     -18.062  89.050  15.097  1.00  0.00     0.679 A 
HETATM   18  N3  UNL     1     -17.372  89.691  16.055  1.00  0.00    -0.202 N 
HETATM   19  C11 UNL     1     -17.655  89.542  17.382  1.00  0.00     0.110 A 
ATOM     20  H3  UNL     1     -16.610  90.311  15.781  1.00  0.00     0.183 HD
HETATM   21  C12 UNL     1     -18.685  88.705  17.741  1.00  0.00     0.067 A 
HETATM   22  C13 UNL     1     -19.382  88.058  16.753  1.00  0.00     0.124 A 
HETATM   23  N5  UNL     1     -19.063  88.239  15.451  1.00  0.00    -0.177 N 
ATOM     24  H5  UNL     1     -19.593  87.749  14.730  1.00  0.00     0.186 HD
BRANCH  22  25
HETATM   25  N4  UNL     1     -20.342  87.277  17.061  1.00  0.00    -0.320 N 
ATOM     26  H4  UNL     1     -20.149  86.375  17.497  1.00  0.00     0.169 HD
BRANCH  25  27
HETATM   27  C14 UNL     1     -21.678  87.667  16.795  1.00  0.00     0.354 C 
HETATM   28  O1  UNL     1     -21.932  88.719  16.146  1.00  0.00    -0.283 OA
ENDBRANCH  25  27
ENDBRANCH  22  25
ENDBRANCH  15  17
ENDBRANCH   1  15
TORSDOF 9
ENDMDL
