MODEL 1
REMARK VINA RESULT: -6.288227063      0.000      0.000
REMARK  8 active torsions:
REMARK  status: ('A' for Active; 'I' for Inactive)
REMARK    1  A    between atoms: C3_6  and  C4_7 
REMARK    2  A    between atoms: C4_7  and  C5_8 
REMARK    3  A    between atoms: C5_8  and  N3_9 
REMARK    4  A    between atoms: C7_14  and  N4_15 
REMARK    5  A    between atoms: N5_18  and  C8_19 
REMARK    6  A    between atoms: C8_19  and  C9_20 
REMARK    7  A    between atoms: C9_20  and  O1_21 
REMARK    8  A    between atoms: O1_21  and  C10_22 
ROOT
HETATM    1  C1  UNL     1     -21.645  88.658  14.543  1.00  0.00     0.233 C 
HETATM    2  N1  UNL     1     -21.795  89.666  13.971  1.00  0.00    -0.395 NA
HETATM    3  C2  UNL     1     -21.991  90.869  13.324  1.00  0.00     0.262 A 
HETATM    4  N2  UNL     1     -23.171  91.494  13.438  1.00  0.00    -0.320 N 
ATOM      5  H2  UNL     1     -23.908  91.053  13.989  1.00  0.00     0.170 HD
HETATM    6  C3  UNL     1     -23.421  92.676  12.857  1.00  0.00     0.018 A 
HETATM    7  C6  UNL     1     -22.410  93.232  12.132  1.00  0.00     0.073 A 
HETATM    8  C7  UNL     1     -21.182  92.558  12.027  1.00  0.00     0.106 A 
HETATM    9  N5  UNL     1     -20.937  91.380  12.604  1.00  0.00    -0.291 N 
ENDROOT
BRANCH   9  10
HETATM   10  C8  UNL     1     -19.693  90.656  12.544  1.00  0.00     0.161 C 
BRANCH  10  11
HETATM   11  C9  UNL     1     -18.613  91.071  13.451  1.00  0.00     0.196 C 
BRANCH  11  12
HETATM   12  O1  UNL     1     -18.733  91.074  14.810  1.00  0.00    -0.350 OA
BRANCH  12  13
HETATM   13  C10 UNL     1     -18.653  90.123  15.768  1.00  0.00     0.068 A 
HETATM   14  C11 UNL     1     -19.074  90.212  17.075  1.00  0.00     0.037 A 
HETATM   15  C12 UNL     1     -18.955  89.194  17.987  1.00  0.00     0.003 A 
HETATM   16  C13 UNL     1     -18.384  88.014  17.581  1.00  0.00     0.000 A 
HETATM   17  C14 UNL     1     -17.943  87.857  16.294  1.00  0.00     0.003 A 
HETATM   18  C15 UNL     1     -18.078  88.898  15.403  1.00  0.00     0.037 A 
ENDBRANCH  12  13
ENDBRANCH  11  12
ENDBRANCH  10  11
ENDBRANCH   9  10
BRANCH   6  19
HETATM   19  C4  UNL     1     -24.741  93.330  13.011  1.00  0.00     0.084 C 
BRANCH  19  20
HETATM   20  C5  UNL     1     -24.527  94.524  13.936  1.00  0.00     0.235 C 
BRANCH  20  21
HETATM   21  N3  UNL     1     -25.083  94.206  15.217  1.00  0.00    -0.079 N 
ATOM     22  H33 UNL     1     -26.073  94.442  15.285  1.00  0.00     0.274 HD
ATOM     23  H32 UNL     1     -25.169  93.201  15.369  1.00  0.00     0.274 HD
ATOM     24  H31 UNL     1     -24.520  94.665  15.933  1.00  0.00     0.274 HD
ENDBRANCH  20  21
ENDBRANCH  19  20
ENDBRANCH   6  19
BRANCH   8  25
HETATM   25  N4  UNL     1     -20.225  93.135  11.368  1.00  0.00    -0.385 N 
ATOM     26  H42 UNL     1     -20.024  94.116  11.562  1.00  0.00     0.157 HD
ATOM     27  H41 UNL     1     -19.735  92.590  10.659  1.00  0.00     0.157 HD
ENDBRANCH   8  25
TORSDOF 8
ENDMDL
MODEL 2
REMARK VINA RESULT: -6.154368611      2.682      5.789
REMARK  8 active torsions:
REMARK  status: ('A' for Active; 'I' for Inactive)
REMARK    1  A    between atoms: C3_6  and  C4_7 
REMARK    2  A    between atoms: C4_7  and  C5_8 
REMARK    3  A    between atoms: C5_8  and  N3_9 
REMARK    4  A    between atoms: C7_14  and  N4_15 
REMARK    5  A    between atoms: N5_18  and  C8_19 
REMARK    6  A    between atoms: C8_19  and  C9_20 
REMARK    7  A    between atoms: C9_20  and  O1_21 
REMARK    8  A    between atoms: O1_21  and  C10_22 
ROOT
HETATM    1  C1  UNL     1     -18.507  93.901  14.806  1.00  0.00     0.233 C 
HETATM    2  N1  UNL     1     -18.565  92.740  14.934  1.00  0.00    -0.395 NA
HETATM    3  C2  UNL     1     -18.667  91.374  15.096  1.00  0.00     0.262 A 
HETATM    4  N2  UNL     1     -19.386  90.883  16.116  1.00  0.00    -0.320 N 
ATOM      5  H2  UNL     1     -19.827  91.536  16.763  1.00  0.00     0.170 HD
HETATM    6  C3  UNL     1     -19.548  89.568  16.316  1.00  0.00     0.018 A 
HETATM    7  C6  UNL     1     -18.945  88.729  15.427  1.00  0.00     0.073 A 
HETATM    8  C7  UNL     1     -18.198  89.267  14.367  1.00  0.00     0.106 A 
HETATM    9  N5  UNL     1     -18.035  90.577  14.171  1.00  0.00    -0.291 N 
ENDROOT
BRANCH   9  10
HETATM   10  C8  UNL     1     -17.297  91.181  13.091  1.00  0.00     0.161 C 
BRANCH  10  11
HETATM   11  C9  UNL     1     -18.018  91.465  11.841  1.00  0.00     0.196 C 
BRANCH  11  12
HETATM   12  O1  UNL     1     -19.307  91.083  11.614  1.00  0.00    -0.350 OA
BRANCH  12  13
HETATM   13  C10 UNL     1     -20.515  91.609  11.913  1.00  0.00     0.068 A 
HETATM   14  C11 UNL     1     -21.007  92.843  11.549  1.00  0.00     0.037 A 
HETATM   15  C12 UNL     1     -22.251  93.302  11.897  1.00  0.00     0.003 A 
HETATM   16  C13 UNL     1     -23.063  92.491  12.651  1.00  0.00     0.000 A 
HETATM   17  C14 UNL     1     -22.638  91.251  13.047  1.00  0.00     0.003 A 
HETATM   18  C15 UNL     1     -21.382  90.819  12.681  1.00  0.00     0.037 A 
ENDBRANCH  12  13
ENDBRANCH  11  12
ENDBRANCH  10  11
ENDBRANCH   9  10
BRANCH   6  19
HETATM   19  C4  UNL     1     -20.351  89.071  17.458  1.00  0.00     0.084 C 
BRANCH  19  20
HETATM   20  C5  UNL     1     -21.577  88.387  16.860  1.00  0.00     0.235 C 
BRANCH  20  21
HETATM   21  N3  UNL     1     -21.517  86.994  17.186  1.00  0.00    -0.079 N 
ATOM     22  H33 UNL     1     -21.322  86.830  18.173  1.00  0.00     0.274 HD
ATOM     23  H32 UNL     1     -22.431  86.543  17.149  1.00  0.00     0.274 HD
ATOM     24  H31 UNL     1     -20.835  86.551  16.572  1.00  0.00     0.274 HD
ENDBRANCH  20  21
ENDBRANCH  19  20
ENDBRANCH   6  19
BRANCH   8  25
HETATM   25  N4  UNL     1     -17.675  88.444  13.512  1.00  0.00    -0.385 N 
ATOM     26  H42 UNL     1     -17.878  88.578  12.521  1.00  0.00     0.157 HD
ATOM     27  H41 UNL     1     -17.109  87.675  13.871  1.00  0.00     0.157 HD
ENDBRANCH   8  25
TORSDOF 8
ENDMDL
MODEL 3
REMARK VINA RESULT: -6.148308049      1.787      2.938
REMARK  8 active torsions:
REMARK  status: ('A' for Active; 'I' for Inactive)
REMARK    1  A    between atoms: C3_6  and  C4_7 
REMARK    2  A    between atoms: C4_7  and  C5_8 
REMARK    3  A    between atoms: C5_8  and  N3_9 
REMARK    4  A    between atoms: C7_14  and  N4_15 
REMARK    5  A    between atoms: N5_18  and  C8_19 
REMARK    6  A    between atoms: C8_19  and  C9_20 
REMARK    7  A    between atoms: C9_20  and  O1_21 
REMARK    8  A    between atoms: O1_21  and  C10_22 
ROOT
HETATM    1  C1  UNL     1     -18.285  95.010  14.008  1.00  0.00     0.233 C 
HETATM    2  N1  UNL     1     -18.796  94.023  13.645  1.00  0.00    -0.395 NA
HETATM    3  C2  UNL     1     -19.423  92.878  13.198  1.00  0.00     0.262 A 
HETATM    4  N2  UNL     1     -20.761  92.850  13.111  1.00  0.00    -0.320 N 
ATOM      5  H2  UNL     1     -21.287  93.675  13.398  1.00  0.00     0.170 HD
HETATM    6  C3  UNL     1     -21.433  91.781  12.662  1.00  0.00     0.018 A 
HETATM    7  C6  UNL     1     -20.692  90.701  12.287  1.00  0.00     0.073 A 
HETATM    8  C7  UNL     1     -19.292  90.753  12.386  1.00  0.00     0.106 A 
HETATM    9  N5  UNL     1     -18.626  91.818  12.837  1.00  0.00    -0.291 N 
ENDROOT
BRANCH   9  10
HETATM   10  C8  UNL     1     -17.193  91.932  12.942  1.00  0.00     0.161 C 
BRANCH  10  11
HETATM   11  C9  UNL     1     -16.544  91.354  14.128  1.00  0.00     0.196 C 
BRANCH  11  12
HETATM   12  O1  UNL     1     -16.957  90.198  14.723  1.00  0.00    -0.350 OA
BRANCH  12  13
HETATM   13  C10 UNL     1     -17.777  89.908  15.757  1.00  0.00     0.068 A 
HETATM   14  C11 UNL     1     -18.980  90.500  16.066  1.00  0.00     0.037 A 
HETATM   15  C12 UNL     1     -19.754  90.144  17.141  1.00  0.00     0.003 A 
HETATM   16  C13 UNL     1     -19.311  89.138  17.963  1.00  0.00     0.000 A 
HETATM   17  C14 UNL     1     -18.122  88.504  17.714  1.00  0.00     0.003 A 
HETATM   18  C15 UNL     1     -17.369  88.886  16.626  1.00  0.00     0.037 A 
ENDBRANCH  12  13
ENDBRANCH  11  12
ENDBRANCH  10  11
ENDBRANCH   9  10
BRANCH   6  19
HETATM   19  C4  UNL     1     -22.912  91.796  12.584  1.00  0.00     0.084 C 
BRANCH  19  20
HETATM   20  C5  UNL     1     -23.337  93.257  12.697  1.00  0.00     0.235 C 
BRANCH  20  21
HETATM   21  N3  UNL     1     -24.242  93.378  13.799  1.00  0.00    -0.079 N 
ATOM     22  H33 UNL     1     -24.378  92.496  14.294  1.00  0.00     0.274 HD
ATOM     23  H32 UNL     1     -23.849  93.912  14.574  1.00  0.00     0.274 HD
ATOM     24  H31 UNL     1     -25.117  93.772  13.454  1.00  0.00     0.274 HD
ENDBRANCH  20  21
ENDBRANCH  19  20
ENDBRANCH   6  19
BRANCH   8  25
HETATM   25  N4  UNL     1     -18.614  89.726  11.978  1.00  0.00    -0.385 N 
ATOM     26  H42 UNL     1     -19.014  89.138  11.247  1.00  0.00     0.157 HD
ATOM     27  H41 UNL     1     -17.720  89.531  12.431  1.00  0.00     0.157 HD
ENDBRANCH   8  25
TORSDOF 8
ENDMDL
MODEL 4
REMARK VINA RESULT: -6.143825593      2.281      7.143
REMARK  8 active torsions:
REMARK  status: ('A' for Active; 'I' for Inactive)
REMARK    1  A    between atoms: C3_6  and  C4_7 
REMARK    2  A    between atoms: C4_7  and  C5_8 
REMARK    3  A    between atoms: C5_8  and  N3_9 
REMARK    4  A    between atoms: C7_14  and  N4_15 
REMARK    5  A    between atoms: N5_18  and  C8_19 
REMARK    6  A    between atoms: C8_19  and  C9_20 
REMARK    7  A    between atoms: C9_20  and  O1_21 
REMARK    8  A    between atoms: O1_21  and  C10_22 
ROOT
HETATM    1  C1  UNL     1     -18.673  92.751  13.278  1.00  0.00     0.233 C 
HETATM    2  N1  UNL     1     -19.303  91.879  13.737  1.00  0.00    -0.395 NA
HETATM    3  C2  UNL     1     -20.039  90.863  14.311  1.00  0.00     0.262 A 
HETATM    4  N2  UNL     1     -19.597  90.285  15.437  1.00  0.00    -0.320 N 
ATOM      5  H2  UNL     1     -18.712  90.599  15.834  1.00  0.00     0.170 HD
HETATM    6  C3  UNL     1     -20.273  89.311  16.061  1.00  0.00     0.018 A 
HETATM    7  C6  UNL     1     -21.453  88.922  15.499  1.00  0.00     0.073 A 
HETATM    8  C7  UNL     1     -21.895  89.542  14.319  1.00  0.00     0.106 A 
HETATM    9  N5  UNL     1     -21.218  90.510  13.698  1.00  0.00    -0.291 N 
ENDROOT
BRANCH   9  10
HETATM   10  C8  UNL     1     -21.634  91.192  12.499  1.00  0.00     0.161 C 
BRANCH  10  11
HETATM   11  C9  UNL     1     -22.509  92.365  12.646  1.00  0.00     0.196 C 
BRANCH  11  12
HETATM   12  O1  UNL     1     -23.801  92.289  13.078  1.00  0.00    -0.350 OA
BRANCH  12  13
HETATM   13  C10 UNL     1     -24.898  93.060  12.916  1.00  0.00     0.068 A 
HETATM   14  C11 UNL     1     -25.783  93.476  13.886  1.00  0.00     0.037 A 
HETATM   15  C12 UNL     1     -26.878  94.262  13.635  1.00  0.00     0.003 A 
HETATM   16  C13 UNL     1     -27.114  94.665  12.344  1.00  0.00     0.000 A 
HETATM   17  C14 UNL     1     -26.274  94.288  11.329  1.00  0.00     0.003 A 
HETATM   18  C15 UNL     1     -25.183  93.498  11.615  1.00  0.00     0.037 A 
ENDBRANCH  12  13
ENDBRANCH  11  12
ENDBRANCH  10  11
ENDBRANCH   9  10
BRANCH   6  19
HETATM   19  C4  UNL     1     -19.746  88.700  17.303  1.00  0.00     0.084 C 
BRANCH  19  20
HETATM   20  C5  UNL     1     -18.271  88.406  17.050  1.00  0.00     0.235 C 
BRANCH  20  21
HETATM   21  N3  UNL     1     -18.163  87.088  16.503  1.00  0.00    -0.079 N 
ATOM     22  H33 UNL     1     -19.009  86.534  16.642  1.00  0.00     0.274 HD
ATOM     23  H32 UNL     1     -18.160  87.084  15.484  1.00  0.00     0.274 HD
ATOM     24  H31 UNL     1     -17.335  86.643  16.900  1.00  0.00     0.274 HD
ENDBRANCH  20  21
ENDBRANCH  19  20
ENDBRANCH   6  19
BRANCH   8  25
HETATM   25  N4  UNL     1     -23.043  89.182  13.835  1.00  0.00    -0.385 N 
ATOM     26  H42 UNL     1     -23.889  89.590  14.233  1.00  0.00     0.157 HD
ATOM     27  H41 UNL     1     -23.052  88.477  13.097  1.00  0.00     0.157 HD
ENDBRANCH   8  25
TORSDOF 8
ENDMDL
MODEL 5
REMARK VINA RESULT: -6.133201463      2.702      5.798
REMARK  8 active torsions:
REMARK  status: ('A' for Active; 'I' for Inactive)
REMARK    1  A    between atoms: C3_6  and  C4_7 
REMARK    2  A    between atoms: C4_7  and  C5_8 
REMARK    3  A    between atoms: C5_8  and  N3_9 
REMARK    4  A    between atoms: C7_14  and  N4_15 
REMARK    5  A    between atoms: N5_18  and  C8_19 
REMARK    6  A    between atoms: C8_19  and  C9_20 
REMARK    7  A    between atoms: C9_20  and  O1_21 
REMARK    8  A    between atoms: O1_21  and  C10_22 
ROOT
HETATM    1  C1  UNL     1     -18.396  93.917  14.850  1.00  0.00     0.233 C 
HETATM    2  N1  UNL     1     -18.491  92.758  14.973  1.00  0.00    -0.395 NA
HETATM    3  C2  UNL     1     -18.637  91.394  15.125  1.00  0.00     0.262 A 
HETATM    4  N2  UNL     1     -19.429  90.921  16.097  1.00  0.00    -0.320 N 
ATOM      5  H2  UNL     1     -19.892  91.584  16.718  1.00  0.00     0.170 HD
HETATM    6  C3  UNL     1     -19.636  89.611  16.285  1.00  0.00     0.018 A 
HETATM    7  C6  UNL     1     -19.001  88.757  15.433  1.00  0.00     0.073 A 
HETATM    8  C7  UNL     1     -18.176  89.277  14.422  1.00  0.00     0.106 A 
HETATM    9  N5  UNL     1     -17.970  90.582  14.239  1.00  0.00    -0.291 N 
ENDROOT
BRANCH   9  10
HETATM   10  C8  UNL     1     -17.151  91.168  13.208  1.00  0.00     0.161 C 
BRANCH  10  11
HETATM   11  C9  UNL     1     -17.803  91.542  11.944  1.00  0.00     0.196 C 
BRANCH  11  12
HETATM   12  O1  UNL     1     -19.084  91.197  11.628  1.00  0.00    -0.350 OA
BRANCH  12  13
HETATM   13  C10 UNL     1     -20.302  91.673  11.969  1.00  0.00     0.068 A 
HETATM   14  C11 UNL     1     -21.313  91.003  12.622  1.00  0.00     0.037 A 
HETATM   15  C12 UNL     1     -22.526  91.564  12.931  1.00  0.00     0.003 A 
HETATM   16  C13 UNL     1     -22.755  92.869  12.573  1.00  0.00     0.000 A 
HETATM   17  C14 UNL     1     -21.793  93.595  11.922  1.00  0.00     0.003 A 
HETATM   18  C15 UNL     1     -20.586  93.003  11.626  1.00  0.00     0.037 A 
ENDBRANCH  12  13
ENDBRANCH  11  12
ENDBRANCH  10  11
ENDBRANCH   9  10
BRANCH   6  19
HETATM   19  C4  UNL     1     -20.520  89.133  17.374  1.00  0.00     0.084 C 
BRANCH  19  20
HETATM   20  C5  UNL     1     -21.609  88.295  16.712  1.00  0.00     0.235 C 
BRANCH  20  21
HETATM   21  N3  UNL     1     -21.487  86.948  17.183  1.00  0.00    -0.079 N 
ATOM     22  H33 UNL     1     -22.391  86.491  17.302  1.00  0.00     0.274 HD
ATOM     23  H32 UNL     1     -21.105  86.318  16.477  1.00  0.00     0.274 HD
ATOM     24  H31 UNL     1     -20.937  86.957  18.041  1.00  0.00     0.274 HD
ENDBRANCH  20  21
ENDBRANCH  19  20
ENDBRANCH   6  19
BRANCH   8  25
HETATM   25  N4  UNL     1     -17.623  88.441  13.599  1.00  0.00    -0.385 N 
ATOM     26  H42 UNL     1     -18.216  87.759  13.126  1.00  0.00     0.157 HD
ATOM     27  H41 UNL     1     -16.609  88.480  13.486  1.00  0.00     0.157 HD
ENDBRANCH   8  25
TORSDOF 8
ENDMDL
