MODEL 1
REMARK VINA RESULT: -6.441146565      0.000      0.000
REMARK  7 active torsions:
REMARK  status: ('A' for Active; 'I' for Inactive)
REMARK    1  A    between atoms: C2_2  and  C3_3 
REMARK    2  A    between atoms: C3_3  and  N1_4 
REMARK    3  A    between atoms: C9_10  and  N2_11 
REMARK    4  A    between atoms: N2_11  and  C10_13 
REMARK    5  A    between atoms: C10_13  and  C11_14 
REMARK    6  A    between atoms: C11_14  and  C12_15 
REMARK    7  A    between atoms: C12_15  and  N3_16 
ROOT
HETATM    1  N1  UNL     1     -20.137  88.564  15.356  1.00  0.00     0.097 N 
HETATM    2  C4  UNL     1     -18.781  88.170  15.426  1.00  0.00     0.278 C 
HETATM    3  C5  UNL     1     -17.883  88.835  14.411  1.00  0.00     0.070 C 
HETATM    4  C6  UNL     1     -18.284  90.256  14.259  1.00  0.00    -0.032 A 
HETATM    5  C7  UNL     1     -17.433  91.315  14.228  1.00  0.00     0.013 A 
HETATM    6  C8  UNL     1     -17.939  92.611  14.080  1.00  0.00     0.049 A 
HETATM    7  C9  UNL     1     -19.293  92.812  13.968  1.00  0.00     0.101 A 
HETATM    8  N6  UNL     1     -20.106  91.747  14.003  1.00  0.00    -0.344 N 
ATOM      9  H6  UNL     1     -21.113  91.891  13.920  1.00  0.00     0.167 HD
HETATM   10  C14 UNL     1     -19.640  90.499  14.143  1.00  0.00     0.045 A 
HETATM   11  C15 UNL     1     -20.527  89.294  14.195  1.00  0.00     0.330 C 
ENDROOT
BRANCH   7  12
HETATM   12  N2  UNL     1     -19.789  93.978  13.833  1.00  0.00    -0.376 N 
ATOM     13  H2  UNL     1     -19.851  94.553  14.673  1.00  0.00     0.161 HD
BRANCH  12  14
HETATM   14  C10 UNL     1     -20.268  94.555  12.611  1.00  0.00     0.123 C 
BRANCH  14  15
HETATM   15  C11 UNL     1     -21.766  94.406  12.447  1.00  0.00     0.039 C 
BRANCH  15  16
HETATM   16  C12 UNL     1     -22.010  93.646  11.161  1.00  0.00     0.123 C 
BRANCH  16  17
HETATM   17  N3  UNL     1     -23.052  92.662  11.302  1.00  0.00    -0.367 N 
HETATM   18  C13 UNL     1     -22.751  91.417  11.291  1.00  0.00     0.196 C 
HETATM   19  N4  UNL     1     -23.790  90.455  11.432  1.00  0.00    -0.067 NA
HETATM   20  N5  UNL     1     -21.426  90.972  11.145  1.00  0.00    -0.067 NA
ATOM     21  H3  UNL     1     -24.023  92.954  11.411  1.00  0.00     0.161 HD
ENDBRANCH  16  17
ENDBRANCH  15  16
ENDBRANCH  14  15
ENDBRANCH  12  14
ENDBRANCH   7  12
BRANCH   1  22
HETATM   22  C3  UNL     1     -21.093  87.520  15.612  1.00  0.00     0.299 C 
BRANCH  22  23
HETATM   23  C2  UNL     1     -21.663  87.588  16.975  1.00  0.00    -0.007 C 
HETATM   24  C1  UNL     1     -22.073  88.751  17.498  1.00  0.00     0.008 C 
ENDBRANCH  22  23
ENDBRANCH   1  22
TORSDOF 7
ENDMDL
MODEL 2
REMARK VINA RESULT: -6.304518318      2.952      3.858
REMARK  7 active torsions:
REMARK  status: ('A' for Active; 'I' for Inactive)
REMARK    1  A    between atoms: C2_2  and  C3_3 
REMARK    2  A    between atoms: C3_3  and  N1_4 
REMARK    3  A    between atoms: C9_10  and  N2_11 
REMARK    4  A    between atoms: N2_11  and  C10_13 
REMARK    5  A    between atoms: C10_13  and  C11_14 
REMARK    6  A    between atoms: C11_14  and  C12_15 
REMARK    7  A    between atoms: C12_15  and  N3_16 
ROOT
HETATM    1  N1  UNL     1     -19.347  90.456  15.975  1.00  0.00     0.097 N 
HETATM    2  C4  UNL     1     -18.204  90.547  15.148  1.00  0.00     0.278 C 
HETATM    3  C5  UNL     1     -18.430  90.111  13.720  1.00  0.00     0.070 C 
HETATM    4  C6  UNL     1     -19.767  90.575  13.272  1.00  0.00    -0.032 A 
HETATM    5  C7  UNL     1     -20.034  91.172  12.081  1.00  0.00     0.013 A 
HETATM    6  C8  UNL     1     -21.343  91.565  11.777  1.00  0.00     0.049 A 
HETATM    7  C9  UNL     1     -22.354  91.347  12.681  1.00  0.00     0.101 A 
HETATM    8  N6  UNL     1     -22.057  90.757  13.848  1.00  0.00    -0.344 N 
ATOM      9  H6  UNL     1     -22.804  90.593  14.523  1.00  0.00     0.167 HD
HETATM   10  C14 UNL     1     -20.811  90.374  14.156  1.00  0.00     0.045 A 
HETATM   11  C15 UNL     1     -20.451  89.721  15.454  1.00  0.00     0.330 C 
ENDROOT
BRANCH   7  12
HETATM   12  N2  UNL     1     -23.555  91.693  12.439  1.00  0.00    -0.376 N 
ATOM     13  H2  UNL     1     -24.260  90.956  12.453  1.00  0.00     0.161 HD
BRANCH  12  14
HETATM   14  C10 UNL     1     -24.009  93.023  12.149  1.00  0.00     0.123 C 
BRANCH  14  15
HETATM   15  C11 UNL     1     -23.873  93.953  13.337  1.00  0.00     0.039 C 
BRANCH  15  16
HETATM   16  C12 UNL     1     -25.269  94.305  13.802  1.00  0.00     0.123 C 
BRANCH  16  17
HETATM   17  N3  UNL     1     -25.638  93.593  14.998  1.00  0.00    -0.367 N 
HETATM   18  C13 UNL     1     -26.691  92.864  15.001  1.00  0.00     0.196 C 
HETATM   19  N4  UNL     1     -27.044  92.166  16.190  1.00  0.00    -0.067 NA
HETATM   20  N5  UNL     1     -27.510  92.733  13.866  1.00  0.00    -0.067 NA
ATOM     21  H3  UNL     1     -25.064  93.668  15.838  1.00  0.00     0.161 HD
ENDBRANCH  16  17
ENDBRANCH  15  16
ENDBRANCH  14  15
ENDBRANCH  12  14
ENDBRANCH   7  12
BRANCH   1  22
HETATM   22  C3  UNL     1     -19.091  90.045  17.330  1.00  0.00     0.299 C 
BRANCH  22  23
HETATM   23  C2  UNL     1     -17.881  89.204  17.453  1.00  0.00    -0.007 C 
HETATM   24  C1  UNL     1     -17.972  87.878  17.622  1.00  0.00     0.008 C 
ENDBRANCH  22  23
ENDBRANCH   1  22
TORSDOF 7
ENDMDL
MODEL 3
REMARK VINA RESULT: -6.257096491      1.796      2.401
REMARK  7 active torsions:
REMARK  status: ('A' for Active; 'I' for Inactive)
REMARK    1  A    between atoms: C2_2  and  C3_3 
REMARK    2  A    between atoms: C3_3  and  N1_4 
REMARK    3  A    between atoms: C9_10  and  N2_11 
REMARK    4  A    between atoms: N2_11  and  C10_13 
REMARK    5  A    between atoms: C10_13  and  C11_14 
REMARK    6  A    between atoms: C11_14  and  C12_15 
REMARK    7  A    between atoms: C12_15  and  N3_16 
ROOT
HETATM    1  N1  UNL     1     -18.886  89.729  14.666  1.00  0.00     0.097 N 
HETATM    2  C4  UNL     1     -17.820  90.372  15.337  1.00  0.00     0.278 C 
HETATM    3  C5  UNL     1     -16.988  91.280  14.463  1.00  0.00     0.070 C 
HETATM    4  C6  UNL     1     -17.879  92.004  13.522  1.00  0.00    -0.032 A 
HETATM    5  C7  UNL     1     -17.817  93.333  13.244  1.00  0.00     0.013 A 
HETATM    6  C8  UNL     1     -18.719  93.897  12.334  1.00  0.00     0.049 A 
HETATM    7  C9  UNL     1     -19.664  93.109  11.724  1.00  0.00     0.101 A 
HETATM    8  N6  UNL     1     -19.699  91.801  12.020  1.00  0.00    -0.344 N 
ATOM      9  H6  UNL     1     -20.399  91.212  11.570  1.00  0.00     0.167 HD
HETATM   10  C14 UNL     1     -18.844  91.244  12.888  1.00  0.00     0.045 A 
HETATM   11  C15 UNL     1     -18.868  89.790  13.242  1.00  0.00     0.330 C 
ENDROOT
BRANCH   7  12
HETATM   12  N2  UNL     1     -20.501  93.588  10.893  1.00  0.00    -0.376 N 
ATOM     13  H2  UNL     1     -20.641  93.068  10.026  1.00  0.00     0.161 HD
BRANCH  12  14
HETATM   14  C10 UNL     1     -21.264  94.791  11.061  1.00  0.00     0.123 C 
BRANCH  14  15
HETATM   15  C11 UNL     1     -22.578  94.549  11.773  1.00  0.00     0.039 C 
BRANCH  15  16
HETATM   16  C12 UNL     1     -23.304  93.450  11.028  1.00  0.00     0.123 C 
BRANCH  16  17
HETATM   17  N3  UNL     1     -23.606  92.327  11.876  1.00  0.00    -0.367 N 
HETATM   18  C13 UNL     1     -23.154  91.167  11.575  1.00  0.00     0.196 C 
HETATM   19  N4  UNL     1     -23.460  90.065  12.422  1.00  0.00    -0.067 NA
HETATM   20  N5  UNL     1     -22.364  90.948  10.432  1.00  0.00    -0.067 NA
ATOM     21  H3  UNL     1     -24.176  92.454  12.712  1.00  0.00     0.161 HD
ENDBRANCH  16  17
ENDBRANCH  15  16
ENDBRANCH  14  15
ENDBRANCH  12  14
ENDBRANCH   7  12
BRANCH   1  22
HETATM   22  C3  UNL     1     -19.149  88.379  15.088  1.00  0.00     0.299 C 
BRANCH  22  23
HETATM   23  C2  UNL     1     -17.914  87.625  15.396  1.00  0.00    -0.007 C 
HETATM   24  C1  UNL     1     -17.464  86.666  14.577  1.00  0.00     0.008 C 
ENDBRANCH  22  23
ENDBRANCH   1  22
TORSDOF 7
ENDMDL
MODEL 4
REMARK VINA RESULT: -6.238696927      1.096      1.278
REMARK  7 active torsions:
REMARK  status: ('A' for Active; 'I' for Inactive)
REMARK    1  A    between atoms: C2_2  and  C3_3 
REMARK    2  A    between atoms: C3_3  and  N1_4 
REMARK    3  A    between atoms: C9_10  and  N2_11 
REMARK    4  A    between atoms: N2_11  and  C10_13 
REMARK    5  A    between atoms: C10_13  and  C11_14 
REMARK    6  A    between atoms: C11_14  and  C12_15 
REMARK    7  A    between atoms: C12_15  and  N3_16 
ROOT
HETATM    1  N1  UNL     1     -19.698  90.144  16.666  1.00  0.00     0.097 N 
HETATM    2  C4  UNL     1     -18.308  89.928  16.813  1.00  0.00     0.278 C 
HETATM    3  C5  UNL     1     -17.530  89.968  15.520  1.00  0.00     0.070 C 
HETATM    4  C6  UNL     1     -18.074  91.044  14.654  1.00  0.00    -0.032 A 
HETATM    5  C7  UNL     1     -17.332  91.952  13.968  1.00  0.00     0.013 A 
HETATM    6  C8  UNL     1     -17.969  92.921  13.182  1.00  0.00     0.049 A 
HETATM    7  C9  UNL     1     -19.340  92.952  13.107  1.00  0.00     0.101 A 
HETATM    8  N6  UNL     1     -20.043  92.042  13.796  1.00  0.00    -0.344 N 
ATOM      9  H6  UNL     1     -21.061  92.061  13.743  1.00  0.00     0.167 HD
HETATM   10  C14 UNL     1     -19.451  91.108  14.552  1.00  0.00     0.045 A 
HETATM   11  C15 UNL     1     -20.213  90.087  15.338  1.00  0.00     0.330 C 
ENDROOT
BRANCH   7  12
HETATM   12  N2  UNL     1     -19.953  93.819  12.404  1.00  0.00    -0.376 N 
ATOM     13  H2  UNL     1     -19.499  94.120  11.541  1.00  0.00     0.161 HD
BRANCH  12  14
HETATM   14  C10 UNL     1     -21.222  94.412  12.712  1.00  0.00     0.123 C 
BRANCH  14  15
HETATM   15  C11 UNL     1     -22.032  94.726  11.472  1.00  0.00     0.039 C 
BRANCH  15  16
HETATM   16  C12 UNL     1     -21.957  93.519  10.561  1.00  0.00     0.123 C 
BRANCH  16  17
HETATM   17  N3  UNL     1     -23.013  92.577  10.821  1.00  0.00    -0.367 N 
HETATM   18  C13 UNL     1     -22.722  91.375  11.152  1.00  0.00     0.196 C 
HETATM   19  N4  UNL     1     -23.776  90.453  11.406  1.00  0.00    -0.067 NA
HETATM   20  N5  UNL     1     -21.391  90.937  11.273  1.00  0.00    -0.067 NA
ATOM     21  H3  UNL     1     -23.989  92.865  10.742  1.00  0.00     0.161 HD
ENDBRANCH  16  17
ENDBRANCH  15  16
ENDBRANCH  14  15
ENDBRANCH  12  14
ENDBRANCH   7  12
BRANCH   1  22
HETATM   22  C3  UNL     1     -20.534  89.366  17.541  1.00  0.00     0.299 C 
BRANCH  22  23
HETATM   23  C2  UNL     1     -21.573  88.606  16.813  1.00  0.00    -0.007 C 
HETATM   24  C1  UNL     1     -21.564  87.267  16.790  1.00  0.00     0.008 C 
ENDBRANCH  22  23
ENDBRANCH   1  22
TORSDOF 7
ENDMDL
MODEL 5
REMARK VINA RESULT: -6.211746008      1.851      2.246
REMARK  7 active torsions:
REMARK  status: ('A' for Active; 'I' for Inactive)
REMARK    1  A    between atoms: C2_2  and  C3_3 
REMARK    2  A    between atoms: C3_3  and  N1_4 
REMARK    3  A    between atoms: C9_10  and  N2_11 
REMARK    4  A    between atoms: N2_11  and  C10_13 
REMARK    5  A    between atoms: C10_13  and  C11_14 
REMARK    6  A    between atoms: C11_14  and  C12_15 
REMARK    7  A    between atoms: C12_15  and  N3_16 
ROOT
HETATM    1  N1  UNL     1     -18.857  90.817  15.810  1.00  0.00     0.097 N 
HETATM    2  C4  UNL     1     -17.537  90.583  15.359  1.00  0.00     0.278 C 
HETATM    3  C5  UNL     1     -17.396  90.502  13.857  1.00  0.00     0.070 C 
HETATM    4  C6  UNL     1     -18.277  91.517  13.228  1.00  0.00    -0.032 A 
HETATM    5  C7  UNL     1     -17.918  92.352  12.217  1.00  0.00     0.013 A 
HETATM    6  C8  UNL     1     -18.846  93.269  11.709  1.00  0.00     0.049 A 
HETATM    7  C9  UNL     1     -20.115  93.325  12.231  1.00  0.00     0.101 A 
HETATM    8  N6  UNL     1     -20.437  92.488  13.229  1.00  0.00    -0.344 N 
ATOM      9  H6  UNL     1     -21.378  92.527  13.620  1.00  0.00     0.167 HD
HETATM   10  C14 UNL     1     -19.563  91.604  13.727  1.00  0.00     0.045 A 
HETATM   11  C15 UNL     1     -19.894  90.666  14.846  1.00  0.00     0.330 C 
ENDROOT
BRANCH   7  12
HETATM   12  N2  UNL     1     -20.984  94.147  11.795  1.00  0.00    -0.376 N 
ATOM     13  H2  UNL     1     -20.797  94.581  10.891  1.00  0.00     0.161 HD
BRANCH  12  14
HETATM   14  C10 UNL     1     -22.201  94.519  12.456  1.00  0.00     0.123 C 
BRANCH  14  15
HETATM   15  C11 UNL     1     -23.362  94.666  11.495  1.00  0.00     0.039 C 
BRANCH  15  16
HETATM   16  C12 UNL     1     -23.564  93.328  10.817  1.00  0.00     0.123 C 
BRANCH  16  17
HETATM   17  N3  UNL     1     -23.764  92.264  11.766  1.00  0.00    -0.367 N 
HETATM   18  C13 UNL     1     -23.217  91.123  11.562  1.00  0.00     0.196 C 
HETATM   19  N4  UNL     1     -23.423  90.080  12.508  1.00  0.00    -0.067 NA
HETATM   20  N5  UNL     1     -22.419  90.870  10.433  1.00  0.00    -0.067 NA
ATOM     21  H3  UNL     1     -24.337  92.417  12.595  1.00  0.00     0.161 HD
ENDBRANCH  16  17
ENDBRANCH  15  16
ENDBRANCH  14  15
ENDBRANCH  12  14
ENDBRANCH   7  12
BRANCH   1  22
HETATM   22  C3  UNL     1     -19.220  90.130  17.021  1.00  0.00     0.299 C 
BRANCH  22  23
HETATM   23  C2  UNL     1     -18.100  89.354  17.596  1.00  0.00    -0.007 C 
HETATM   24  C1  UNL     1     -18.158  88.019  17.691  1.00  0.00     0.008 C 
ENDBRANCH  22  23
ENDBRANCH   1  22
TORSDOF 7
ENDMDL
