MODEL 1
REMARK VINA RESULT: -6.144479819      0.000      0.000
REMARK  6 active torsions:
REMARK  status: ('A' for Active; 'I' for Inactive)
REMARK    1  A    between atoms: N3_4  and  C2_6 
REMARK    2  A    between atoms: C2_6  and  C3_7 
REMARK    3  A    between atoms: C3_7  and  S1_8 
REMARK    4  A    between atoms: S1_8  and  C4_9 
REMARK    5  A    between atoms: N4_13  and  C8_14 
REMARK    6  A    between atoms: C8_14  and  C9_15 
ROOT
HETATM    1  C4  UNL     1     -18.802  92.104  12.800  1.00  0.00     0.016 A 
HETATM    2  C5  UNL     1     -17.762  92.852  13.309  1.00  0.00     0.021 A 
HETATM    3  C6  UNL     1     -16.898  92.224  14.199  1.00  0.00     0.019 A 
HETATM    4  C7  UNL     1     -17.084  90.907  14.548  1.00  0.00     0.091 A 
HETATM    5  N4  UNL     1     -18.105  90.181  14.045  1.00  0.00    -0.358 N 
HETATM    6  C12 UNL     1     -18.931  90.805  13.185  1.00  0.00     0.109 A 
ENDROOT
BRANCH   1   7
HETATM    7  S1  UNL     1     -19.909  92.920  11.656  1.00  0.00    -0.127 SA
BRANCH   7   8
HETATM    8  C3  UNL     1     -21.116  93.862  12.642  1.00  0.00     0.099 C 
BRANCH   8   9
HETATM    9  C2  UNL     1     -22.467  93.204  12.476  1.00  0.00     0.132 C 
BRANCH   9  10
HETATM   10  N3  UNL     1     -22.564  91.952  13.171  1.00  0.00    -0.366 N 
HETATM   11  C1  UNL     1     -23.004  90.861  12.701  1.00  0.00     0.196 C 
HETATM   12  N1  UNL     1     -23.025  89.720  13.540  1.00  0.00    -0.067 NA
HETATM   13  N2  UNL     1     -23.490  90.697  11.371  1.00  0.00    -0.067 NA
ATOM     14  H3  UNL     1     -22.246  91.939  14.140  1.00  0.00     0.161 HD
ENDBRANCH   9  10
ENDBRANCH   8   9
ENDBRANCH   7   8
ENDBRANCH   1   7
BRANCH   5  15
HETATM   15  C8  UNL     1     -18.253  88.818  14.439  1.00  0.00     0.204 C 
BRANCH  15  16
HETATM   16  C9  UNL     1     -19.489  88.518  15.167  1.00  0.00     0.099 A 
HETATM   17  N5  UNL     1     -20.265  87.447  14.936  1.00  0.00    -0.353 N 
HETATM   18  C10 UNL     1     -21.328  87.467  15.780  1.00  0.00     0.106 A 
ATOM     19  H5  UNL     1     -20.084  86.729  14.234  1.00  0.00     0.166 HD
HETATM   20  C11 UNL     1     -21.212  88.587  16.564  1.00  0.00     0.106 A 
HETATM   21  N6  UNL     1     -20.090  89.202  16.169  1.00  0.00    -0.353 N 
ATOM     22  H6  UNL     1     -19.735  90.070  16.570  1.00  0.00     0.166 HD
ENDBRANCH  15  16
ENDBRANCH   5  15
TORSDOF 6
ENDMDL
MODEL 2
REMARK VINA RESULT: -6.094528564      1.352      1.590
REMARK  6 active torsions:
REMARK  status: ('A' for Active; 'I' for Inactive)
REMARK    1  A    between atoms: N3_4  and  C2_6 
REMARK    2  A    between atoms: C2_6  and  C3_7 
REMARK    3  A    between atoms: C3_7  and  S1_8 
REMARK    4  A    between atoms: S1_8  and  C4_9 
REMARK    5  A    between atoms: N4_13  and  C8_14 
REMARK    6  A    between atoms: C8_14  and  C9_15 
ROOT
HETATM    1  C4  UNL     1     -19.405  92.668  12.106  1.00  0.00     0.016 A 
HETATM    2  C5  UNL     1     -18.206  92.203  11.611  1.00  0.00     0.021 A 
HETATM    3  C6  UNL     1     -17.510  91.280  12.383  1.00  0.00     0.019 A 
HETATM    4  C7  UNL     1     -18.010  90.855  13.592  1.00  0.00     0.091 A 
HETATM    5  N4  UNL     1     -19.186  91.315  14.069  1.00  0.00    -0.358 N 
HETATM    6  C12 UNL     1     -19.846  92.207  13.310  1.00  0.00     0.109 A 
ENDROOT
BRANCH   1   7
HETATM    7  S1  UNL     1     -20.294  93.855  11.106  1.00  0.00    -0.127 SA
BRANCH   7   8
HETATM    8  C3  UNL     1     -21.813  94.300  12.007  1.00  0.00     0.099 C 
BRANCH   8   9
HETATM    9  C2  UNL     1     -22.960  93.531  11.394  1.00  0.00     0.132 C 
BRANCH   9  10
HETATM   10  N3  UNL     1     -23.267  92.325  12.111  1.00  0.00    -0.366 N 
HETATM   11  C1  UNL     1     -23.059  91.139  11.716  1.00  0.00     0.196 C 
HETATM   12  N1  UNL     1     -23.429  90.067  12.564  1.00  0.00    -0.067 NA
HETATM   13  N2  UNL     1     -22.474  90.802  10.461  1.00  0.00    -0.067 NA
ATOM     14  H3  UNL     1     -23.694  92.434  13.031  1.00  0.00     0.161 HD
ENDBRANCH   9  10
ENDBRANCH   8   9
ENDBRANCH   7   8
ENDBRANCH   1   7
BRANCH   5  15
HETATM   15  C8  UNL     1     -19.661  90.842  15.330  1.00  0.00     0.204 C 
BRANCH  15  16
HETATM   16  C9  UNL     1     -20.373  89.563  15.279  1.00  0.00     0.099 A 
HETATM   17  N5  UNL     1     -20.623  88.790  16.349  1.00  0.00    -0.353 N 
HETATM   18  C10 UNL     1     -21.297  87.679  15.958  1.00  0.00     0.106 A 
ATOM     19  H5  UNL     1     -20.348  89.006  17.307  1.00  0.00     0.166 HD
HETATM   20  C11 UNL     1     -21.473  87.759  14.600  1.00  0.00     0.106 A 
HETATM   21  N6  UNL     1     -20.903  88.909  14.219  1.00  0.00    -0.353 N 
ATOM     22  H6  UNL     1     -20.873  89.248  13.258  1.00  0.00     0.166 HD
ENDBRANCH  15  16
ENDBRANCH   5  15
TORSDOF 6
ENDMDL
MODEL 3
REMARK VINA RESULT: -6.036316704      1.150      1.370
REMARK  6 active torsions:
REMARK  status: ('A' for Active; 'I' for Inactive)
REMARK    1  A    between atoms: N3_4  and  C2_6 
REMARK    2  A    between atoms: C2_6  and  C3_7 
REMARK    3  A    between atoms: C3_7  and  S1_8 
REMARK    4  A    between atoms: S1_8  and  C4_9 
REMARK    5  A    between atoms: N4_13  and  C8_14 
REMARK    6  A    between atoms: C8_14  and  C9_15 
ROOT
HETATM    1  C4  UNL     1     -18.767  92.513  13.801  1.00  0.00     0.016 A 
HETATM    2  C5  UNL     1     -17.574  92.134  13.224  1.00  0.00     0.021 A 
HETATM    3  C6  UNL     1     -16.886  91.078  13.812  1.00  0.00     0.019 A 
HETATM    4  C7  UNL     1     -17.388  90.446  14.925  1.00  0.00     0.091 A 
HETATM    5  N4  UNL     1     -18.557  90.824  15.484  1.00  0.00    -0.358 N 
HETATM    6  C12 UNL     1     -19.209  91.847  14.903  1.00  0.00     0.109 A 
ENDROOT
BRANCH   1   7
HETATM    7  S1  UNL     1     -19.645  93.872  13.038  1.00  0.00    -0.127 SA
BRANCH   7   8
HETATM    8  C3  UNL     1     -20.807  93.162  11.829  1.00  0.00     0.099 C 
BRANCH   8   9
HETATM    9  C2  UNL     1     -22.169  93.089  12.480  1.00  0.00     0.132 C 
BRANCH   9  10
HETATM   10  N3  UNL     1     -22.385  91.854  13.178  1.00  0.00    -0.366 N 
HETATM   11  C1  UNL     1     -22.961  90.820  12.723  1.00  0.00     0.196 C 
HETATM   12  N1  UNL     1     -23.084  89.687  13.563  1.00  0.00    -0.067 NA
HETATM   13  N2  UNL     1     -23.503  90.716  11.409  1.00  0.00    -0.067 NA
ATOM     14  H3  UNL     1     -22.041  91.802  14.137  1.00  0.00     0.161 HD
ENDBRANCH   9  10
ENDBRANCH   8   9
ENDBRANCH   7   8
ENDBRANCH   1   7
BRANCH   5  15
HETATM   15  C8  UNL     1     -19.035  90.135  16.639  1.00  0.00     0.204 C 
BRANCH  15  16
HETATM   16  C9  UNL     1     -19.992  89.060  16.364  1.00  0.00     0.099 A 
HETATM   17  N5  UNL     1     -20.726  88.439  17.302  1.00  0.00    -0.353 N 
HETATM   18  C10 UNL     1     -21.508  87.498  16.715  1.00  0.00     0.106 A 
ATOM     19  H5  UNL     1     -20.699  88.644  18.301  1.00  0.00     0.166 HD
HETATM   20  C11 UNL     1     -21.254  87.531  15.367  1.00  0.00     0.106 A 
HETATM   21  N6  UNL     1     -20.333  88.487  15.187  1.00  0.00    -0.353 N 
ATOM     22  H6  UNL     1     -19.941  88.747  14.282  1.00  0.00     0.166 HD
ENDBRANCH  15  16
ENDBRANCH   5  15
TORSDOF 6
ENDMDL
MODEL 4
REMARK VINA RESULT: -5.987409879      1.138      1.432
REMARK  6 active torsions:
REMARK  status: ('A' for Active; 'I' for Inactive)
REMARK    1  A    between atoms: N3_4  and  C2_6 
REMARK    2  A    between atoms: C2_6  and  C3_7 
REMARK    3  A    between atoms: C3_7  and  S1_8 
REMARK    4  A    between atoms: S1_8  and  C4_9 
REMARK    5  A    between atoms: N4_13  and  C8_14 
REMARK    6  A    between atoms: C8_14  and  C9_15 
ROOT
HETATM    1  C4  UNL     1     -18.114  92.086  12.807  1.00  0.00     0.016 A 
HETATM    2  C5  UNL     1     -17.614  92.849  13.841  1.00  0.00     0.021 A 
HETATM    3  C6  UNL     1     -17.299  92.193  15.025  1.00  0.00     0.019 A 
HETATM    4  C7  UNL     1     -17.483  90.835  15.147  1.00  0.00     0.091 A 
HETATM    5  N4  UNL     1     -17.974  90.096  14.131  1.00  0.00    -0.358 N 
HETATM    6  C12 UNL     1     -18.273  90.747  12.992  1.00  0.00     0.109 A 
ENDROOT
BRANCH   1   7
HETATM    7  S1  UNL     1     -18.517  92.938  11.287  1.00  0.00    -0.127 SA
BRANCH   7   8
HETATM    8  C3  UNL     1     -19.762  94.207  11.684  1.00  0.00     0.099 C 
BRANCH   8   9
HETATM    9  C2  UNL     1     -20.987  93.504  12.222  1.00  0.00     0.132 C 
BRANCH   9  10
HETATM   10  N3  UNL     1     -21.588  92.623  11.261  1.00  0.00    -0.366 N 
HETATM   11  C1  UNL     1     -21.952  91.425  11.459  1.00  0.00     0.196 C 
HETATM   12  N1  UNL     1     -22.530  90.705  10.386  1.00  0.00    -0.067 NA
HETATM   13  N2  UNL     1     -21.817  90.741  12.702  1.00  0.00    -0.067 NA
ATOM     14  H3  UNL     1     -21.738  92.999  10.324  1.00  0.00     0.161 HD
ENDBRANCH   9  10
ENDBRANCH   8   9
ENDBRANCH   7   8
ENDBRANCH   1   7
BRANCH   5  15
HETATM   15  C8  UNL     1     -18.146  88.690  14.309  1.00  0.00     0.204 C 
BRANCH  15  16
HETATM   16  C9  UNL     1     -19.437  88.294  14.876  1.00  0.00     0.099 A 
HETATM   17  N5  UNL     1     -20.594  88.278  14.193  1.00  0.00    -0.353 N 
HETATM   18  C10 UNL     1     -21.596  87.864  15.009  1.00  0.00     0.106 A 
ATOM     19  H5  UNL     1     -20.701  88.537  13.212  1.00  0.00     0.166 HD
HETATM   20  C11 UNL     1     -21.049  87.614  16.242  1.00  0.00     0.106 A 
HETATM   21  N6  UNL     1     -19.742  87.884  16.129  1.00  0.00    -0.353 N 
ATOM     22  H6  UNL     1     -19.066  87.792  16.887  1.00  0.00     0.166 HD
ENDBRANCH  15  16
ENDBRANCH   5  15
TORSDOF 6
ENDMDL
MODEL 5
REMARK VINA RESULT: -5.966849296      1.350      1.649
REMARK  6 active torsions:
REMARK  status: ('A' for Active; 'I' for Inactive)
REMARK    1  A    between atoms: N3_4  and  C2_6 
REMARK    2  A    between atoms: C2_6  and  C3_7 
REMARK    3  A    between atoms: C3_7  and  S1_8 
REMARK    4  A    between atoms: S1_8  and  C4_9 
REMARK    5  A    between atoms: N4_13  and  C8_14 
REMARK    6  A    between atoms: C8_14  and  C9_15 
ROOT
HETATM    1  C4  UNL     1     -18.775  92.187  12.460  1.00  0.00     0.016 A 
HETATM    2  C5  UNL     1     -17.414  92.327  12.630  1.00  0.00     0.021 A 
HETATM    3  C6  UNL     1     -16.763  91.373  13.403  1.00  0.00     0.019 A 
HETATM    4  C7  UNL     1     -17.462  90.332  13.970  1.00  0.00     0.091 A 
HETATM    5  N4  UNL     1     -18.795  90.202  13.799  1.00  0.00    -0.358 N 
HETATM    6  C12 UNL     1     -19.408  91.134  13.048  1.00  0.00     0.109 A 
ENDROOT
BRANCH   1   7
HETATM    7  S1  UNL     1     -19.604  93.419  11.464  1.00  0.00    -0.127 SA
BRANCH   7   8
HETATM    8  C3  UNL     1     -21.038  94.016  12.414  1.00  0.00     0.099 C 
BRANCH   8   9
HETATM    9  C2  UNL     1     -22.290  93.553  11.706  1.00  0.00     0.132 C 
BRANCH   9  10
HETATM   10  N3  UNL     1     -22.836  92.351  12.270  1.00  0.00    -0.366 N 
HETATM   11  C1  UNL     1     -22.880  91.211  11.718  1.00  0.00     0.196 C 
HETATM   12  N1  UNL     1     -23.460  90.134  12.431  1.00  0.00    -0.067 NA
HETATM   13  N2  UNL     1     -22.384  90.932  10.411  1.00  0.00    -0.067 NA
ATOM     14  H3  UNL     1     -23.227  92.421  13.210  1.00  0.00     0.161 HD
ENDBRANCH   9  10
ENDBRANCH   8   9
ENDBRANCH   7   8
ENDBRANCH   1   7
BRANCH   5  15
HETATM   15  C8  UNL     1     -19.473  89.104  14.409  1.00  0.00     0.204 C 
BRANCH  15  16
HETATM   16  C9  UNL     1     -19.076  88.826  15.791  1.00  0.00     0.099 A 
HETATM   17  N5  UNL     1     -19.328  89.638  16.831  1.00  0.00    -0.353 N 
HETATM   18  C10 UNL     1     -18.829  89.088  17.967  1.00  0.00     0.106 A 
ATOM     19  H5  UNL     1     -19.818  90.531  16.775  1.00  0.00     0.166 HD
HETATM   20  C11 UNL     1     -18.246  87.893  17.626  1.00  0.00     0.106 A 
HETATM   21  N6  UNL     1     -18.413  87.764  16.304  1.00  0.00    -0.353 N 
ATOM     22  H6  UNL     1     -18.083  86.969  15.756  1.00  0.00     0.166 HD
ENDBRANCH  15  16
ENDBRANCH   5  15
TORSDOF 6
ENDMDL
