MODEL 1
REMARK VINA RESULT: -6.480592485      0.000      0.000
REMARK  6 active torsions:
REMARK  status: ('A' for Active; 'I' for Inactive)
REMARK    1  A    between atoms: C2_2  and  C3_3 
REMARK    2  A    between atoms: C6_10  and  C7_11 
REMARK    3  A    between atoms: C7_11  and  C8_12 
REMARK    4  A    between atoms: C8_12  and  C9_13 
REMARK    5  A    between atoms: C9_13  and  C10_14 
REMARK    6  A    between atoms: C10_14  and  C11_15 
ROOT
HETATM    1  C3  UNL     1     -18.398  90.865  13.210  1.00  0.00     0.154 A 
HETATM    2  N1  UNL     1     -18.383  89.479  12.840  1.00  0.00    -0.363 N 
ATOM      3  H1  UNL     1     -18.540  89.111  11.901  1.00  0.00     0.162 HD
HETATM    4  C4  UNL     1     -18.140  88.780  13.889  1.00  0.00     0.114 A 
HETATM    5  N2  UNL     1     -17.989  87.469  14.266  1.00  0.00    -0.351 N 
ATOM      6  H2  UNL     1     -18.060  86.670  13.636  1.00  0.00     0.166 HD
HETATM    7  C5  UNL     1     -17.733  87.388  15.578  1.00  0.00     0.097 A 
HETATM    8  C6  UNL     1     -17.723  88.679  16.044  1.00  0.00    -0.027 A 
HETATM    9  C16 UNL     1     -17.976  89.571  15.003  1.00  0.00     0.038 A 
HETATM   10  C17 UNL     1     -18.119  90.836  14.658  1.00  0.00     0.065 A 
HETATM   11  N4  UNL     1     -18.032  91.983  15.477  1.00  0.00    -0.103 NA
ENDROOT
BRANCH   8  12
HETATM   12  C7  UNL     1     -17.481  89.090  17.459  1.00  0.00     0.041 C 
BRANCH  12  13
HETATM   13  C8  UNL     1     -18.671  88.773  18.310  1.00  0.00     0.005 C 
BRANCH  13  14
HETATM   14  C9  UNL     1     -19.742  89.802  18.117  1.00  0.00     0.006 C 
BRANCH  14  15
HETATM   15  C10 UNL     1     -21.092  89.137  18.078  1.00  0.00     0.057 C 
BRANCH  15  16
HETATM   16  C11 UNL     1     -21.311  88.759  16.633  1.00  0.00     0.009 A 
HETATM   17  C12 UNL     1     -21.327  87.425  16.328  1.00  0.00     0.025 A 
HETATM   18  C13 UNL     1     -21.531  87.083  15.001  1.00  0.00     0.003 A 
HETATM   19  C14 UNL     1     -21.701  88.111  14.100  1.00  0.00     0.017 A 
HETATM   20  C15 UNL     1     -21.678  89.446  14.453  1.00  0.00     0.088 A 
HETATM   21  N3  UNL     1     -21.477  89.760  15.762  1.00  0.00    -0.369 N 
ATOM     22  H3  UNL     1     -21.452  90.733  16.070  1.00  0.00     0.165 HD
ENDBRANCH  15  16
ENDBRANCH  14  15
ENDBRANCH  13  14
ENDBRANCH  12  13
ENDBRANCH   8  12
BRANCH   1  23
HETATM   23  C2  UNL     1     -17.407  91.668  12.460  1.00  0.00    -0.006 C 
HETATM   24  C1  UNL     1     -17.767  92.729  11.778  1.00  0.00     0.009 C 
ENDBRANCH   1  23
TORSDOF 6
ENDMDL
MODEL 2
REMARK VINA RESULT: -6.167988410      3.352      5.366
REMARK  6 active torsions:
REMARK  status: ('A' for Active; 'I' for Inactive)
REMARK    1  A    between atoms: C2_2  and  C3_3 
REMARK    2  A    between atoms: C6_10  and  C7_11 
REMARK    3  A    between atoms: C7_11  and  C8_12 
REMARK    4  A    between atoms: C8_12  and  C9_13 
REMARK    5  A    between atoms: C9_13  and  C10_14 
REMARK    6  A    between atoms: C10_14  and  C11_15 
ROOT
HETATM    1  C3  UNL     1     -23.474  92.958  11.316  1.00  0.00     0.154 A 
HETATM    2  N1  UNL     1     -22.487  93.868  11.821  1.00  0.00    -0.363 N 
ATOM      3  H1  UNL     1     -22.483  94.879  11.684  1.00  0.00     0.162 HD
HETATM    4  C4  UNL     1     -21.611  93.196  12.475  1.00  0.00     0.114 A 
HETATM    5  N2  UNL     1     -20.454  93.391  13.188  1.00  0.00    -0.351 N 
ATOM      6  H2  UNL     1     -20.013  94.298  13.344  1.00  0.00     0.166 HD
HETATM    7  C5  UNL     1     -19.988  92.224  13.649  1.00  0.00     0.097 A 
HETATM    8  C6  UNL     1     -20.870  91.265  13.218  1.00  0.00    -0.027 A 
HETATM    9  C16 UNL     1     -21.897  91.850  12.479  1.00  0.00     0.038 A 
HETATM   10  C17 UNL     1     -23.007  91.644  11.797  1.00  0.00     0.065 A 
HETATM   11  N4  UNL     1     -23.668  90.422  11.546  1.00  0.00    -0.103 NA
ENDROOT
BRANCH   8  12
HETATM   12  C7  UNL     1     -20.761  89.800  13.487  1.00  0.00     0.041 C 
BRANCH  12  13
HETATM   13  C8  UNL     1     -21.781  89.374  14.497  1.00  0.00     0.005 C 
BRANCH  13  14
HETATM   14  C9  UNL     1     -21.552  87.952  14.905  1.00  0.00     0.006 C 
BRANCH  14  15
HETATM   15  C10 UNL     1     -21.500  87.849  16.406  1.00  0.00     0.057 C 
BRANCH  15  16
HETATM   16  C11 UNL     1     -20.084  88.207  16.784  1.00  0.00     0.009 A 
HETATM   17  C12 UNL     1     -19.906  89.300  17.588  1.00  0.00     0.025 A 
HETATM   18  C13 UNL     1     -18.603  89.623  17.934  1.00  0.00     0.003 A 
HETATM   19  C14 UNL     1     -17.598  88.820  17.443  1.00  0.00     0.017 A 
HETATM   20  C15 UNL     1     -17.824  87.724  16.633  1.00  0.00     0.088 A 
HETATM   21  N3  UNL     1     -19.111  87.424  16.305  1.00  0.00    -0.369 N 
ATOM     22  H3  UNL     1     -19.327  86.624  15.710  1.00  0.00     0.165 HD
ENDBRANCH  15  16
ENDBRANCH  14  15
ENDBRANCH  13  14
ENDBRANCH  12  13
ENDBRANCH   8  12
BRANCH   1  23
HETATM   23  C2  UNL     1     -24.841  93.278  11.783  1.00  0.00    -0.006 C 
HETATM   24  C1  UNL     1     -25.726  93.818  10.979  1.00  0.00     0.009 C 
ENDBRANCH   1  23
TORSDOF 6
ENDMDL
MODEL 3
REMARK VINA RESULT: -6.124623633      2.624      4.809
REMARK  6 active torsions:
REMARK  status: ('A' for Active; 'I' for Inactive)
REMARK    1  A    between atoms: C2_2  and  C3_3 
REMARK    2  A    between atoms: C6_10  and  C7_11 
REMARK    3  A    between atoms: C7_11  and  C8_12 
REMARK    4  A    between atoms: C8_12  and  C9_13 
REMARK    5  A    between atoms: C9_13  and  C10_14 
REMARK    6  A    between atoms: C10_14  and  C11_15 
ROOT
HETATM    1  C3  UNL     1     -19.436  89.116  17.748  1.00  0.00     0.154 A 
HETATM    2  N1  UNL     1     -19.042  87.775  17.425  1.00  0.00    -0.363 N 
ATOM      3  H1  UNL     1     -19.158  86.958  18.026  1.00  0.00     0.162 HD
HETATM    4  C4  UNL     1     -18.518  87.775  16.253  1.00  0.00     0.114 A 
HETATM    5  N2  UNL     1     -17.954  86.905  15.354  1.00  0.00    -0.351 N 
ATOM      6  H2  UNL     1     -17.836  85.903  15.509  1.00  0.00     0.166 HD
HETATM    7  C5  UNL     1     -17.581  87.556  14.245  1.00  0.00     0.097 A 
HETATM    8  C6  UNL     1     -17.917  88.872  14.447  1.00  0.00    -0.027 A 
HETATM    9  C16 UNL     1     -18.506  89.035  15.699  1.00  0.00     0.038 A 
HETATM   10  C17 UNL     1     -19.045  89.885  16.551  1.00  0.00     0.065 A 
HETATM   11  N4  UNL     1     -19.238  91.275  16.399  1.00  0.00    -0.103 NA
ENDROOT
BRANCH   8  12
HETATM   12  C7  UNL     1     -17.688  89.985  13.478  1.00  0.00     0.041 C 
BRANCH  12  13
HETATM   13  C8  UNL     1     -18.813  90.064  12.493  1.00  0.00     0.005 C 
BRANCH  13  14
HETATM   14  C9  UNL     1     -19.697  91.234  12.799  1.00  0.00     0.006 C 
BRANCH  14  15
HETATM   15  C10 UNL     1     -21.037  90.752  13.285  1.00  0.00     0.057 C 
BRANCH  15  16
HETATM   16  C11 UNL     1     -22.052  91.637  12.605  1.00  0.00     0.009 A 
HETATM   17  C12 UNL     1     -21.832  91.952  11.291  1.00  0.00     0.025 A 
HETATM   18  C13 UNL     1     -22.769  92.763  10.671  1.00  0.00     0.003 A 
HETATM   19  C14 UNL     1     -23.842  93.185  11.424  1.00  0.00     0.017 A 
HETATM   20  C15 UNL     1     -24.025  92.841  12.750  1.00  0.00     0.088 A 
HETATM   21  N3  UNL     1     -23.093  92.044  13.340  1.00  0.00    -0.369 N 
ATOM     22  H3  UNL     1     -23.186  91.763  14.317  1.00  0.00     0.165 HD
ENDBRANCH  15  16
ENDBRANCH  14  15
ENDBRANCH  13  14
ENDBRANCH  12  13
ENDBRANCH   8  12
BRANCH   1  23
HETATM   23  C2  UNL     1     -20.880  89.232  18.048  1.00  0.00    -0.006 C 
HETATM   24  C1  UNL     1     -21.783  88.696  17.263  1.00  0.00     0.009 C 
ENDBRANCH   1  23
TORSDOF 6
ENDMDL
MODEL 4
REMARK VINA RESULT: -5.883725873      1.841      5.293
REMARK  6 active torsions:
REMARK  status: ('A' for Active; 'I' for Inactive)
REMARK    1  A    between atoms: C2_2  and  C3_3 
REMARK    2  A    between atoms: C6_10  and  C7_11 
REMARK    3  A    between atoms: C7_11  and  C8_12 
REMARK    4  A    between atoms: C8_12  and  C9_13 
REMARK    5  A    between atoms: C9_13  and  C10_14 
REMARK    6  A    between atoms: C10_14  and  C11_15 
ROOT
HETATM    1  C3  UNL     1     -19.450  89.098  17.765  1.00  0.00     0.154 A 
HETATM    2  N1  UNL     1     -19.047  87.758  17.446  1.00  0.00    -0.363 N 
ATOM      3  H1  UNL     1     -19.169  86.941  18.045  1.00  0.00     0.162 HD
HETATM    4  C4  UNL     1     -18.508  87.761  16.281  1.00  0.00     0.114 A 
HETATM    5  N2  UNL     1     -17.930  86.894  15.389  1.00  0.00    -0.351 N 
ATOM      6  H2  UNL     1     -17.810  85.893  15.545  1.00  0.00     0.166 HD
HETATM    7  C5  UNL     1     -17.544  87.548  14.286  1.00  0.00     0.097 A 
HETATM    8  C6  UNL     1     -17.886  88.862  14.484  1.00  0.00    -0.027 A 
HETATM    9  C16 UNL     1     -18.492  89.022  15.729  1.00  0.00     0.038 A 
HETATM   10  C17 UNL     1     -19.046  89.869  16.575  1.00  0.00     0.065 A 
HETATM   11  N4  UNL     1     -19.241  91.259  16.421  1.00  0.00    -0.103 NA
ENDROOT
BRANCH   8  12
HETATM   12  C7  UNL     1     -17.648  89.977  13.519  1.00  0.00     0.041 C 
BRANCH  12  13
HETATM   13  C8  UNL     1     -18.675  89.957  12.430  1.00  0.00     0.005 C 
BRANCH  13  14
HETATM   14  C9  UNL     1     -19.993  90.449  12.943  1.00  0.00     0.006 C 
BRANCH  14  15
HETATM   15  C10 UNL     1     -20.497  91.569  12.073  1.00  0.00     0.057 C 
BRANCH  15  16
HETATM   16  C11 UNL     1     -19.713  92.788  12.493  1.00  0.00     0.009 A 
HETATM   17  C12 UNL     1     -19.057  93.481  11.512  1.00  0.00     0.025 A 
HETATM   18  C13 UNL     1     -18.341  94.602  11.904  1.00  0.00     0.003 A 
HETATM   19  C14 UNL     1     -18.348  94.925  13.242  1.00  0.00     0.017 A 
HETATM   20  C15 UNL     1     -19.026  94.195  14.199  1.00  0.00     0.088 A 
HETATM   21  N3  UNL     1     -19.724  93.098  13.794  1.00  0.00    -0.369 N 
ATOM     22  H3  UNL     1     -20.241  92.529  14.465  1.00  0.00     0.165 HD
ENDBRANCH  15  16
ENDBRANCH  14  15
ENDBRANCH  13  14
ENDBRANCH  12  13
ENDBRANCH   8  12
BRANCH   1  23
HETATM   23  C2  UNL     1     -20.898  89.209  18.046  1.00  0.00    -0.006 C 
HETATM   24  C1  UNL     1     -21.791  88.717  17.221  1.00  0.00     0.009 C 
ENDBRANCH   1  23
TORSDOF 6
ENDMDL
MODEL 5
REMARK VINA RESULT: -5.870792821      1.834      3.424
REMARK  6 active torsions:
REMARK  status: ('A' for Active; 'I' for Inactive)
REMARK    1  A    between atoms: C2_2  and  C3_3 
REMARK    2  A    between atoms: C6_10  and  C7_11 
REMARK    3  A    between atoms: C7_11  and  C8_12 
REMARK    4  A    between atoms: C8_12  and  C9_13 
REMARK    5  A    between atoms: C9_13  and  C10_14 
REMARK    6  A    between atoms: C10_14  and  C11_15 
ROOT
HETATM    1  C3  UNL     1     -17.218  92.857  13.872  1.00  0.00     0.154 A 
HETATM    2  N1  UNL     1     -16.481  91.627  13.931  1.00  0.00    -0.363 N 
ATOM      3  H1  UNL     1     -15.465  91.542  13.969  1.00  0.00     0.162 HD
HETATM    4  C4  UNL     1     -17.315  90.652  13.926  1.00  0.00     0.114 A 
HETATM    5  N2  UNL     1     -17.328  89.280  13.962  1.00  0.00    -0.351 N 
ATOM      6  H2  UNL     1     -16.497  88.691  14.007  1.00  0.00     0.166 HD
HETATM    7  C5  UNL     1     -18.587  88.824  13.929  1.00  0.00     0.097 A 
HETATM    8  C6  UNL     1     -19.392  89.935  13.871  1.00  0.00    -0.027 A 
HETATM    9  C16 UNL     1     -18.618  91.093  13.868  1.00  0.00     0.038 A 
HETATM   10  C17 UNL     1     -18.624  92.412  13.834  1.00  0.00     0.065 A 
HETATM   11  N4  UNL     1     -19.734  93.282  13.772  1.00  0.00    -0.103 NA
ENDROOT
BRANCH   8  12
HETATM   12  C7  UNL     1     -20.884  89.924  13.815  1.00  0.00     0.041 C 
BRANCH  12  13
HETATM   13  C8  UNL     1     -21.427  88.694  14.474  1.00  0.00     0.005 C 
BRANCH  13  14
HETATM   14  C9  UNL     1     -21.965  89.022  15.833  1.00  0.00     0.006 C 
BRANCH  14  15
HETATM   15  C10 UNL     1     -21.502  87.995  16.831  1.00  0.00     0.057 C 
BRANCH  15  16
HETATM   16  C11 UNL     1     -20.061  88.337  17.119  1.00  0.00     0.009 A 
HETATM   17  C12 UNL     1     -19.769  89.644  17.401  1.00  0.00     0.025 A 
HETATM   18  C13 UNL     1     -18.444  89.951  17.668  1.00  0.00     0.003 A 
HETATM   19  C14 UNL     1     -17.533  88.919  17.628  1.00  0.00     0.017 A 
HETATM   20  C15 UNL     1     -17.873  87.612  17.339  1.00  0.00     0.088 A 
HETATM   21  N3  UNL     1     -19.179  87.331  17.080  1.00  0.00    -0.369 N 
ATOM     22  H3  UNL     1     -19.478  86.380  16.862  1.00  0.00     0.165 HD
ENDBRANCH  15  16
ENDBRANCH  14  15
ENDBRANCH  13  14
ENDBRANCH  12  13
ENDBRANCH   8  12
BRANCH   1  23
HETATM   23  C2  UNL     1     -16.938  93.748  15.019  1.00  0.00    -0.006 C 
HETATM   24  C1  UNL     1     -16.995  95.052  14.897  1.00  0.00     0.009 C 
ENDBRANCH   1  23
TORSDOF 6
ENDMDL
