MODEL 1
REMARK VINA RESULT: -8.434801613      0.000      0.000
REMARK  6 active torsions:
REMARK  status: ('A' for Active; 'I' for Inactive)
REMARK    1  A    between atoms: N3_4  and  C2_6 
REMARK    2  A    between atoms: C2_6  and  C3_7 
REMARK    3  A    between atoms: C3_7  and  C4_8 
REMARK    4  A    between atoms: C4_8  and  C5_9 
REMARK    5  A    between atoms: C9_19  and  C10_20 
REMARK    6  A    between atoms: C10_20  and  N6_21 
ROOT
HETATM    1  C5  UNL     1      -2.042  48.363  52.257  1.00  0.00     0.176 C 
HETATM    2  N4  UNL     1      -2.934  47.471  51.521  1.00  0.00    -0.346 N 
ATOM      3  H4  UNL     1      -2.637  46.515  51.323  1.00  0.00     0.163 HD
HETATM    4  C6  UNL     1      -4.199  47.911  51.081  1.00  0.00     0.236 C 
HETATM    5  O1  UNL     1      -4.719  47.341  50.094  1.00  0.00    -0.272 OA
HETATM    6  C7  UNL     1      -4.901  49.007  51.752  1.00  0.00     0.225 C 
HETATM    7  N5  UNL     1      -5.565  48.604  52.975  1.00  0.00    -0.350 N 
ATOM      8  H5  UNL     1      -6.188  49.295  53.393  1.00  0.00     0.163 HD
HETATM    9  C8  UNL     1      -5.459  47.389  53.653  1.00  0.00     0.242 C 
HETATM   10  O2  UNL     1      -6.553  46.773  53.921  1.00  0.00    -0.271 OA
HETATM   11  C9  UNL     1      -4.216  46.716  54.107  1.00  0.00     0.194 C 
HETATM   12  N9  UNL     1      -3.162  47.618  54.458  1.00  0.00    -0.344 N 
ATOM     13  H9  UNL     1      -2.818  47.557  55.417  1.00  0.00     0.163 HD
HETATM   14  C12 UNL     1      -2.545  48.575  53.640  1.00  0.00     0.241 C 
HETATM   15  O3  UNL     1      -2.401  49.740  54.128  1.00  0.00    -0.271 OA
ENDROOT
BRANCH   1  16
HETATM   16  C4  UNL     1      -0.654  47.793  52.341  1.00  0.00     0.036 C 
BRANCH  16  17
HETATM   17  C3  UNL     1      -0.376  46.788  51.260  1.00  0.00     0.022 C 
BRANCH  17  18
HETATM   18  C2  UNL     1      -0.557  45.361  51.690  1.00  0.00     0.122 C 
BRANCH  18  19
HETATM   19  N3  UNL     1      -0.206  45.190  53.089  1.00  0.00    -0.367 N 
HETATM   20  C1  UNL     1      -0.938  44.508  53.905  1.00  0.00     0.196 C 
HETATM   21  N1  UNL     1      -0.568  44.360  55.261  1.00  0.00    -0.067 NA
HETATM   22  N2  UNL     1      -2.124  43.916  53.391  1.00  0.00    -0.067 NA
ATOM     23  H3  UNL     1       0.648  45.624  53.439  1.00  0.00     0.161 HD
ENDBRANCH  18  19
ENDBRANCH  17  18
ENDBRANCH  16  17
ENDBRANCH   1  16
BRANCH  11  24
HETATM   24  C10 UNL     1      -4.559  45.860  55.342  1.00  0.00     0.156 C 
BRANCH  24  25
HETATM   25  N6  UNL     1      -5.108  46.657  56.392  1.00  0.00    -0.364 N 
HETATM   26  C11 UNL     1      -6.148  46.211  57.019  1.00  0.00     0.197 C 
HETATM   27  N7  UNL     1      -6.755  44.963  56.698  1.00  0.00    -0.067 NA
HETATM   28  N8  UNL     1      -6.748  46.962  58.080  1.00  0.00    -0.067 NA
ATOM     29  H6  UNL     1      -4.692  47.555  56.641  1.00  0.00     0.161 HD
ENDBRANCH  24  25
ENDBRANCH  11  24
TORSDOF 6
ENDMDL
MODEL 2
REMARK VINA RESULT: -8.327390722      1.749      5.021
REMARK  6 active torsions:
REMARK  status: ('A' for Active; 'I' for Inactive)
REMARK    1  A    between atoms: N3_4  and  C2_6 
REMARK    2  A    between atoms: C2_6  and  C3_7 
REMARK    3  A    between atoms: C3_7  and  C4_8 
REMARK    4  A    between atoms: C4_8  and  C5_9 
REMARK    5  A    between atoms: C9_19  and  C10_20 
REMARK    6  A    between atoms: C10_20  and  N6_21 
ROOT
HETATM    1  C5  UNL     1      -5.606  49.242  53.636  1.00  0.00     0.176 C 
HETATM    2  N4  UNL     1      -4.214  49.559  53.943  1.00  0.00    -0.346 N 
ATOM      3  H4  UNL     1      -3.880  49.479  54.903  1.00  0.00     0.163 HD
HETATM    4  C6  UNL     1      -3.324  49.975  52.931  1.00  0.00     0.236 C 
HETATM    5  O1  UNL     1      -2.334  50.670  53.255  1.00  0.00    -0.272 OA
HETATM    6  C7  UNL     1      -3.538  49.609  51.530  1.00  0.00     0.225 C 
HETATM    7  N5  UNL     1      -3.124  48.256  51.216  1.00  0.00    -0.350 N 
ATOM      8  H5  UNL     1      -3.114  48.011  50.226  1.00  0.00     0.163 HD
HETATM    9  C8  UNL     1      -2.737  47.248  52.098  1.00  0.00     0.242 C 
HETATM   10  O2  UNL     1      -1.605  46.682  51.878  1.00  0.00    -0.271 OA
HETATM   11  C9  UNL     1      -3.486  46.743  53.276  1.00  0.00     0.194 C 
HETATM   12  N9  UNL     1      -4.909  46.810  53.132  1.00  0.00    -0.344 N 
ATOM     13  H9  UNL     1      -5.410  45.924  53.200  1.00  0.00     0.163 HD
HETATM   14  C12 UNL     1      -5.695  47.949  52.907  1.00  0.00     0.241 C 
HETATM   15  O3  UNL     1      -6.571  47.870  51.990  1.00  0.00    -0.271 OA
ENDROOT
BRANCH   1  16
HETATM   16  C4  UNL     1      -6.427  49.135  54.890  1.00  0.00     0.036 C 
BRANCH  16  17
HETATM   17  C3  UNL     1      -5.585  49.144  56.134  1.00  0.00     0.022 C 
BRANCH  17  18
HETATM   18  C2  UNL     1      -5.921  48.052  57.108  1.00  0.00     0.122 C 
BRANCH  18  19
HETATM   19  N3  UNL     1      -5.169  46.845  56.817  1.00  0.00    -0.367 N 
HETATM   20  C1  UNL     1      -5.730  45.779  56.354  1.00  0.00     0.196 C 
HETATM   21  N1  UNL     1      -4.970  44.619  56.079  1.00  0.00    -0.067 NA
HETATM   22  N2  UNL     1      -7.134  45.813  56.134  1.00  0.00    -0.067 NA
ATOM     23  H3  UNL     1      -4.162  46.839  56.983  1.00  0.00     0.161 HD
ENDBRANCH  18  19
ENDBRANCH  17  18
ENDBRANCH  16  17
ENDBRANCH   1  16
BRANCH  11  24
HETATM   24  C10 UNL     1      -3.086  45.273  53.505  1.00  0.00     0.156 C 
BRANCH  24  25
HETATM   25  N6  UNL     1      -2.148  45.150  54.576  1.00  0.00    -0.364 N 
HETATM   26  C11 UNL     1      -1.208  44.267  54.467  1.00  0.00     0.197 C 
HETATM   27  N7  UNL     1      -1.082  43.425  53.326  1.00  0.00    -0.067 NA
HETATM   28  N8  UNL     1      -0.237  44.093  55.504  1.00  0.00    -0.067 NA
ATOM     29  H6  UNL     1      -2.217  45.742  55.404  1.00  0.00     0.161 HD
ENDBRANCH  24  25
ENDBRANCH  11  24
TORSDOF 6
ENDMDL
MODEL 3
REMARK VINA RESULT: -8.281646752      2.087      4.536
REMARK  6 active torsions:
REMARK  status: ('A' for Active; 'I' for Inactive)
REMARK    1  A    between atoms: N3_4  and  C2_6 
REMARK    2  A    between atoms: C2_6  and  C3_7 
REMARK    3  A    between atoms: C3_7  and  C4_8 
REMARK    4  A    between atoms: C4_8  and  C5_9 
REMARK    5  A    between atoms: C9_19  and  C10_20 
REMARK    6  A    between atoms: C10_20  and  N6_21 
ROOT
HETATM    1  C5  UNL     1      -3.336  48.574  51.509  1.00  0.00     0.176 C 
HETATM    2  N4  UNL     1      -2.102  48.195  52.190  1.00  0.00    -0.346 N 
ATOM      3  H4  UNL     1      -1.823  48.689  53.037  1.00  0.00     0.163 HD
HETATM    4  C6  UNL     1      -1.289  47.155  51.694  1.00  0.00     0.236 C 
HETATM    5  O1  UNL     1      -0.070  47.161  51.980  1.00  0.00    -0.272 OA
HETATM    6  C7  UNL     1      -1.843  46.085  50.862  1.00  0.00     0.225 C 
HETATM    7  N5  UNL     1      -2.535  45.063  51.621  1.00  0.00    -0.350 N 
ATOM      8  H5  UNL     1      -2.804  44.227  51.102  1.00  0.00     0.163 HD
HETATM    9  C8  UNL     1      -2.879  45.079  52.973  1.00  0.00     0.242 C 
HETATM   10  O2  UNL     1      -2.504  44.077  53.683  1.00  0.00    -0.271 OA
HETATM   11  C9  UNL     1      -3.639  46.129  53.698  1.00  0.00     0.194 C 
HETATM   12  N9  UNL     1      -4.608  46.806  52.891  1.00  0.00    -0.344 N 
ATOM     13  H9  UNL     1      -5.576  46.748  53.207  1.00  0.00     0.163 HD
HETATM   14  C12 UNL     1      -4.384  47.541  51.717  1.00  0.00     0.241 C 
HETATM   15  O3  UNL     1      -5.152  47.298  50.734  1.00  0.00    -0.271 OA
ENDROOT
BRANCH   1  16
HETATM   16  C4  UNL     1      -3.858  49.887  52.023  1.00  0.00     0.036 C 
BRANCH  16  17
HETATM   17  C3  UNL     1      -3.269  50.261  53.353  1.00  0.00     0.022 C 
BRANCH  17  18
HETATM   18  C2  UNL     1      -4.136  49.910  54.527  1.00  0.00     0.122 C 
BRANCH  18  19
HETATM   19  N3  UNL     1      -5.408  50.609  54.463  1.00  0.00    -0.367 N 
HETATM   20  C1  UNL     1      -6.536  49.984  54.425  1.00  0.00     0.196 C 
HETATM   21  N1  UNL     1      -7.757  50.693  54.363  1.00  0.00    -0.067 NA
HETATM   22  N2  UNL     1      -6.506  48.562  54.446  1.00  0.00    -0.067 NA
ATOM     23  H3  UNL     1      -5.409  51.629  54.448  1.00  0.00     0.161 HD
ENDBRANCH  18  19
ENDBRANCH  17  18
ENDBRANCH  16  17
ENDBRANCH   1  16
BRANCH  11  24
HETATM   24  C10 UNL     1      -4.366  45.463  54.881  1.00  0.00     0.156 C 
BRANCH  24  25
HETATM   25  N6  UNL     1      -4.657  46.409  55.912  1.00  0.00    -0.364 N 
HETATM   26  C11 UNL     1      -5.665  46.177  56.688  1.00  0.00     0.197 C 
HETATM   27  N7  UNL     1      -6.484  45.021  56.550  1.00  0.00    -0.067 NA
HETATM   28  N8  UNL     1      -6.011  47.086  57.739  1.00  0.00    -0.067 NA
ATOM     29  H6  UNL     1      -4.085  47.246  56.032  1.00  0.00     0.161 HD
ENDBRANCH  24  25
ENDBRANCH  11  24
TORSDOF 6
ENDMDL
MODEL 4
REMARK VINA RESULT: -8.153487372      1.036      1.411
REMARK  6 active torsions:
REMARK  status: ('A' for Active; 'I' for Inactive)
REMARK    1  A    between atoms: N3_4  and  C2_6 
REMARK    2  A    between atoms: C2_6  and  C3_7 
REMARK    3  A    between atoms: C3_7  and  C4_8 
REMARK    4  A    between atoms: C4_8  and  C5_9 
REMARK    5  A    between atoms: C9_19  and  C10_20 
REMARK    6  A    between atoms: C10_20  and  N6_21 
ROOT
HETATM    1  C5  UNL     1      -2.120  48.435  51.939  1.00  0.00     0.176 C 
HETATM    2  N4  UNL     1      -3.170  47.516  51.510  1.00  0.00    -0.346 N 
ATOM      3  H4  UNL     1      -3.059  46.514  51.671  1.00  0.00     0.163 HD
HETATM    4  C6  UNL     1      -4.336  47.991  50.876  1.00  0.00     0.236 C 
HETATM    5  O1  UNL     1      -4.964  47.215  50.120  1.00  0.00    -0.272 OA
HETATM    6  C7  UNL     1      -4.814  49.359  51.086  1.00  0.00     0.225 C 
HETATM    7  N5  UNL     1      -5.528  49.535  52.335  1.00  0.00    -0.350 N 
ATOM      8  H5  UNL     1      -6.007  50.428  52.453  1.00  0.00     0.163 HD
HETATM    9  C8  UNL     1      -5.642  48.637  53.396  1.00  0.00     0.242 C 
HETATM   10  O2  UNL     1      -6.829  48.360  53.801  1.00  0.00    -0.271 OA
HETATM   11  C9  UNL     1      -4.542  47.955  54.123  1.00  0.00     0.194 C 
HETATM   12  N9  UNL     1      -3.334  48.720  54.197  1.00  0.00    -0.344 N 
ATOM     13  H9  UNL     1      -2.997  48.938  55.135  1.00  0.00     0.163 HD
HETATM   14  C12 UNL     1      -2.558  49.204  53.133  1.00  0.00     0.241 C 
HETATM   15  O3  UNL     1      -2.195  50.420  53.195  1.00  0.00    -0.271 OA
ENDROOT
BRANCH   1  16
HETATM   16  C4  UNL     1      -0.861  47.693  52.291  1.00  0.00     0.036 C 
BRANCH  16  17
HETATM   17  C3  UNL     1      -0.626  46.501  51.406  1.00  0.00     0.022 C 
BRANCH  17  18
HETATM   18  C2  UNL     1      -0.645  45.187  52.132  1.00  0.00     0.122 C 
BRANCH  18  19
HETATM   19  N3  UNL     1      -1.996  44.834  52.533  1.00  0.00    -0.367 N 
HETATM   20  C1  UNL     1      -2.289  44.501  53.745  1.00  0.00     0.196 C 
HETATM   21  N1  UNL     1      -3.613  44.162  54.105  1.00  0.00    -0.067 NA
HETATM   22  N2  UNL     1      -1.235  44.485  54.700  1.00  0.00    -0.067 NA
ATOM     23  H3  UNL     1      -2.737  44.850  51.834  1.00  0.00     0.161 HD
ENDBRANCH  18  19
ENDBRANCH  17  18
ENDBRANCH  16  17
ENDBRANCH   1  16
BRANCH  11  24
HETATM   24  C10 UNL     1      -5.023  47.662  55.556  1.00  0.00     0.156 C 
BRANCH  24  25
HETATM   25  N6  UNL     1      -5.415  46.296  55.704  1.00  0.00    -0.364 N 
HETATM   26  C11 UNL     1      -6.479  46.036  56.393  1.00  0.00     0.197 C 
HETATM   27  N7  UNL     1      -7.262  47.057  57.002  1.00  0.00    -0.067 NA
HETATM   28  N8  UNL     1      -6.925  44.688  56.580  1.00  0.00    -0.067 NA
ATOM     29  H6  UNL     1      -4.871  45.546  55.277  1.00  0.00     0.161 HD
ENDBRANCH  24  25
ENDBRANCH  11  24
TORSDOF 6
ENDMDL
MODEL 5
REMARK VINA RESULT: -7.859683321      1.874      2.281
REMARK  6 active torsions:
REMARK  status: ('A' for Active; 'I' for Inactive)
REMARK    1  A    between atoms: N3_4  and  C2_6 
REMARK    2  A    between atoms: C2_6  and  C3_7 
REMARK    3  A    between atoms: C3_7  and  C4_8 
REMARK    4  A    between atoms: C4_8  and  C5_9 
REMARK    5  A    between atoms: C9_19  and  C10_20 
REMARK    6  A    between atoms: C10_20  and  N6_21 
ROOT
HETATM    1  C5  UNL     1      -2.626  48.188  51.678  1.00  0.00     0.176 C 
HETATM    2  N4  UNL     1      -3.728  48.886  51.022  1.00  0.00    -0.346 N 
ATOM      3  H4  UNL     1      -4.418  48.352  50.494  1.00  0.00     0.163 HD
HETATM    4  C6  UNL     1      -3.853  50.288  51.107  1.00  0.00     0.236 C 
HETATM    5  O1  UNL     1      -4.473  50.889  50.200  1.00  0.00    -0.272 OA
HETATM    6  C7  UNL     1      -3.277  51.038  52.225  1.00  0.00     0.225 C 
HETATM    7  N5  UNL     1      -4.077  50.982  53.432  1.00  0.00    -0.350 N 
ATOM      8  H5  UNL     1      -3.794  51.609  54.184  1.00  0.00     0.163 HD
HETATM    9  C8  UNL     1      -5.186  50.177  53.692  1.00  0.00     0.242 C 
HETATM   10  O2  UNL     1      -6.255  50.768  54.092  1.00  0.00    -0.271 OA
HETATM   11  C9  UNL     1      -5.281  48.701  53.564  1.00  0.00     0.194 C 
HETATM   12  N9  UNL     1      -4.050  48.016  53.822  1.00  0.00    -0.344 N 
ATOM     13  H9  UNL     1      -4.064  47.339  54.584  1.00  0.00     0.163 HD
HETATM   14  C12 UNL     1      -2.828  48.166  53.151  1.00  0.00     0.241 C 
HETATM   15  O3  UNL     1      -1.790  48.298  53.872  1.00  0.00    -0.271 OA
ENDROOT
BRANCH   1  16
HETATM   16  C4  UNL     1      -2.518  46.769  51.195  1.00  0.00     0.036 C 
BRANCH  16  17
HETATM   17  C3  UNL     1      -1.120  46.229  51.294  1.00  0.00     0.022 C 
BRANCH  17  18
HETATM   18  C2  UNL     1      -0.992  45.023  52.179  1.00  0.00     0.122 C 
BRANCH  18  19
HETATM   19  N3  UNL     1      -2.286  44.620  52.701  1.00  0.00    -0.367 N 
HETATM   20  C1  UNL     1      -2.493  44.434  53.961  1.00  0.00     0.196 C 
HETATM   21  N1  UNL     1      -3.764  44.042  54.438  1.00  0.00    -0.067 NA
HETATM   22  N2  UNL     1      -1.399  44.635  54.847  1.00  0.00    -0.067 NA
ATOM     23  H3  UNL     1      -3.057  44.479  52.049  1.00  0.00     0.161 HD
ENDBRANCH  18  19
ENDBRANCH  17  18
ENDBRANCH  16  17
ENDBRANCH   1  16
BRANCH  11  24
HETATM   24  C10 UNL     1      -6.339  48.199  54.563  1.00  0.00     0.156 C 
BRANCH  24  25
HETATM   25  N6  UNL     1      -6.083  46.851  54.959  1.00  0.00    -0.364 N 
HETATM   26  C11 UNL     1      -6.672  46.402  56.020  1.00  0.00     0.197 C 
HETATM   27  N7  UNL     1      -7.558  47.202  56.796  1.00  0.00    -0.067 NA
HETATM   28  N8  UNL     1      -6.457  45.061  56.472  1.00  0.00    -0.067 NA
ATOM     29  H6  UNL     1      -5.452  46.257  54.420  1.00  0.00     0.161 HD
ENDBRANCH  24  25
ENDBRANCH  11  24
TORSDOF 6
ENDMDL
