MODEL 1
REMARK VINA RESULT: -7.585962699      0.000      0.000
REMARK  8 active torsions:
REMARK  status: ('A' for Active; 'I' for Inactive)
REMARK    1  A    between atoms: N2_4  and  N3_6 
REMARK       I    between atoms: C1_8  and  N5_10 
REMARK    2  A    between atoms: C2_11  and  O1_12 
REMARK    3  A    between atoms: C5_22  and  C6_23 
REMARK    4  A    between atoms: C5_22  and  C7_28 
REMARK    5  A    between atoms: C6_23  and  N8_24 
REMARK    6  A    between atoms: C7_28  and  C8_29 
REMARK    7  A    between atoms: C8_29  and  C9_30 
REMARK    8  A    between atoms: C9_30  and  N9_31 
ROOT
HETATM    1  N3  UNL     1      -3.380  45.494  50.977  1.00  0.00    -0.259 N 
ATOM      2  H3  UNL     1      -3.042  45.126  51.867  1.00  0.00     0.191 HD
HETATM    3  C1  UNL     1      -3.941  46.638  50.992  1.00  0.00     0.210 C 
HETATM    4  N4  UNL     1      -4.435  47.222  49.810  1.00  0.00    -0.062 NA
HETATM    5  N5  UNL     1      -4.077  47.335  52.212  1.00  0.00    -0.290 N 
HETATM    6  C2  UNL     1      -5.231  46.963  52.979  1.00  0.00     0.336 C 
HETATM    7  N6  UNL     1      -6.115  48.087  53.291  1.00  0.00    -0.299 N 
ATOM      8  H6  UNL     1      -6.975  47.819  53.769  1.00  0.00     0.168 HD
HETATM    9  C3  UNL     1      -5.998  49.483  53.050  1.00  0.00     0.326 C 
HETATM   10  O2  UNL     1      -7.077  50.117  53.215  1.00  0.00    -0.247 OA
HETATM   11  N7  UNL     1      -4.848  50.195  52.660  1.00  0.00    -0.277 N 
ATOM     12  H7  UNL     1      -4.876  51.208  52.771  1.00  0.00     0.173 HD
HETATM   13  C4  UNL     1      -3.639  49.637  52.122  1.00  0.00     0.256 C 
HETATM   14  O3  UNL     1      -3.091  50.382  51.284  1.00  0.00    -0.270 OA
HETATM   15  C5  UNL     1      -3.012  48.305  52.459  1.00  0.00     0.144 C 
ENDROOT
BRANCH  15  16
HETATM   16  C6  UNL     1      -2.538  48.362  53.863  1.00  0.00     0.270 C 
BRANCH  16  17
HETATM   17  N8  UNL     1      -2.806  49.544  54.603  1.00  0.00    -0.076 N 
ATOM     18  H83 UNL     1      -3.354  50.184  54.028  1.00  0.00     0.274 HD
ATOM     19  H82 UNL     1      -3.473  49.332  55.345  1.00  0.00     0.274 HD
ATOM     20  H81 UNL     1      -2.011  50.046  54.999  1.00  0.00     0.274 HD
ENDBRANCH  16  17
ENDBRANCH  15  16
BRANCH  15  21
HETATM   21  C7  UNL     1      -1.856  48.091  51.564  1.00  0.00     0.045 C 
BRANCH  21  22
HETATM   22  C8  UNL     1      -0.542  47.758  52.208  1.00  0.00     0.023 C 
BRANCH  22  23
HETATM   23  C9  UNL     1      -0.419  46.227  52.020  1.00  0.00     0.122 C 
BRANCH  23  24
HETATM   24  N9  UNL     1       0.002  45.635  53.269  1.00  0.00    -0.367 N 
HETATM   25  C10 UNL     1      -0.809  44.936  53.972  1.00  0.00     0.196 C 
HETATM   26  N10 UNL     1      -0.420  44.344  55.201  1.00  0.00    -0.067 NA
HETATM   27  N11 UNL     1      -2.133  44.750  53.501  1.00  0.00    -0.067 NA
ATOM     28  H9  UNL     1       0.958  45.777  53.596  1.00  0.00     0.161 HD
ENDBRANCH  23  24
ENDBRANCH  22  23
ENDBRANCH  21  22
ENDBRANCH  15  21
BRANCH   6  29
HETATM   29  O1  UNL     1      -4.943  46.194  54.104  1.00  0.00    -0.359 OA
ATOM     30  H1  UNL     1      -5.685  45.703  54.439  1.00  0.00     0.214 HD
ENDBRANCH   6  29
BRANCH   1  31
HETATM   31  N2  UNL     1      -3.190  44.709  49.852  1.00  0.00    -0.247 N 
HETATM   32  N1  UNL     1      -2.226  44.953  49.062  1.00  0.00    -0.331 N 
ATOM     33  H12 UNL     1      -1.600  45.731  49.271  1.00  0.00     0.178 HD
ATOM     34  H11 UNL     1      -2.086  44.375  48.233  1.00  0.00     0.178 HD
ATOM     35  H2  UNL     1      -3.825  43.935  49.657  1.00  0.00     0.207 HD
ENDBRANCH   1  31
TORSDOF 8
ENDMDL
MODEL 2
REMARK VINA RESULT: -7.238178325      3.186      4.585
REMARK  8 active torsions:
REMARK  status: ('A' for Active; 'I' for Inactive)
REMARK    1  A    between atoms: N2_4  and  N3_6 
REMARK       I    between atoms: C1_8  and  N5_10 
REMARK    2  A    between atoms: C2_11  and  O1_12 
REMARK    3  A    between atoms: C5_22  and  C6_23 
REMARK    4  A    between atoms: C5_22  and  C7_28 
REMARK    5  A    between atoms: C6_23  and  N8_24 
REMARK    6  A    between atoms: C7_28  and  C8_29 
REMARK    7  A    between atoms: C8_29  and  C9_30 
REMARK    8  A    between atoms: C9_30  and  N9_31 
ROOT
HETATM    1  N3  UNL     1      -4.393  45.491  53.454  1.00  0.00    -0.259 N 
ATOM      2  H3  UNL     1      -5.408  45.417  53.390  1.00  0.00     0.191 HD
HETATM    3  C1  UNL     1      -3.867  46.616  53.169  1.00  0.00     0.210 C 
HETATM    4  N4  UNL     1      -2.474  46.806  53.233  1.00  0.00    -0.062 NA
HETATM    5  N5  UNL     1      -4.692  47.694  52.778  1.00  0.00    -0.290 N 
HETATM    6  C2  UNL     1      -5.027  47.705  51.383  1.00  0.00     0.336 C 
HETATM    7  N6  UNL     1      -4.645  48.940  50.697  1.00  0.00    -0.299 N 
ATOM      8  H6  UNL     1      -4.810  48.924  49.691  1.00  0.00     0.168 HD
HETATM    9  C3  UNL     1      -4.085  50.156  51.174  1.00  0.00     0.326 C 
HETATM   10  O2  UNL     1      -3.637  50.899  50.257  1.00  0.00    -0.247 OA
HETATM   11  N7  UNL     1      -3.984  50.592  52.508  1.00  0.00    -0.277 N 
ATOM     12  H7  UNL     1      -3.785  51.582  52.654  1.00  0.00     0.173 HD
HETATM   13  C4  UNL     1      -4.133  49.782  53.685  1.00  0.00     0.256 C 
HETATM   14  O3  UNL     1      -3.397  50.150  54.624  1.00  0.00    -0.270 OA
HETATM   15  C5  UNL     1      -5.045  48.594  53.874  1.00  0.00     0.144 C 
ENDROOT
BRANCH  15  16
HETATM   16  C6  UNL     1      -6.445  49.082  53.850  1.00  0.00     0.270 C 
BRANCH  16  17
HETATM   17  N8  UNL     1      -6.674  50.448  54.158  1.00  0.00    -0.076 N 
ATOM     18  H83 UNL     1      -6.814  50.548  55.164  1.00  0.00     0.274 HD
ATOM     19  H82 UNL     1      -5.807  50.971  54.032  1.00  0.00     0.274 HD
ATOM     20  H81 UNL     1      -7.429  50.926  53.666  1.00  0.00     0.274 HD
ENDBRANCH  16  17
ENDBRANCH  15  16
BRANCH  15  21
HETATM   21  C7  UNL     1      -4.763  47.991  55.193  1.00  0.00     0.045 C 
BRANCH  21  22
HETATM   22  C8  UNL     1      -5.940  47.673  56.067  1.00  0.00     0.023 C 
BRANCH  22  23
HETATM   23  C9  UNL     1      -5.448  46.485  56.929  1.00  0.00     0.122 C 
BRANCH  23  24
HETATM   24  N9  UNL     1      -4.937  46.996  58.180  1.00  0.00    -0.367 N 
HETATM   25  C10 UNL     1      -5.576  46.812  59.275  1.00  0.00     0.196 C 
HETATM   26  N10 UNL     1      -5.094  47.302  60.516  1.00  0.00    -0.067 NA
HETATM   27  N11 UNL     1      -6.799  46.095  59.239  1.00  0.00    -0.067 NA
ATOM     28  H9  UNL     1      -4.056  47.509  58.191  1.00  0.00     0.161 HD
ENDBRANCH  23  24
ENDBRANCH  22  23
ENDBRANCH  21  22
ENDBRANCH  15  21
BRANCH   6  29
HETATM   29  O1  UNL     1      -6.344  47.339  51.111  1.00  0.00    -0.359 OA
ATOM     30  H1  UNL     1      -6.735  47.810  50.385  1.00  0.00     0.214 HD
ENDBRANCH   6  29
BRANCH   1  31
HETATM   31  N2  UNL     1      -3.698  44.358  53.845  1.00  0.00    -0.247 N 
HETATM   32  N1  UNL     1      -3.107  43.643  52.978  1.00  0.00    -0.331 N 
ATOM     33  H12 UNL     1      -3.155  43.917  51.996  1.00  0.00     0.178 HD
ATOM     34  H11 UNL     1      -2.595  42.809  53.265  1.00  0.00     0.178 HD
ATOM     35  H2  UNL     1      -3.660  44.098  54.831  1.00  0.00     0.207 HD
ENDBRANCH   1  31
TORSDOF 8
ENDMDL
MODEL 3
REMARK VINA RESULT: -7.226530878      2.635      5.188
REMARK  8 active torsions:
REMARK  status: ('A' for Active; 'I' for Inactive)
REMARK    1  A    between atoms: N2_4  and  N3_6 
REMARK       I    between atoms: C1_8  and  N5_10 
REMARK    2  A    between atoms: C2_11  and  O1_12 
REMARK    3  A    between atoms: C5_22  and  C6_23 
REMARK    4  A    between atoms: C5_22  and  C7_28 
REMARK    5  A    between atoms: C6_23  and  N8_24 
REMARK    6  A    between atoms: C7_28  and  C8_29 
REMARK    7  A    between atoms: C8_29  and  C9_30 
REMARK    8  A    between atoms: C9_30  and  N9_31 
ROOT
HETATM    1  N3  UNL     1      -4.017  44.662  53.813  1.00  0.00    -0.259 N 
ATOM      2  H3  UNL     1      -4.720  44.588  53.077  1.00  0.00     0.191 HD
HETATM    3  C1  UNL     1      -3.028  45.437  53.603  1.00  0.00     0.210 C 
HETATM    4  N4  UNL     1      -2.013  45.600  54.565  1.00  0.00    -0.062 NA
HETATM    5  N5  UNL     1      -2.941  46.145  52.384  1.00  0.00    -0.290 N 
HETATM    6  C2  UNL     1      -2.348  45.400  51.311  1.00  0.00     0.336 C 
HETATM    7  N6  UNL     1      -1.178  46.052  50.720  1.00  0.00    -0.299 N 
ATOM      8  H6  UNL     1      -0.707  45.493  50.008  1.00  0.00     0.168 HD
HETATM    9  C3  UNL     1      -0.577  47.318  50.954  1.00  0.00     0.326 C 
HETATM   10  O2  UNL     1       0.576  47.430  50.454  1.00  0.00    -0.247 OA
HETATM   11  N7  UNL     1      -1.118  48.409  51.659  1.00  0.00    -0.277 N 
ATOM     12  H7  UNL     1      -0.666  49.313  51.523  1.00  0.00     0.173 HD
HETATM   13  C4  UNL     1      -2.242  48.377  52.553  1.00  0.00     0.256 C 
HETATM   14  O3  UNL     1      -2.132  49.181  53.501  1.00  0.00    -0.270 OA
HETATM   15  C5  UNL     1      -3.470  47.505  52.452  1.00  0.00     0.144 C 
ENDROOT
BRANCH  15  16
HETATM   16  C6  UNL     1      -4.240  47.931  51.258  1.00  0.00     0.270 C 
BRANCH  16  17
HETATM   17  N8  UNL     1      -5.234  47.047  50.763  1.00  0.00    -0.076 N 
ATOM     18  H83 UNL     1      -5.931  46.882  51.490  1.00  0.00     0.274 HD
ATOM     19  H82 UNL     1      -5.797  47.531  50.064  1.00  0.00     0.274 HD
ATOM     20  H81 UNL     1      -4.926  46.151  50.385  1.00  0.00     0.274 HD
ENDBRANCH  16  17
ENDBRANCH  15  16
BRANCH  15  21
HETATM   21  C7  UNL     1      -4.294  47.714  53.662  1.00  0.00     0.045 C 
BRANCH  21  22
HETATM   22  C8  UNL     1      -5.462  48.649  53.543  1.00  0.00     0.023 C 
BRANCH  22  23
HETATM   23  C9  UNL     1      -6.259  48.409  54.848  1.00  0.00     0.122 C 
BRANCH  23  24
HETATM   24  N9  UNL     1      -6.242  46.997  55.151  1.00  0.00    -0.367 N 
HETATM   25  C10 UNL     1      -6.919  46.527  56.134  1.00  0.00     0.196 C 
HETATM   26  N10 UNL     1      -6.919  45.145  56.451  1.00  0.00    -0.067 NA
HETATM   27  N11 UNL     1      -7.688  47.421  56.920  1.00  0.00    -0.067 NA
ATOM     28  H9  UNL     1      -5.685  46.365  54.577  1.00  0.00     0.161 HD
ENDBRANCH  23  24
ENDBRANCH  22  23
ENDBRANCH  21  22
ENDBRANCH  15  21
BRANCH   6  29
HETATM   29  O1  UNL     1      -3.257  44.975  50.344  1.00  0.00    -0.359 OA
ATOM     30  H1  UNL     1      -3.059  44.122  49.973  1.00  0.00     0.214 HD
ENDBRANCH   6  29
BRANCH   1  31
HETATM   31  N2  UNL     1      -4.217  43.912  54.960  1.00  0.00    -0.247 N 
HETATM   32  N1  UNL     1      -4.101  44.453  56.103  1.00  0.00    -0.331 N 
ATOM     33  H12 UNL     1      -3.859  45.442  56.159  1.00  0.00     0.178 HD
ATOM     34  H11 UNL     1      -4.248  43.900  56.948  1.00  0.00     0.178 HD
ATOM     35  H2  UNL     1      -4.458  42.923  54.886  1.00  0.00     0.207 HD
ENDBRANCH   1  31
TORSDOF 8
ENDMDL
MODEL 4
REMARK VINA RESULT: -7.051725034      2.043      3.361
REMARK  8 active torsions:
REMARK  status: ('A' for Active; 'I' for Inactive)
REMARK    1  A    between atoms: N2_4  and  N3_6 
REMARK       I    between atoms: C1_8  and  N5_10 
REMARK    2  A    between atoms: C2_11  and  O1_12 
REMARK    3  A    between atoms: C5_22  and  C6_23 
REMARK    4  A    between atoms: C5_22  and  C7_28 
REMARK    5  A    between atoms: C6_23  and  N8_24 
REMARK    6  A    between atoms: C7_28  and  C8_29 
REMARK    7  A    between atoms: C8_29  and  C9_30 
REMARK    8  A    between atoms: C9_30  and  N9_31 
ROOT
HETATM    1  N3  UNL     1      -3.604  46.278  54.798  1.00  0.00    -0.259 N 
ATOM      2  H3  UNL     1      -2.684  46.668  54.595  1.00  0.00     0.191 HD
HETATM    3  C1  UNL     1      -4.620  46.991  54.507  1.00  0.00     0.210 C 
HETATM    4  N4  UNL     1      -5.927  46.530  54.752  1.00  0.00    -0.062 NA
HETATM    5  N5  UNL     1      -4.437  48.267  53.931  1.00  0.00    -0.290 N 
HETATM    6  C2  UNL     1      -4.205  49.316  54.883  1.00  0.00     0.336 C 
HETATM    7  N6  UNL     1      -5.164  50.417  54.789  1.00  0.00    -0.299 N 
ATOM      8  H6  UNL     1      -5.052  51.128  55.511  1.00  0.00     0.168 HD
HETATM    9  C3  UNL     1      -6.223  50.678  53.878  1.00  0.00     0.326 C 
HETATM   10  O2  UNL     1      -7.011  51.584  54.266  1.00  0.00    -0.247 OA
HETATM   11  N7  UNL     1      -6.469  50.051  52.643  1.00  0.00    -0.277 N 
ATOM     12  H7  UNL     1      -7.116  50.521  52.010  1.00  0.00     0.173 HD
HETATM   13  C4  UNL     1      -5.900  48.814  52.184  1.00  0.00     0.256 C 
HETATM   14  O3  UNL     1      -6.684  48.154  51.471  1.00  0.00    -0.270 OA
HETATM   15  C5  UNL     1      -4.521  48.275  52.473  1.00  0.00     0.144 C 
ENDROOT
BRANCH  15  16
HETATM   16  C6  UNL     1      -3.533  49.153  51.799  1.00  0.00     0.270 C 
BRANCH  16  17
HETATM   17  N8  UNL     1      -2.159  48.948  52.093  1.00  0.00    -0.076 N 
ATOM     18  H83 UNL     1      -2.070  48.199  52.779  1.00  0.00     0.274 HD
ATOM     19  H82 UNL     1      -1.702  48.524  51.285  1.00  0.00     0.274 HD
ATOM     20  H81 UNL     1      -1.616  49.754  52.402  1.00  0.00     0.274 HD
ENDBRANCH  16  17
ENDBRANCH  15  16
BRANCH  15  21
HETATM   21  C7  UNL     1      -4.422  46.911  51.910  1.00  0.00     0.045 C 
BRANCH  21  22
HETATM   22  C8  UNL     1      -4.199  46.795  50.430  1.00  0.00     0.023 C 
BRANCH  22  23
HETATM   23  C9  UNL     1      -2.991  45.833  50.316  1.00  0.00     0.122 C 
BRANCH  23  24
HETATM   24  N9  UNL     1      -2.684  45.311  51.627  1.00  0.00    -0.367 N 
HETATM   25  C10 UNL     1      -1.514  45.446  52.132  1.00  0.00     0.196 C 
HETATM   26  N10 UNL     1      -1.188  44.943  53.418  1.00  0.00    -0.067 NA
HETATM   27  N11 UNL     1      -0.521  46.120  51.377  1.00  0.00    -0.067 NA
ATOM     28  H9  UNL     1      -3.409  44.829  52.159  1.00  0.00     0.161 HD
ENDBRANCH  23  24
ENDBRANCH  22  23
ENDBRANCH  21  22
ENDBRANCH  15  21
BRANCH   6  29
HETATM   29  O1  UNL     1      -2.887  49.768  54.921  1.00  0.00    -0.359 OA
ATOM     30  H1  UNL     1      -2.594  50.036  55.784  1.00  0.00     0.214 HD
ENDBRANCH   6  29
BRANCH   1  31
HETATM   31  N2  UNL     1      -3.648  45.017  55.368  1.00  0.00    -0.247 N 
HETATM   32  N1  UNL     1      -3.945  44.007  54.656  1.00  0.00    -0.331 N 
ATOM     33  H12 UNL     1      -4.149  44.143  53.666  1.00  0.00     0.178 HD
ATOM     34  H11 UNL     1      -3.978  43.078  55.076  1.00  0.00     0.178 HD
ATOM     35  H2  UNL     1      -3.442  44.898  56.359  1.00  0.00     0.207 HD
ENDBRANCH   1  31
TORSDOF 8
ENDMDL
MODEL 5
REMARK VINA RESULT: -6.914597368      2.855      4.689
REMARK  8 active torsions:
REMARK  status: ('A' for Active; 'I' for Inactive)
REMARK    1  A    between atoms: N2_4  and  N3_6 
REMARK       I    between atoms: C1_8  and  N5_10 
REMARK    2  A    between atoms: C2_11  and  O1_12 
REMARK    3  A    between atoms: C5_22  and  C6_23 
REMARK    4  A    between atoms: C5_22  and  C7_28 
REMARK    5  A    between atoms: C6_23  and  N8_24 
REMARK    6  A    between atoms: C7_28  and  C8_29 
REMARK    7  A    between atoms: C8_29  and  C9_30 
REMARK    8  A    between atoms: C9_30  and  N9_31 
ROOT
HETATM    1  N3  UNL     1      -4.797  46.191  54.091  1.00  0.00    -0.259 N 
ATOM      2  H3  UNL     1      -5.816  46.228  54.069  1.00  0.00     0.191 HD
HETATM    3  C1  UNL     1      -4.165  47.192  53.617  1.00  0.00     0.210 C 
HETATM    4  N4  UNL     1      -2.758  47.226  53.609  1.00  0.00    -0.062 NA
HETATM    5  N5  UNL     1      -4.883  48.286  53.088  1.00  0.00    -0.290 N 
HETATM    6  C2  UNL     1      -5.281  48.123  51.719  1.00  0.00     0.336 C 
HETATM    7  N6  UNL     1      -4.798  49.187  50.837  1.00  0.00    -0.299 N 
ATOM      8  H6  UNL     1      -5.012  49.038  49.851  1.00  0.00     0.168 HD
HETATM    9  C3  UNL     1      -4.085  50.388  51.101  1.00  0.00     0.326 C 
HETATM   10  O2  UNL     1      -3.602  50.926  50.066  1.00  0.00    -0.247 OA
HETATM   11  N7  UNL     1      -3.873  51.007  52.347  1.00  0.00    -0.277 N 
ATOM     12  H7  UNL     1      -3.560  51.977  52.330  1.00  0.00     0.173 HD
HETATM   13  C4  UNL     1      -4.055  50.408  53.640  1.00  0.00     0.256 C 
HETATM   14  O3  UNL     1      -3.239  50.827  54.487  1.00  0.00    -0.270 OA
HETATM   15  C5  UNL     1      -5.082  49.377  54.039  1.00  0.00     0.144 C 
ENDROOT
BRANCH  15  16
HETATM   16  C6  UNL     1      -6.420  50.015  53.981  1.00  0.00     0.270 C 
BRANCH  16  17
HETATM   17  N8  UNL     1      -6.479  51.432  54.035  1.00  0.00    -0.076 N 
ATOM     18  H83 UNL     1      -5.645  51.786  54.503  1.00  0.00     0.274 HD
ATOM     19  H82 UNL     1      -6.347  51.810  53.096  1.00  0.00     0.274 HD
ATOM     20  H81 UNL     1      -7.306  51.857  54.455  1.00  0.00     0.274 HD
ENDBRANCH  16  17
ENDBRANCH  15  16
BRANCH  15  21
HETATM   21  C7  UNL     1      -4.806  48.952  55.428  1.00  0.00     0.045 C 
BRANCH  21  22
HETATM   22  C8  UNL     1      -5.555  49.656  56.522  1.00  0.00     0.023 C 
BRANCH  22  23
HETATM   23  C9  UNL     1      -5.957  48.514  57.485  1.00  0.00     0.122 C 
BRANCH  23  24
HETATM   24  N9  UNL     1      -6.158  47.306  56.718  1.00  0.00    -0.367 N 
HETATM   25  C10 UNL     1      -6.459  46.202  57.297  1.00  0.00     0.196 C 
HETATM   26  N10 UNL     1      -6.662  45.003  56.566  1.00  0.00    -0.067 NA
HETATM   27  N11 UNL     1      -6.593  46.187  58.708  1.00  0.00    -0.067 NA
ATOM     28  H9  UNL     1      -6.059  47.331  55.704  1.00  0.00     0.161 HD
ENDBRANCH  23  24
ENDBRANCH  22  23
ENDBRANCH  21  22
ENDBRANCH  15  21
BRANCH   6  29
HETATM   29  O1  UNL     1      -6.642  47.876  51.547  1.00  0.00    -0.359 OA
ATOM     30  H1  UNL     1      -6.919  47.847  50.639  1.00  0.00     0.214 HD
ENDBRANCH   6  29
BRANCH   1  31
HETATM   31  N2  UNL     1      -4.213  45.058  54.633  1.00  0.00    -0.247 N 
HETATM   32  N1  UNL     1      -3.744  44.157  53.871  1.00  0.00    -0.331 N 
ATOM     33  H12 UNL     1      -3.806  44.284  52.861  1.00  0.00     0.178 HD
ATOM     34  H11 UNL     1      -3.315  43.323  54.270  1.00  0.00     0.178 HD
ATOM     35  H2  UNL     1      -4.160  44.947  55.645  1.00  0.00     0.207 HD
ENDBRANCH   1  31
TORSDOF 8
ENDMDL
