MODEL 1
REMARK VINA RESULT: -7.601666158      0.000      0.000
REMARK  10 active torsions:
REMARK  status: ('A' for Active; 'I' for Inactive)
REMARK       I    between atoms: C1_4  and  N3_6 
REMARK    1  A    between atoms: N3_6  and  C2_8 
REMARK    2  A    between atoms: C2_8  and  C3_9 
REMARK    3  A    between atoms: C4_10  and  O1_11 
REMARK    4  A    between atoms: C6_15  and  C7_16 
REMARK    5  A    between atoms: C7_16  and  N5_18 
REMARK    6  A    between atoms: N5_18  and  C8_20 
REMARK    7  A    between atoms: C8_20  and  C9_21 
REMARK    8  A    between atoms: C9_21  and  C10_22 
REMARK    9  A    between atoms: C10_22  and  C11_23 
REMARK   10  A    between atoms: N6_24  and  N7_26 
ROOT
HETATM    1  C3  UNL     1      -1.847  45.622  50.715  1.00  0.00     0.034 A 
HETATM    2  C4  UNL     1      -2.829  45.598  49.818  1.00  0.00     0.129 A 
HETATM    3  C5  UNL     1      -3.623  46.517  50.228  1.00  0.00     0.220 A 
HETATM    4  O2  UNL     1      -4.729  46.970  49.773  1.00  0.00    -0.284 OA
HETATM    5  C6  UNL     1      -2.848  46.789  51.259  1.00  0.00     0.072 A 
ENDROOT
BRANCH   5   6
HETATM    6  C7  UNL     1      -2.906  47.488  52.329  1.00  0.00     0.131 C 
HETATM    7  N4  UNL     1      -1.976  48.561  52.690  1.00  0.00    -0.082 NA
BRANCH   6   8
HETATM    8  N5  UNL     1      -3.880  47.338  53.375  1.00  0.00    -0.357 N 
ATOM      9  H5  UNL     1      -3.496  47.059  54.278  1.00  0.00     0.166 HD
BRANCH   8  10
HETATM   10  C8  UNL     1      -5.267  47.510  53.357  1.00  0.00     0.062 C 
BRANCH  10  11
HETATM   11  C9  UNL     1      -5.794  48.790  54.016  1.00  0.00     0.049 C 
BRANCH  11  12
HETATM   12  C10 UNL     1      -4.908  49.079  55.224  1.00  0.00     0.051 C 
BRANCH  12  13
HETATM   13  C11 UNL     1      -5.663  49.148  56.475  1.00  0.00     0.080 C 
HETATM   14  N6  UNL     1      -5.757  48.160  57.257  1.00  0.00    -0.314 N 
ATOM     15  H6  UNL     1      -6.282  48.237  58.129  1.00  0.00     0.185 HD
BRANCH  14  16
HETATM   16  N7  UNL     1      -5.123  46.950  56.905  1.00  0.00    -0.277 N 
HETATM   17  C12 UNL     1      -5.758  45.929  56.439  1.00  0.00     0.215 C 
HETATM   18  N8  UNL     1      -5.137  44.700  56.079  1.00  0.00    -0.065 NA
HETATM   19  N9  UNL     1      -7.130  45.978  56.248  1.00  0.00    -0.065 NA
ATOM     20  H7  UNL     1      -4.112  46.879  57.025  1.00  0.00     0.189 HD
ENDBRANCH  14  16
ENDBRANCH  12  13
ENDBRANCH  11  12
ENDBRANCH  10  11
ENDBRANCH   8  10
ENDBRANCH   6   8
ENDBRANCH   5   6
BRANCH   1  21
HETATM   21  C2  UNL     1      -0.878  45.666  51.599  1.00  0.00     0.106 C 
BRANCH  21  22
HETATM   22  N3  UNL     1      -0.633  44.748  52.618  1.00  0.00    -0.340 N 
HETATM   23  C1  UNL     1      -0.996  44.772  53.981  1.00  0.00     0.185 C 
HETATM   24  N1  UNL     1      -0.111  45.030  54.852  1.00  0.00    -0.374 N 
HETATM   25  N2  UNL     1      -2.332  44.483  54.345  1.00  0.00    -0.064 NA
ATOM     26  H12 UNL     1      -0.374  45.046  55.837  1.00  0.00     0.158 HD
ATOM     27  H11 UNL     1       0.852  45.238  54.589  1.00  0.00     0.158 HD
ATOM     28  H3  UNL     1      -0.104  43.924  52.332  1.00  0.00     0.167 HD
ENDBRANCH  21  22
ENDBRANCH   1  21
BRANCH   2  29
HETATM   29  O1  UNL     1      -2.868  44.754  48.764  1.00  0.00    -0.356 OA
ATOM     30  H1  UNL     1      -2.503  44.954  47.910  1.00  0.00     0.218 HD
ENDBRANCH   2  29
TORSDOF 10
ENDMDL
MODEL 2
REMARK VINA RESULT: -7.512332518      2.192      5.295
REMARK  10 active torsions:
REMARK  status: ('A' for Active; 'I' for Inactive)
REMARK       I    between atoms: C1_4  and  N3_6 
REMARK    1  A    between atoms: N3_6  and  C2_8 
REMARK    2  A    between atoms: C2_8  and  C3_9 
REMARK    3  A    between atoms: C4_10  and  O1_11 
REMARK    4  A    between atoms: C6_15  and  C7_16 
REMARK    5  A    between atoms: C7_16  and  N5_18 
REMARK    6  A    between atoms: N5_18  and  C8_20 
REMARK    7  A    between atoms: C8_20  and  C9_21 
REMARK    8  A    between atoms: C9_21  and  C10_22 
REMARK    9  A    between atoms: C10_22  and  C11_23 
REMARK   10  A    between atoms: N6_24  and  N7_26 
ROOT
HETATM    1  C3  UNL     1      -5.797  48.603  52.539  1.00  0.00     0.034 A 
HETATM    2  C4  UNL     1      -5.718  49.855  52.097  1.00  0.00     0.129 A 
HETATM    3  C5  UNL     1      -4.950  49.757  51.075  1.00  0.00     0.220 A 
HETATM    4  O2  UNL     1      -4.518  50.617  50.233  1.00  0.00    -0.284 OA
HETATM    5  C6  UNL     1      -4.812  48.458  51.247  1.00  0.00     0.072 A 
ENDROOT
BRANCH   5   6
HETATM    6  C7  UNL     1      -4.090  47.512  50.777  1.00  0.00     0.131 C 
HETATM    7  N4  UNL     1      -4.390  46.740  49.569  1.00  0.00    -0.082 NA
BRANCH   6   8
HETATM    8  N5  UNL     1      -2.868  47.024  51.356  1.00  0.00    -0.357 N 
ATOM      9  H5  UNL     1      -2.702  47.323  52.316  1.00  0.00     0.166 HD
BRANCH   8  10
HETATM   10  C8  UNL     1      -1.870  46.207  50.817  1.00  0.00     0.062 C 
BRANCH  10  11
HETATM   11  C9  UNL     1      -0.426  46.603  51.145  1.00  0.00     0.049 C 
BRANCH  11  12
HETATM   12  C10 UNL     1      -0.403  47.079  52.595  1.00  0.00     0.051 C 
BRANCH  12  13
HETATM   13  C11 UNL     1       0.393  46.211  53.462  1.00  0.00     0.080 C 
HETATM   14  N6  UNL     1      -0.136  45.451  54.321  1.00  0.00    -0.314 N 
ATOM     15  H6  UNL     1       0.441  44.849  54.908  1.00  0.00     0.185 HD
BRANCH  14  16
HETATM   16  N7  UNL     1      -1.541  45.450  54.454  1.00  0.00    -0.277 N 
HETATM   17  C12 UNL     1      -2.291  44.490  54.032  1.00  0.00     0.215 C 
HETATM   18  N8  UNL     1      -3.708  44.470  54.156  1.00  0.00    -0.065 NA
HETATM   19  N9  UNL     1      -1.734  43.379  53.418  1.00  0.00    -0.065 NA
ATOM     20  H7  UNL     1      -1.986  46.249  54.908  1.00  0.00     0.189 HD
ENDBRANCH  14  16
ENDBRANCH  12  13
ENDBRANCH  11  12
ENDBRANCH  10  11
ENDBRANCH   8  10
ENDBRANCH   6   8
ENDBRANCH   5   6
BRANCH   1  21
HETATM   21  C2  UNL     1      -5.879  47.361  52.955  1.00  0.00     0.106 C 
BRANCH  21  22
HETATM   22  N3  UNL     1      -5.622  46.891  54.241  1.00  0.00    -0.340 N 
HETATM   23  C1  UNL     1      -6.370  47.018  55.431  1.00  0.00     0.185 C 
HETATM   24  N1  UNL     1      -5.979  47.829  56.323  1.00  0.00    -0.374 N 
HETATM   25  N2  UNL     1      -7.523  46.219  55.609  1.00  0.00    -0.064 NA
ATOM     26  H12 UNL     1      -6.519  47.920  57.183  1.00  0.00     0.158 HD
ATOM     27  H11 UNL     1      -5.147  48.406  56.194  1.00  0.00     0.158 HD
ATOM     28  H3  UNL     1      -4.750  46.371  54.339  1.00  0.00     0.167 HD
ENDBRANCH  21  22
ENDBRANCH   1  21
BRANCH   2  29
HETATM   29  O1  UNL     1      -6.345  50.901  52.677  1.00  0.00    -0.356 OA
ATOM     30  H1  UNL     1      -6.877  51.531  52.203  1.00  0.00     0.218 HD
ENDBRANCH   2  29
TORSDOF 10
ENDMDL
MODEL 3
REMARK VINA RESULT: -7.488392277      2.686      4.421
REMARK  10 active torsions:
REMARK  status: ('A' for Active; 'I' for Inactive)
REMARK       I    between atoms: C1_4  and  N3_6 
REMARK    1  A    between atoms: N3_6  and  C2_8 
REMARK    2  A    between atoms: C2_8  and  C3_9 
REMARK    3  A    between atoms: C4_10  and  O1_11 
REMARK    4  A    between atoms: C6_15  and  C7_16 
REMARK    5  A    between atoms: C7_16  and  N5_18 
REMARK    6  A    between atoms: N5_18  and  C8_20 
REMARK    7  A    between atoms: C8_20  and  C9_21 
REMARK    8  A    between atoms: C9_21  and  C10_22 
REMARK    9  A    between atoms: C10_22  and  C11_23 
REMARK   10  A    between atoms: N6_24  and  N7_26 
ROOT
HETATM    1  C3  UNL     1      -2.589  44.429  53.887  1.00  0.00     0.034 A 
HETATM    2  C4  UNL     1      -1.381  44.240  53.364  1.00  0.00     0.129 A 
HETATM    3  C5  UNL     1      -1.188  45.307  52.680  1.00  0.00     0.220 A 
HETATM    4  O2  UNL     1      -0.207  45.711  51.967  1.00  0.00    -0.284 OA
HETATM    5  C6  UNL     1      -2.368  45.790  53.016  1.00  0.00     0.072 A 
ENDROOT
BRANCH   5   6
HETATM    6  C7  UNL     1      -3.121  46.767  52.680  1.00  0.00     0.131 C 
HETATM    7  N4  UNL     1      -4.055  46.766  51.551  1.00  0.00    -0.082 NA
BRANCH   6   8
HETATM    8  N5  UNL     1      -3.177  48.046  53.336  1.00  0.00    -0.357 N 
ATOM      9  H5  UNL     1      -3.870  48.112  54.082  1.00  0.00     0.166 HD
BRANCH   8  10
HETATM   10  C8  UNL     1      -2.438  49.212  53.119  1.00  0.00     0.062 C 
BRANCH  10  11
HETATM   11  C9  UNL     1      -3.209  50.397  52.528  1.00  0.00     0.049 C 
BRANCH  11  12
HETATM   12  C10 UNL     1      -3.528  50.054  51.075  1.00  0.00     0.051 C 
BRANCH  12  13
HETATM   13  C11 UNL     1      -4.780  50.652  50.614  1.00  0.00     0.080 C 
HETATM   14  N6  UNL     1      -5.908  50.185  50.939  1.00  0.00    -0.314 N 
ATOM     15  H6  UNL     1      -6.767  50.627  50.611  1.00  0.00     0.185 HD
BRANCH  14  16
HETATM   16  N7  UNL     1      -5.958  49.042  51.765  1.00  0.00    -0.277 N 
HETATM   17  C12 UNL     1      -6.426  49.057  52.966  1.00  0.00     0.215 C 
HETATM   18  N8  UNL     1      -6.484  47.916  53.814  1.00  0.00    -0.065 NA
HETATM   19  N9  UNL     1      -6.922  50.229  53.515  1.00  0.00    -0.065 NA
ATOM     20  H7  UNL     1      -5.607  48.159  51.392  1.00  0.00     0.189 HD
ENDBRANCH  14  16
ENDBRANCH  12  13
ENDBRANCH  11  12
ENDBRANCH  10  11
ENDBRANCH   8  10
ENDBRANCH   6   8
ENDBRANCH   5   6
BRANCH   1  21
HETATM   21  C2  UNL     1      -3.776  44.635  54.410  1.00  0.00     0.106 C 
BRANCH  21  22
HETATM   22  N3  UNL     1      -4.058  45.025  55.717  1.00  0.00    -0.340 N 
HETATM   23  C1  UNL     1      -5.178  45.695  56.253  1.00  0.00     0.185 C 
HETATM   24  N1  UNL     1      -5.071  46.917  56.575  1.00  0.00    -0.374 N 
HETATM   25  N2  UNL     1      -6.384  44.982  56.442  1.00  0.00    -0.064 NA
ATOM     26  H12 UNL     1      -5.880  47.401  56.963  1.00  0.00     0.158 HD
ATOM     27  H11 UNL     1      -4.201  47.431  56.438  1.00  0.00     0.158 HD
ATOM     28  H3  UNL     1      -3.337  44.788  56.398  1.00  0.00     0.167 HD
ENDBRANCH  21  22
ENDBRANCH   1  21
BRANCH   2  29
HETATM   29  O1  UNL     1      -0.630  43.138  53.577  1.00  0.00    -0.356 OA
ATOM     30  H1  UNL     1       0.197  42.967  53.143  1.00  0.00     0.218 HD
ENDBRANCH   2  29
TORSDOF 10
ENDMDL
MODEL 4
REMARK VINA RESULT: -7.457334117      2.013      3.867
REMARK  10 active torsions:
REMARK  status: ('A' for Active; 'I' for Inactive)
REMARK       I    between atoms: C1_4  and  N3_6 
REMARK    1  A    between atoms: N3_6  and  C2_8 
REMARK    2  A    between atoms: C2_8  and  C3_9 
REMARK    3  A    between atoms: C4_10  and  O1_11 
REMARK    4  A    between atoms: C6_15  and  C7_16 
REMARK    5  A    between atoms: C7_16  and  N5_18 
REMARK    6  A    between atoms: N5_18  and  C8_20 
REMARK    7  A    between atoms: C8_20  and  C9_21 
REMARK    8  A    between atoms: C9_21  and  C10_22 
REMARK    9  A    between atoms: C10_22  and  C11_23 
REMARK   10  A    between atoms: N6_24  and  N7_26 
ROOT
HETATM    1  C3  UNL     1      -1.842  45.553  50.893  1.00  0.00     0.034 A 
HETATM    2  C4  UNL     1      -2.839  45.643  50.017  1.00  0.00     0.129 A 
HETATM    3  C5  UNL     1      -3.535  46.622  50.464  1.00  0.00     0.220 A 
HETATM    4  O2  UNL     1      -4.602  47.186  50.044  1.00  0.00    -0.284 OA
HETATM    5  C6  UNL     1      -2.718  46.796  51.484  1.00  0.00     0.072 A 
ENDROOT
BRANCH   5   6
HETATM    6  C7  UNL     1      -2.689  47.471  52.570  1.00  0.00     0.131 C 
HETATM    7  N4  UNL     1      -1.783  48.587  52.848  1.00  0.00    -0.082 NA
BRANCH   6   8
HETATM    8  N5  UNL     1      -3.527  47.247  53.717  1.00  0.00    -0.357 N 
ATOM      9  H5  UNL     1      -3.293  46.417  54.259  1.00  0.00     0.166 HD
BRANCH   8  10
HETATM   10  C8  UNL     1      -4.609  47.983  54.209  1.00  0.00     0.062 C 
BRANCH  10  11
HETATM   11  C9  UNL     1      -5.654  48.416  53.175  1.00  0.00     0.049 C 
BRANCH  11  12
HETATM   12  C10 UNL     1      -5.517  49.925  52.995  1.00  0.00     0.051 C 
BRANCH  12  13
HETATM   13  C11 UNL     1      -4.819  50.287  51.762  1.00  0.00     0.080 C 
HETATM   14  N6  UNL     1      -3.703  50.878  51.770  1.00  0.00    -0.314 N 
ATOM     15  H6  UNL     1      -3.232  51.111  50.896  1.00  0.00     0.185 HD
BRANCH  14  16
HETATM   16  N7  UNL     1      -3.118  51.210  53.011  1.00  0.00    -0.277 N 
HETATM   17  C12 UNL     1      -2.399  52.265  53.195  1.00  0.00     0.215 C 
HETATM   18  N8  UNL     1      -1.801  52.616  54.437  1.00  0.00    -0.065 NA
HETATM   19  N9  UNL     1      -2.169  53.151  52.154  1.00  0.00    -0.065 NA
ATOM     20  H7  UNL     1      -3.272  50.584  53.802  1.00  0.00     0.189 HD
ENDBRANCH  14  16
ENDBRANCH  12  13
ENDBRANCH  11  12
ENDBRANCH  10  11
ENDBRANCH   8  10
ENDBRANCH   6   8
ENDBRANCH   5   6
BRANCH   1  21
HETATM   21  C2  UNL     1      -0.855  45.486  51.756  1.00  0.00     0.106 C 
BRANCH  21  22
HETATM   22  N3  UNL     1      -0.691  44.541  52.766  1.00  0.00    -0.340 N 
HETATM   23  C1  UNL     1      -1.060  44.578  54.127  1.00  0.00     0.185 C 
HETATM   24  N1  UNL     1      -0.163  44.755  55.005  1.00  0.00    -0.374 N 
HETATM   25  N2  UNL     1      -2.417  44.393  54.480  1.00  0.00    -0.064 NA
ATOM     26  H12 UNL     1      -0.430  44.782  55.989  1.00  0.00     0.158 HD
ATOM     27  H11 UNL     1       0.816  44.889  54.751  1.00  0.00     0.158 HD
ATOM     28  H3  UNL     1      -0.227  43.680  52.473  1.00  0.00     0.167 HD
ENDBRANCH  21  22
ENDBRANCH   1  21
BRANCH   2  29
HETATM   29  O1  UNL     1      -2.977  44.832  48.945  1.00  0.00    -0.356 OA
ATOM     30  H1  UNL     1      -3.592  44.109  48.902  1.00  0.00     0.218 HD
ENDBRANCH   2  29
TORSDOF 10
ENDMDL
MODEL 5
REMARK VINA RESULT: -7.442649884      2.018      5.257
REMARK  10 active torsions:
REMARK  status: ('A' for Active; 'I' for Inactive)
REMARK       I    between atoms: C1_4  and  N3_6 
REMARK    1  A    between atoms: N3_6  and  C2_8 
REMARK    2  A    between atoms: C2_8  and  C3_9 
REMARK    3  A    between atoms: C4_10  and  O1_11 
REMARK    4  A    between atoms: C6_15  and  C7_16 
REMARK    5  A    between atoms: C7_16  and  N5_18 
REMARK    6  A    between atoms: N5_18  and  C8_20 
REMARK    7  A    between atoms: C8_20  and  C9_21 
REMARK    8  A    between atoms: C9_21  and  C10_22 
REMARK    9  A    between atoms: C10_22  and  C11_23 
REMARK   10  A    between atoms: N6_24  and  N7_26 
ROOT
HETATM    1  C3  UNL     1      -5.706  49.471  52.849  1.00  0.00     0.034 A 
HETATM    2  C4  UNL     1      -5.558  50.061  51.666  1.00  0.00     0.129 A 
HETATM    3  C5  UNL     1      -4.285  50.117  51.523  1.00  0.00     0.220 A 
HETATM    4  O2  UNL     1      -3.539  50.563  50.585  1.00  0.00    -0.284 OA
HETATM    5  C6  UNL     1      -4.084  49.541  52.692  1.00  0.00     0.072 A 
ENDROOT
BRANCH   5   6
HETATM    6  C7  UNL     1      -3.100  49.309  53.476  1.00  0.00     0.131 C 
HETATM    7  N4  UNL     1      -2.558  50.254  54.455  1.00  0.00    -0.082 NA
BRANCH   6   8
HETATM    8  N5  UNL     1      -2.340  48.090  53.528  1.00  0.00    -0.357 N 
ATOM      9  H5  UNL     1      -2.742  47.362  54.116  1.00  0.00     0.166 HD
BRANCH   8  10
HETATM   10  C8  UNL     1      -1.139  47.741  52.903  1.00  0.00     0.062 C 
BRANCH  10  11
HETATM   11  C9  UNL     1      -1.169  47.681  51.372  1.00  0.00     0.049 C 
BRANCH  11  12
HETATM   12  C10 UNL     1      -1.121  46.209  50.973  1.00  0.00     0.051 C 
BRANCH  12  13
HETATM   13  C11 UNL     1      -2.420  45.548  51.092  1.00  0.00     0.080 C 
HETATM   14  N6  UNL     1      -2.643  44.658  51.961  1.00  0.00    -0.314 N 
ATOM     15  H6  UNL     1      -3.561  44.218  52.029  1.00  0.00     0.185 HD
BRANCH  14  16
HETATM   16  N7  UNL     1      -1.601  44.284  52.835  1.00  0.00    -0.277 N 
HETATM   17  C12 UNL     1      -1.666  44.426  54.115  1.00  0.00     0.215 C 
HETATM   18  N8  UNL     1      -0.627  44.057  55.013  1.00  0.00    -0.065 NA
HETATM   19  N9  UNL     1      -2.799  44.962  54.708  1.00  0.00    -0.065 NA
ATOM     20  H7  UNL     1      -0.754  43.880  52.435  1.00  0.00     0.189 HD
ENDBRANCH  14  16
ENDBRANCH  12  13
ENDBRANCH  11  12
ENDBRANCH  10  11
ENDBRANCH   8  10
ENDBRANCH   6   8
ENDBRANCH   5   6
BRANCH   1  21
HETATM   21  C2  UNL     1      -5.837  48.875  54.011  1.00  0.00     0.106 C 
BRANCH  21  22
HETATM   22  N3  UNL     1      -5.714  47.512  54.270  1.00  0.00    -0.340 N 
HETATM   23  C1  UNL     1      -6.094  46.754  55.397  1.00  0.00     0.185 C 
HETATM   24  N1  UNL     1      -5.200  46.351  56.201  1.00  0.00    -0.374 N 
HETATM   25  N2  UNL     1      -7.460  46.440  55.591  1.00  0.00    -0.064 NA
ATOM     26  H12 UNL     1      -5.475  45.803  57.016  1.00  0.00     0.158 HD
ATOM     27  H11 UNL     1      -4.215  46.578  56.062  1.00  0.00     0.158 HD
ATOM     28  H3  UNL     1      -5.277  46.973  53.522  1.00  0.00     0.167 HD
ENDBRANCH  21  22
ENDBRANCH   1  21
BRANCH   2  29
HETATM   29  O1  UNL     1      -6.587  50.462  50.889  1.00  0.00    -0.356 OA
ATOM     30  H1  UNL     1      -6.667  51.334  50.521  1.00  0.00     0.218 HD
ENDBRANCH   2  29
TORSDOF 10
ENDMDL
