MODEL 1
REMARK VINA RESULT: -5.193866972      0.000      0.000
REMARK  1 active torsions:
REMARK  status: ('A' for Active; 'I' for Inactive)
REMARK    1  A    between atoms: C2_2  and  O1_3 
ROOT
HETATM    1  C1  UNL     1     -22.112 -51.871 -14.680  1.00  0.00     0.050 C 
HETATM    2  C2  UNL     1     -21.092 -52.235 -13.655  1.00  0.00     0.094 C 
HETATM    3  C3  UNL     1     -21.670 -52.226 -12.274  1.00  0.00     0.024 C 
HETATM    4  C4  UNL     1     -20.544 -52.280 -11.276  1.00  0.00     0.012 C 
HETATM    5  C5  UNL     1     -19.736 -53.522 -11.532  1.00  0.00    -0.010 C 
HETATM    6  C6  UNL     1     -20.584 -54.741 -11.282  1.00  0.00     0.009 C 
HETATM    7  C7  UNL     1     -21.788 -54.694 -12.193  1.00  0.00    -0.010 C 
HETATM    8  C8  UNL     1     -22.572 -53.417 -12.049  1.00  0.00     0.012 C 
HETATM    9  C9  UNL     1     -21.282 -54.739 -13.632  1.00  0.00     0.051 C 
HETATM   10  C10 UNL     1     -20.408 -53.544 -13.901  1.00  0.00     0.135 C 
HETATM   11  F1  UNL     1     -19.916 -53.667 -15.181  1.00  0.00    -0.240 F 
HETATM   12  C11 UNL     1     -19.215 -53.606 -12.943  1.00  0.00     0.051 C 
ENDROOT
BRANCH   2  13
HETATM   13  O1  UNL     1     -20.085 -51.239 -13.684  1.00  0.00    -0.386 OA
ATOM     14  H1  UNL     1     -19.293 -51.643 -14.019  1.00  0.00     0.210 HD
ENDBRANCH   2  13
TORSDOF 1
ENDMDL
MODEL 2
REMARK VINA RESULT: -5.162405688      1.636      2.290
REMARK  1 active torsions:
REMARK  status: ('A' for Active; 'I' for Inactive)
REMARK    1  A    between atoms: C2_2  and  O1_3 
ROOT
HETATM    1  C1  UNL     1     -23.803 -53.334 -14.805  1.00  0.00     0.050 C 
HETATM    2  C2  UNL     1     -23.146 -52.406 -13.839  1.00  0.00     0.094 C 
HETATM    3  C3  UNL     1     -23.391 -52.822 -12.422  1.00  0.00     0.024 C 
HETATM    4  C4  UNL     1     -22.989 -51.695 -11.508  1.00  0.00     0.012 C 
HETATM    5  C5  UNL     1     -21.540 -51.375 -11.751  1.00  0.00    -0.010 C 
HETATM    6  C6  UNL     1     -20.688 -52.555 -11.369  1.00  0.00     0.009 C 
HETATM    7  C7  UNL     1     -21.112 -53.751 -12.189  1.00  0.00    -0.010 C 
HETATM    8  C8  UNL     1     -22.583 -54.046 -12.062  1.00  0.00     0.012 C 
HETATM    9  C9  UNL     1     -20.856 -53.420 -13.656  1.00  0.00     0.051 C 
HETATM   10  C10 UNL     1     -21.676 -52.225 -14.058  1.00  0.00     0.135 C 
HETATM   11  F1  UNL     1     -21.356 -51.918 -15.362  1.00  0.00    -0.240 F 
HETATM   12  C11 UNL     1     -21.243 -51.040 -13.190  1.00  0.00     0.051 C 
ENDROOT
BRANCH   2  13
HETATM   13  O1  UNL     1     -23.741 -51.131 -14.000  1.00  0.00    -0.386 OA
ATOM     14  H1  UNL     1     -23.100 -50.481 -13.738  1.00  0.00     0.210 HD
ENDBRANCH   2  13
TORSDOF 1
ENDMDL
MODEL 3
REMARK VINA RESULT: -5.120386445      1.302      2.125
REMARK  1 active torsions:
REMARK  status: ('A' for Active; 'I' for Inactive)
REMARK    1  A    between atoms: C2_2  and  O1_3 
ROOT
HETATM    1  C1  UNL     1     -21.308 -51.054 -11.678  1.00  0.00     0.050 C 
HETATM    2  C2  UNL     1     -20.613 -52.051 -12.543  1.00  0.00     0.094 C 
HETATM    3  C3  UNL     1     -19.599 -52.837 -11.772  1.00  0.00     0.024 C 
HETATM    4  C4  UNL     1     -18.721 -53.582 -12.742  1.00  0.00     0.012 C 
HETATM    5  C5  UNL     1     -19.589 -54.472 -13.587  1.00  0.00    -0.010 C 
HETATM    6  C6  UNL     1     -20.244 -55.515 -12.720  1.00  0.00     0.009 C 
HETATM    7  C7  UNL     1     -21.068 -54.822 -11.659  1.00  0.00    -0.010 C 
HETATM    8  C8  UNL     1     -20.262 -53.837 -10.855  1.00  0.00     0.012 C 
HETATM    9  C9  UNL     1     -22.157 -54.023 -12.368  1.00  0.00     0.051 C 
HETATM   10  C10 UNL     1     -21.529 -52.990 -13.263  1.00  0.00     0.135 C 
HETATM   11  F1  UNL     1     -22.545 -52.347 -13.936  1.00  0.00    -0.240 F 
HETATM   12  C11 UNL     1     -20.680 -53.722 -14.307  1.00  0.00     0.051 C 
ENDROOT
BRANCH   2  13
HETATM   13  O1  UNL     1     -19.904 -51.332 -13.536  1.00  0.00    -0.386 OA
ATOM     14  H1  UNL     1     -19.471 -50.603 -13.107  1.00  0.00     0.210 HD
ENDBRANCH   2  13
TORSDOF 1
ENDMDL
MODEL 4
REMARK VINA RESULT: -5.024568889      1.723      3.148
REMARK  1 active torsions:
REMARK  status: ('A' for Active; 'I' for Inactive)
REMARK    1  A    between atoms: C2_2  and  O1_3 
ROOT
HETATM    1  C1  UNL     1     -19.677 -51.491 -12.315  1.00  0.00     0.050 C 
HETATM    2  C2  UNL     1     -20.681 -52.005 -13.291  1.00  0.00     0.094 C 
HETATM    3  C3  UNL     1     -20.773 -53.499 -13.254  1.00  0.00     0.024 C 
HETATM    4  C4  UNL     1     -21.545 -53.970 -14.457  1.00  0.00     0.012 C 
HETATM    5  C5  UNL     1     -22.905 -53.329 -14.434  1.00  0.00    -0.010 C 
HETATM    6  C6  UNL     1     -23.669 -53.803 -13.227  1.00  0.00     0.009 C 
HETATM    7  C7  UNL     1     -22.892 -53.443 -11.982  1.00  0.00    -0.010 C 
HETATM    8  C8  UNL     1     -21.483 -53.974 -12.008  1.00  0.00     0.012 C 
HETATM    9  C9  UNL     1     -22.788 -51.922 -11.926  1.00  0.00     0.051 C 
HETATM   10  C10 UNL     1     -22.050 -51.419 -13.137  1.00  0.00     0.135 C 
HETATM   11  F1  UNL     1     -22.047 -50.042 -13.080  1.00  0.00    -0.240 F 
HETATM   12  C11 UNL     1     -22.848 -51.824 -14.379  1.00  0.00     0.051 C 
ENDROOT
BRANCH   2  13
HETATM   13  O1  UNL     1     -20.233 -51.655 -14.588  1.00  0.00    -0.386 OA
ATOM     14  H1  UNL     1     -20.825 -52.058 -15.213  1.00  0.00     0.210 HD
ENDBRANCH   2  13
TORSDOF 1
ENDMDL
MODEL 5
REMARK VINA RESULT: -5.000127612      1.626      3.052
REMARK  1 active torsions:
REMARK  status: ('A' for Active; 'I' for Inactive)
REMARK    1  A    between atoms: C2_2  and  O1_3 
ROOT
HETATM    1  C1  UNL     1     -18.826 -53.403 -12.809  1.00  0.00     0.050 C 
HETATM    2  C2  UNL     1     -20.047 -52.572 -13.011  1.00  0.00     0.094 C 
HETATM    3  C3  UNL     1     -20.745 -52.918 -14.290  1.00  0.00     0.024 C 
HETATM    4  C4  UNL     1     -21.762 -51.851 -14.593  1.00  0.00     0.012 C 
HETATM    5  C5  UNL     1     -22.725 -51.765 -13.441  1.00  0.00    -0.010 C 
HETATM    6  C6  UNL     1     -23.488 -53.057 -13.319  1.00  0.00     0.009 C 
HETATM    7  C7  UNL     1     -22.507 -54.187 -13.109  1.00  0.00    -0.010 C 
HETATM    8  C8  UNL     1     -21.456 -54.246 -14.184  1.00  0.00     0.012 C 
HETATM    9  C9  UNL     1     -21.777 -53.927 -11.794  1.00  0.00     0.051 C 
HETATM   10  C10 UNL     1     -21.026 -52.626 -11.880  1.00  0.00     0.135 C 
HETATM   11  F1  UNL     1     -20.447 -52.397 -10.651  1.00  0.00    -0.240 F 
HETATM   12  C11 UNL     1     -22.043 -51.507 -12.121  1.00  0.00     0.051 C 
ENDROOT
BRANCH   2  13
HETATM   13  O1  UNL     1     -19.631 -51.223 -13.125  1.00  0.00    -0.386 OA
ATOM     14  H1  UNL     1     -19.851 -50.929 -14.001  1.00  0.00     0.210 HD
ENDBRANCH   2  13
TORSDOF 1
ENDMDL
