MODEL 1
REMARK VINA RESULT: -5.298244349      0.000      0.000
REMARK  1 active torsions:
REMARK  status: ('A' for Active; 'I' for Inactive)
REMARK    1  A    between atoms: C6_6  and  O1_8 
ROOT
HETATM    1  C1  UNL     1     -23.672 -53.906 -12.295  1.00  0.00     0.014 C 
HETATM    2  C2  UNL     1     -22.722 -52.773 -12.055  1.00  0.00     0.030 C 
HETATM    3  C3  UNL     1     -22.206 -52.173 -13.346  1.00  0.00    -0.032 C 
HETATM    4  C4  UNL     1     -23.191 -52.095 -14.455  1.00  0.00     0.016 C 
HETATM    5  C5  UNL     1     -21.474 -50.886 -13.129  1.00  0.00     0.047 C 
HETATM    6  C6  UNL     1     -20.345 -51.018 -12.121  1.00  0.00     0.058 C 
HETATM    7  C7  UNL     1     -20.356 -49.748 -11.287  1.00  0.00     0.046 C 
HETATM    8  C8  UNL     1     -20.500 -52.217 -11.233  1.00  0.00     0.081 C 
HETATM    9  C9  UNL     1     -21.298 -53.311 -11.863  1.00  0.00     0.111 C 
HETATM   10  F1  UNL     1     -21.210 -54.533 -11.294  1.00  0.00    -0.242 F 
HETATM   11  C10 UNL     1     -21.200 -53.287 -13.395  1.00  0.00     0.053 C 
ENDROOT
BRANCH   6  12
HETATM   12  O1  UNL     1     -19.100 -51.034 -12.793  1.00  0.00    -0.390 OA
ATOM     13  H1  UNL     1     -19.139 -50.474 -13.559  1.00  0.00     0.210 HD
ENDBRANCH   6  12
TORSDOF 1
ENDMDL
MODEL 2
REMARK VINA RESULT: -5.132047706      1.570      2.066
REMARK  1 active torsions:
REMARK  status: ('A' for Active; 'I' for Inactive)
REMARK    1  A    between atoms: C6_6  and  O1_8 
ROOT
HETATM    1  C1  UNL     1     -21.331 -55.683 -11.957  1.00  0.00     0.014 C 
HETATM    2  C2  UNL     1     -21.314 -54.203 -12.191  1.00  0.00     0.030 C 
HETATM    3  C3  UNL     1     -20.384 -53.810 -13.319  1.00  0.00    -0.032 C 
HETATM    4  C4  UNL     1     -20.347 -54.745 -14.473  1.00  0.00     0.016 C 
HETATM    5  C5  UNL     1     -20.557 -52.383 -13.735  1.00  0.00     0.047 C 
HETATM    6  C6  UNL     1     -20.414 -51.415 -12.573  1.00  0.00     0.058 C 
HETATM    7  C7  UNL     1     -21.462 -50.334 -12.777  1.00  0.00     0.046 C 
HETATM    8  C8  UNL     1     -20.610 -52.076 -11.242  1.00  0.00     0.081 C 
HETATM    9  C9  UNL     1     -20.292 -53.534 -11.262  1.00  0.00     0.111 C 
HETATM   10  F1  UNL     1     -20.114 -54.135 -10.065  1.00  0.00    -0.242 F 
HETATM   11  C10 UNL     1     -19.252 -53.884 -12.336  1.00  0.00     0.053 C 
ENDROOT
BRANCH   6  12
HETATM   12  O1  UNL     1     -19.161 -50.762 -12.643  1.00  0.00    -0.390 OA
ATOM     13  H1  UNL     1     -18.489 -51.310 -12.253  1.00  0.00     0.210 HD
ENDBRANCH   6  12
TORSDOF 1
ENDMDL
MODEL 3
REMARK VINA RESULT: -5.087291013      2.226      3.169
REMARK  1 active torsions:
REMARK  status: ('A' for Active; 'I' for Inactive)
REMARK    1  A    between atoms: C6_6  and  O1_8 
ROOT
HETATM    1  C1  UNL     1     -21.102 -52.948 -13.947  1.00  0.00     0.014 C 
HETATM    2  C2  UNL     1     -20.878 -51.618 -13.292  1.00  0.00     0.030 C 
HETATM    3  C3  UNL     1     -20.759 -51.732 -11.787  1.00  0.00    -0.032 C 
HETATM    4  C4  UNL     1     -20.043 -52.935 -11.290  1.00  0.00     0.016 C 
HETATM    5  C5  UNL     1     -20.274 -50.467 -11.152  1.00  0.00     0.047 C 
HETATM    6  C6  UNL     1     -21.125 -49.264 -11.524  1.00  0.00     0.058 C 
HETATM    7  C7  UNL     1     -20.168 -48.101 -11.724  1.00  0.00     0.046 C 
HETATM    8  C8  UNL     1     -21.930 -49.488 -12.769  1.00  0.00     0.081 C 
HETATM    9  C9  UNL     1     -22.223 -50.929 -13.023  1.00  0.00     0.111 C 
HETATM   10  F1  UNL     1     -23.203 -51.203 -13.911  1.00  0.00    -0.242 F 
HETATM   11  C10 UNL     1     -22.259 -51.749 -11.726  1.00  0.00     0.053 C 
ENDROOT
BRANCH   6  12
HETATM   12  O1  UNL     1     -21.953 -48.905 -10.435  1.00  0.00    -0.390 OA
ATOM     13  H1  UNL     1     -21.437 -48.466  -9.768  1.00  0.00     0.210 HD
ENDBRANCH   6  12
TORSDOF 1
ENDMDL
MODEL 4
REMARK VINA RESULT: -4.924979252      1.690      2.273
REMARK  1 active torsions:
REMARK  status: ('A' for Active; 'I' for Inactive)
REMARK    1  A    between atoms: C6_6  and  O1_8 
ROOT
HETATM    1  C1  UNL     1     -20.795 -56.045 -11.326  1.00  0.00     0.014 C 
HETATM    2  C2  UNL     1     -20.586 -54.563 -11.414  1.00  0.00     0.030 C 
HETATM    3  C3  UNL     1     -21.609 -53.890 -12.303  1.00  0.00    -0.032 C 
HETATM    4  C4  UNL     1     -22.986 -54.443 -12.227  1.00  0.00     0.016 C 
HETATM    5  C5  UNL     1     -21.577 -52.399 -12.189  1.00  0.00     0.047 C 
HETATM    6  C6  UNL     1     -20.195 -51.823 -12.448  1.00  0.00     0.058 C 
HETATM    7  C7  UNL     1     -20.002 -50.691 -11.453  1.00  0.00     0.046 C 
HETATM    8  C8  UNL     1     -19.105 -52.841 -12.286  1.00  0.00     0.081 C 
HETATM    9  C9  UNL     1     -19.573 -54.239 -12.520  1.00  0.00     0.111 C 
HETATM   10  F1  UNL     1     -18.619 -55.173 -12.727  1.00  0.00    -0.242 F 
HETATM   11  C10 UNL     1     -20.769 -54.294 -13.480  1.00  0.00     0.053 C 
ENDROOT
BRANCH   6  12
HETATM   12  O1  UNL     1     -20.154 -51.227 -13.730  1.00  0.00    -0.390 OA
ATOM     13  H1  UNL     1     -20.132 -50.280 -13.645  1.00  0.00     0.210 HD
ENDBRANCH   6  12
TORSDOF 1
ENDMDL
MODEL 5
REMARK VINA RESULT: -4.855883948      2.080      3.356
REMARK  1 active torsions:
REMARK  status: ('A' for Active; 'I' for Inactive)
REMARK    1  A    between atoms: C6_6  and  O1_8 
ROOT
HETATM    1  C1  UNL     1     -19.292 -53.305 -11.729  1.00  0.00     0.014 C 
HETATM    2  C2  UNL     1     -20.757 -53.194 -12.022  1.00  0.00     0.030 C 
HETATM    3  C3  UNL     1     -21.038 -53.053 -13.503  1.00  0.00    -0.032 C 
HETATM    4  C4  UNL     1     -20.159 -53.847 -14.400  1.00  0.00     0.016 C 
HETATM    5  C5  UNL     1     -22.489 -53.208 -13.831  1.00  0.00     0.047 C 
HETATM    6  C6  UNL     1     -23.372 -52.261 -13.035  1.00  0.00     0.058 C 
HETATM    7  C7  UNL     1     -24.619 -53.042 -12.657  1.00  0.00     0.046 C 
HETATM    8  C8  UNL     1     -22.697 -51.742 -11.800  1.00  0.00     0.081 C 
HETATM    9  C9  UNL     1     -21.208 -51.731 -11.910  1.00  0.00     0.111 C 
HETATM   10  F1  UNL     1     -20.537 -50.984 -11.006  1.00  0.00    -0.242 F 
HETATM   11  C10 UNL     1     -20.737 -51.588 -13.364  1.00  0.00     0.053 C 
ENDROOT
BRANCH   6  12
HETATM   12  O1  UNL     1     -23.811 -51.202 -13.864  1.00  0.00    -0.390 OA
ATOM     13  H1  UNL     1     -24.036 -50.447 -13.331  1.00  0.00     0.210 HD
ENDBRANCH   6  12
TORSDOF 1
ENDMDL
