MODEL 1
REMARK VINA RESULT: -5.784905823      0.000      0.000
REMARK  1 active torsions:
REMARK  status: ('A' for Active; 'I' for Inactive)
REMARK    1  A    between atoms: C3_3  and  O1_4 
ROOT
HETATM    1  C1  UNL     1     -20.030 -53.381 -14.019  1.00  0.00     0.015 C 
HETATM    2  C2  UNL     1     -20.340 -52.652 -13.108  1.00  0.00    -0.076 C 
HETATM    3  C3  UNL     1     -20.718 -51.738 -12.004  1.00  0.00     0.151 C 
HETATM    4  C4  UNL     1     -19.538 -50.886 -11.717  1.00  0.00     0.059 C 
HETATM    5  C5  UNL     1     -19.810 -49.483 -11.345  1.00  0.00    -0.006 C 
HETATM    6  C6  UNL     1     -18.750 -48.495 -11.716  1.00  0.00     0.005 C 
HETATM    7  C7  UNL     1     -19.476 -47.172 -11.586  1.00  0.00     0.001 C 
HETATM    8  C8  UNL     1     -20.964 -47.493 -11.689  1.00  0.00     0.005 C 
HETATM    9  C9  UNL     1     -20.989 -48.898 -12.138  1.00  0.00    -0.008 C 
HETATM   10  C10 UNL     1     -22.171 -49.703 -11.720  1.00  0.00     0.046 C 
HETATM   11  C11 UNL     1     -21.967 -51.057 -12.381  1.00  0.00     0.217 C 
HETATM   12  F1  UNL     1     -23.086 -51.806 -12.152  1.00  0.00    -0.245 F 
ENDROOT
BRANCH   3  13
HETATM   13  O1  UNL     1     -20.996 -52.590 -10.910  1.00  0.00    -0.374 OA
ATOM     14  H1  UNL     1     -20.610 -53.424 -11.148  1.00  0.00     0.212 HD
ENDBRANCH   3  13
TORSDOF 1
ENDMDL
MODEL 2
REMARK VINA RESULT: -5.778457766      1.109      1.319
REMARK  1 active torsions:
REMARK  status: ('A' for Active; 'I' for Inactive)
REMARK    1  A    between atoms: C3_3  and  O1_4 
ROOT
HETATM    1  C1  UNL     1     -18.760 -53.876 -13.328  1.00  0.00     0.015 C 
HETATM    2  C2  UNL     1     -19.447 -53.237 -12.568  1.00  0.00    -0.076 C 
HETATM    3  C3  UNL     1     -20.293 -52.437 -11.652  1.00  0.00     0.151 C 
HETATM    4  C4  UNL     1     -19.596 -51.147 -11.424  1.00  0.00     0.059 C 
HETATM    5  C5  UNL     1     -20.448 -49.949 -11.299  1.00  0.00    -0.006 C 
HETATM    6  C6  UNL     1     -19.831 -48.662 -11.750  1.00  0.00     0.005 C 
HETATM    7  C7  UNL     1     -21.033 -47.751 -11.882  1.00  0.00     0.001 C 
HETATM    8  C8  UNL     1     -22.244 -48.665 -12.033  1.00  0.00     0.005 C 
HETATM    9  C9  UNL     1     -21.652 -49.999 -12.254  1.00  0.00    -0.008 C 
HETATM   10  C10 UNL     1     -22.459 -51.163 -11.795  1.00  0.00     0.046 C 
HETATM   11  C11 UNL     1     -21.651 -52.380 -12.217  1.00  0.00     0.217 C 
HETATM   12  F1  UNL     1     -22.400 -53.490 -11.948  1.00  0.00    -0.245 F 
ENDROOT
BRANCH   3  13
HETATM   13  O1  UNL     1     -20.347 -53.193 -10.458  1.00  0.00    -0.374 OA
ATOM     14  H1  UNL     1     -20.872 -52.670  -9.863  1.00  0.00     0.212 HD
ENDBRANCH   3  13
TORSDOF 1
ENDMDL
MODEL 3
REMARK VINA RESULT: -5.530692775      2.020      3.056
REMARK  1 active torsions:
REMARK  status: ('A' for Active; 'I' for Inactive)
REMARK    1  A    between atoms: C3_3  and  O1_4 
ROOT
HETATM    1  C1  UNL     1     -24.917 -53.367 -11.690  1.00  0.00     0.015 C 
HETATM    2  C2  UNL     1     -23.851 -53.007 -12.127  1.00  0.00    -0.076 C 
HETATM    3  C3  UNL     1     -22.539 -52.551 -12.645  1.00  0.00     0.151 C 
HETATM    4  C4  UNL     1     -22.645 -51.091 -12.885  1.00  0.00     0.059 C 
HETATM    5  C5  UNL     1     -21.443 -50.285 -12.596  1.00  0.00    -0.006 C 
HETATM    6  C6  UNL     1     -21.695 -48.872 -12.170  1.00  0.00     0.005 C 
HETATM    7  C7  UNL     1     -20.362 -48.467 -11.577  1.00  0.00     0.001 C 
HETATM    8  C8  UNL     1     -19.648 -49.764 -11.210  1.00  0.00     0.005 C 
HETATM    9  C9  UNL     1     -20.697 -50.794 -11.352  1.00  0.00    -0.008 C 
HETATM   10  C10 UNL     1     -20.233 -52.162 -11.715  1.00  0.00     0.046 C 
HETATM   11  C11 UNL     1     -21.496 -53.008 -11.712  1.00  0.00     0.217 C 
HETATM   12  F1  UNL     1     -21.127 -54.309 -11.903  1.00  0.00    -0.245 F 
ENDROOT
BRANCH   3  13
HETATM   13  O1  UNL     1     -22.371 -53.247 -13.864  1.00  0.00    -0.374 OA
ATOM     14  H1  UNL     1     -22.018 -54.093 -13.615  1.00  0.00     0.212 HD
ENDBRANCH   3  13
TORSDOF 1
ENDMDL
MODEL 4
REMARK VINA RESULT: -5.466349441      3.207      5.035
REMARK  1 active torsions:
REMARK  status: ('A' for Active; 'I' for Inactive)
REMARK    1  A    between atoms: C3_3  and  O1_4 
ROOT
HETATM    1  C1  UNL     1     -23.431 -52.118 -16.328  1.00  0.00     0.015 C 
HETATM    2  C2  UNL     1     -23.400 -52.258 -15.130  1.00  0.00    -0.076 C 
HETATM    3  C3  UNL     1     -23.341 -52.439 -13.660  1.00  0.00     0.151 C 
HETATM    4  C4  UNL     1     -23.275 -53.898 -13.400  1.00  0.00     0.059 C 
HETATM    5  C5  UNL     1     -22.435 -54.330 -12.265  1.00  0.00    -0.006 C 
HETATM    6  C6  UNL     1     -21.816 -55.686 -12.394  1.00  0.00     0.005 C 
HETATM    7  C7  UNL     1     -20.742 -55.658 -11.328  1.00  0.00     0.001 C 
HETATM    8  C8  UNL     1     -20.454 -54.186 -11.052  1.00  0.00     0.005 C 
HETATM    9  C9  UNL     1     -21.158 -53.482 -12.142  1.00  0.00    -0.008 C 
HETATM   10  C10 UNL     1     -21.639 -52.106 -11.835  1.00  0.00     0.046 C 
HETATM   11  C11 UNL     1     -22.240 -51.610 -13.141  1.00  0.00     0.217 C 
HETATM   12  F1  UNL     1     -22.580 -50.298 -12.972  1.00  0.00    -0.245 F 
ENDROOT
BRANCH   3  13
HETATM   13  O1  UNL     1     -24.557 -51.901 -13.181  1.00  0.00    -0.374 OA
ATOM     14  H1  UNL     1     -25.178 -52.037 -13.888  1.00  0.00     0.212 HD
ENDBRANCH   3  13
TORSDOF 1
ENDMDL
MODEL 5
REMARK VINA RESULT: -5.375607796      1.988      4.578
REMARK  1 active torsions:
REMARK  status: ('A' for Active; 'I' for Inactive)
REMARK    1  A    between atoms: C3_3  and  O1_4 
ROOT
HETATM    1  C1  UNL     1     -21.041 -46.488 -12.444  1.00  0.00     0.015 C 
HETATM    2  C2  UNL     1     -21.131 -47.642 -12.100  1.00  0.00    -0.076 C 
HETATM    3  C3  UNL     1     -21.233 -49.065 -11.699  1.00  0.00     0.151 C 
HETATM    4  C4  UNL     1     -22.265 -49.691 -12.562  1.00  0.00     0.059 C 
HETATM    5  C5  UNL     1     -22.023 -51.086 -12.977  1.00  0.00    -0.006 C 
HETATM    6  C6  UNL     1     -22.603 -51.482 -14.298  1.00  0.00     0.005 C 
HETATM    7  C7  UNL     1     -21.863 -52.765 -14.610  1.00  0.00     0.001 C 
HETATM    8  C8  UNL     1     -20.586 -52.732 -13.777  1.00  0.00     0.005 C 
HETATM    9  C9  UNL     1     -20.536 -51.348 -13.267  1.00  0.00    -0.008 C 
HETATM   10  C10 UNL     1     -19.848 -51.151 -11.961  1.00  0.00     0.046 C 
HETATM   11  C11 UNL     1     -19.882 -49.648 -11.733  1.00  0.00     0.217 C 
HETATM   12  F1  UNL     1     -19.146 -49.380 -10.614  1.00  0.00    -0.245 F 
ENDROOT
BRANCH   3  13
HETATM   13  O1  UNL     1     -21.662 -49.031 -10.352  1.00  0.00    -0.374 OA
ATOM     14  H1  UNL     1     -21.401 -49.871  -9.993  1.00  0.00     0.212 HD
ENDBRANCH   3  13
TORSDOF 1
ENDMDL
