MODEL 1
REMARK VINA RESULT: -4.118847818      0.000      0.000
REMARK  2 active torsions:
REMARK  status: ('A' for Active; 'I' for Inactive)
REMARK    1  A    between atoms: C4_5  and  N1_6 
REMARK    2  A    between atoms: N1_6  and  C5_8 
ROOT
HETATM    1  C1  UNL     1      52.893  20.348  11.416  1.00  0.00     0.041 C 
HETATM    2  C2  UNL     1      51.739  19.825  12.232  1.00  0.00     0.194 C 
HETATM    3  C3  UNL     1      50.398  20.273  11.638  1.00  0.00     0.110 C 
HETATM    4  S1  UNL     1      50.367  21.993  12.295  1.00  0.00    -0.114 SA
HETATM    5  C4  UNL     1      51.788  21.833  13.413  1.00  0.00     0.344 C 
HETATM    6  N2  UNL     1      51.808  20.364  13.552  1.00  0.00    -0.041 N 
ATOM      7  H21 UNL     1      52.607  20.021  14.085  1.00  0.00     0.281 HD
ATOM      8  H22 UNL     1      51.079  20.008  14.170  1.00  0.00     0.281 HD
ENDROOT
BRANCH   5   9
HETATM    9  N1  UNL     1      51.649  22.446  14.669  1.00  0.00    -0.380 N 
ATOM     10  H1  UNL     1      50.778  22.358  15.193  1.00  0.00     0.156 HD
BRANCH   9  11
HETATM   11  C5  UNL     1      52.732  23.188  15.199  1.00  0.00     0.017 C 
HETATM   12  C6  UNL     1      53.924  22.372  15.605  1.00  0.00     0.037 C 
HETATM   13  C7  UNL     1      53.187  24.145  14.095  1.00  0.00     0.037 C 
HETATM   14  C8  UNL     1      52.309  24.043  16.379  1.00  0.00     0.037 C 
ENDBRANCH   9  11
ENDBRANCH   5   9
TORSDOF 2
ENDMDL
MODEL 2
REMARK VINA RESULT: -4.117979136      0.157      1.288
REMARK  2 active torsions:
REMARK  status: ('A' for Active; 'I' for Inactive)
REMARK    1  A    between atoms: C4_5  and  N1_6 
REMARK    2  A    between atoms: N1_6  and  C5_8 
ROOT
HETATM    1  C1  UNL     1      52.704  20.308  11.449  1.00  0.00     0.041 C 
HETATM    2  C2  UNL     1      51.534  19.875  12.294  1.00  0.00     0.194 C 
HETATM    3  C3  UNL     1      50.214  20.408  11.719  1.00  0.00     0.110 C 
HETATM    4  S1  UNL     1      50.315  22.134  12.353  1.00  0.00    -0.114 SA
HETATM    5  C4  UNL     1      51.744  21.890  13.446  1.00  0.00     0.344 C 
HETATM    6  N2  UNL     1      51.665  20.425  13.604  1.00  0.00    -0.041 N 
ATOM      7  H21 UNL     1      52.449  20.034  14.127  1.00  0.00     0.281 HD
ATOM      8  H22 UNL     1      50.926  20.128  14.241  1.00  0.00     0.281 HD
ENDROOT
BRANCH   5   9
HETATM    9  N1  UNL     1      51.672  22.527  14.697  1.00  0.00    -0.380 N 
ATOM     10  H1  UNL     1      50.825  22.461  15.261  1.00  0.00     0.156 HD
BRANCH   9  11
HETATM   11  C5  UNL     1      52.789  23.260  15.162  1.00  0.00     0.017 C 
HETATM   12  C6  UNL     1      53.343  24.262  14.191  1.00  0.00     0.037 C 
HETATM   13  C7  UNL     1      52.321  24.032  16.398  1.00  0.00     0.037 C 
HETATM   14  C8  UNL     1      53.917  22.349  15.611  1.00  0.00     0.037 C 
ENDBRANCH   9  11
ENDBRANCH   5   9
TORSDOF 2
ENDMDL
MODEL 3
REMARK VINA RESULT: -4.101451778      0.118      1.285
REMARK  2 active torsions:
REMARK  status: ('A' for Active; 'I' for Inactive)
REMARK    1  A    between atoms: C4_5  and  N1_6 
REMARK    2  A    between atoms: N1_6  and  C5_8 
ROOT
HETATM    1  C1  UNL     1      52.766  20.358  11.430  1.00  0.00     0.041 C 
HETATM    2  C2  UNL     1      51.584  19.878  12.234  1.00  0.00     0.194 C 
HETATM    3  C3  UNL     1      50.270  20.419  11.655  1.00  0.00     0.110 C 
HETATM    4  S1  UNL     1      50.338  22.119  12.361  1.00  0.00    -0.114 SA
HETATM    5  C4  UNL     1      51.748  21.847  13.471  1.00  0.00     0.344 C 
HETATM    6  N2  UNL     1      51.685  20.375  13.568  1.00  0.00    -0.041 N 
ATOM      7  H21 UNL     1      52.463  19.972  14.090  1.00  0.00     0.281 HD
ATOM      8  H22 UNL     1      50.937  20.044  14.177  1.00  0.00     0.281 HD
ENDROOT
BRANCH   5   9
HETATM    9  N1  UNL     1      51.645  22.431  14.744  1.00  0.00    -0.380 N 
ATOM     10  H1  UNL     1      50.825  22.260  15.325  1.00  0.00     0.156 HD
BRANCH   9  11
HETATM   11  C5  UNL     1      52.694  23.259  15.210  1.00  0.00     0.017 C 
HETATM   12  C6  UNL     1      52.360  24.095  16.412  1.00  0.00     0.037 C 
HETATM   13  C7  UNL     1      53.843  22.328  15.605  1.00  0.00     0.037 C 
HETATM   14  C8  UNL     1      53.221  24.172  14.119  1.00  0.00     0.037 C 
ENDBRANCH   9  11
ENDBRANCH   5   9
TORSDOF 2
ENDMDL
MODEL 4
REMARK VINA RESULT: -4.035162253      2.014      2.717
REMARK  2 active torsions:
REMARK  status: ('A' for Active; 'I' for Inactive)
REMARK    1  A    between atoms: C4_5  and  N1_6 
REMARK    2  A    between atoms: N1_6  and  C5_8 
ROOT
HETATM    1  C1  UNL     1      53.632  20.824  11.675  1.00  0.00     0.041 C 
HETATM    2  C2  UNL     1      52.182  20.482  11.898  1.00  0.00     0.194 C 
HETATM    3  C3  UNL     1      51.317  21.749  11.929  1.00  0.00     0.110 C 
HETATM    4  S1  UNL     1      51.682  22.289  13.651  1.00  0.00    -0.114 SA
HETATM    5  C4  UNL     1      52.559  20.790  14.177  1.00  0.00     0.344 C 
HETATM    6  N2  UNL     1      52.033  19.849  13.168  1.00  0.00    -0.041 N 
ATOM      7  H21 UNL     1      52.468  18.928  13.212  1.00  0.00     0.281 HD
ATOM      8  H22 UNL     1      51.077  19.549  13.358  1.00  0.00     0.281 HD
ENDROOT
BRANCH   5   9
HETATM    9  N1  UNL     1      52.268  20.336  15.474  1.00  0.00    -0.380 N 
ATOM     10  H1  UNL     1      51.395  19.846  15.667  1.00  0.00     0.156 HD
BRANCH   9  11
HETATM   11  C5  UNL     1      53.204  20.566  16.511  1.00  0.00     0.017 C 
HETATM   12  C6  UNL     1      52.991  21.829  17.293  1.00  0.00     0.037 C 
HETATM   13  C7  UNL     1      53.071  19.395  17.487  1.00  0.00     0.037 C 
HETATM   14  C8  UNL     1      54.632  20.552  15.997  1.00  0.00     0.037 C 
ENDBRANCH   9  11
ENDBRANCH   5   9
TORSDOF 2
ENDMDL
MODEL 5
REMARK VINA RESULT: -4.025977855      1.994      2.409
REMARK  2 active torsions:
REMARK  status: ('A' for Active; 'I' for Inactive)
REMARK    1  A    between atoms: C4_5  and  N1_6 
REMARK    2  A    between atoms: N1_6  and  C5_8 
ROOT
HETATM    1  C1  UNL     1      53.666  20.836  11.648  1.00  0.00     0.041 C 
HETATM    2  C2  UNL     1      52.208  20.502  11.834  1.00  0.00     0.194 C 
HETATM    3  C3  UNL     1      51.353  21.776  11.862  1.00  0.00     0.110 C 
HETATM    4  S1  UNL     1      51.683  22.291  13.598  1.00  0.00    -0.114 SA
HETATM    5  C4  UNL     1      52.537  20.779  14.125  1.00  0.00     0.344 C 
HETATM    6  N2  UNL     1      52.027  19.855  13.093  1.00  0.00    -0.041 N 
ATOM      7  H21 UNL     1      52.454  18.930  13.135  1.00  0.00     0.281 HD
ATOM      8  H22 UNL     1      51.065  19.559  13.258  1.00  0.00     0.281 HD
ENDROOT
BRANCH   5   9
HETATM    9  N1  UNL     1      52.215  20.311  15.409  1.00  0.00    -0.380 N 
ATOM     10  H1  UNL     1      51.310  19.876  15.589  1.00  0.00     0.156 HD
BRANCH   9  11
HETATM   11  C5  UNL     1      53.162  20.451  16.452  1.00  0.00     0.017 C 
HETATM   12  C6  UNL     1      53.134  19.365  17.488  1.00  0.00     0.037 C 
HETATM   13  C7  UNL     1      54.543  20.419  15.794  1.00  0.00     0.037 C 
HETATM   14  C8  UNL     1      53.038  21.790  17.154  1.00  0.00     0.037 C 
ENDBRANCH   9  11
ENDBRANCH   5   9
TORSDOF 2
ENDMDL
