MODEL 1
REMARK VINA RESULT: -4.978087353      0.000      0.000
REMARK  0 active torsions:
REMARK  status: ('A' for Active; 'I' for Inactive)
ROOT
HETATM    1  C1  UNL     1      54.117  21.670  11.827  1.00  0.00     0.002 C 
HETATM    2  C2  UNL     1      54.831  20.602  12.564  1.00  0.00     0.002 C 
HETATM    3  C3  UNL     1      54.197  19.277  12.600  1.00  0.00     0.027 C 
HETATM    4  C4  UNL     1      52.859  19.160  11.961  1.00  0.00     0.232 C 
HETATM    5  N1  UNL     1      51.770  19.599  12.846  1.00  0.00    -0.075 N 
ATOM      6  H11 UNL     1      51.877  20.564  13.159  1.00  0.00     0.277 HD
ATOM      7  H12 UNL     1      51.801  19.156  13.764  1.00  0.00     0.277 HD
HETATM    8  C5  UNL     1      50.530  19.368  12.154  1.00  0.00     0.232 C 
HETATM    9  C6  UNL     1      50.054  20.594  11.389  1.00  0.00     0.029 C 
HETATM   10  C7  UNL     1      49.948  21.811  12.267  1.00  0.00     0.021 C 
HETATM   11  C8  UNL     1      50.807  22.964  11.753  1.00  0.00     0.113 C 
HETATM   12  N2  UNL     1      51.790  23.333  12.727  1.00  0.00    -0.421 N 
ATOM     13  H2  UNL     1      51.636  23.229  13.729  1.00  0.00     0.153 HD
HETATM   14  C9  UNL     1      53.003  23.859  12.187  1.00  0.00     0.113 C 
HETATM   15  C10 UNL     1      54.220  23.014  12.563  1.00  0.00     0.019 C 
ENDROOT
TORSDOF 0
ENDMDL
MODEL 2
REMARK VINA RESULT: -4.733976072      1.015      3.480
REMARK  0 active torsions:
REMARK  status: ('A' for Active; 'I' for Inactive)
ROOT
HETATM    1  C1  UNL     1      53.360  21.306  12.847  1.00  0.00     0.002 C 
HETATM    2  C2  UNL     1      54.021  22.545  12.375  1.00  0.00     0.002 C 
HETATM    3  C3  UNL     1      53.182  23.744  12.252  1.00  0.00     0.027 C 
HETATM    4  C4  UNL     1      51.732  23.576  12.537  1.00  0.00     0.232 C 
HETATM    5  N1  UNL     1      50.986  23.054  11.383  1.00  0.00    -0.075 N 
ATOM      6  H11 UNL     1      51.340  22.155  11.054  1.00  0.00     0.277 HD
ATOM      7  H12 UNL     1      51.154  23.584  10.528  1.00  0.00     0.277 HD
HETATM    8  C5  UNL     1      49.595  23.008  11.750  1.00  0.00     0.232 C 
HETATM    9  C6  UNL     1      49.184  21.651  12.302  1.00  0.00     0.029 C 
HETATM   10  C7  UNL     1      49.517  20.526  11.360  1.00  0.00     0.021 C 
HETATM   11  C8  UNL     1      50.424  19.485  12.011  1.00  0.00     0.113 C 
HETATM   12  N2  UNL     1      51.662  19.380  11.299  1.00  0.00    -0.421 N 
ATOM     13  H2  UNL     1      51.736  19.556  10.297  1.00  0.00     0.153 HD
HETATM   14  C9  UNL     1      52.786  19.010  12.099  1.00  0.00     0.113 C 
HETATM   15  C10 UNL     1      53.882  20.076  12.089  1.00  0.00     0.019 C 
ENDROOT
TORSDOF 0
ENDMDL
MODEL 3
REMARK VINA RESULT: -4.614633099      1.404      4.512
REMARK  0 active torsions:
REMARK  status: ('A' for Active; 'I' for Inactive)
ROOT
HETATM    1  C1  UNL     1      51.295  21.929  12.127  1.00  0.00     0.002 C 
HETATM    2  C2  UNL     1      51.034  22.971  13.146  1.00  0.00     0.002 C 
HETATM    3  C3  UNL     1      52.191  23.478  13.896  1.00  0.00     0.027 C 
HETATM    4  C4  UNL     1      53.502  22.834  13.614  1.00  0.00     0.232 C 
HETATM    5  N1  UNL     1      53.689  21.581  14.360  1.00  0.00    -0.075 N 
ATOM      6  H11 UNL     1      52.962  20.892  14.168  1.00  0.00     0.277 HD
ATOM      7  H12 UNL     1      53.515  21.684  15.359  1.00  0.00     0.277 HD
HETATM    8  C5  UNL     1      55.012  21.096  14.068  1.00  0.00     0.232 C 
HETATM    9  C6  UNL     1      55.027  20.108  12.912  1.00  0.00     0.029 C 
HETATM   10  C7  UNL     1      54.081  18.958  13.129  1.00  0.00     0.021 C 
HETATM   11  C8  UNL     1      53.054  18.842  12.006  1.00  0.00     0.113 C 
HETATM   12  N2  UNL     1      51.726  18.988  12.521  1.00  0.00    -0.421 N 
ATOM     13  H2  UNL     1      51.470  18.708  13.468  1.00  0.00     0.153 HD
HETATM   14  C9  UNL     1      50.786  19.555  11.608  1.00  0.00     0.113 C 
HETATM   15  C10 UNL     1      50.189  20.864  12.127  1.00  0.00     0.019 C 
ENDROOT
TORSDOF 0
ENDMDL
MODEL 4
REMARK VINA RESULT: -4.555744956      1.536      1.791
REMARK  0 active torsions:
REMARK  status: ('A' for Active; 'I' for Inactive)
ROOT
HETATM    1  C1  UNL     1      54.513  20.636  13.629  1.00  0.00     0.002 C 
HETATM    2  C2  UNL     1      54.779  19.185  13.776  1.00  0.00     0.002 C 
HETATM    3  C3  UNL     1      54.052  18.278  12.878  1.00  0.00     0.027 C 
HETATM    4  C4  UNL     1      53.058  18.901  11.963  1.00  0.00     0.232 C 
HETATM    5  N1  UNL     1      51.762  19.139  12.614  1.00  0.00    -0.075 N 
ATOM      6  H11 UNL     1      51.835  19.736  13.439  1.00  0.00     0.277 HD
ATOM      7  H12 UNL     1      51.393  18.311  13.081  1.00  0.00     0.277 HD
HETATM    8  C5  UNL     1      50.867  19.667  11.619  1.00  0.00     0.232 C 
HETATM    9  C6  UNL     1      50.846  21.188  11.603  1.00  0.00     0.029 C 
HETATM   10  C7  UNL     1      50.532  21.770  12.954  1.00  0.00     0.021 C 
HETATM   11  C8  UNL     1      51.632  22.709  13.441  1.00  0.00     0.113 C 
HETATM   12  N2  UNL     1      52.196  22.231  14.668  1.00  0.00    -0.421 N 
ATOM     13  H2  UNL     1      51.659  21.690  15.345  1.00  0.00     0.153 HD
HETATM   14  C9  UNL     1      53.569  22.568  14.869  1.00  0.00     0.113 C 
HETATM   15  C10 UNL     1      54.458  21.330  14.997  1.00  0.00     0.019 C 
ENDROOT
TORSDOF 0
ENDMDL
MODEL 5
REMARK VINA RESULT: -4.545143528      1.375      3.559
REMARK  0 active torsions:
REMARK  status: ('A' for Active; 'I' for Inactive)
ROOT
HETATM    1  C1  UNL     1      51.645  20.528  12.973  1.00  0.00     0.002 C 
HETATM    2  C2  UNL     1      51.890  19.274  12.223  1.00  0.00     0.002 C 
HETATM    3  C3  UNL     1      53.290  18.893  11.998  1.00  0.00     0.027 C 
HETATM    4  C4  UNL     1      54.327  19.848  12.475  1.00  0.00     0.232 C 
HETATM    5  N1  UNL     1      54.570  20.940  11.521  1.00  0.00    -0.075 N 
ATOM      6  H11 UNL     1      53.731  21.479  11.311  1.00  0.00     0.277 HD
ATOM      7  H12 UNL     1      54.756  20.607  10.575  1.00  0.00     0.277 HD
HETATM    8  C5  UNL     1      55.637  21.748  12.051  1.00  0.00     0.232 C 
HETATM    9  C6  UNL     1      55.125  22.924  12.869  1.00  0.00     0.029 C 
HETATM   10  C7  UNL     1      54.152  23.775  12.099  1.00  0.00     0.021 C 
HETATM   11  C8  UNL     1      52.804  23.885  12.807  1.00  0.00     0.113 C 
HETATM   12  N2  UNL     1      51.758  23.356  11.983  1.00  0.00    -0.421 N 
ATOM     13  H2  UNL     1      51.795  23.382  10.965  1.00  0.00     0.153 HD
HETATM   14  C9  UNL     1      50.659  22.789  12.697  1.00  0.00     0.113 C 
HETATM   15  C10 UNL     1      50.462  21.307  12.379  1.00  0.00     0.019 C 
ENDROOT
TORSDOF 0
ENDMDL
