MODEL 1
REMARK VINA RESULT: -8.048365667      0.000      0.000
REMARK  10 active torsions:
REMARK  status: ('A' for Active; 'I' for Inactive)
REMARK    1  A    between atoms: C2_2  and  O1_4 
REMARK    2  A    between atoms: C2_2  and  N1_6 
REMARK       I    between atoms: N1_6  and  C4_8 
REMARK    3  A    between atoms: C4_8  and  C5_10 
REMARK    4  A    between atoms: C5_10  and  C6_11 
REMARK    5  A    between atoms: C6_11  and  C7_12 
REMARK    6  A    between atoms: C7_12  and  O3_13 
REMARK    7  A    between atoms: C7_12  and  C8_15 
REMARK    8  A    between atoms: C22_29  and  C23_30 
REMARK    9  A    between atoms: C23_30  and  O4_33 
REMARK   10  A    between atoms: C28_38  and  O6_39 
ROOT
HETATM    1  C8  UNL     1     -25.856 -55.142 -17.460  1.00  0.00     0.019 C 
HETATM    2  C9  UNL     1     -27.177 -54.926 -18.154  1.00  0.00     0.008 C 
HETATM    3  C10 UNL     1     -28.145 -55.553 -17.154  1.00  0.00     0.006 C 
HETATM    4  C11 UNL     1     -27.612 -55.108 -15.792  1.00  0.00    -0.003 C 
HETATM    5  C12 UNL     1     -26.185 -54.724 -16.033  1.00  0.00    -0.003 C 
HETATM    6  C13 UNL     1     -25.333 -55.554 -15.120  1.00  0.00     0.015 C 
HETATM    7  C14 UNL     1     -26.258 -56.221 -14.123  1.00  0.00    -0.033 C 
HETATM    8  C15 UNL     1     -25.785 -57.670 -13.910  1.00  0.00     0.016 C 
HETATM    9  C16 UNL     1     -26.209 -55.574 -12.807  1.00  0.00     0.001 C 
HETATM   10  C17 UNL     1     -26.472 -54.111 -12.757  1.00  0.00     0.009 C 
HETATM   11  C18 UNL     1     -26.763 -53.884 -11.279  1.00  0.00     0.039 C 
HETATM   12  C19 UNL     1     -27.137 -55.237 -10.710  1.00  0.00     0.066 C 
HETATM   13  C20 UNL     1     -26.023 -55.701  -9.840  1.00  0.00     0.041 C 
HETATM   14  C21 UNL     1     -26.698 -55.956  -8.512  1.00  0.00     0.038 C 
HETATM   15  C22 UNL     1     -27.930 -55.096  -8.628  1.00  0.00     0.156 C 
HETATM   16  O5  UNL     1     -28.297 -55.186  -9.960  1.00  0.00    -0.371 OA
HETATM   17  C26 UNL     1     -27.288 -56.145 -11.922  1.00  0.00     0.027 C 
HETATM   18  C27 UNL     1     -28.620 -55.878 -12.556  1.00  0.00     0.040 C 
HETATM   19  C28 UNL     1     -28.767 -56.344 -13.944  1.00  0.00     0.123 C 
HETATM   20  C29 UNL     1     -27.562 -56.266 -14.812  1.00  0.00     0.027 C 
ENDROOT
BRANCH   1  21
HETATM   21  C7  UNL     1     -24.770 -54.236 -17.969  1.00  0.00     0.123 C 
BRANCH  21  22
HETATM   22  C6  UNL     1     -24.768 -52.909 -17.227  1.00  0.00     0.041 C 
BRANCH  22  23
HETATM   23  C5  UNL     1     -23.354 -52.678 -16.751  1.00  0.00     0.105 C 
BRANCH  23  24
HETATM   24  C4  UNL     1     -23.390 -52.233 -15.344  1.00  0.00     0.220 C 
HETATM   25  N1  UNL     1     -22.207 -51.999 -14.585  1.00  0.00    -0.330 N 
ATOM     26  H1  UNL     1     -21.301 -52.144 -15.032  1.00  0.00     0.165 HD
HETATM   27  O2  UNL     1     -24.493 -52.051 -14.784  1.00  0.00    -0.274 OA
BRANCH  25  28
HETATM   28  C2  UNL     1     -22.239 -51.566 -13.219  1.00  0.00     0.126 C 
HETATM   29  C1  UNL     1     -20.877 -51.156 -12.706  1.00  0.00     0.070 C 
HETATM   30  C3  UNL     1     -22.742 -52.678 -12.345  1.00  0.00     0.070 C 
BRANCH  28  31
HETATM   31  O1  UNL     1     -23.094 -50.474 -13.110  1.00  0.00    -0.372 OA
ATOM     32  H1  UNL     1     -23.742 -50.668 -12.443  1.00  0.00     0.212 HD
ENDBRANCH  28  31
ENDBRANCH  25  28
ENDBRANCH  23  24
ENDBRANCH  22  23
ENDBRANCH  21  22
BRANCH  21  33
HETATM   33  O3  UNL     1     -23.531 -54.844 -17.931  1.00  0.00    -0.395 OA
ATOM     34  H3  UNL     1     -23.286 -55.195 -18.779  1.00  0.00     0.210 HD
ENDBRANCH  21  33
ENDBRANCH   1  21
BRANCH  19  35
HETATM   35  O6  UNL     1     -29.770 -55.577 -14.570  1.00  0.00    -0.395 OA
ATOM     36  H6  UNL     1     -29.375 -54.783 -14.909  1.00  0.00     0.210 HD
ENDBRANCH  19  35
BRANCH  15  37
HETATM   37  C23 UNL     1     -29.021 -55.642  -7.716  1.00  0.00     0.076 C 
HETATM   38  C24 UNL     1     -28.430 -56.784  -6.908  1.00  0.00     0.048 C 
HETATM   39  C25 UNL     1     -30.134 -56.235  -8.556  1.00  0.00     0.048 C 
BRANCH  37  40
HETATM   40  O4  UNL     1     -29.554 -54.664  -6.913  1.00  0.00    -0.388 OA
ATOM     41  H4  UNL     1     -30.275 -54.991  -6.389  1.00  0.00     0.210 HD
ENDBRANCH  37  40
ENDBRANCH  15  37
TORSDOF 10
ENDMDL
MODEL 2
REMARK VINA RESULT: -7.894448730      3.412      8.224
REMARK  10 active torsions:
REMARK  status: ('A' for Active; 'I' for Inactive)
REMARK    1  A    between atoms: C2_2  and  O1_4 
REMARK    2  A    between atoms: C2_2  and  N1_6 
REMARK       I    between atoms: N1_6  and  C4_8 
REMARK    3  A    between atoms: C4_8  and  C5_10 
REMARK    4  A    between atoms: C5_10  and  C6_11 
REMARK    5  A    between atoms: C6_11  and  C7_12 
REMARK    6  A    between atoms: C7_12  and  O3_13 
REMARK    7  A    between atoms: C7_12  and  C8_15 
REMARK    8  A    between atoms: C22_29  and  C23_30 
REMARK    9  A    between atoms: C23_30  and  O4_33 
REMARK   10  A    between atoms: C28_38  and  O6_39 
ROOT
HETATM    1  C8  UNL     1     -29.153 -55.623 -13.379  1.00  0.00     0.019 C 
HETATM    2  C9  UNL     1     -29.981 -54.792 -12.430  1.00  0.00     0.008 C 
HETATM    3  C10 UNL     1     -28.917 -54.326 -11.439  1.00  0.00     0.006 C 
HETATM    4  C11 UNL     1     -27.712 -53.992 -12.317  1.00  0.00    -0.003 C 
HETATM    5  C12 UNL     1     -27.944 -54.724 -13.602  1.00  0.00    -0.003 C 
HETATM    6  C13 UNL     1     -26.763 -55.619 -13.832  1.00  0.00     0.015 C 
HETATM    7  C14 UNL     1     -25.689 -55.209 -12.847  1.00  0.00    -0.033 C 
HETATM    8  C15 UNL     1     -25.019 -56.480 -12.296  1.00  0.00     0.016 C 
HETATM    9  C16 UNL     1     -24.624 -54.427 -13.487  1.00  0.00     0.001 C 
HETATM   10  C17 UNL     1     -25.029 -53.212 -14.242  1.00  0.00     0.009 C 
HETATM   11  C18 UNL     1     -23.713 -52.459 -14.377  1.00  0.00     0.039 C 
HETATM   12  C19 UNL     1     -22.799 -53.010 -13.302  1.00  0.00     0.066 C 
HETATM   13  C20 UNL     1     -21.747 -53.831 -13.961  1.00  0.00     0.041 C 
HETATM   14  C21 UNL     1     -20.460 -53.206 -13.475  1.00  0.00     0.038 C 
HETATM   15  C22 UNL     1     -20.920 -51.823 -13.090  1.00  0.00     0.156 C 
HETATM   16  O5  UNL     1     -22.190 -52.009 -12.570  1.00  0.00    -0.371 OA
HETATM   17  C26 UNL     1     -23.695 -53.880 -12.433  1.00  0.00     0.027 C 
HETATM   18  C27 UNL     1     -24.481 -52.990 -11.517  1.00  0.00     0.040 C 
HETATM   19  C28 UNL     1     -25.675 -53.599 -10.911  1.00  0.00     0.123 C 
HETATM   20  C29 UNL     1     -26.432 -54.571 -11.744  1.00  0.00     0.027 C 
ENDROOT
BRANCH   1  21
HETATM   21  C7  UNL     1     -29.823 -55.837 -14.708  1.00  0.00     0.123 C 
BRANCH  21  22
HETATM   22  C6  UNL     1     -29.712 -57.287 -15.152  1.00  0.00     0.041 C 
BRANCH  22  23
HETATM   23  C5  UNL     1     -29.684 -58.126 -13.898  1.00  0.00     0.105 C 
BRANCH  23  24
HETATM   24  C4  UNL     1     -31.002 -58.766 -13.723  1.00  0.00     0.220 C 
HETATM   25  N1  UNL     1     -32.153 -58.042 -13.293  1.00  0.00    -0.330 N 
ATOM     26  H1  UNL     1     -32.061 -57.045 -13.100  1.00  0.00     0.165 HD
HETATM   27  O2  UNL     1     -31.130 -59.988 -13.955  1.00  0.00    -0.274 OA
BRANCH  25  28
HETATM   28  C2  UNL     1     -33.435 -58.661 -13.122  1.00  0.00     0.126 C 
HETATM   29  C1  UNL     1     -34.541 -57.656 -12.892  1.00  0.00     0.070 C 
HETATM   30  C3  UNL     1     -33.400 -59.584 -11.939  1.00  0.00     0.070 C 
BRANCH  28  31
HETATM   31  O1  UNL     1     -33.740 -59.392 -14.266  1.00  0.00    -0.372 OA
ATOM     32  H1  UNL     1     -33.273 -60.218 -14.225  1.00  0.00     0.212 HD
ENDBRANCH  28  31
ENDBRANCH  25  28
ENDBRANCH  23  24
ENDBRANCH  22  23
ENDBRANCH  21  22
BRANCH  21  33
HETATM   33  O3  UNL     1     -31.133 -55.404 -14.700  1.00  0.00    -0.395 OA
ATOM     34  H3  UNL     1     -31.190 -54.457 -14.666  1.00  0.00     0.210 HD
ENDBRANCH  21  33
ENDBRANCH   1  21
BRANCH  19  35
HETATM   35  O6  UNL     1     -26.576 -52.572 -10.566  1.00  0.00    -0.395 OA
ATOM     36  H6  UNL     1     -27.461 -52.915 -10.621  1.00  0.00     0.210 HD
ENDBRANCH  19  35
BRANCH  15  37
HETATM   37  C23 UNL     1     -19.974 -51.243 -12.046  1.00  0.00     0.076 C 
HETATM   38  C24 UNL     1     -19.911 -52.211 -10.879  1.00  0.00     0.048 C 
HETATM   39  C25 UNL     1     -20.548 -49.949 -11.506  1.00  0.00     0.048 C 
BRANCH  37  40
HETATM   40  O4  UNL     1     -18.732 -50.984 -12.571  1.00  0.00    -0.388 OA
ATOM     41  H4  UNL     1     -18.345 -50.203 -12.195  1.00  0.00     0.210 HD
ENDBRANCH  37  40
ENDBRANCH  15  37
TORSDOF 10
ENDMDL
MODEL 3
REMARK VINA RESULT: -7.717693476      2.449      6.310
REMARK  10 active torsions:
REMARK  status: ('A' for Active; 'I' for Inactive)
REMARK    1  A    between atoms: C2_2  and  O1_4 
REMARK    2  A    between atoms: C2_2  and  N1_6 
REMARK       I    between atoms: N1_6  and  C4_8 
REMARK    3  A    between atoms: C4_8  and  C5_10 
REMARK    4  A    between atoms: C5_10  and  C6_11 
REMARK    5  A    between atoms: C6_11  and  C7_12 
REMARK    6  A    between atoms: C7_12  and  O3_13 
REMARK    7  A    between atoms: C7_12  and  C8_15 
REMARK    8  A    between atoms: C22_29  and  C23_30 
REMARK    9  A    between atoms: C23_30  and  O4_33 
REMARK   10  A    between atoms: C28_38  and  O6_39 
ROOT
HETATM    1  C8  UNL     1     -27.886 -56.894 -13.827  1.00  0.00     0.019 C 
HETATM    2  C9  UNL     1     -29.078 -56.454 -13.015  1.00  0.00     0.008 C 
HETATM    3  C10 UNL     1     -28.404 -55.635 -11.917  1.00  0.00     0.006 C 
HETATM    4  C11 UNL     1     -27.314 -54.855 -12.652  1.00  0.00    -0.003 C 
HETATM    5  C12 UNL     1     -27.088 -55.601 -13.930  1.00  0.00    -0.003 C 
HETATM    6  C13 UNL     1     -25.638 -55.977 -13.985  1.00  0.00     0.015 C 
HETATM    7  C14 UNL     1     -24.931 -55.206 -12.890  1.00  0.00    -0.033 C 
HETATM    8  C15 UNL     1     -23.906 -56.138 -12.219  1.00  0.00     0.016 C 
HETATM    9  C16 UNL     1     -24.169 -54.070 -13.420  1.00  0.00     0.001 C 
HETATM   10  C17 UNL     1     -24.905 -53.087 -14.259  1.00  0.00     0.009 C 
HETATM   11  C18 UNL     1     -23.965 -51.889 -14.257  1.00  0.00     0.039 C 
HETATM   12  C19 UNL     1     -23.054 -52.070 -13.060  1.00  0.00     0.066 C 
HETATM   13  C20 UNL     1     -21.696 -52.421 -13.557  1.00  0.00     0.041 C 
HETATM   14  C21 UNL     1     -20.812 -51.362 -12.939  1.00  0.00     0.038 C 
HETATM   15  C22 UNL     1     -21.806 -50.263 -12.659  1.00  0.00     0.156 C 
HETATM   16  O5  UNL     1     -22.966 -50.924 -12.293  1.00  0.00    -0.371 OA
HETATM   17  C26 UNL     1     -23.657 -53.228 -12.278  1.00  0.00     0.027 C 
HETATM   18  C27 UNL     1     -24.829 -52.716 -11.497  1.00  0.00     0.040 C 
HETATM   19  C28 UNL     1     -25.771 -53.743 -11.021  1.00  0.00     0.123 C 
HETATM   20  C29 UNL     1     -25.993 -54.916 -11.907  1.00  0.00     0.027 C 
ENDROOT
BRANCH   1  21
HETATM   21  C7  UNL     1     -28.252 -57.325 -15.221  1.00  0.00     0.123 C 
BRANCH  21  22
HETATM   22  C6  UNL     1     -28.437 -56.126 -16.137  1.00  0.00     0.041 C 
BRANCH  22  23
HETATM   23  C5  UNL     1     -27.857 -56.508 -17.477  1.00  0.00     0.105 C 
BRANCH  23  24
HETATM   24  C4  UNL     1     -26.976 -55.420 -17.943  1.00  0.00     0.220 C 
HETATM   25  N1  UNL     1     -25.597 -55.346 -17.586  1.00  0.00    -0.330 N 
ATOM     26  H1  UNL     1     -25.207 -56.073 -16.986  1.00  0.00     0.165 HD
HETATM   27  O2  UNL     1     -27.440 -54.523 -18.679  1.00  0.00    -0.274 OA
BRANCH  25  28
HETATM   28  C2  UNL     1     -24.738 -54.291 -18.038  1.00  0.00     0.126 C 
HETATM   29  C1  UNL     1     -24.448 -54.369 -19.520  1.00  0.00     0.070 C 
HETATM   30  C3  UNL     1     -23.427 -54.356 -17.310  1.00  0.00     0.070 C 
BRANCH  28  31
HETATM   31  O1  UNL     1     -25.348 -53.068 -17.776  1.00  0.00    -0.372 OA
ATOM     32  H1  UNL     1     -25.399 -52.956 -16.834  1.00  0.00     0.212 HD
ENDBRANCH  28  31
ENDBRANCH  25  28
ENDBRANCH  23  24
ENDBRANCH  22  23
ENDBRANCH  21  22
BRANCH  21  33
HETATM   33  O3  UNL     1     -27.342 -58.226 -15.737  1.00  0.00    -0.395 OA
ATOM     34  H3  UNL     1     -26.990 -58.795 -15.063  1.00  0.00     0.210 HD
ENDBRANCH  21  33
ENDBRANCH   1  21
BRANCH  19  35
HETATM   35  O6  UNL     1     -27.029 -53.139 -10.824  1.00  0.00    -0.395 OA
ATOM     36  H6  UNL     1     -26.899 -52.208 -10.685  1.00  0.00     0.210 HD
ENDBRANCH  19  35
BRANCH  15  37
HETATM   37  C23 UNL     1     -21.289 -49.384 -11.528  1.00  0.00     0.076 C 
HETATM   38  C24 UNL     1     -21.047 -47.992 -12.086  1.00  0.00     0.048 C 
HETATM   39  C25 UNL     1     -19.945 -49.902 -11.058  1.00  0.00     0.048 C 
BRANCH  37  40
HETATM   40  O4  UNL     1     -22.150 -49.368 -10.458  1.00  0.00    -0.388 OA
ATOM     41  H4  UNL     1     -22.918 -48.838 -10.631  1.00  0.00     0.210 HD
ENDBRANCH  37  40
ENDBRANCH  15  37
TORSDOF 10
ENDMDL
MODEL 4
REMARK VINA RESULT: -7.604284150      0.909      1.040
REMARK  10 active torsions:
REMARK  status: ('A' for Active; 'I' for Inactive)
REMARK    1  A    between atoms: C2_2  and  O1_4 
REMARK    2  A    between atoms: C2_2  and  N1_6 
REMARK       I    between atoms: N1_6  and  C4_8 
REMARK    3  A    between atoms: C4_8  and  C5_10 
REMARK    4  A    between atoms: C5_10  and  C6_11 
REMARK    5  A    between atoms: C6_11  and  C7_12 
REMARK    6  A    between atoms: C7_12  and  O3_13 
REMARK    7  A    between atoms: C7_12  and  C8_15 
REMARK    8  A    between atoms: C22_29  and  C23_30 
REMARK    9  A    between atoms: C23_30  and  O4_33 
REMARK   10  A    between atoms: C28_38  and  O6_39 
ROOT
HETATM    1  C8  UNL     1     -24.969 -54.611 -17.062  1.00  0.00     0.019 C 
HETATM    2  C9  UNL     1     -26.207 -54.301 -17.867  1.00  0.00     0.008 C 
HETATM    3  C10 UNL     1     -27.286 -54.971 -17.021  1.00  0.00     0.006 C 
HETATM    4  C11 UNL     1     -26.885 -54.646 -15.582  1.00  0.00    -0.003 C 
HETATM    5  C12 UNL     1     -25.433 -54.291 -15.647  1.00  0.00    -0.003 C 
HETATM    6  C13 UNL     1     -24.699 -55.214 -14.721  1.00  0.00     0.015 C 
HETATM    7  C14 UNL     1     -25.737 -55.923 -13.877  1.00  0.00    -0.033 C 
HETATM    8  C15 UNL     1     -25.323 -57.398 -13.730  1.00  0.00     0.016 C 
HETATM    9  C16 UNL     1     -25.808 -55.378 -12.517  1.00  0.00     0.001 C 
HETATM   10  C17 UNL     1     -26.039 -53.916 -12.379  1.00  0.00     0.009 C 
HETATM   11  C18 UNL     1     -26.474 -53.791 -10.925  1.00  0.00     0.039 C 
HETATM   12  C19 UNL     1     -26.937 -55.170 -10.503  1.00  0.00     0.066 C 
HETATM   13  C20 UNL     1     -25.929 -55.733  -9.565  1.00  0.00     0.041 C 
HETATM   14  C21 UNL     1     -26.742 -56.065  -8.335  1.00  0.00     0.038 C 
HETATM   15  C22 UNL     1     -27.936 -55.160  -8.507  1.00  0.00     0.156 C 
HETATM   16  O5  UNL     1     -28.166 -55.139  -9.872  1.00  0.00    -0.371 OA
HETATM   17  C26 UNL     1     -26.984 -55.980 -11.791  1.00  0.00     0.027 C 
HETATM   18  C27 UNL     1     -28.237 -55.623 -12.533  1.00  0.00     0.040 C 
HETATM   19  C28 UNL     1     -28.253 -55.980 -13.960  1.00  0.00     0.123 C 
HETATM   20  C29 UNL     1     -26.964 -55.875 -14.695  1.00  0.00     0.027 C 
ENDROOT
BRANCH   1  21
HETATM   21  C7  UNL     1     -23.815 -53.704 -17.388  1.00  0.00     0.123 C 
BRANCH  21  22
HETATM   22  C6  UNL     1     -23.823 -52.465 -16.507  1.00  0.00     0.041 C 
BRANCH  22  23
HETATM   23  C5  UNL     1     -22.484 -52.416 -15.812  1.00  0.00     0.105 C 
BRANCH  23  24
HETATM   24  C4  UNL     1     -22.682 -51.941 -14.429  1.00  0.00     0.220 C 
HETATM   25  N1  UNL     1     -21.593 -51.666 -13.551  1.00  0.00    -0.330 N 
ATOM     26  H1  UNL     1     -20.642 -51.803 -13.893  1.00  0.00     0.165 HD
HETATM   27  O2  UNL     1     -23.842 -51.769 -13.996  1.00  0.00    -0.274 OA
BRANCH  25  28
HETATM   28  C2  UNL     1     -21.781 -51.204 -12.207  1.00  0.00     0.126 C 
HETATM   29  C1  UNL     1     -22.302 -49.786 -12.146  1.00  0.00     0.070 C 
HETATM   30  C3  UNL     1     -20.476 -51.246 -11.467  1.00  0.00     0.070 C 
BRANCH  28  31
HETATM   31  O1  UNL     1     -22.698 -52.034 -11.569  1.00  0.00    -0.372 OA
ATOM     32  H1  UNL     1     -22.865 -51.682 -10.702  1.00  0.00     0.212 HD
ENDBRANCH  28  31
ENDBRANCH  25  28
ENDBRANCH  23  24
ENDBRANCH  22  23
ENDBRANCH  21  22
BRANCH  21  33
HETATM   33  O3  UNL     1     -22.605 -54.366 -17.326  1.00  0.00    -0.395 OA
ATOM     34  H3  UNL     1     -22.687 -55.208 -16.893  1.00  0.00     0.210 HD
ENDBRANCH  21  33
ENDBRANCH   1  21
BRANCH  19  35
HETATM   35  O6  UNL     1     -29.167 -55.137 -14.623  1.00  0.00    -0.395 OA
ATOM     36  H6  UNL     1     -28.689 -54.405 -14.995  1.00  0.00     0.210 HD
ENDBRANCH  19  35
BRANCH  15  37
HETATM   37  C23 UNL     1     -29.127 -55.738  -7.753  1.00  0.00     0.076 C 
HETATM   38  C24 UNL     1     -28.654 -56.967  -6.998  1.00  0.00     0.048 C 
HETATM   39  C25 UNL     1     -30.170 -56.213  -8.744  1.00  0.00     0.048 C 
BRANCH  37  40
HETATM   40  O4  UNL     1     -29.705 -54.811  -6.922  1.00  0.00    -0.388 OA
ATOM     41  H4  UNL     1     -29.185 -54.667  -6.140  1.00  0.00     0.210 HD
ENDBRANCH  37  40
ENDBRANCH  15  37
TORSDOF 10
ENDMDL
MODEL 5
REMARK VINA RESULT: -7.583567031      1.741      2.336
REMARK  10 active torsions:
REMARK  status: ('A' for Active; 'I' for Inactive)
REMARK    1  A    between atoms: C2_2  and  O1_4 
REMARK    2  A    between atoms: C2_2  and  N1_6 
REMARK       I    between atoms: N1_6  and  C4_8 
REMARK    3  A    between atoms: C4_8  and  C5_10 
REMARK    4  A    between atoms: C5_10  and  C6_11 
REMARK    5  A    between atoms: C6_11  and  C7_12 
REMARK    6  A    between atoms: C7_12  and  O3_13 
REMARK    7  A    between atoms: C7_12  and  C8_15 
REMARK    8  A    between atoms: C22_29  and  C23_30 
REMARK    9  A    between atoms: C23_30  and  O4_33 
REMARK   10  A    between atoms: C28_38  and  O6_39 
ROOT
HETATM    1  C8  UNL     1     -24.609 -53.838 -15.418  1.00  0.00     0.019 C 
HETATM    2  C9  UNL     1     -25.645 -54.069 -16.490  1.00  0.00     0.008 C 
HETATM    3  C10 UNL     1     -26.456 -55.209 -15.879  1.00  0.00     0.006 C 
HETATM    4  C11 UNL     1     -26.569 -54.834 -14.402  1.00  0.00    -0.003 C 
HETATM    5  C12 UNL     1     -25.463 -53.856 -14.156  1.00  0.00    -0.003 C 
HETATM    6  C13 UNL     1     -24.610 -54.406 -13.053  1.00  0.00     0.015 C 
HETATM    7  C14 UNL     1     -25.366 -55.563 -12.433  1.00  0.00    -0.033 C 
HETATM    8  C15 UNL     1     -24.369 -56.697 -12.137  1.00  0.00     0.016 C 
HETATM    9  C16 UNL     1     -25.971 -55.200 -11.146  1.00  0.00     0.001 C 
HETATM   10  C17 UNL     1     -26.866 -54.013 -11.124  1.00  0.00     0.009 C 
HETATM   11  C18 UNL     1     -27.614 -54.195  -9.810  1.00  0.00     0.039 C 
HETATM   12  C19 UNL     1     -27.478 -55.658  -9.446  1.00  0.00     0.066 C 
HETATM   13  C20 UNL     1     -26.554 -55.765  -8.283  1.00  0.00     0.041 C 
HETATM   14  C21 UNL     1     -27.372 -56.510  -7.254  1.00  0.00     0.038 C 
HETATM   15  C22 UNL     1     -28.778 -56.233  -7.724  1.00  0.00     0.156 C 
HETATM   16  O5  UNL     1     -28.690 -56.228  -9.106  1.00  0.00    -0.371 OA
HETATM   17  C26 UNL     1     -26.870 -56.315 -10.677  1.00  0.00     0.027 C 
HETATM   18  C27 UNL     1     -27.954 -56.516 -11.694  1.00  0.00     0.040 C 
HETATM   19  C28 UNL     1     -27.495 -56.746 -13.073  1.00  0.00     0.123 C 
HETATM   20  C29 UNL     1     -26.271 -56.021 -13.505  1.00  0.00     0.027 C 
ENDROOT
BRANCH   1  21
HETATM   21  C7  UNL     1     -23.955 -52.487 -15.515  1.00  0.00     0.123 C 
BRANCH  21  22
HETATM   22  C6  UNL     1     -22.531 -52.602 -16.034  1.00  0.00     0.041 C 
BRANCH  22  23
HETATM   23  C5  UNL     1     -21.866 -53.701 -15.241  1.00  0.00     0.105 C 
BRANCH  23  24
HETATM   24  C4  UNL     1     -21.021 -53.091 -14.196  1.00  0.00     0.220 C 
HETATM   25  N1  UNL     1     -21.444 -51.964 -13.432  1.00  0.00    -0.330 N 
ATOM     26  H1  UNL     1     -22.365 -51.565 -13.614  1.00  0.00     0.165 HD
HETATM   27  O2  UNL     1     -19.890 -53.568 -13.961  1.00  0.00    -0.274 OA
BRANCH  25  28
HETATM   28  C2  UNL     1     -20.626 -51.369 -12.416  1.00  0.00     0.126 C 
HETATM   29  C1  UNL     1     -20.487 -52.246 -11.192  1.00  0.00     0.070 C 
HETATM   30  C3  UNL     1     -21.225 -50.064 -11.980  1.00  0.00     0.070 C 
BRANCH  28  31
HETATM   31  O1  UNL     1     -19.355 -51.140 -12.935  1.00  0.00    -0.372 OA
ATOM     32  H1  UNL     1     -19.290 -50.222 -13.169  1.00  0.00     0.212 HD
ENDBRANCH  28  31
ENDBRANCH  25  28
ENDBRANCH  23  24
ENDBRANCH  22  23
ENDBRANCH  21  22
BRANCH  21  33
HETATM   33  O3  UNL     1     -24.704 -51.606 -16.269  1.00  0.00    -0.395 OA
ATOM     34  H3  UNL     1     -25.523 -51.386 -15.842  1.00  0.00     0.210 HD
ENDBRANCH  21  33
ENDBRANCH   1  21
BRANCH  19  35
HETATM   35  O6  UNL     1     -28.525 -56.366 -13.957  1.00  0.00    -0.395 OA
ATOM     36  H6  UNL     1     -28.150 -56.235 -14.819  1.00  0.00     0.210 HD
ENDBRANCH  19  35
BRANCH  15  37
HETATM   37  C23 UNL     1     -29.706 -57.336  -7.233  1.00  0.00     0.076 C 
HETATM   38  C24 UNL     1     -29.424 -57.566  -5.759  1.00  0.00     0.048 C 
HETATM   39  C25 UNL     1     -29.375 -58.632  -7.945  1.00  0.00     0.048 C 
BRANCH  37  40
HETATM   40  O4  UNL     1     -31.026 -57.035  -7.465  1.00  0.00    -0.388 OA
ATOM     41  H4  UNL     1     -31.594 -57.773  -7.282  1.00  0.00     0.210 HD
ENDBRANCH  37  40
ENDBRANCH  15  37
TORSDOF 10
ENDMDL
