MODEL 1
REMARK VINA RESULT: -7.275953068      0.000      0.000
REMARK  11 active torsions:
REMARK  status: ('A' for Active; 'I' for Inactive)
REMARK    1  A    between atoms: C2_2  and  O1_3 
REMARK    2  A    between atoms: C2_2  and  C3_5 
REMARK    3  A    between atoms: C3_5  and  N1_6 
REMARK    4  A    between atoms: N1_6  and  C4_7 
REMARK    5  A    between atoms: N1_6  and  C8_12 
REMARK    6  A    between atoms: C4_7  and  C5_8 
REMARK    7  A    between atoms: C5_8  and  N2_9 
REMARK    8  A    between atoms: C22_26  and  O2_27 
REMARK    9  A    between atoms: C23_29  and  C25_31 
REMARK   10  A    between atoms: C25_31  and  O3_32 
REMARK   11  A    between atoms: C26_34  and  O4_35 
ROOT
HETATM    1  C8  UNL     1     -22.549 -52.342 -13.522  1.00  0.00     0.050 C 
HETATM    2  C9  UNL     1     -22.248 -52.365 -15.033  1.00  0.00     0.043 C 
HETATM    3  C10 UNL     1     -22.449 -53.846 -13.227  1.00  0.00     0.007 C 
HETATM    4  C11 UNL     1     -23.429 -54.632 -12.943  1.00  0.00    -0.070 C 
HETATM    5  C12 UNL     1     -23.028 -56.078 -12.691  1.00  0.00     0.036 C 
HETATM    6  C13 UNL     1     -23.610 -56.763 -13.905  1.00  0.00     0.016 C 
HETATM    7  C14 UNL     1     -25.115 -56.776 -13.580  1.00  0.00    -0.011 C 
HETATM    8  C15 UNL     1     -25.274 -57.709 -12.440  1.00  0.00     0.018 C 
HETATM    9  C16 UNL     1     -25.715 -57.477 -14.811  1.00  0.00     0.012 C 
HETATM   10  C17 UNL     1     -27.136 -57.151 -15.028  1.00  0.00     0.007 C 
HETATM   11  C18 UNL     1     -27.866 -56.603 -13.811  1.00  0.00     0.005 C 
HETATM   12  C19 UNL     1     -27.124 -55.555 -13.044  1.00  0.00     0.027 C 
HETATM   13  C20 UNL     1     -27.885 -54.255 -12.931  1.00  0.00     0.010 C 
HETATM   14  C21 UNL     1     -29.307 -54.691 -12.502  1.00  0.00     0.033 C 
HETATM   15  C22 UNL     1     -29.927 -55.095 -13.788  1.00  0.00     0.128 C 
HETATM   16  C23 UNL     1     -29.260 -56.364 -14.237  1.00  0.00     0.007 C 
HETATM   17  C24 UNL     1     -29.456 -56.321 -15.761  1.00  0.00     0.020 C 
HETATM   18  C26 UNL     1     -25.685 -55.409 -13.469  1.00  0.00     0.080 C 
HETATM   19  C27 UNL     1     -24.882 -54.329 -12.853  1.00  0.00     0.011 C 
HETATM   20  C28 UNL     1     -25.121 -54.013 -11.414  1.00  0.00     0.023 C 
HETATM   21  C29 UNL     1     -24.948 -53.044 -13.659  1.00  0.00     0.019 C 
HETATM   22  C30 UNL     1     -23.949 -51.987 -13.248  1.00  0.00     0.036 C 
ENDROOT
BRANCH   1  23
HETATM   23  N1  UNL     1     -21.512 -51.670 -12.804  1.00  0.00    -0.357 N 
BRANCH  23  24
HETATM   24  C3  UNL     1     -20.179 -51.969 -13.072  1.00  0.00     0.095 C 
BRANCH  24  25
HETATM   25  C2  UNL     1     -19.191 -52.483 -12.104  1.00  0.00     0.152 C 
HETATM   26  C1  UNL     1     -19.565 -53.750 -11.333  1.00  0.00     0.045 C 
BRANCH  25  27
HETATM   27  O1  UNL     1     -18.035 -52.975 -12.858  1.00  0.00    -0.391 OA
ATOM     28  H1  UNL     1     -17.440 -52.243 -12.744  1.00  0.00     0.210 HD
ENDBRANCH  25  27
ENDBRANCH  24  25
ENDBRANCH  23  24
BRANCH  23  29
HETATM   29  C4  UNL     1     -21.701 -50.664 -11.899  1.00  0.00     0.094 C 
BRANCH  29  30
HETATM   30  C5  UNL     1     -21.928 -49.238 -12.185  1.00  0.00     0.316 C 
BRANCH  30  31
HETATM   31  N2  UNL     1     -21.062 -48.323 -11.485  1.00  0.00     0.084 N 
HETATM   32  C6  UNL     1     -20.936 -47.030 -12.155  1.00  0.00     0.309 C 
HETATM   33  C7  UNL     1     -19.725 -48.894 -11.468  1.00  0.00     0.309 C 
ENDBRANCH  30  31
ENDBRANCH  29  30
ENDBRANCH  23  29
ENDBRANCH   1  23
BRANCH  18  34
HETATM   34  O4  UNL     1     -25.809 -54.977 -14.834  1.00  0.00    -0.388 OA
ATOM     35  H4  UNL     1     -26.602 -54.455 -14.836  1.00  0.00     0.210 HD
ENDBRANCH  18  34
BRANCH  16  36
HETATM   36  C25 UNL     1     -30.222 -57.484 -13.800  1.00  0.00     0.176 C 
BRANCH  36  37
HETATM   37  O3  UNL     1     -31.144 -57.801 -14.757  1.00  0.00    -0.400 OA
ATOM     38  H3  UNL     1     -31.096 -58.709 -15.032  1.00  0.00     0.209 HD
ENDBRANCH  36  37
ENDBRANCH  16  36
BRANCH  15  39
HETATM   39  O2  UNL     1     -31.295 -55.229 -13.619  1.00  0.00    -0.395 OA
ATOM     40  H2  UNL     1     -31.745 -54.578 -14.146  1.00  0.00     0.210 HD
ENDBRANCH  15  39
TORSDOF 11
ENDMDL
MODEL 2
REMARK VINA RESULT: -7.237064892      2.593      4.481
REMARK  11 active torsions:
REMARK  status: ('A' for Active; 'I' for Inactive)
REMARK    1  A    between atoms: C2_2  and  O1_3 
REMARK    2  A    between atoms: C2_2  and  C3_5 
REMARK    3  A    between atoms: C3_5  and  N1_6 
REMARK    4  A    between atoms: N1_6  and  C4_7 
REMARK    5  A    between atoms: N1_6  and  C8_12 
REMARK    6  A    between atoms: C4_7  and  C5_8 
REMARK    7  A    between atoms: C5_8  and  N2_9 
REMARK    8  A    between atoms: C22_26  and  O2_27 
REMARK    9  A    between atoms: C23_29  and  C25_31 
REMARK   10  A    between atoms: C25_31  and  O3_32 
REMARK   11  A    between atoms: C26_34  and  O4_35 
ROOT
HETATM    1  C8  UNL     1     -22.097 -52.145 -12.748  1.00  0.00     0.050 C 
HETATM    2  C9  UNL     1     -22.908 -50.840 -12.869  1.00  0.00     0.043 C 
HETATM    3  C10 UNL     1     -21.614 -52.270 -14.201  1.00  0.00     0.007 C 
HETATM    4  C11 UNL     1     -22.014 -53.139 -15.063  1.00  0.00    -0.070 C 
HETATM    5  C12 UNL     1     -21.351 -53.027 -16.428  1.00  0.00     0.036 C 
HETATM    6  C13 UNL     1     -22.500 -52.536 -17.276  1.00  0.00     0.016 C 
HETATM    7  C14 UNL     1     -23.358 -53.805 -17.428  1.00  0.00    -0.011 C 
HETATM    8  C15 UNL     1     -22.564 -54.730 -18.271  1.00  0.00     0.018 C 
HETATM    9  C16 UNL     1     -24.530 -53.313 -18.296  1.00  0.00     0.012 C 
HETATM   10  C17 UNL     1     -25.744 -54.136 -18.150  1.00  0.00     0.007 C 
HETATM   11  C18 UNL     1     -25.516 -55.529 -17.583  1.00  0.00     0.005 C 
HETATM   12  C19 UNL     1     -24.607 -55.591 -16.396  1.00  0.00     0.027 C 
HETATM   13  C20 UNL     1     -25.259 -56.213 -15.184  1.00  0.00     0.010 C 
HETATM   14  C21 UNL     1     -25.926 -57.496 -15.737  1.00  0.00     0.033 C 
HETATM   15  C22 UNL     1     -27.192 -56.982 -16.317  1.00  0.00     0.128 C 
HETATM   16  C23 UNL     1     -26.841 -56.180 -17.539  1.00  0.00     0.007 C 
HETATM   17  C24 UNL     1     -28.026 -55.208 -17.649  1.00  0.00     0.020 C 
HETATM   18  C26 UNL     1     -23.883 -54.296 -16.129  1.00  0.00     0.080 C 
HETATM   19  C27 UNL     1     -23.038 -54.207 -14.917  1.00  0.00     0.011 C 
HETATM   20  C28 UNL     1     -22.273 -55.420 -14.506  1.00  0.00     0.023 C 
HETATM   21  C29 UNL     1     -23.815 -53.683 -13.722  1.00  0.00     0.019 C 
HETATM   22  C30 UNL     1     -22.966 -53.310 -12.529  1.00  0.00     0.036 C 
ENDROOT
BRANCH   1  23
HETATM   23  N1  UNL     1     -20.958 -51.963 -11.906  1.00  0.00    -0.357 N 
BRANCH  23  24
HETATM   24  C3  UNL     1     -20.734 -50.729 -11.300  1.00  0.00     0.095 C 
BRANCH  24  25
HETATM   25  C2  UNL     1     -19.734 -49.727 -11.712  1.00  0.00     0.152 C 
HETATM   26  C1  UNL     1     -20.124 -48.254 -11.573  1.00  0.00     0.045 C 
BRANCH  25  27
HETATM   27  O1  UNL     1     -18.619 -49.787 -10.763  1.00  0.00    -0.391 OA
ATOM     28  H1  UNL     1     -19.049 -49.461  -9.981  1.00  0.00     0.210 HD
ENDBRANCH  25  27
ENDBRANCH  24  25
ENDBRANCH  23  24
BRANCH  23  29
HETATM   29  C4  UNL     1     -20.070 -52.941 -11.556  1.00  0.00     0.094 C 
BRANCH  29  30
HETATM   30  C5  UNL     1     -18.756 -53.211 -12.161  1.00  0.00     0.316 C 
BRANCH  30  31
HETATM   31  N2  UNL     1     -18.583 -54.538 -12.694  1.00  0.00     0.084 N 
HETATM   32  C6  UNL     1     -18.630 -54.578 -14.155  1.00  0.00     0.309 C 
HETATM   33  C7  UNL     1     -19.698 -55.354 -12.239  1.00  0.00     0.309 C 
ENDBRANCH  30  31
ENDBRANCH  29  30
ENDBRANCH  23  29
ENDBRANCH   1  23
BRANCH  18  34
HETATM   34  O4  UNL     1     -24.963 -53.394 -15.833  1.00  0.00    -0.388 OA
ATOM     35  H4  UNL     1     -25.320 -53.179 -16.688  1.00  0.00     0.210 HD
ENDBRANCH  18  34
BRANCH  16  36
HETATM   36  C25 UNL     1     -27.077 -57.143 -18.716  1.00  0.00     0.176 C 
BRANCH  36  37
HETATM   37  O3  UNL     1     -28.071 -56.728 -19.555  1.00  0.00    -0.400 OA
ATOM     38  H3  UNL     1     -28.559 -57.448 -19.938  1.00  0.00     0.209 HD
ENDBRANCH  36  37
ENDBRANCH  16  36
BRANCH  15  39
HETATM   39  O2  UNL     1     -28.041 -58.042 -16.587  1.00  0.00    -0.395 OA
ATOM     40  H2  UNL     1     -27.623 -58.634 -17.203  1.00  0.00     0.210 HD
ENDBRANCH  15  39
TORSDOF 11
ENDMDL
MODEL 3
REMARK VINA RESULT: -7.211401959      2.500      3.858
REMARK  11 active torsions:
REMARK  status: ('A' for Active; 'I' for Inactive)
REMARK    1  A    between atoms: C2_2  and  O1_3 
REMARK    2  A    between atoms: C2_2  and  C3_5 
REMARK    3  A    between atoms: C3_5  and  N1_6 
REMARK    4  A    between atoms: N1_6  and  C4_7 
REMARK    5  A    between atoms: N1_6  and  C8_12 
REMARK    6  A    between atoms: C4_7  and  C5_8 
REMARK    7  A    between atoms: C5_8  and  N2_9 
REMARK    8  A    between atoms: C22_26  and  O2_27 
REMARK    9  A    between atoms: C23_29  and  C25_31 
REMARK   10  A    between atoms: C25_31  and  O3_32 
REMARK   11  A    between atoms: C26_34  and  O4_35 
ROOT
HETATM    1  C8  UNL     1     -21.990 -52.332 -13.206  1.00  0.00     0.050 C 
HETATM    2  C9  UNL     1     -22.880 -51.073 -13.190  1.00  0.00     0.043 C 
HETATM    3  C10 UNL     1     -21.668 -52.387 -14.706  1.00  0.00     0.007 C 
HETATM    4  C11 UNL     1     -22.114 -53.254 -15.549  1.00  0.00    -0.070 C 
HETATM    5  C12 UNL     1     -21.617 -53.064 -16.974  1.00  0.00     0.036 C 
HETATM    6  C13 UNL     1     -22.879 -52.617 -17.672  1.00  0.00     0.016 C 
HETATM    7  C14 UNL     1     -23.678 -53.930 -17.771  1.00  0.00    -0.011 C 
HETATM    8  C15 UNL     1     -22.935 -54.782 -18.728  1.00  0.00     0.018 C 
HETATM    9  C16 UNL     1     -24.965 -53.482 -18.486  1.00  0.00     0.012 C 
HETATM   10  C17 UNL     1     -26.108 -54.378 -18.235  1.00  0.00     0.007 C 
HETATM   11  C18 UNL     1     -25.742 -55.770 -17.745  1.00  0.00     0.005 C 
HETATM   12  C19 UNL     1     -24.703 -55.813 -16.669  1.00  0.00     0.027 C 
HETATM   13  C20 UNL     1     -25.180 -56.507 -15.415  1.00  0.00     0.010 C 
HETATM   14  C21 UNL     1     -25.834 -57.810 -15.934  1.00  0.00     0.033 C 
HETATM   15  C22 UNL     1     -27.183 -57.354 -16.352  1.00  0.00     0.128 C 
HETATM   16  C23 UNL     1     -27.016 -56.499 -17.577  1.00  0.00     0.007 C 
HETATM   17  C24 UNL     1     -28.258 -55.594 -17.522  1.00  0.00     0.020 C 
HETATM   18  C26 UNL     1     -24.026 -54.486 -16.440  1.00  0.00     0.080 C 
HETATM   19  C27 UNL     1     -23.056 -54.383 -15.327  1.00  0.00     0.011 C 
HETATM   20  C28 UNL     1     -22.184 -55.561 -15.045  1.00  0.00     0.023 C 
HETATM   21  C29 UNL     1     -23.720 -53.939 -14.036  1.00  0.00     0.019 C 
HETATM   22  C30 UNL     1     -22.764 -53.551 -12.932  1.00  0.00     0.036 C 
ENDROOT
BRANCH   1  23
HETATM   23  N1  UNL     1     -20.775 -52.108 -12.489  1.00  0.00    -0.357 N 
BRANCH  23  24
HETATM   24  C3  UNL     1     -19.573 -52.601 -12.991  1.00  0.00     0.095 C 
BRANCH  24  25
HETATM   25  C2  UNL     1     -18.816 -53.751 -12.460  1.00  0.00     0.152 C 
HETATM   26  C1  UNL     1     -19.505 -55.116 -12.493  1.00  0.00     0.045 C 
BRANCH  25  27
HETATM   27  O1  UNL     1     -17.694 -54.008 -13.366  1.00  0.00    -0.391 OA
ATOM     28  H1  UNL     1     -18.045 -53.646 -14.171  1.00  0.00     0.210 HD
ENDBRANCH  25  27
ENDBRANCH  24  25
ENDBRANCH  23  24
BRANCH  23  29
HETATM   29  C4  UNL     1     -20.654 -51.358 -11.353  1.00  0.00     0.094 C 
BRANCH  29  30
HETATM   30  C5  UNL     1     -19.685 -50.282 -11.092  1.00  0.00     0.316 C 
BRANCH  30  31
HETATM   31  N2  UNL     1     -19.887 -49.072 -11.848  1.00  0.00     0.084 N 
HETATM   32  C6  UNL     1     -18.833 -48.083 -11.635  1.00  0.00     0.309 C 
HETATM   33  C7  UNL     1     -21.116 -48.451 -11.379  1.00  0.00     0.309 C 
ENDBRANCH  30  31
ENDBRANCH  29  30
ENDBRANCH  23  29
ENDBRANCH   1  23
BRANCH  18  34
HETATM   34  O4  UNL     1     -25.113 -53.658 -15.995  1.00  0.00    -0.388 OA
ATOM     35  H4  UNL     1     -24.950 -53.549 -15.065  1.00  0.00     0.210 HD
ENDBRANCH  18  34
BRANCH  16  36
HETATM   36  C25 UNL     1     -27.330 -57.440 -18.753  1.00  0.00     0.176 C 
BRANCH  36  37
HETATM   37  O3  UNL     1     -26.227 -58.088 -19.230  1.00  0.00    -0.400 OA
ATOM     38  H3  UNL     1     -25.588 -57.500 -19.616  1.00  0.00     0.209 HD
ENDBRANCH  36  37
ENDBRANCH  16  36
BRANCH  15  39
HETATM   39  O2  UNL     1     -27.997 -58.453 -16.563  1.00  0.00    -0.395 OA
ATOM     40  H2  UNL     1     -28.878 -58.161 -16.768  1.00  0.00     0.210 HD
ENDBRANCH  15  39
TORSDOF 11
ENDMDL
MODEL 4
REMARK VINA RESULT: -7.192587419      3.361      8.680
REMARK  11 active torsions:
REMARK  status: ('A' for Active; 'I' for Inactive)
REMARK    1  A    between atoms: C2_2  and  O1_3 
REMARK    2  A    between atoms: C2_2  and  C3_5 
REMARK    3  A    between atoms: C3_5  and  N1_6 
REMARK    4  A    between atoms: N1_6  and  C4_7 
REMARK    5  A    between atoms: N1_6  and  C8_12 
REMARK    6  A    between atoms: C4_7  and  C5_8 
REMARK    7  A    between atoms: C5_8  and  N2_9 
REMARK    8  A    between atoms: C22_26  and  O2_27 
REMARK    9  A    between atoms: C23_29  and  C25_31 
REMARK   10  A    between atoms: C25_31  and  O3_32 
REMARK   11  A    between atoms: C26_34  and  O4_35 
ROOT
HETATM    1  C8  UNL     1     -25.668 -55.804 -15.954  1.00  0.00     0.050 C 
HETATM    2  C9  UNL     1     -25.269 -57.082 -15.189  1.00  0.00     0.043 C 
HETATM    3  C10 UNL     1     -24.340 -55.520 -16.670  1.00  0.00     0.007 C 
HETATM    4  C11 UNL     1     -23.526 -54.556 -16.410  1.00  0.00    -0.070 C 
HETATM    5  C12 UNL     1     -22.286 -54.519 -17.291  1.00  0.00     0.036 C 
HETATM    6  C13 UNL     1     -21.209 -54.902 -16.304  1.00  0.00     0.016 C 
HETATM    7  C14 UNL     1     -21.061 -53.617 -15.469  1.00  0.00    -0.011 C 
HETATM    8  C15 UNL     1     -20.472 -52.609 -16.382  1.00  0.00     0.018 C 
HETATM    9  C16 UNL     1     -19.960 -53.999 -14.464  1.00  0.00     0.012 C 
HETATM   10  C17 UNL     1     -19.994 -53.188 -13.233  1.00  0.00     0.007 C 
HETATM   11  C18 UNL     1     -20.744 -51.871 -13.348  1.00  0.00     0.005 C 
HETATM   12  C19 UNL     1     -22.065 -51.950 -14.046  1.00  0.00     0.027 C 
HETATM   13  C20 UNL     1     -23.214 -51.463 -13.195  1.00  0.00     0.010 C 
HETATM   14  C21 UNL     1     -22.706 -50.121 -12.615  1.00  0.00     0.033 C 
HETATM   15  C22 UNL     1     -21.870 -50.557 -11.469  1.00  0.00     0.128 C 
HETATM   16  C23 UNL     1     -20.641 -51.218 -12.027  1.00  0.00     0.007 C 
HETATM   17  C24 UNL     1     -20.226 -52.163 -10.887  1.00  0.00     0.020 C 
HETATM   18  C26 UNL     1     -22.301 -53.272 -14.730  1.00  0.00     0.080 C 
HETATM   19  C27 UNL     1     -23.619 -53.504 -15.363  1.00  0.00     0.011 C 
HETATM   20  C28 UNL     1     -24.286 -52.350 -16.035  1.00  0.00     0.023 C 
HETATM   21  C29 UNL     1     -24.602 -54.153 -14.405  1.00  0.00     0.019 C 
HETATM   22  C30 UNL     1     -25.870 -54.665 -15.048  1.00  0.00     0.036 C 
ENDROOT
BRANCH   1  23
HETATM   23  N1  UNL     1     -26.662 -56.089 -16.939  1.00  0.00    -0.357 N 
BRANCH  23  24
HETATM   24  C3  UNL     1     -26.481 -55.659 -18.251  1.00  0.00     0.095 C 
BRANCH  24  25
HETATM   25  C2  UNL     1     -26.833 -54.330 -18.787  1.00  0.00     0.152 C 
HETATM   26  C1  UNL     1     -25.752 -53.586 -19.573  1.00  0.00     0.045 C 
BRANCH  25  27
HETATM   27  O1  UNL     1     -27.830 -54.521 -19.843  1.00  0.00    -0.391 OA
ATOM     28  H1  UNL     1     -27.347 -55.092 -20.428  1.00  0.00     0.210 HD
ENDBRANCH  25  27
ENDBRANCH  24  25
ENDBRANCH  23  24
BRANCH  23  29
HETATM   29  C4  UNL     1     -27.785 -56.842 -16.735  1.00  0.00     0.094 C 
BRANCH  29  30
HETATM   30  C5  UNL     1     -28.926 -56.523 -15.862  1.00  0.00     0.316 C 
BRANCH  30  31
HETATM   31  N2  UNL     1     -29.055 -57.349 -14.688  1.00  0.00     0.084 N 
HETATM   32  C6  UNL     1     -30.410 -57.864 -14.498  1.00  0.00     0.309 C 
HETATM   33  C7  UNL     1     -28.776 -56.524 -13.524  1.00  0.00     0.309 C 
ENDBRANCH  30  31
ENDBRANCH  29  30
ENDBRANCH  23  29
ENDBRANCH   1  23
BRANCH  18  34
HETATM   34  O4  UNL     1     -22.310 -54.193 -13.626  1.00  0.00    -0.388 OA
ATOM     35  H4  UNL     1     -23.177 -54.579 -13.660  1.00  0.00     0.210 HD
ENDBRANCH  18  34
BRANCH  16  36
HETATM   36  C25 UNL     1     -19.557 -50.127 -11.979  1.00  0.00     0.176 C 
BRANCH  36  37
HETATM   37  O3  UNL     1     -18.857 -50.118 -10.806  1.00  0.00    -0.400 OA
ATOM     38  H3  UNL     1     -18.437 -49.285 -10.629  1.00  0.00     0.209 HD
ENDBRANCH  36  37
ENDBRANCH  16  36
BRANCH  15  39
HETATM   39  O2  UNL     1     -21.583 -49.466 -10.665  1.00  0.00    -0.395 OA
ATOM     40  H2  UNL     1     -21.411 -49.762  -9.778  1.00  0.00     0.210 HD
ENDBRANCH  15  39
TORSDOF 11
ENDMDL
MODEL 5
REMARK VINA RESULT: -7.185748653      2.061      3.332
REMARK  11 active torsions:
REMARK  status: ('A' for Active; 'I' for Inactive)
REMARK    1  A    between atoms: C2_2  and  O1_3 
REMARK    2  A    between atoms: C2_2  and  C3_5 
REMARK    3  A    between atoms: C3_5  and  N1_6 
REMARK    4  A    between atoms: N1_6  and  C4_7 
REMARK    5  A    between atoms: N1_6  and  C8_12 
REMARK    6  A    between atoms: C4_7  and  C5_8 
REMARK    7  A    between atoms: C5_8  and  N2_9 
REMARK    8  A    between atoms: C22_26  and  O2_27 
REMARK    9  A    between atoms: C23_29  and  C25_31 
REMARK   10  A    between atoms: C25_31  and  O3_32 
REMARK   11  A    between atoms: C26_34  and  O4_35 
ROOT
HETATM    1  C8  UNL     1     -22.219 -52.079 -12.868  1.00  0.00     0.050 C 
HETATM    2  C9  UNL     1     -23.230 -50.919 -12.781  1.00  0.00     0.043 C 
HETATM    3  C10 UNL     1     -22.091 -52.181 -14.395  1.00  0.00     0.007 C 
HETATM    4  C11 UNL     1     -22.546 -53.133 -15.135  1.00  0.00    -0.070 C 
HETATM    5  C12 UNL     1     -22.262 -52.970 -16.620  1.00  0.00     0.036 C 
HETATM    6  C13 UNL     1     -23.647 -52.692 -17.157  1.00  0.00     0.016 C 
HETATM    7  C14 UNL     1     -24.304 -54.083 -17.097  1.00  0.00    -0.011 C 
HETATM    8  C15 UNL     1     -23.604 -54.905 -18.111  1.00  0.00     0.018 C 
HETATM    9  C16 UNL     1     -25.714 -53.809 -17.648  1.00  0.00     0.012 C 
HETATM   10  C17 UNL     1     -26.710 -54.803 -17.209  1.00  0.00     0.007 C 
HETATM   11  C18 UNL     1     -26.134 -56.122 -16.719  1.00  0.00     0.005 C 
HETATM   12  C19 UNL     1     -24.965 -56.000 -15.793  1.00  0.00     0.027 C 
HETATM   13  C20 UNL     1     -25.196 -56.671 -14.459  1.00  0.00     0.010 C 
HETATM   14  C21 UNL     1     -25.766 -58.061 -14.833  1.00  0.00     0.033 C 
HETATM   15  C22 UNL     1     -27.199 -57.769 -15.082  1.00  0.00     0.128 C 
HETATM   16  C23 UNL     1     -27.288 -56.968 -16.351  1.00  0.00     0.007 C 
HETATM   17  C24 UNL     1     -28.603 -56.194 -16.164  1.00  0.00     0.020 C 
HETATM   18  C26 UNL     1     -24.412 -54.601 -15.709  1.00  0.00     0.080 C 
HETATM   19  C27 UNL     1     -23.322 -54.339 -14.743  1.00  0.00     0.011 C 
HETATM   20  C28 UNL     1     -22.298 -55.405 -14.536  1.00  0.00     0.023 C 
HETATM   21  C29 UNL     1     -23.856 -53.898 -13.392  1.00  0.00     0.019 C 
HETATM   22  C30 UNL     1     -22.813 -53.355 -12.444  1.00  0.00     0.036 C 
ENDROOT
BRANCH   1  23
HETATM   23  N1  UNL     1     -20.952 -51.694 -12.332  1.00  0.00    -0.357 N 
BRANCH  23  24
HETATM   24  C3  UNL     1     -19.786 -52.279 -12.819  1.00  0.00     0.095 C 
BRANCH  24  25
HETATM   25  C2  UNL     1     -18.996 -53.331 -12.151  1.00  0.00     0.152 C 
HETATM   26  C1  UNL     1     -19.551 -54.755 -12.199  1.00  0.00     0.045 C 
BRANCH  25  27
HETATM   27  O1  UNL     1     -17.757 -53.514 -12.911  1.00  0.00    -0.391 OA
ATOM     28  H1  UNL     1     -17.125 -53.199 -12.275  1.00  0.00     0.210 HD
ENDBRANCH  25  27
ENDBRANCH  24  25
ENDBRANCH  23  24
BRANCH  23  29
HETATM   29  C4  UNL     1     -20.753 -50.709 -11.405  1.00  0.00     0.094 C 
BRANCH  29  30
HETATM   30  C5  UNL     1     -19.634 -49.755 -11.343  1.00  0.00     0.316 C 
BRANCH  30  31
HETATM   31  N2  UNL     1     -20.009 -48.372 -11.201  1.00  0.00     0.084 N 
HETATM   32  C6  UNL     1     -21.182 -48.013 -11.996  1.00  0.00     0.309 C 
HETATM   33  C7  UNL     1     -18.918 -47.556 -11.710  1.00  0.00     0.309 C 
ENDBRANCH  30  31
ENDBRANCH  29  30
ENDBRANCH  23  29
ENDBRANCH   1  23
BRANCH  18  34
HETATM   34  O4  UNL     1     -25.516 -53.866 -15.154  1.00  0.00    -0.388 OA
ATOM     35  H4  UNL     1     -25.911 -54.477 -14.543  1.00  0.00     0.210 HD
ENDBRANCH  18  34
BRANCH  16  36
HETATM   36  C25 UNL     1     -27.649 -57.998 -17.436  1.00  0.00     0.176 C 
BRANCH  36  37
HETATM   37  O3  UNL     1     -26.553 -58.563 -18.023  1.00  0.00    -0.400 OA
ATOM     38  H3  UNL     1     -26.583 -58.535 -18.972  1.00  0.00     0.209 HD
ENDBRANCH  36  37
ENDBRANCH  16  36
BRANCH  15  39
HETATM   39  O2  UNL     1     -27.910 -58.956 -15.138  1.00  0.00    -0.395 OA
ATOM     40  H2  UNL     1     -28.474 -59.024 -14.376  1.00  0.00     0.210 HD
ENDBRANCH  15  39
TORSDOF 11
ENDMDL
