MODEL 1
REMARK VINA RESULT: -8.194993452      0.000      0.000
REMARK  12 active torsions:
REMARK  status: ('A' for Active; 'I' for Inactive)
REMARK    1  A    between atoms: C2_2  and  C3_3 
REMARK    2  A    between atoms: C2_2  and  C4_6 
REMARK    3  A    between atoms: C3_3  and  O1_4 
REMARK    4  A    between atoms: C15_17  and  O2_18 
REMARK    5  A    between atoms: C18_22  and  C19_23 
REMARK    6  A    between atoms: C19_23  and  C20_25 
REMARK    7  A    between atoms: C20_25  and  O4_26 
REMARK    8  A    between atoms: C20_25  and  C21_28 
REMARK    9  A    between atoms: C21_28  and  O5_29 
REMARK   10  A    between atoms: C21_28  and  C22_31 
REMARK   11  A    between atoms: C22_31  and  C24_33 
REMARK   12  A    between atoms: C24_33  and  O6_35 
ROOT
HETATM    1  C24 UNL     1     -20.035 -51.315 -12.304  1.00  0.00     0.148 C 
HETATM    2  C25 UNL     1     -20.638 -51.636 -13.665  1.00  0.00     0.063 C 
HETATM    3  C26 UNL     1     -19.897 -52.595 -11.605  1.00  0.00     0.097 C 
HETATM    4  N1  UNL     1     -19.802 -53.599 -11.040  1.00  0.00    -0.194 NA
ENDROOT
BRANCH   1   5
HETATM    5  C22 UNL     1     -20.939 -50.374 -11.530  1.00  0.00     0.062 C 
HETATM    6  C23 UNL     1     -20.307 -49.009 -11.539  1.00  0.00     0.017 C 
BRANCH   5   7
HETATM    7  C21 UNL     1     -22.340 -50.380 -12.091  1.00  0.00     0.162 C 
BRANCH   7   8
HETATM    8  C20 UNL     1     -23.242 -51.386 -11.416  1.00  0.00     0.217 C 
BRANCH   8   9
HETATM    9  C19 UNL     1     -24.067 -52.188 -12.340  1.00  0.00     0.162 C 
HETATM   10  O3  UNL     1     -24.566 -51.563 -13.290  1.00  0.00    -0.295 OA
BRANCH   9  11
HETATM   11  C18 UNL     1     -24.293 -53.573 -12.177  1.00  0.00     0.069 C 
HETATM   12  C16 UNL     1     -25.716 -54.058 -12.551  1.00  0.00    -0.004 C 
HETATM   13  C15 UNL     1     -26.772 -53.417 -11.735  1.00  0.00     0.128 C 
HETATM   14  C17 UNL     1     -25.909 -53.968 -14.032  1.00  0.00     0.019 C 
HETATM   15  C29 UNL     1     -25.511 -55.464 -12.065  1.00  0.00     0.001 C 
HETATM   16  C14 UNL     1     -28.002 -54.301 -11.722  1.00  0.00     0.038 C 
HETATM   17  C13 UNL     1     -27.755 -55.665 -11.174  1.00  0.00     0.001 C 
HETATM   18  C7  UNL     1     -28.993 -56.455 -11.140  1.00  0.00    -0.036 C 
HETATM   19  C12 UNL     1     -26.661 -56.368 -11.981  1.00  0.00    -0.005 C 
HETATM   20  C6  UNL     1     -28.889 -57.888 -10.780  1.00  0.00     0.010 C 
HETATM   21  C8  UNL     1     -29.984 -55.779 -10.212  1.00  0.00     0.016 C 
HETATM   22  C9  UNL     1     -29.583 -56.514 -12.542  1.00  0.00     0.002 C 
HETATM   23  C5  UNL     1     -29.740 -58.688 -11.785  1.00  0.00     0.010 C 
HETATM   24  C4  UNL     1     -30.634 -57.565 -12.281  1.00  0.00     0.020 C 
HETATM   25  C10 UNL     1     -28.577 -56.865 -13.579  1.00  0.00     0.006 C 
HETATM   26  C11 UNL     1     -27.163 -57.039 -13.187  1.00  0.00     0.006 C 
HETATM   27  C28 UNL     1     -24.327 -55.891 -12.837  1.00  0.00     0.007 C 
HETATM   28  C27 UNL     1     -23.481 -54.602 -12.858  1.00  0.00     0.013 C 
BRANCH  13  29
HETATM   29  O2  UNL     1     -26.327 -53.318 -10.413  1.00  0.00    -0.395 OA
ATOM     30  H2  UNL     1     -26.587 -52.460 -10.098  1.00  0.00     0.210 HD
ENDBRANCH  13  29
BRANCH  24  31
HETATM   31  C2  UNL     1     -31.545 -57.886 -13.344  1.00  0.00    -0.061 C 
HETATM   32  C1  UNL     1     -31.509 -58.994 -14.042  1.00  0.00     0.017 C 
BRANCH  31  33
HETATM   33  C3  UNL     1     -32.615 -56.885 -13.666  1.00  0.00     0.198 C 
BRANCH  33  34
HETATM   34  O1  UNL     1     -32.274 -56.136 -14.790  1.00  0.00    -0.397 OA
ATOM     35  H1  UNL     1     -32.469 -55.215 -14.657  1.00  0.00     0.209 HD
ENDBRANCH  33  34
ENDBRANCH  31  33
ENDBRANCH  24  31
ENDBRANCH   9  11
ENDBRANCH   8   9
BRANCH   8  36
HETATM   36  O4  UNL     1     -24.047 -50.616 -10.550  1.00  0.00    -0.385 OA
ATOM     37  H4  UNL     1     -23.516 -50.107  -9.948  1.00  0.00     0.210 HD
ENDBRANCH   8  36
ENDBRANCH   7   8
BRANCH   7  38
HETATM   38  O5  UNL     1     -22.841 -49.082 -11.976  1.00  0.00    -0.392 OA
ATOM     39  H5  UNL     1     -22.911 -48.658 -12.822  1.00  0.00     0.210 HD
ENDBRANCH   7  38
ENDBRANCH   5   7
ENDBRANCH   1   5
BRANCH   1  40
HETATM   40  O6  UNL     1     -18.775 -50.805 -12.514  1.00  0.00    -0.375 OA
ATOM     41  H6  UNL     1     -18.163 -51.448 -12.853  1.00  0.00     0.211 HD
ENDBRANCH   1  40
TORSDOF 12
ENDMDL
MODEL 2
REMARK VINA RESULT: -8.081611299      1.967      3.110
REMARK  12 active torsions:
REMARK  status: ('A' for Active; 'I' for Inactive)
REMARK    1  A    between atoms: C2_2  and  C3_3 
REMARK    2  A    between atoms: C2_2  and  C4_6 
REMARK    3  A    between atoms: C3_3  and  O1_4 
REMARK    4  A    between atoms: C15_17  and  O2_18 
REMARK    5  A    between atoms: C18_22  and  C19_23 
REMARK    6  A    between atoms: C19_23  and  C20_25 
REMARK    7  A    between atoms: C20_25  and  O4_26 
REMARK    8  A    between atoms: C20_25  and  C21_28 
REMARK    9  A    between atoms: C21_28  and  O5_29 
REMARK   10  A    between atoms: C21_28  and  C22_31 
REMARK   11  A    between atoms: C22_31  and  C24_33 
REMARK   12  A    between atoms: C24_33  and  O6_35 
ROOT
HETATM    1  C24 UNL     1     -21.559 -48.934 -11.669  1.00  0.00     0.148 C 
HETATM    2  C25 UNL     1     -22.894 -49.399 -12.235  1.00  0.00     0.063 C 
HETATM    3  C26 UNL     1     -21.362 -47.565 -12.152  1.00  0.00     0.097 C 
HETATM    4  N1  UNL     1     -21.191 -46.492 -12.544  1.00  0.00    -0.194 NA
ENDROOT
BRANCH   1   5
HETATM    5  C22 UNL     1     -20.437 -49.840 -12.141  1.00  0.00     0.062 C 
HETATM    6  C23 UNL     1     -19.229 -49.571 -11.285  1.00  0.00     0.017 C 
BRANCH   5   7
HETATM    7  C21 UNL     1     -20.862 -51.288 -12.127  1.00  0.00     0.162 C 
BRANCH   7   8
HETATM    8  C20 UNL     1     -20.255 -52.093 -13.252  1.00  0.00     0.217 C 
BRANCH   8   9
HETATM    9  C19 UNL     1     -21.197 -53.005 -13.930  1.00  0.00     0.162 C 
HETATM   10  O3  UNL     1     -21.455 -52.725 -15.112  1.00  0.00    -0.295 OA
BRANCH   9  11
HETATM   11  C18 UNL     1     -21.783 -54.125 -13.298  1.00  0.00     0.069 C 
HETATM   12  C16 UNL     1     -23.321 -54.233 -13.442  1.00  0.00    -0.004 C 
HETATM   13  C15 UNL     1     -24.034 -53.073 -12.861  1.00  0.00     0.128 C 
HETATM   14  C17 UNL     1     -23.676 -54.558 -14.859  1.00  0.00     0.019 C 
HETATM   15  C29 UNL     1     -23.461 -55.405 -12.514  1.00  0.00     0.001 C 
HETATM   16  C14 UNL     1     -25.451 -53.477 -12.512  1.00  0.00     0.038 C 
HETATM   17  C13 UNL     1     -25.531 -54.605 -11.541  1.00  0.00     0.001 C 
HETATM   18  C7  UNL     1     -26.926 -54.917 -11.203  1.00  0.00    -0.036 C 
HETATM   19  C12 UNL     1     -24.799 -55.831 -12.093  1.00  0.00    -0.005 C 
HETATM   20  C6  UNL     1     -27.186 -56.121 -10.380  1.00  0.00     0.010 C 
HETATM   21  C8  UNL     1     -27.551 -53.709 -10.530  1.00  0.00     0.016 C 
HETATM   22  C9  UNL     1     -27.689 -55.225 -12.482  1.00  0.00     0.002 C 
HETATM   23  C5  UNL     1     -28.355 -56.888 -11.028  1.00  0.00     0.010 C 
HETATM   24  C4  UNL     1     -28.952 -55.758 -11.848  1.00  0.00     0.020 C 
HETATM   25  C10 UNL     1     -26.972 -56.180 -13.368  1.00  0.00     0.006 C 
HETATM   26  C11 UNL     1     -25.627 -56.654 -12.983  1.00  0.00     0.006 C 
HETATM   27  C28 UNL     1     -22.562 -56.400 -13.130  1.00  0.00     0.007 C 
HETATM   28  C27 UNL     1     -21.395 -55.515 -13.613  1.00  0.00     0.013 C 
BRANCH  13  29
HETATM   29  O2  UNL     1     -23.407 -52.707 -11.666  1.00  0.00    -0.395 OA
ATOM     30  H2  UNL     1     -23.782 -51.875 -11.400  1.00  0.00     0.210 HD
ENDBRANCH  13  29
BRANCH  24  31
HETATM   31  C2  UNL     1     -30.049 -56.096 -12.711  1.00  0.00    -0.061 C 
HETATM   32  C1  UNL     1     -30.649 -57.260 -12.726  1.00  0.00     0.017 C 
BRANCH  31  33
HETATM   33  C3  UNL     1     -30.544 -55.036 -13.650  1.00  0.00     0.198 C 
BRANCH  33  34
HETATM   34  O1  UNL     1     -31.354 -55.587 -14.641  1.00  0.00    -0.397 OA
ATOM     35  H1  UNL     1     -32.271 -55.402 -14.473  1.00  0.00     0.209 HD
ENDBRANCH  33  34
ENDBRANCH  31  33
ENDBRANCH  24  31
ENDBRANCH   9  11
ENDBRANCH   8   9
BRANCH   8  36
HETATM   36  O4  UNL     1     -19.198 -52.806 -12.647  1.00  0.00    -0.385 OA
ATOM     37  H4  UNL     1     -19.469 -53.683 -12.404  1.00  0.00     0.210 HD
ENDBRANCH   8  36
ENDBRANCH   7   8
BRANCH   7  38
HETATM   38  O5  UNL     1     -20.519 -51.810 -10.878  1.00  0.00    -0.392 OA
ATOM     39  H5  UNL     1     -21.020 -51.404 -10.181  1.00  0.00     0.210 HD
ENDBRANCH   7  38
ENDBRANCH   5   7
ENDBRANCH   1   5
BRANCH   1  40
HETATM   40  O6  UNL     1     -21.678 -48.890 -10.298  1.00  0.00    -0.375 OA
ATOM     41  H6  UNL     1     -22.535 -48.604 -10.007  1.00  0.00     0.211 HD
ENDBRANCH   1  40
TORSDOF 12
ENDMDL
MODEL 3
REMARK VINA RESULT: -8.043414313      0.862      1.014
REMARK  12 active torsions:
REMARK  status: ('A' for Active; 'I' for Inactive)
REMARK    1  A    between atoms: C2_2  and  C3_3 
REMARK    2  A    between atoms: C2_2  and  C4_6 
REMARK    3  A    between atoms: C3_3  and  O1_4 
REMARK    4  A    between atoms: C15_17  and  O2_18 
REMARK    5  A    between atoms: C18_22  and  C19_23 
REMARK    6  A    between atoms: C19_23  and  C20_25 
REMARK    7  A    between atoms: C20_25  and  O4_26 
REMARK    8  A    between atoms: C20_25  and  C21_28 
REMARK    9  A    between atoms: C21_28  and  O5_29 
REMARK   10  A    between atoms: C21_28  and  C22_31 
REMARK   11  A    between atoms: C22_31  and  C24_33 
REMARK   12  A    between atoms: C24_33  and  O6_35 
ROOT
HETATM    1  C24 UNL     1     -20.295 -50.747 -11.544  1.00  0.00     0.148 C 
HETATM    2  C25 UNL     1     -18.966 -50.010 -11.438  1.00  0.00     0.063 C 
HETATM    3  C26 UNL     1     -20.361 -51.281 -12.907  1.00  0.00     0.097 C 
HETATM    4  N1  UNL     1     -20.428 -51.690 -13.985  1.00  0.00    -0.194 NA
ENDROOT
BRANCH   1   5
HETATM    5  C22 UNL     1     -21.451 -49.800 -11.280  1.00  0.00     0.062 C 
HETATM    6  C23 UNL     1     -20.992 -48.404 -11.602  1.00  0.00     0.017 C 
BRANCH   5   7
HETATM    7  C21 UNL     1     -22.680 -50.212 -12.054  1.00  0.00     0.162 C 
BRANCH   7   8
HETATM    8  C20 UNL     1     -23.364 -51.427 -11.472  1.00  0.00     0.217 C 
BRANCH   8   9
HETATM    9  C19 UNL     1     -24.063 -52.268 -12.462  1.00  0.00     0.162 C 
HETATM   10  O3  UNL     1     -24.464 -51.678 -13.478  1.00  0.00    -0.295 OA
BRANCH   9  11
HETATM   11  C18 UNL     1     -24.279 -53.654 -12.288  1.00  0.00     0.069 C 
HETATM   12  C16 UNL     1     -25.705 -54.148 -12.636  1.00  0.00    -0.004 C 
HETATM   13  C15 UNL     1     -26.751 -53.509 -11.805  1.00  0.00     0.128 C 
HETATM   14  C17 UNL     1     -25.925 -54.066 -14.113  1.00  0.00     0.019 C 
HETATM   15  C29 UNL     1     -25.485 -55.551 -12.147  1.00  0.00     0.001 C 
HETATM   16  C14 UNL     1     -27.977 -54.399 -11.767  1.00  0.00     0.038 C 
HETATM   17  C13 UNL     1     -27.713 -55.759 -11.217  1.00  0.00     0.001 C 
HETATM   18  C7  UNL     1     -28.946 -56.556 -11.159  1.00  0.00    -0.036 C 
HETATM   19  C12 UNL     1     -26.629 -56.461 -12.039  1.00  0.00    -0.005 C 
HETATM   20  C6  UNL     1     -28.828 -57.986 -10.794  1.00  0.00     0.010 C 
HETATM   21  C8  UNL     1     -29.924 -55.880 -10.216  1.00  0.00     0.016 C 
HETATM   22  C9  UNL     1     -29.559 -56.624 -12.549  1.00  0.00     0.002 C 
HETATM   23  C5  UNL     1     -29.691 -58.796 -11.781  1.00  0.00     0.010 C 
HETATM   24  C4  UNL     1     -30.600 -57.679 -12.266  1.00  0.00     0.020 C 
HETATM   25  C10 UNL     1     -28.569 -56.975 -13.602  1.00  0.00     0.006 C 
HETATM   26  C11 UNL     1     -27.148 -57.140 -13.234  1.00  0.00     0.006 C 
HETATM   27  C28 UNL     1     -24.313 -55.976 -12.937  1.00  0.00     0.007 C 
HETATM   28  C27 UNL     1     -23.474 -54.683 -12.978  1.00  0.00     0.013 C 
BRANCH  13  29
HETATM   29  O2  UNL     1     -26.284 -53.401 -10.492  1.00  0.00    -0.395 OA
ATOM     30  H2  UNL     1     -27.044 -53.254  -9.939  1.00  0.00     0.210 HD
ENDBRANCH  13  29
BRANCH  24  31
HETATM   31  C2  UNL     1     -31.527 -58.010 -13.312  1.00  0.00    -0.061 C 
HETATM   32  C1  UNL     1     -31.493 -59.118 -14.010  1.00  0.00     0.017 C 
BRANCH  31  33
HETATM   33  C3  UNL     1     -32.613 -57.021 -13.614  1.00  0.00     0.198 C 
BRANCH  33  34
HETATM   34  O1  UNL     1     -32.286 -56.245 -14.725  1.00  0.00    -0.397 OA
ATOM     35  H1  UNL     1     -32.887 -55.515 -14.819  1.00  0.00     0.209 HD
ENDBRANCH  33  34
ENDBRANCH  31  33
ENDBRANCH  24  31
ENDBRANCH   9  11
ENDBRANCH   8   9
BRANCH   8  36
HETATM   36  O4  UNL     1     -24.263 -50.904 -10.518  1.00  0.00    -0.385 OA
ATOM     37  H4  UNL     1     -24.258 -49.955 -10.525  1.00  0.00     0.210 HD
ENDBRANCH   8  36
ENDBRANCH   7   8
BRANCH   7  38
HETATM   38  O5  UNL     1     -23.536 -49.110 -12.094  1.00  0.00    -0.392 OA
ATOM     39  H5  UNL     1     -23.598 -48.747 -12.969  1.00  0.00     0.210 HD
ENDBRANCH   7  38
ENDBRANCH   5   7
ENDBRANCH   1   5
BRANCH   1  40
HETATM   40  O6  UNL     1     -20.256 -51.809 -10.670  1.00  0.00    -0.375 OA
ATOM     41  H6  UNL     1     -19.870 -51.589  -9.831  1.00  0.00     0.211 HD
ENDBRANCH   1  40
TORSDOF 12
ENDMDL
MODEL 4
REMARK VINA RESULT: -7.992556270      3.163      8.779
REMARK  12 active torsions:
REMARK  status: ('A' for Active; 'I' for Inactive)
REMARK    1  A    between atoms: C2_2  and  C3_3 
REMARK    2  A    between atoms: C2_2  and  C4_6 
REMARK    3  A    between atoms: C3_3  and  O1_4 
REMARK    4  A    between atoms: C15_17  and  O2_18 
REMARK    5  A    between atoms: C18_22  and  C19_23 
REMARK    6  A    between atoms: C19_23  and  C20_25 
REMARK    7  A    between atoms: C20_25  and  O4_26 
REMARK    8  A    between atoms: C20_25  and  C21_28 
REMARK    9  A    between atoms: C21_28  and  O5_29 
REMARK   10  A    between atoms: C21_28  and  C22_31 
REMARK   11  A    between atoms: C22_31  and  C24_33 
REMARK   12  A    between atoms: C24_33  and  O6_35 
ROOT
HETATM    1  C24 UNL     1     -27.147 -57.028  -7.568  1.00  0.00     0.148 C 
HETATM    2  C25 UNL     1     -25.915 -56.138  -7.473  1.00  0.00     0.063 C 
HETATM    3  C26 UNL     1     -26.654 -58.407  -7.611  1.00  0.00     0.097 C 
HETATM    4  N1  UNL     1     -26.272 -59.496  -7.663  1.00  0.00    -0.194 NA
ENDROOT
BRANCH   1   5
HETATM    5  C22 UNL     1     -27.943 -56.702  -8.818  1.00  0.00     0.062 C 
HETATM    6  C23 UNL     1     -29.330 -57.260  -8.645  1.00  0.00     0.017 C 
BRANCH   5   7
HETATM    7  C21 UNL     1     -27.933 -55.219  -9.098  1.00  0.00     0.162 C 
BRANCH   7   8
HETATM    8  C20 UNL     1     -28.165 -54.892 -10.555  1.00  0.00     0.217 C 
BRANCH   8   9
HETATM    9  C19 UNL     1     -27.375 -53.753 -11.061  1.00  0.00     0.162 C 
HETATM   10  O3  UNL     1     -27.290 -52.780 -10.295  1.00  0.00    -0.295 OA
BRANCH   9  11
HETATM   11  C18 UNL     1     -26.750 -53.744 -12.329  1.00  0.00     0.069 C 
HETATM   12  C16 UNL     1     -25.230 -54.040 -12.317  1.00  0.00    -0.004 C 
HETATM   13  C15 UNL     1     -24.461 -53.055 -11.524  1.00  0.00     0.128 C 
HETATM   14  C17 UNL     1     -24.996 -55.473 -11.957  1.00  0.00     0.019 C 
HETATM   15  C29 UNL     1     -25.026 -53.756 -13.777  1.00  0.00     0.001 C 
HETATM   16  C14 UNL     1     -23.024 -53.037 -12.002  1.00  0.00     0.038 C 
HETATM   17  C13 UNL     1     -22.876 -52.690 -13.445  1.00  0.00     0.001 C 
HETATM   18  C7  UNL     1     -21.461 -52.639 -13.836  1.00  0.00    -0.036 C 
HETATM   19  C12 UNL     1     -23.663 -53.678 -14.309  1.00  0.00    -0.005 C 
HETATM   20  C6  UNL     1     -21.147 -52.472 -15.274  1.00  0.00     0.010 C 
HETATM   21  C8  UNL     1     -20.771 -51.544 -13.045  1.00  0.00     0.016 C 
HETATM   22  C9  UNL     1     -20.808 -53.975 -13.512  1.00  0.00     0.002 C 
HETATM   23  C5  UNL     1     -20.043 -53.485 -15.634  1.00  0.00     0.010 C 
HETATM   24  C4  UNL     1     -19.504 -53.750 -14.238  1.00  0.00     0.020 C 
HETATM   25  C10 UNL     1     -21.605 -55.138 -13.984  1.00  0.00     0.006 C 
HETATM   26  C11 UNL     1     -22.919 -54.906 -14.619  1.00  0.00     0.006 C 
HETATM   27  C28 UNL     1     -25.983 -54.683 -14.412  1.00  0.00     0.007 C 
HETATM   28  C27 UNL     1     -27.177 -54.622 -13.437  1.00  0.00     0.013 C 
BRANCH  13  29
HETATM   29  O2  UNL     1     -24.983 -51.779 -11.755  1.00  0.00    -0.395 OA
ATOM     30  H2  UNL     1     -25.930 -51.864 -11.764  1.00  0.00     0.210 HD
ENDBRANCH  13  29
BRANCH  24  31
HETATM   31  C2  UNL     1     -18.485 -54.754 -14.120  1.00  0.00    -0.061 C 
HETATM   32  C1  UNL     1     -18.174 -55.368 -13.005  1.00  0.00     0.017 C 
BRANCH  31  33
HETATM   33  C3  UNL     1     -17.735 -55.131 -15.364  1.00  0.00     0.198 C 
BRANCH  33  34
HETATM   34  O1  UNL     1     -16.570 -54.376 -15.491  1.00  0.00    -0.397 OA
ATOM     35  H1  UNL     1     -15.800 -54.912 -15.343  1.00  0.00     0.209 HD
ENDBRANCH  33  34
ENDBRANCH  31  33
ENDBRANCH  24  31
ENDBRANCH   9  11
ENDBRANCH   8   9
BRANCH   8  36
HETATM   36  O4  UNL     1     -29.549 -54.635 -10.644  1.00  0.00    -0.385 OA
ATOM     37  H4  UNL     1     -29.841 -54.629 -11.548  1.00  0.00     0.210 HD
ENDBRANCH   8  36
ENDBRANCH   7   8
BRANCH   7  38
HETATM   38  O5  UNL     1     -28.901 -54.634  -8.280  1.00  0.00    -0.392 OA
ATOM     39  H5  UNL     1     -29.541 -55.270  -7.986  1.00  0.00     0.210 HD
ENDBRANCH   7  38
ENDBRANCH   5   7
ENDBRANCH   1   5
BRANCH   1  40
HETATM   40  O6  UNL     1     -27.870 -56.869  -6.408  1.00  0.00    -0.375 OA
ATOM     41  H6  UNL     1     -27.827 -55.986  -6.060  1.00  0.00     0.211 HD
ENDBRANCH   1  40
TORSDOF 12
ENDMDL
MODEL 5
REMARK VINA RESULT: -7.905992608      2.460      3.130
REMARK  12 active torsions:
REMARK  status: ('A' for Active; 'I' for Inactive)
REMARK    1  A    between atoms: C2_2  and  C3_3 
REMARK    2  A    between atoms: C2_2  and  C4_6 
REMARK    3  A    between atoms: C3_3  and  O1_4 
REMARK    4  A    between atoms: C15_17  and  O2_18 
REMARK    5  A    between atoms: C18_22  and  C19_23 
REMARK    6  A    between atoms: C19_23  and  C20_25 
REMARK    7  A    between atoms: C20_25  and  O4_26 
REMARK    8  A    between atoms: C20_25  and  C21_28 
REMARK    9  A    between atoms: C21_28  and  O5_29 
REMARK   10  A    between atoms: C21_28  and  C22_31 
REMARK   11  A    between atoms: C22_31  and  C24_33 
REMARK   12  A    between atoms: C24_33  and  O6_35 
ROOT
HETATM    1  C24 UNL     1     -21.237 -51.348 -11.676  1.00  0.00     0.148 C 
HETATM    2  C25 UNL     1     -20.298 -50.237 -11.224  1.00  0.00     0.063 C 
HETATM    3  C26 UNL     1     -20.900 -51.626 -13.074  1.00  0.00     0.097 C 
HETATM    4  N1  UNL     1     -20.652 -51.839 -14.183  1.00  0.00    -0.194 NA
ENDROOT
BRANCH   1   5
HETATM    5  C22 UNL     1     -22.683 -50.907 -11.548  1.00  0.00     0.062 C 
HETATM    6  C23 UNL     1     -22.794 -49.509 -12.092  1.00  0.00     0.017 C 
BRANCH   5   7
HETATM    7  C21 UNL     1     -23.612 -51.882 -12.229  1.00  0.00     0.162 C 
BRANCH   7   8
HETATM    8  C20 UNL     1     -24.545 -52.580 -11.266  1.00  0.00     0.217 C 
BRANCH   8   9
HETATM    9  C19 UNL     1     -25.556 -53.441 -11.909  1.00  0.00     0.162 C 
HETATM   10  O3  UNL     1     -26.344 -52.861 -12.673  1.00  0.00    -0.295 OA
BRANCH   9  11
HETATM   11  C18 UNL     1     -25.645 -54.834 -11.684  1.00  0.00     0.069 C 
HETATM   12  C16 UNL     1     -27.061 -55.355 -11.334  1.00  0.00    -0.004 C 
HETATM   13  C15 UNL     1     -27.604 -54.750 -10.096  1.00  0.00     0.128 C 
HETATM   14  C17 UNL     1     -27.948 -55.260 -12.534  1.00  0.00     0.019 C 
HETATM   15  C29 UNL     1     -26.617 -56.758 -11.035  1.00  0.00     0.001 C 
HETATM   16  C14 UNL     1     -28.656 -55.667  -9.507  1.00  0.00     0.038 C 
HETATM   17  C13 UNL     1     -28.146 -57.028  -9.175  1.00  0.00     0.001 C 
HETATM   18  C7  UNL     1     -29.196 -57.853  -8.562  1.00  0.00    -0.036 C 
HETATM   19  C12 UNL     1     -27.564 -57.695 -10.424  1.00  0.00    -0.005 C 
HETATM   20  C6  UNL     1     -28.900 -59.285  -8.326  1.00  0.00     0.010 C 
HETATM   21  C8  UNL     1     -29.627 -57.212  -7.257  1.00  0.00     0.016 C 
HETATM   22  C9  UNL     1     -30.388 -57.918  -9.505  1.00  0.00     0.002 C 
HETATM   23  C5  UNL     1     -30.114 -60.101  -8.810  1.00  0.00     0.010 C 
HETATM   24  C4  UNL     1     -31.161 -59.000  -8.789  1.00  0.00     0.020 C 
HETATM   25  C10 UNL     1     -30.003 -58.233 -10.905  1.00  0.00     0.006 C 
HETATM   26  C11 UNL     1     -28.573 -58.371 -11.250  1.00  0.00     0.006 C 
HETATM   27  C28 UNL     1     -25.946 -57.147 -12.292  1.00  0.00     0.007 C 
HETATM   28  C27 UNL     1     -25.243 -55.835 -12.693  1.00  0.00     0.013 C 
BRANCH  13  29
HETATM   29  O2  UNL     1     -26.577 -54.648  -9.153  1.00  0.00    -0.395 OA
ATOM     30  H2  UNL     1     -25.863 -55.195  -9.460  1.00  0.00     0.210 HD
ENDBRANCH  13  29
BRANCH  24  31
HETATM   31  C2  UNL     1     -32.464 -59.339  -9.286  1.00  0.00    -0.061 C 
HETATM   32  C1  UNL     1     -33.363 -58.466  -9.668  1.00  0.00     0.017 C 
BRANCH  31  33
HETATM   33  C3  UNL     1     -32.812 -60.795  -9.381  1.00  0.00     0.198 C 
BRANCH  33  34
HETATM   34  O1  UNL     1     -34.078 -61.041  -8.853  1.00  0.00    -0.397 OA
ATOM     35  H1  UNL     1     -34.611 -60.254  -8.867  1.00  0.00     0.209 HD
ENDBRANCH  33  34
ENDBRANCH  31  33
ENDBRANCH  24  31
ENDBRANCH   9  11
ENDBRANCH   8   9
BRANCH   8  36
HETATM   36  O4  UNL     1     -25.151 -51.533 -10.540  1.00  0.00    -0.385 OA
ATOM     37  H4  UNL     1     -25.452 -51.833  -9.691  1.00  0.00     0.210 HD
ENDBRANCH   8  36
ENDBRANCH   7   8
BRANCH   7  38
HETATM   38  O5  UNL     1     -24.316 -51.174 -13.204  1.00  0.00    -0.392 OA
ATOM     39  H5  UNL     1     -23.856 -50.385 -13.464  1.00  0.00     0.210 HD
ENDBRANCH   7  38
ENDBRANCH   5   7
ENDBRANCH   1   5
BRANCH   1  40
HETATM   40  O6  UNL     1     -20.945 -52.470 -10.935  1.00  0.00    -0.375 OA
ATOM     41  H6  UNL     1     -21.057 -52.340 -10.000  1.00  0.00     0.211 HD
ENDBRANCH   1  40
TORSDOF 12
ENDMDL
