MODEL 1
REMARK VINA RESULT: -8.254792997      0.000      0.000
REMARK  11 active torsions:
REMARK  status: ('A' for Active; 'I' for Inactive)
REMARK    1  A    between atoms: O1_2  and  C2_3 
REMARK    2  A    between atoms: C14_17  and  C15_18 
REMARK    3  A    between atoms: C15_18  and  C16_19 
REMARK    4  A    between atoms: C16_19  and  C17_20 
REMARK    5  A    between atoms: C17_20  and  O2_21 
REMARK    6  A    between atoms: C17_20  and  C18_23 
REMARK    7  A    between atoms: C18_23  and  O4_25 
REMARK    8  A    between atoms: O4_25  and  C19_26 
REMARK    9  A    between atoms: C19_26  and  C20_27 
REMARK   10  A    between atoms: C19_26  and  N2_31 
REMARK   11  A    between atoms: C20_27  and  C21_28 
REMARK       I    between atoms: N2_31  and  C24_33 
REMARK       I    between atoms: C24_33  and  N3_35 
ROOT
HETATM    1  C2  UNL     1      19.908  11.922  51.924  1.00  0.00     0.164 C 
HETATM    2  C3  UNL     1      20.069  11.013  50.707  1.00  0.00     0.073 C 
HETATM    3  C4  UNL     1      21.023  11.773  49.820  1.00  0.00    -0.008 C 
HETATM    4  C5  UNL     1      21.974  10.942  49.044  1.00  0.00     0.010 C 
HETATM    5  C6  UNL     1      21.579  12.865  50.630  1.00  0.00     0.008 C 
HETATM    6  C7  UNL     1      20.343  13.312  51.432  1.00  0.00     0.074 C 
HETATM    7  C8  UNL     1      22.640  12.557  51.630  1.00  0.00     0.022 A 
HETATM    8  C9  UNL     1      23.726  13.573  51.612  1.00  0.00     0.024 C 
HETATM    9  C10 UNL     1      24.887  13.389  52.515  1.00  0.00     0.033 C 
HETATM   10  C11 UNL     1      24.711  14.305  53.686  1.00  0.00     0.120 C 
HETATM   11  N1  UNL     1      25.645  14.142  54.745  1.00  0.00    -0.421 N 
ATOM     12  H1  UNL     1      25.375  14.207  55.726  1.00  0.00     0.153 HD
HETATM   13  C12 UNL     1      26.996  13.879  54.335  1.00  0.00     0.114 C 
HETATM   14  C13 UNL     1      27.156  12.356  54.264  1.00  0.00     0.026 C 
HETATM   15  C14 UNL     1      25.785  11.722  54.173  1.00  0.00     0.017 C 
HETATM   16  C25 UNL     1      25.209  11.982  52.786  1.00  0.00     0.132 C 
HETATM   17  O6  UNL     1      24.293  11.041  52.534  1.00  0.00    -0.376 OA
HETATM   18  C26 UNL     1      23.084  11.258  52.041  1.00  0.00     0.163 A 
HETATM   19  C27 UNL     1      22.037  12.058  52.870  1.00  0.00     0.166 A 
HETATM   20  O7  UNL     1      20.800  11.532  52.859  1.00  0.00    -0.346 OA
ENDROOT
BRANCH  15  21
HETATM   21  C15 UNL     1      25.871  10.216  54.389  1.00  0.00     0.010 C 
BRANCH  21  22
HETATM   22  C16 UNL     1      26.974   9.795  55.280  1.00  0.00     0.042 C 
BRANCH  22  23
HETATM   23  C17 UNL     1      27.819   8.737  54.618  1.00  0.00     0.217 C 
BRANCH  23  24
HETATM   24  O2  UNL     1      29.171   9.195  54.714  1.00  0.00    -0.386 OA
ATOM     25  H2  UNL     1      29.712   8.414  54.712  1.00  0.00     0.210 HD
ENDBRANCH  23  24
BRANCH  23  26
HETATM   26  C18 UNL     1      27.799   7.427  55.272  1.00  0.00     0.289 C 
HETATM   27  O3  UNL     1      26.717   6.738  55.284  1.00  0.00    -0.262 OA
BRANCH  26  28
HETATM   28  O4  UNL     1      28.882   6.836  55.905  1.00  0.00    -0.293 OA
BRANCH  28  29
HETATM   29  C19 UNL     1      28.846   6.574  57.325  1.00  0.00     0.234 C 
BRANCH  29  30
HETATM   30  C20 UNL     1      30.243   6.830  57.827  1.00  0.00     0.058 C 
BRANCH  30  31
HETATM   31  C21 UNL     1      30.812   8.113  57.293  1.00  0.00    -0.019 C 
HETATM   32  C22 UNL     1      30.271   9.258  58.152  1.00  0.00     0.009 C 
HETATM   33  C23 UNL     1      32.323   8.145  57.456  1.00  0.00     0.009 C 
ENDBRANCH  30  31
ENDBRANCH  29  30
BRANCH  29  34
HETATM   34  N2  UNL     1      28.470   5.179  57.490  1.00  0.00    -0.315 N 
HETATM   35  C24 UNL     1      27.335   4.848  58.247  1.00  0.00     0.332 C 
HETATM   36  O5  UNL     1      26.618   5.730  58.795  1.00  0.00    -0.246 OA
HETATM   37  N3  UNL     1      26.960   3.492  58.417  1.00  0.00    -0.250 N 
HETATM   38 CL1  UNL     1      25.569   3.062  59.343  1.00  0.00     0.015 Cl
ATOM     39  H3  UNL     1      27.522   2.759  57.986  1.00  0.00     0.185 HD
ATOM     40  H2  UNL     1      29.028   4.443  57.056  1.00  0.00     0.166 HD
ENDBRANCH  29  34
ENDBRANCH  28  29
ENDBRANCH  26  28
ENDBRANCH  23  26
ENDBRANCH  22  23
ENDBRANCH  21  22
ENDBRANCH  15  21
BRANCH   1  41
HETATM   41  O1  UNL     1      18.586  11.924  52.315  1.00  0.00    -0.360 OA
HETATM   42  C1  UNL     1      18.418  11.854  53.675  1.00  0.00     0.205 C 
ENDBRANCH   1  41
TORSDOF 11
ENDMDL
MODEL 2
REMARK VINA RESULT: -8.212802562      6.335      9.416
REMARK  11 active torsions:
REMARK  status: ('A' for Active; 'I' for Inactive)
REMARK    1  A    between atoms: O1_2  and  C2_3 
REMARK    2  A    between atoms: C14_17  and  C15_18 
REMARK    3  A    between atoms: C15_18  and  C16_19 
REMARK    4  A    between atoms: C16_19  and  C17_20 
REMARK    5  A    between atoms: C17_20  and  O2_21 
REMARK    6  A    between atoms: C17_20  and  C18_23 
REMARK    7  A    between atoms: C18_23  and  O4_25 
REMARK    8  A    between atoms: O4_25  and  C19_26 
REMARK    9  A    between atoms: C19_26  and  C20_27 
REMARK   10  A    between atoms: C19_26  and  N2_31 
REMARK   11  A    between atoms: C20_27  and  C21_28 
REMARK       I    between atoms: N2_31  and  C24_33 
REMARK       I    between atoms: C24_33  and  N3_35 
ROOT
HETATM    1  C2  UNL     1      20.830  11.622  48.874  1.00  0.00     0.164 C 
HETATM    2  C3  UNL     1      19.500  12.128  49.428  1.00  0.00     0.073 C 
HETATM    3  C4  UNL     1      19.457  11.559  50.824  1.00  0.00    -0.008 C 
HETATM    4  C5  UNL     1      18.818  12.421  51.846  1.00  0.00     0.010 C 
HETATM    5  C6  UNL     1      20.801  11.042  51.115  1.00  0.00     0.008 C 
HETATM    6  C7  UNL     1      21.189  10.419  49.762  1.00  0.00     0.074 C 
HETATM    7  C8  UNL     1      21.886  12.003  51.462  1.00  0.00     0.022 A 
HETATM    8  C9  UNL     1      22.716  11.510  52.594  1.00  0.00     0.024 C 
HETATM    9  C10 UNL     1      23.812  12.371  53.097  1.00  0.00     0.033 C 
HETATM   10  C11 UNL     1      25.103  11.839  52.555  1.00  0.00     0.120 C 
HETATM   11  N1  UNL     1      26.252  12.642  52.795  1.00  0.00    -0.421 N 
ATOM     12  H1  UNL     1      26.985  12.769  52.097  1.00  0.00     0.153 HD
HETATM   13  C12 UNL     1      26.308  13.261  54.089  1.00  0.00     0.114 C 
HETATM   14  C13 UNL     1      25.653  14.641  53.956  1.00  0.00     0.026 C 
HETATM   15  C14 UNL     1      24.791  14.657  52.712  1.00  0.00     0.017 C 
HETATM   16  C25 UNL     1      23.549  13.808  52.957  1.00  0.00     0.132 C 
HETATM   17  O6  UNL     1      22.594  14.220  52.117  1.00  0.00    -0.376 OA
HETATM   18  C26 UNL     1      21.829  13.432  51.377  1.00  0.00     0.163 A 
HETATM   19  C27 UNL     1      22.463  12.576  50.241  1.00  0.00     0.166 A 
HETATM   20  O7  UNL     1      21.764  12.572  49.094  1.00  0.00    -0.346 OA
ENDROOT
BRANCH  15  21
HETATM   21  C15 UNL     1      24.352  16.078  52.379  1.00  0.00     0.010 C 
BRANCH  21  22
HETATM   22  C16 UNL     1      24.228  16.964  53.556  1.00  0.00     0.042 C 
BRANCH  22  23
HETATM   23  C17 UNL     1      22.982  17.807  53.460  1.00  0.00     0.217 C 
BRANCH  23  24
HETATM   24  O2  UNL     1      22.376  17.475  52.208  1.00  0.00    -0.386 OA
ATOM     25  H2  UNL     1      21.563  17.966  52.172  1.00  0.00     0.210 HD
ENDBRANCH  23  24
BRANCH  23  26
HETATM   26  C18 UNL     1      21.965  17.530  54.476  1.00  0.00     0.289 C 
HETATM   27  O3  UNL     1      21.469  18.495  55.160  1.00  0.00    -0.262 OA
BRANCH  26  28
HETATM   28  O4  UNL     1      21.467  16.272  54.783  1.00  0.00    -0.293 OA
BRANCH  28  29
HETATM   29  C19 UNL     1      20.057  15.990  54.648  1.00  0.00     0.234 C 
BRANCH  29  30
HETATM   30  C20 UNL     1      19.934  14.488  54.655  1.00  0.00     0.058 C 
BRANCH  30  31
HETATM   31  C21 UNL     1      18.921  14.007  55.654  1.00  0.00    -0.019 C 
HETATM   32  C22 UNL     1      18.769  15.089  56.725  1.00  0.00     0.009 C 
HETATM   33  C23 UNL     1      17.551  13.862  55.009  1.00  0.00     0.009 C 
ENDBRANCH  30  31
ENDBRANCH  29  30
BRANCH  29  34
HETATM   34  N2  UNL     1      19.631  16.552  53.376  1.00  0.00    -0.315 N 
HETATM   35  C24 UNL     1      18.391  17.202  53.282  1.00  0.00     0.332 C 
HETATM   36  O5  UNL     1      17.623  17.322  54.276  1.00  0.00    -0.246 OA
HETATM   37  N3  UNL     1      17.963  17.751  52.047  1.00  0.00    -0.250 N 
HETATM   38 CL1  UNL     1      16.443  18.555  51.908  1.00  0.00     0.015 Cl
ATOM     39  H3  UNL     1      18.564  17.668  51.227  1.00  0.00     0.185 HD
ATOM     40  H2  UNL     1      20.231  16.473  52.555  1.00  0.00     0.166 HD
ENDBRANCH  29  34
ENDBRANCH  28  29
ENDBRANCH  26  28
ENDBRANCH  23  26
ENDBRANCH  22  23
ENDBRANCH  21  22
ENDBRANCH  15  21
BRANCH   1  41
HETATM   41  O1  UNL     1      20.657  11.237  47.562  1.00  0.00    -0.360 OA
HETATM   42  C1  UNL     1      19.376  11.412  47.105  1.00  0.00     0.205 C 
ENDBRANCH   1  41
TORSDOF 11
ENDMDL
MODEL 3
REMARK VINA RESULT: -8.203244124      4.922      5.891
REMARK  11 active torsions:
REMARK  status: ('A' for Active; 'I' for Inactive)
REMARK    1  A    between atoms: O1_2  and  C2_3 
REMARK    2  A    between atoms: C14_17  and  C15_18 
REMARK    3  A    between atoms: C15_18  and  C16_19 
REMARK    4  A    between atoms: C16_19  and  C17_20 
REMARK    5  A    between atoms: C17_20  and  O2_21 
REMARK    6  A    between atoms: C17_20  and  C18_23 
REMARK    7  A    between atoms: C18_23  and  O4_25 
REMARK    8  A    between atoms: O4_25  and  C19_26 
REMARK    9  A    between atoms: C19_26  and  C20_27 
REMARK   10  A    between atoms: C19_26  and  N2_31 
REMARK   11  A    between atoms: C20_27  and  C21_28 
REMARK       I    between atoms: N2_31  and  C24_33 
REMARK       I    between atoms: C24_33  and  N3_35 
ROOT
HETATM    1  C2  UNL     1      20.683  11.719  52.679  1.00  0.00     0.164 C 
HETATM    2  C3  UNL     1      21.231  11.092  51.400  1.00  0.00     0.073 C 
HETATM    3  C4  UNL     1      21.187  12.223  50.403  1.00  0.00    -0.008 C 
HETATM    4  C5  UNL     1      22.293  12.249  49.417  1.00  0.00     0.010 C 
HETATM    5  C6  UNL     1      20.927  13.452  51.165  1.00  0.00     0.008 C 
HETATM    6  C7  UNL     1      19.905  12.957  52.204  1.00  0.00     0.074 C 
HETATM    7  C8  UNL     1      22.040  14.076  51.934  1.00  0.00     0.022 A 
HETATM    8  C9  UNL     1      22.053  15.556  51.782  1.00  0.00     0.024 C 
HETATM    9  C10 UNL     1      23.129  16.329  52.445  1.00  0.00     0.033 C 
HETATM   10  C11 UNL     1      22.557  16.947  53.683  1.00  0.00     0.120 C 
HETATM   11  N1  UNL     1      23.491  17.589  54.543  1.00  0.00    -0.421 N 
ATOM     12  H1  UNL     1      23.429  17.528  55.559  1.00  0.00     0.153 HD
HETATM   13  C12 UNL     1      24.528  18.327  53.878  1.00  0.00     0.114 C 
HETATM   14  C13 UNL     1      25.710  17.369  53.684  1.00  0.00     0.026 C 
HETATM   15  C14 UNL     1      25.211  15.945  53.805  1.00  0.00     0.017 C 
HETATM   16  C25 UNL     1      24.396  15.597  52.565  1.00  0.00     0.132 C 
HETATM   17  O6  UNL     1      24.400  14.268  52.426  1.00  0.00    -0.376 OA
HETATM   18  C26 UNL     1      23.338  13.518  52.175  1.00  0.00     0.163 A 
HETATM   19  C27 UNL     1      22.197  13.407  53.230  1.00  0.00     0.166 A 
HETATM   20  O7  UNL     1      21.728  12.161  53.410  1.00  0.00    -0.346 OA
ENDROOT
BRANCH  15  21
HETATM   21  C15 UNL     1      26.379  14.972  53.908  1.00  0.00     0.010 C 
BRANCH  21  22
HETATM   22  C16 UNL     1      26.123  13.810  54.786  1.00  0.00     0.042 C 
BRANCH  22  23
HETATM   23  C17 UNL     1      26.905  12.608  54.322  1.00  0.00     0.217 C 
BRANCH  23  24
HETATM   24  O2  UNL     1      26.808  12.600  52.895  1.00  0.00    -0.386 OA
ATOM     25  H2  UNL     1      25.934  12.286  52.693  1.00  0.00     0.210 HD
ENDBRANCH  23  24
BRANCH  23  26
HETATM   26  C18 UNL     1      28.338  12.646  54.619  1.00  0.00     0.289 C 
HETATM   27  O3  UNL     1      28.941  11.575  54.986  1.00  0.00    -0.262 OA
BRANCH  26  28
HETATM   28  O4  UNL     1      29.138  13.777  54.541  1.00  0.00    -0.293 OA
BRANCH  28  29
HETATM   29  C19 UNL     1      29.699  14.361  55.736  1.00  0.00     0.234 C 
BRANCH  29  30
HETATM   30  C20 UNL     1      29.060  15.719  55.871  1.00  0.00     0.058 C 
BRANCH  30  31
HETATM   31  C21 UNL     1      28.520  15.957  57.252  1.00  0.00    -0.019 C 
HETATM   32  C22 UNL     1      27.319  16.897  57.128  1.00  0.00     0.009 C 
HETATM   33  C23 UNL     1      27.983  14.668  57.853  1.00  0.00     0.009 C 
ENDBRANCH  30  31
ENDBRANCH  29  30
BRANCH  29  34
HETATM   34  N2  UNL     1      31.133  14.467  55.525  1.00  0.00    -0.315 N 
HETATM   35  C24 UNL     1      32.017  13.810  56.395  1.00  0.00     0.332 C 
HETATM   36  O5  UNL     1      31.605  13.119  57.367  1.00  0.00    -0.246 OA
HETATM   37  N3  UNL     1      33.417  13.909  56.201  1.00  0.00    -0.250 N 
HETATM   38 CL1  UNL     1      34.522  13.110  57.258  1.00  0.00     0.015 Cl
ATOM     39  H3  UNL     1      33.778  14.462  55.424  1.00  0.00     0.185 HD
ATOM     40  H2  UNL     1      31.497  15.017  54.745  1.00  0.00     0.166 HD
ENDBRANCH  29  34
ENDBRANCH  28  29
ENDBRANCH  26  28
ENDBRANCH  23  26
ENDBRANCH  22  23
ENDBRANCH  21  22
ENDBRANCH  15  21
BRANCH   1  41
HETATM   41  O1  UNL     1      19.848  10.817  53.304  1.00  0.00    -0.360 OA
HETATM   42  C1  UNL     1      18.635  11.350  53.660  1.00  0.00     0.205 C 
ENDBRANCH   1  41
TORSDOF 11
ENDMDL
MODEL 4
REMARK VINA RESULT: -8.180900278      2.383      4.074
REMARK  11 active torsions:
REMARK  status: ('A' for Active; 'I' for Inactive)
REMARK    1  A    between atoms: O1_2  and  C2_3 
REMARK    2  A    between atoms: C14_17  and  C15_18 
REMARK    3  A    between atoms: C15_18  and  C16_19 
REMARK    4  A    between atoms: C16_19  and  C17_20 
REMARK    5  A    between atoms: C17_20  and  O2_21 
REMARK    6  A    between atoms: C17_20  and  C18_23 
REMARK    7  A    between atoms: C18_23  and  O4_25 
REMARK    8  A    between atoms: O4_25  and  C19_26 
REMARK    9  A    between atoms: C19_26  and  C20_27 
REMARK   10  A    between atoms: C19_26  and  N2_31 
REMARK   11  A    between atoms: C20_27  and  C21_28 
REMARK       I    between atoms: N2_31  and  C24_33 
REMARK       I    between atoms: C24_33  and  N3_35 
ROOT
HETATM    1  C2  UNL     1      20.536  11.911  52.822  1.00  0.00     0.164 C 
HETATM    2  C3  UNL     1      20.968  11.276  51.502  1.00  0.00     0.073 C 
HETATM    3  C4  UNL     1      21.086  12.452  50.565  1.00  0.00    -0.008 C 
HETATM    4  C5  UNL     1      22.172  12.362  49.561  1.00  0.00     0.010 C 
HETATM    5  C6  UNL     1      21.025  13.664  51.393  1.00  0.00     0.008 C 
HETATM    6  C7  UNL     1      19.951  13.276  52.425  1.00  0.00     0.074 C 
HETATM    7  C8  UNL     1      22.229  14.070  52.171  1.00  0.00     0.022 A 
HETATM    8  C9  UNL     1      22.466  15.537  52.095  1.00  0.00     0.024 C 
HETATM    9  C10 UNL     1      23.655  16.101  52.776  1.00  0.00     0.033 C 
HETATM   10  C11 UNL     1      23.198  16.732  54.055  1.00  0.00     0.120 C 
HETATM   11  N1  UNL     1      24.228  17.177  54.928  1.00  0.00    -0.421 N 
ATOM     12  H1  UNL     1      24.169  17.073  55.941  1.00  0.00     0.153 HD
HETATM   13  C12 UNL     1      25.358  17.783  54.283  1.00  0.00     0.114 C 
HETATM   14  C13 UNL     1      26.378  16.669  54.018  1.00  0.00     0.026 C 
HETATM   15  C14 UNL     1      25.669  15.333  54.076  1.00  0.00     0.017 C 
HETATM   16  C25 UNL     1      24.796  15.179  52.835  1.00  0.00     0.132 C 
HETATM   17  O6  UNL     1      24.596  13.874  52.628  1.00  0.00    -0.376 OA
HETATM   18  C26 UNL     1      23.428  13.309  52.359  1.00  0.00     0.163 A 
HETATM   19  C27 UNL     1      22.296  13.317  53.429  1.00  0.00     0.166 A 
HETATM   20  O7  UNL     1      21.644  12.149  53.554  1.00  0.00    -0.346 OA
ENDROOT
BRANCH  15  21
HETATM   21  C15 UNL     1      26.675  14.189  54.106  1.00  0.00     0.010 C 
BRANCH  21  22
HETATM   22  C16 UNL     1      27.840  14.432  54.984  1.00  0.00     0.042 C 
BRANCH  22  23
HETATM   23  C17 UNL     1      29.089  13.829  54.393  1.00  0.00     0.217 C 
BRANCH  23  24
HETATM   24  O2  UNL     1      30.186  14.513  55.004  1.00  0.00    -0.386 OA
ATOM     25  H2  UNL     1      30.891  14.499  54.367  1.00  0.00     0.210 HD
ENDBRANCH  23  24
BRANCH  23  26
HETATM   26  C18 UNL     1      29.294  12.410  54.691  1.00  0.00     0.289 C 
HETATM   27  O3  UNL     1      29.867  12.066  55.786  1.00  0.00    -0.262 OA
BRANCH  26  28
HETATM   28  O4  UNL     1      28.914  11.360  53.868  1.00  0.00    -0.293 OA
BRANCH  28  29
HETATM   29  C19 UNL     1      28.171  10.243  54.403  1.00  0.00     0.234 C 
BRANCH  29  30
HETATM   30  C20 UNL     1      27.128  10.839  55.312  1.00  0.00     0.058 C 
BRANCH  30  31
HETATM   31  C21 UNL     1      25.734  10.469  54.895  1.00  0.00    -0.019 C 
HETATM   32  C22 UNL     1      24.768  11.447  55.568  1.00  0.00     0.009 C 
HETATM   33  C23 UNL     1      25.548  10.662  53.398  1.00  0.00     0.009 C 
ENDBRANCH  30  31
ENDBRANCH  29  30
BRANCH  29  34
HETATM   34  N2  UNL     1      29.115   9.421  55.144  1.00  0.00    -0.315 N 
HETATM   35  C24 UNL     1      28.778   8.099  55.473  1.00  0.00     0.332 C 
HETATM   36  O5  UNL     1      27.672   7.590  55.143  1.00  0.00    -0.246 OA
HETATM   37  N3  UNL     1      29.688   7.290  56.198  1.00  0.00    -0.250 N 
HETATM   38 CL1  UNL     1      29.297   5.662  56.614  1.00  0.00     0.015 Cl
ATOM     39  H3  UNL     1      30.589   7.676  56.479  1.00  0.00     0.185 HD
ATOM     40  H2  UNL     1      30.018   9.805  55.423  1.00  0.00     0.166 HD
ENDBRANCH  29  34
ENDBRANCH  28  29
ENDBRANCH  26  28
ENDBRANCH  23  26
ENDBRANCH  22  23
ENDBRANCH  21  22
ENDBRANCH  15  21
BRANCH   1  41
HETATM   41  O1  UNL     1      19.579  11.114  53.415  1.00  0.00    -0.360 OA
HETATM   42  C1  UNL     1      18.421  11.783  53.719  1.00  0.00     0.205 C 
ENDBRANCH   1  41
TORSDOF 11
ENDMDL
MODEL 5
REMARK VINA RESULT: -8.141871516      1.487      1.610
REMARK  11 active torsions:
REMARK  status: ('A' for Active; 'I' for Inactive)
REMARK    1  A    between atoms: O1_2  and  C2_3 
REMARK    2  A    between atoms: C14_17  and  C15_18 
REMARK    3  A    between atoms: C15_18  and  C16_19 
REMARK    4  A    between atoms: C16_19  and  C17_20 
REMARK    5  A    between atoms: C17_20  and  O2_21 
REMARK    6  A    between atoms: C17_20  and  C18_23 
REMARK    7  A    between atoms: C18_23  and  O4_25 
REMARK    8  A    between atoms: O4_25  and  C19_26 
REMARK    9  A    between atoms: C19_26  and  C20_27 
REMARK   10  A    between atoms: C19_26  and  N2_31 
REMARK   11  A    between atoms: C20_27  and  C21_28 
REMARK       I    between atoms: N2_31  and  C24_33 
REMARK       I    between atoms: C24_33  and  N3_35 
ROOT
HETATM    1  C2  UNL     1      20.228  11.880  51.867  1.00  0.00     0.164 C 
HETATM    2  C3  UNL     1      20.424  11.005  50.631  1.00  0.00     0.073 C 
HETATM    3  C4  UNL     1      21.425  11.775  49.806  1.00  0.00    -0.008 C 
HETATM    4  C5  UNL     1      22.394  10.951  49.044  1.00  0.00     0.010 C 
HETATM    5  C6  UNL     1      21.965  12.833  50.671  1.00  0.00     0.008 C 
HETATM    6  C7  UNL     1      20.705  13.276  51.436  1.00  0.00     0.074 C 
HETATM    7  C8  UNL     1      22.980  12.476  51.703  1.00  0.00     0.022 A 
HETATM    8  C9  UNL     1      24.082  13.474  51.759  1.00  0.00     0.024 C 
HETATM    9  C10 UNL     1      25.202  13.243  52.702  1.00  0.00     0.033 C 
HETATM   10  C11 UNL     1      24.993  14.127  53.892  1.00  0.00     0.120 C 
HETATM   11  N1  UNL     1      25.881  13.916  54.983  1.00  0.00    -0.421 N 
ATOM     12  H1  UNL     1      25.572  13.956  55.954  1.00  0.00     0.153 HD
HETATM   13  C12 UNL     1      27.242  13.642  54.620  1.00  0.00     0.114 C 
HETATM   14  C13 UNL     1      27.381  12.119  54.509  1.00  0.00     0.026 C 
HETATM   15  C14 UNL     1      26.005  11.512  54.343  1.00  0.00     0.017 C 
HETATM   16  C25 UNL     1      25.490  11.823  52.943  1.00  0.00     0.132 C 
HETATM   17  O6  UNL     1      24.570  10.906  52.626  1.00  0.00    -0.376 OA
HETATM   18  C26 UNL     1      23.385  11.158  52.091  1.00  0.00     0.163 A 
HETATM   19  C27 UNL     1      22.318  11.951  52.902  1.00  0.00     0.166 A 
HETATM   20  O7  UNL     1      21.075  11.447  52.825  1.00  0.00    -0.346 OA
ENDROOT
BRANCH  15  21
HETATM   21  C15 UNL     1      26.058   9.999  54.517  1.00  0.00     0.010 C 
BRANCH  21  22
HETATM   22  C16 UNL     1      27.189   9.524  55.343  1.00  0.00     0.042 C 
BRANCH  22  23
HETATM   23  C17 UNL     1      27.379   8.038  55.182  1.00  0.00     0.217 C 
BRANCH  23  24
HETATM   24  O2  UNL     1      28.690   7.864  54.636  1.00  0.00    -0.386 OA
ATOM     25  H2  UNL     1      28.613   7.177  53.984  1.00  0.00     0.210 HD
ENDBRANCH  23  24
BRANCH  23  26
HETATM   26  C18 UNL     1      27.367   7.271  56.430  1.00  0.00     0.289 C 
HETATM   27  O3  UNL     1      26.786   6.129  56.469  1.00  0.00    -0.262 OA
BRANCH  26  28
HETATM   28  O4  UNL     1      27.947   7.680  57.622  1.00  0.00    -0.293 OA
BRANCH  28  29
HETATM   29  C19 UNL     1      29.065   6.955  58.178  1.00  0.00     0.234 C 
BRANCH  29  30
HETATM   30  C20 UNL     1      30.092   7.996  58.540  1.00  0.00     0.058 C 
BRANCH  30  31
HETATM   31  C21 UNL     1      30.840   8.497  57.337  1.00  0.00    -0.019 C 
HETATM   32  C22 UNL     1      30.525   9.986  57.176  1.00  0.00     0.009 C 
HETATM   33  C23 UNL     1      32.342   8.409  57.559  1.00  0.00     0.009 C 
ENDBRANCH  30  31
ENDBRANCH  29  30
BRANCH  29  34
HETATM   34  N2  UNL     1      29.555   6.065  57.138  1.00  0.00    -0.315 N 
HETATM   35  C24 UNL     1      30.089   4.814  57.485  1.00  0.00     0.332 C 
HETATM   36  O5  UNL     1      30.158   4.428  58.684  1.00  0.00    -0.246 OA
HETATM   37  N3  UNL     1      30.572   3.940  56.481  1.00  0.00    -0.250 N 
HETATM   38 CL1  UNL     1      31.233   2.398  56.884  1.00  0.00     0.015 Cl
ATOM     39  H3  UNL     1      30.530   4.227  55.503  1.00  0.00     0.185 HD
ATOM     40  H2  UNL     1      29.510   6.349  56.159  1.00  0.00     0.166 HD
ENDBRANCH  29  34
ENDBRANCH  28  29
ENDBRANCH  26  28
ENDBRANCH  23  26
ENDBRANCH  22  23
ENDBRANCH  21  22
ENDBRANCH  15  21
BRANCH   1  41
HETATM   41  O1  UNL     1      18.892  11.893  52.205  1.00  0.00    -0.360 OA
HETATM   42  C1  UNL     1      18.669  11.910  53.558  1.00  0.00     0.205 C 
ENDBRANCH   1  41
TORSDOF 11
ENDMDL
