MODEL 1
REMARK VINA RESULT: -8.247483488      0.000      0.000
REMARK  11 active torsions:
REMARK  status: ('A' for Active; 'I' for Inactive)
REMARK       I    between atoms: N1_2  and  C2_4 
REMARK    1  A    between atoms: C2_4  and  C3_6 
REMARK    2  A    between atoms: C5_8  and  N2_9 
REMARK    3  A    between atoms: N2_9  and  C6_11 
REMARK    4  A    between atoms: C7_14  and  N4_15 
REMARK    5  A    between atoms: N4_15  and  C8_17 
REMARK    6  A    between atoms: C11_20  and  N5_22 
REMARK    7  A    between atoms: N5_22  and  C13_25 
REMARK    8  A    between atoms: N8_35  and  C19_36 
REMARK    9  A    between atoms: C19_36  and  C20_37 
REMARK   10  A    between atoms: C23_40  and  C24_41 
REMARK   11  A    between atoms: C24_41  and  O2_42 
ROOT
HETATM    1  C13 UNL     1      20.619  11.034  48.667  1.00  0.00     0.356 C 
HETATM    2  C14 UNL     1      19.398  11.412  47.946  1.00  0.00     0.086 C 
HETATM    3  N6  UNL     1      18.421  11.733  47.378  1.00  0.00    -0.196 NA
ENDROOT
BRANCH   1   4
HETATM    4  N5  UNL     1      20.297  10.680  50.027  1.00  0.00    -0.055 N 
ATOM      5  H52 UNL     1      20.438   9.683  50.184  1.00  0.00     0.279 HD
ATOM      6  H51 UNL     1      19.291  10.737  50.187  1.00  0.00     0.279 HD
BRANCH   4   7
HETATM    7  C11 UNL     1      21.013  11.457  51.008  1.00  0.00     0.123 C 
HETATM    8  C10 UNL     1      22.488  11.241  50.873  1.00  0.00     0.040 C 
HETATM    9  C9  UNL     1      23.238  12.537  50.643  1.00  0.00     0.028 C 
HETATM   10  C8  UNL     1      22.887  13.563  51.714  1.00  0.00     0.099 C 
HETATM   11  C16 UNL     1      21.406  13.837  51.715  1.00  0.00     0.028 C 
HETATM   12  C15 UNL     1      20.658  12.912  50.779  1.00  0.00     0.040 C 
HETATM   13  C12 UNL     1      20.521  11.006  52.377  1.00  0.00     0.046 C 
BRANCH  10  14
HETATM   14  N4  UNL     1      23.693  14.727  51.500  1.00  0.00    -0.221 N 
ATOM     15  H4  UNL     1      23.639  15.189  50.592  1.00  0.00     0.178 HD
BRANCH  14  16
HETATM   16  C7  UNL     1      24.491  15.229  52.398  1.00  0.00     0.679 A 
HETATM   17  N3  UNL     1      25.135  14.459  53.283  1.00  0.00    -0.175 N 
HETATM   18  C6  UNL     1      25.965  14.917  54.228  1.00  0.00     0.145 A 
ATOM     19  H3  UNL     1      24.983  13.452  53.234  1.00  0.00     0.186 HD
HETATM   20  C18 UNL     1      26.177  16.288  54.304  1.00  0.00     0.094 A 
HETATM   21  C17 UNL     1      25.524  17.092  53.405  1.00  0.00     0.133 A 
HETATM   22 CL1  UNL     1      27.248  16.961  55.533  1.00  0.00    -0.079 Cl
HETATM   23  N7  UNL     1      24.711  16.550  52.490  1.00  0.00    -0.200 N 
ATOM     24  H7  UNL     1      24.237  17.170  51.832  1.00  0.00     0.183 HD
BRANCH  18  25
HETATM   25  N2  UNL     1      26.631  14.116  55.162  1.00  0.00    -0.325 N 
ATOM     26  H2  UNL     1      26.563  14.428  56.131  1.00  0.00     0.169 HD
BRANCH  25  27
HETATM   27  C5  UNL     1      27.316  13.046  54.974  1.00  0.00     0.130 A 
HETATM   28  C4  UNL     1      26.784  11.762  54.913  1.00  0.00     0.087 A 
HETATM   29  C3  UNL     1      27.887  10.922  54.768  1.00  0.00     0.120 A 
HETATM   30  N9  UNL     1      28.988  11.685  54.745  1.00  0.00    -0.288 N 
HETATM   31  N8  UNL     1      28.674  12.959  54.865  1.00  0.00    -0.250 N 
ATOM     32  H9  UNL     1      29.938  11.328  54.647  1.00  0.00     0.188 HD
BRANCH  29  33
HETATM   33  C2  UNL     1      27.784   9.451  54.664  1.00  0.00     0.269 C 
HETATM   34  N1  UNL     1      28.921   8.666  54.870  1.00  0.00    -0.360 N 
HETATM   35  C1  UNL     1      28.817   7.213  54.768  1.00  0.00     0.149 C 
ATOM     36  H1  UNL     1      29.816   9.104  55.090  1.00  0.00     0.162 HD
HETATM   37  O1  UNL     1      26.688   8.900  54.393  1.00  0.00    -0.266 OA
ENDBRANCH  29  33
BRANCH  31  38
HETATM   38  C19 UNL     1      29.581  14.037  54.842  1.00  0.00     0.121 C 
BRANCH  38  39
HETATM   39  C20 UNL     1      30.410  14.300  56.071  1.00  0.00    -0.062 C 
HETATM   40  C21 UNL     1      31.477  13.355  56.411  1.00  0.00     0.036 C 
HETATM   41  C22 UNL     1      31.249  12.475  57.613  1.00  0.00     0.011 C 
HETATM   42  C23 UNL     1      30.884  13.349  58.787  1.00  0.00     0.010 C 
HETATM   43  C26 UNL     1      29.524  13.928  58.423  1.00  0.00     0.011 C 
HETATM   44  C27 UNL     1      29.565  14.787  57.224  1.00  0.00     0.036 C 
BRANCH  42  45
HETATM   45  C24 UNL     1      31.903  14.412  59.025  1.00  0.00     0.171 C 
BRANCH  45  46
HETATM   46  O2  UNL     1      32.804  14.155  60.024  1.00  0.00    -0.396 OA
HETATM   47  C25 UNL     1      34.086  13.874  59.643  1.00  0.00     0.201 C 
ENDBRANCH  45  46
ENDBRANCH  42  45
ENDBRANCH  38  39
ENDBRANCH  31  38
ENDBRANCH  25  27
ENDBRANCH  18  25
ENDBRANCH  14  16
ENDBRANCH  10  14
ENDBRANCH   4   7
ENDBRANCH   1   4
TORSDOF 11
ENDMDL
MODEL 2
REMARK VINA RESULT: -8.180094621      1.570      4.385
REMARK  11 active torsions:
REMARK  status: ('A' for Active; 'I' for Inactive)
REMARK       I    between atoms: N1_2  and  C2_4 
REMARK    1  A    between atoms: C2_4  and  C3_6 
REMARK    2  A    between atoms: C5_8  and  N2_9 
REMARK    3  A    between atoms: N2_9  and  C6_11 
REMARK    4  A    between atoms: C7_14  and  N4_15 
REMARK    5  A    between atoms: N4_15  and  C8_17 
REMARK    6  A    between atoms: C11_20  and  N5_22 
REMARK    7  A    between atoms: N5_22  and  C13_25 
REMARK    8  A    between atoms: N8_35  and  C19_36 
REMARK    9  A    between atoms: C19_36  and  C20_37 
REMARK   10  A    between atoms: C23_40  and  C24_41 
REMARK   11  A    between atoms: C24_41  and  O2_42 
ROOT
HETATM    1  C13 UNL     1      18.991  11.521  49.288  1.00  0.00     0.356 C 
HETATM    2  C14 UNL     1      19.243  11.470  47.843  1.00  0.00     0.086 C 
HETATM    3  N6  UNL     1      19.434  11.411  46.686  1.00  0.00    -0.196 NA
ENDROOT
BRANCH   1   4
HETATM    4  N5  UNL     1      19.914  10.654  49.978  1.00  0.00    -0.055 N 
ATOM      5  H52 UNL     1      20.450  10.096  49.315  1.00  0.00     0.279 HD
ATOM      6  H51 UNL     1      19.415   9.909  50.464  1.00  0.00     0.279 HD
BRANCH   4   7
HETATM    7  C11 UNL     1      20.793  11.354  50.883  1.00  0.00     0.123 C 
HETATM    8  C10 UNL     1      22.223  11.107  50.519  1.00  0.00     0.040 C 
HETATM    9  C9  UNL     1      22.976  12.395  50.251  1.00  0.00     0.028 C 
HETATM   10  C8  UNL     1      22.821  13.365  51.416  1.00  0.00     0.099 C 
HETATM   11  C16 UNL     1      21.367  13.676  51.652  1.00  0.00     0.028 C 
HETATM   12  C15 UNL     1      20.458  12.828  50.788  1.00  0.00     0.040 C 
HETATM   13  C12 UNL     1      20.491  10.835  52.283  1.00  0.00     0.046 C 
BRANCH  10  14
HETATM   14  N4  UNL     1      23.626  14.518  51.149  1.00  0.00    -0.221 N 
ATOM     15  H4  UNL     1      23.690  14.848  50.186  1.00  0.00     0.178 HD
BRANCH  14  16
HETATM   16  C7  UNL     1      24.283  15.170  52.065  1.00  0.00     0.679 A 
HETATM   17  N3  UNL     1      24.903  14.544  53.073  1.00  0.00    -0.175 N 
HETATM   18  C6  UNL     1      25.591  15.159  54.043  1.00  0.00     0.145 A 
ATOM     19  H3  UNL     1      24.848  13.526  53.103  1.00  0.00     0.186 HD
HETATM   20  C18 UNL     1      25.669  16.546  54.010  1.00  0.00     0.094 A 
HETATM   21  C17 UNL     1      25.039  17.204  52.985  1.00  0.00     0.133 A 
HETATM   22 CL1  UNL     1      26.548  17.422  55.263  1.00  0.00    -0.079 Cl
HETATM   23  N7  UNL     1      24.372  16.509  52.054  1.00  0.00    -0.200 N 
ATOM     24  H7  UNL     1      23.912  17.022  51.302  1.00  0.00     0.183 HD
BRANCH  18  25
HETATM   25  N2  UNL     1      26.230  14.509  55.103  1.00  0.00    -0.325 N 
ATOM     26  H2  UNL     1      25.686  14.436  55.963  1.00  0.00     0.169 HD
BRANCH  25  27
HETATM   27  C5  UNL     1      27.405  13.992  55.150  1.00  0.00     0.130 A 
HETATM   28  C4  UNL     1      28.484  14.530  55.845  1.00  0.00     0.087 A 
HETATM   29  C3  UNL     1      29.553  13.683  55.561  1.00  0.00     0.120 A 
HETATM   30  N9  UNL     1      29.109  12.713  54.751  1.00  0.00    -0.288 N 
HETATM   31  N8  UNL     1      27.827  12.874  54.491  1.00  0.00    -0.250 N 
ATOM     32  H9  UNL     1      29.685  11.954  54.386  1.00  0.00     0.188 HD
BRANCH  29  33
HETATM   33  C2  UNL     1      30.917  13.882  56.097  1.00  0.00     0.269 C 
HETATM   34  N1  UNL     1      31.420  12.989  57.047  1.00  0.00    -0.360 N 
HETATM   35  C1  UNL     1      32.767  13.186  57.573  1.00  0.00     0.149 C 
ATOM     36  H1  UNL     1      30.851  12.205  57.369  1.00  0.00     0.162 HD
HETATM   37  O1  UNL     1      31.626  14.843  55.709  1.00  0.00    -0.266 OA
ENDBRANCH  29  33
BRANCH  31  38
HETATM   38  C19 UNL     1      27.032  12.017  53.705  1.00  0.00     0.121 C 
BRANCH  38  39
HETATM   39  C20 UNL     1      26.652  10.675  54.271  1.00  0.00    -0.062 C 
HETATM   40  C21 UNL     1      26.112  10.617  55.633  1.00  0.00     0.036 C 
HETATM   41  C22 UNL     1      27.003  10.026  56.694  1.00  0.00     0.011 C 
HETATM   42  C23 UNL     1      27.477   8.673  56.225  1.00  0.00     0.010 C 
HETATM   43  C26 UNL     1      28.378   8.975  55.036  1.00  0.00     0.011 C 
HETATM   44  C27 UNL     1      27.660   9.609  53.914  1.00  0.00     0.036 C 
BRANCH  42  45
HETATM   45  C24 UNL     1      26.338   7.784  55.856  1.00  0.00     0.171 C 
BRANCH  45  46
HETATM   46  O2  UNL     1      26.065   6.774  56.739  1.00  0.00    -0.396 OA
HETATM   47  C25 UNL     1      27.129   6.056  57.207  1.00  0.00     0.201 C 
ENDBRANCH  45  46
ENDBRANCH  42  45
ENDBRANCH  38  39
ENDBRANCH  31  38
ENDBRANCH  25  27
ENDBRANCH  18  25
ENDBRANCH  14  16
ENDBRANCH  10  14
ENDBRANCH   4   7
ENDBRANCH   1   4
TORSDOF 11
ENDMDL
MODEL 3
REMARK VINA RESULT: -7.838220396      3.055      6.850
REMARK  11 active torsions:
REMARK  status: ('A' for Active; 'I' for Inactive)
REMARK       I    between atoms: N1_2  and  C2_4 
REMARK    1  A    between atoms: C2_4  and  C3_6 
REMARK    2  A    between atoms: C5_8  and  N2_9 
REMARK    3  A    between atoms: N2_9  and  C6_11 
REMARK    4  A    between atoms: C7_14  and  N4_15 
REMARK    5  A    between atoms: N4_15  and  C8_17 
REMARK    6  A    between atoms: C11_20  and  N5_22 
REMARK    7  A    between atoms: N5_22  and  C13_25 
REMARK    8  A    between atoms: N8_35  and  C19_36 
REMARK    9  A    between atoms: C19_36  and  C20_37 
REMARK   10  A    between atoms: C23_40  and  C24_41 
REMARK   11  A    between atoms: C24_41  and  O2_42 
ROOT
HETATM    1  C13 UNL     1      19.982  11.014  49.265  1.00  0.00     0.356 C 
HETATM    2  C14 UNL     1      19.103  11.433  48.166  1.00  0.00     0.086 C 
HETATM    3  N6  UNL     1      18.418  11.775  47.277  1.00  0.00    -0.196 NA
ENDROOT
BRANCH   1   4
HETATM    4  N5  UNL     1      20.363  12.159  50.055  1.00  0.00    -0.055 N 
ATOM      5  H52 UNL     1      19.836  12.187  50.927  1.00  0.00     0.279 HD
ATOM      6  H51 UNL     1      20.027  13.022  49.625  1.00  0.00     0.279 HD
BRANCH   4   7
HETATM    7  C11 UNL     1      21.779  12.235  50.312  1.00  0.00     0.123 C 
HETATM    8  C10 UNL     1      22.117  13.514  51.011  1.00  0.00     0.040 C 
HETATM    9  C9  UNL     1      22.822  13.277  52.331  1.00  0.00     0.028 C 
HETATM   10  C8  UNL     1      24.031  12.368  52.144  1.00  0.00     0.099 C 
HETATM   11  C16 UNL     1      23.611  11.046  51.557  1.00  0.00     0.028 C 
HETATM   12  C15 UNL     1      22.148  11.039  51.166  1.00  0.00     0.040 C 
HETATM   13  C12 UNL     1      22.480  12.152  48.962  1.00  0.00     0.046 C 
BRANCH  10  14
HETATM   14  N4  UNL     1      24.706  12.257  53.401  1.00  0.00    -0.221 N 
ATOM     15  H4  UNL     1      24.145  12.085  54.235  1.00  0.00     0.178 HD
BRANCH  14  16
HETATM   16  C7  UNL     1      25.997  12.362  53.540  1.00  0.00     0.679 A 
HETATM   17  N3  UNL     1      26.568  13.465  54.039  1.00  0.00    -0.175 N 
HETATM   18  C6  UNL     1      27.886  13.632  54.204  1.00  0.00     0.145 A 
ATOM     19  H3  UNL     1      25.955  14.233  54.312  1.00  0.00     0.186 HD
HETATM   20  C18 UNL     1      28.728  12.591  53.832  1.00  0.00     0.094 A 
HETATM   21  C17 UNL     1      28.160  11.454  53.320  1.00  0.00     0.133 A 
HETATM   22 CL1  UNL     1      30.476  12.748  54.011  1.00  0.00    -0.079 Cl
HETATM   23  N7  UNL     1      26.830  11.370  53.189  1.00  0.00    -0.200 N 
ATOM     24  H7  UNL     1      26.432  10.513  52.805  1.00  0.00     0.183 HD
BRANCH  18  25
HETATM   25  N2  UNL     1      28.487  14.787  54.714  1.00  0.00    -0.325 N 
ATOM     26  H2  UNL     1      29.366  15.053  54.271  1.00  0.00     0.169 HD
BRANCH  25  27
HETATM   27  C5  UNL     1      28.090  15.561  55.659  1.00  0.00     0.130 A 
HETATM   28  C4  UNL     1      28.446  15.428  56.998  1.00  0.00     0.087 A 
HETATM   29  C3  UNL     1      27.738  16.430  57.659  1.00  0.00     0.120 A 
HETATM   30  N9  UNL     1      27.020  17.100  56.749  1.00  0.00    -0.288 N 
HETATM   31  N8  UNL     1      27.213  16.601  55.544  1.00  0.00    -0.250 N 
ATOM     32  H9  UNL     1      26.407  17.887  56.959  1.00  0.00     0.188 HD
BRANCH  29  33
HETATM   33  C2  UNL     1      27.815  16.657  59.119  1.00  0.00     0.269 C 
HETATM   34  N1  UNL     1      27.357  17.864  59.652  1.00  0.00    -0.360 N 
HETATM   35  C1  UNL     1      27.433  18.084  61.093  1.00  0.00     0.149 C 
ATOM     36  H1  UNL     1      26.972  18.584  59.041  1.00  0.00     0.162 HD
HETATM   37  O1  UNL     1      28.288  15.777  59.881  1.00  0.00    -0.266 OA
ENDBRANCH  29  33
BRANCH  31  38
HETATM   38  C19 UNL     1      26.645  17.087  54.350  1.00  0.00     0.121 C 
BRANCH  38  39
HETATM   39  C20 UNL     1      25.172  16.878  54.123  1.00  0.00    -0.062 C 
HETATM   40  C21 UNL     1      24.748  16.066  52.978  1.00  0.00     0.036 C 
HETATM   41  C22 UNL     1      24.106  16.795  51.827  1.00  0.00     0.011 C 
HETATM   42  C23 UNL     1      22.974  17.637  52.362  1.00  0.00     0.010 C 
HETATM   43  C26 UNL     1      23.658  18.702  53.208  1.00  0.00     0.011 C 
HETATM   44  C27 UNL     1      24.382  18.142  54.365  1.00  0.00     0.036 C 
BRANCH  42  45
HETATM   45  C24 UNL     1      22.005  16.826  53.154  1.00  0.00     0.171 C 
BRANCH  45  46
HETATM   46  O2  UNL     1      20.803  17.427  53.415  1.00  0.00    -0.396 OA
HETATM   47  C25 UNL     1      19.823  17.285  52.473  1.00  0.00     0.201 C 
ENDBRANCH  45  46
ENDBRANCH  42  45
ENDBRANCH  38  39
ENDBRANCH  31  38
ENDBRANCH  25  27
ENDBRANCH  18  25
ENDBRANCH  14  16
ENDBRANCH  10  14
ENDBRANCH   4   7
ENDBRANCH   1   4
TORSDOF 11
ENDMDL
MODEL 4
REMARK VINA RESULT: -7.793948165      4.325      6.553
REMARK  11 active torsions:
REMARK  status: ('A' for Active; 'I' for Inactive)
REMARK       I    between atoms: N1_2  and  C2_4 
REMARK    1  A    between atoms: C2_4  and  C3_6 
REMARK    2  A    between atoms: C5_8  and  N2_9 
REMARK    3  A    between atoms: N2_9  and  C6_11 
REMARK    4  A    between atoms: C7_14  and  N4_15 
REMARK    5  A    between atoms: N4_15  and  C8_17 
REMARK    6  A    between atoms: C11_20  and  N5_22 
REMARK    7  A    between atoms: N5_22  and  C13_25 
REMARK    8  A    between atoms: N8_35  and  C19_36 
REMARK    9  A    between atoms: C19_36  and  C20_37 
REMARK   10  A    between atoms: C23_40  and  C24_41 
REMARK   11  A    between atoms: C24_41  and  O2_42 
ROOT
HETATM    1  C13 UNL     1      20.379  11.498  47.871  1.00  0.00     0.356 C 
HETATM    2  C14 UNL     1      20.347  11.955  46.477  1.00  0.00     0.086 C 
HETATM    3  N6  UNL     1      20.332  12.304  45.356  1.00  0.00    -0.196 NA
ENDROOT
BRANCH   1   4
HETATM    4  N5  UNL     1      21.685  11.733  48.436  1.00  0.00    -0.055 N 
ATOM      5  H52 UNL     1      22.082  12.601  48.079  1.00  0.00     0.279 HD
ATOM      6  H51 UNL     1      22.364  11.069  48.064  1.00  0.00     0.279 HD
BRANCH   4   7
HETATM    7  C11 UNL     1      21.698  11.722  49.878  1.00  0.00     0.123 C 
HETATM    8  C10 UNL     1      21.701  13.120  50.412  1.00  0.00     0.040 C 
HETATM    9  C9  UNL     1      20.532  13.382  51.340  1.00  0.00     0.028 C 
HETATM   10  C8  UNL     1      20.467  12.329  52.440  1.00  0.00     0.099 C 
HETATM   11  C16 UNL     1      20.334  10.953  51.844  1.00  0.00     0.028 C 
HETATM   12  C15 UNL     1      20.463  10.973  50.335  1.00  0.00     0.040 C 
HETATM   13  C12 UNL     1      22.954  10.974  50.305  1.00  0.00     0.046 C 
BRANCH  10  14
HETATM   14  N4  UNL     1      19.406  12.680  53.334  1.00  0.00    -0.221 N 
ATOM     15  H4  UNL     1      18.648  12.012  53.467  1.00  0.00     0.178 HD
BRANCH  14  16
HETATM   16  C7  UNL     1      19.354  13.806  53.987  1.00  0.00     0.679 A 
HETATM   17  N3  UNL     1      20.393  14.263  54.696  1.00  0.00    -0.175 N 
HETATM   18  C6  UNL     1      20.398  15.409  55.387  1.00  0.00     0.145 A 
ATOM     19  H3  UNL     1      21.241  13.697  54.711  1.00  0.00     0.186 HD
HETATM   20  C18 UNL     1      19.246  16.185  55.373  1.00  0.00     0.094 A 
HETATM   21  C17 UNL     1      18.171  15.733  54.652  1.00  0.00     0.133 A 
HETATM   22 CL1  UNL     1      19.178  17.702  56.272  1.00  0.00    -0.079 Cl
HETATM   23  N7  UNL     1      18.252  14.573  53.988  1.00  0.00    -0.200 N 
ATOM     24  H7  UNL     1      17.439  14.258  53.458  1.00  0.00     0.183 HD
BRANCH  18  25
HETATM   25  N2  UNL     1      21.478  15.884  56.138  1.00  0.00    -0.325 N 
ATOM     26  H2  UNL     1      21.285  16.043  57.127  1.00  0.00     0.169 HD
BRANCH  25  27
HETATM   27  C5  UNL     1      22.677  16.149  55.762  1.00  0.00     0.130 A 
HETATM   28  C4  UNL     1      23.093  17.365  55.229  1.00  0.00     0.087 A 
HETATM   29  C3  UNL     1      24.435  17.176  54.906  1.00  0.00     0.120 A 
HETATM   30  N9  UNL     1      24.768  15.923  55.239  1.00  0.00    -0.288 N 
HETATM   31  N8  UNL     1      23.735  15.287  55.754  1.00  0.00    -0.250 N 
ATOM     32  H9  UNL     1      25.695  15.516  55.111  1.00  0.00     0.188 HD
BRANCH  29  33
HETATM   33  C2  UNL     1      25.285  18.225  54.302  1.00  0.00     0.269 C 
HETATM   34  N1  UNL     1      26.451  18.627  54.958  1.00  0.00    -0.360 N 
HETATM   35  C1  UNL     1      27.289  19.662  54.359  1.00  0.00     0.149 C 
ATOM     36  H1  UNL     1      26.715  18.201  55.847  1.00  0.00     0.162 HD
HETATM   37  O1  UNL     1      24.970  18.757  53.209  1.00  0.00    -0.266 OA
ENDBRANCH  29  33
BRANCH  31  38
HETATM   38  C19 UNL     1      23.741  13.966  56.245  1.00  0.00     0.121 C 
BRANCH  38  39
HETATM   39  C20 UNL     1      24.289  12.877  55.362  1.00  0.00    -0.062 C 
HETATM   40  C21 UNL     1      25.735  12.638  55.361  1.00  0.00     0.036 C 
HETATM   41  C22 UNL     1      26.492  13.051  54.126  1.00  0.00     0.011 C 
HETATM   42  C23 UNL     1      25.825  12.433  52.923  1.00  0.00     0.010 C 
HETATM   43  C26 UNL     1      24.471  13.124  52.840  1.00  0.00     0.011 C 
HETATM   44  C27 UNL     1      23.614  12.858  54.011  1.00  0.00     0.036 C 
BRANCH  42  45
HETATM   45  C24 UNL     1      25.693  10.953  53.061  1.00  0.00     0.171 C 
BRANCH  45  46
HETATM   46  O2  UNL     1      26.752  10.219  52.599  1.00  0.00    -0.396 OA
HETATM   47  C25 UNL     1      27.621   9.730  53.535  1.00  0.00     0.201 C 
ENDBRANCH  45  46
ENDBRANCH  42  45
ENDBRANCH  38  39
ENDBRANCH  31  38
ENDBRANCH  25  27
ENDBRANCH  18  25
ENDBRANCH  14  16
ENDBRANCH  10  14
ENDBRANCH   4   7
ENDBRANCH   1   4
TORSDOF 11
ENDMDL
MODEL 5
REMARK VINA RESULT: -7.700877180      2.156      4.715
REMARK  11 active torsions:
REMARK  status: ('A' for Active; 'I' for Inactive)
REMARK       I    between atoms: N1_2  and  C2_4 
REMARK    1  A    between atoms: C2_4  and  C3_6 
REMARK    2  A    between atoms: C5_8  and  N2_9 
REMARK    3  A    between atoms: N2_9  and  C6_11 
REMARK    4  A    between atoms: C7_14  and  N4_15 
REMARK    5  A    between atoms: N4_15  and  C8_17 
REMARK    6  A    between atoms: C11_20  and  N5_22 
REMARK    7  A    between atoms: N5_22  and  C13_25 
REMARK    8  A    between atoms: N8_35  and  C19_36 
REMARK    9  A    between atoms: C19_36  and  C20_37 
REMARK   10  A    between atoms: C23_40  and  C24_41 
REMARK   11  A    between atoms: C24_41  and  O2_42 
ROOT
HETATM    1  C13 UNL     1      22.025  11.056  49.297  1.00  0.00     0.356 C 
HETATM    2  C14 UNL     1      20.667  11.116  48.744  1.00  0.00     0.086 C 
HETATM    3  N6  UNL     1      19.578  11.183  48.309  1.00  0.00    -0.196 NA
ENDROOT
BRANCH   1   4
HETATM    4  N5  UNL     1      21.967  10.844  50.722  1.00  0.00    -0.055 N 
ATOM      5  H52 UNL     1      21.985   9.848  50.941  1.00  0.00     0.279 HD
ATOM      6  H51 UNL     1      21.043  11.081  51.086  1.00  0.00     0.279 HD
BRANCH   4   7
HETATM    7  C11 UNL     1      22.996  11.545  51.450  1.00  0.00     0.123 C 
HETATM    8  C10 UNL     1      23.332  12.835  50.771  1.00  0.00     0.040 C 
HETATM    9  C9  UNL     1      23.154  14.028  51.688  1.00  0.00     0.028 C 
HETATM   10  C8  UNL     1      23.919  13.829  52.991  1.00  0.00     0.099 C 
HETATM   11  C16 UNL     1      23.447  12.584  53.693  1.00  0.00     0.028 C 
HETATM   12  C15 UNL     1      22.471  11.792  52.849  1.00  0.00     0.040 C 
HETATM   13  C12 UNL     1      24.209  10.625  51.499  1.00  0.00     0.046 C 
BRANCH  10  14
HETATM   14  N4  UNL     1      23.791  15.022  53.772  1.00  0.00    -0.221 N 
ATOM     15  H4  UNL     1      22.879  15.238  54.173  1.00  0.00     0.178 HD
BRANCH  14  16
HETATM   16  C7  UNL     1      24.773  15.846  54.000  1.00  0.00     0.679 A 
HETATM   17  N3  UNL     1      26.007  15.416  54.289  1.00  0.00    -0.175 N 
HETATM   18  C6  UNL     1      27.054  16.214  54.533  1.00  0.00     0.145 A 
ATOM     19  H3  UNL     1      26.160  14.408  54.327  1.00  0.00     0.186 HD
HETATM   20  C18 UNL     1      26.853  17.588  54.486  1.00  0.00     0.094 A 
HETATM   21  C17 UNL     1      25.595  18.046  54.191  1.00  0.00     0.133 A 
HETATM   22 CL1  UNL     1      28.185  18.698  54.810  1.00  0.00    -0.079 Cl
HETATM   23  N7  UNL     1      24.603  17.177  53.959  1.00  0.00    -0.200 N 
ATOM     24  H7  UNL     1      23.676  17.543  53.742  1.00  0.00     0.183 HD
BRANCH  18  25
HETATM   25  N2  UNL     1      28.341  15.768  54.847  1.00  0.00    -0.325 N 
ATOM     26  H2  UNL     1      29.026  15.846  54.095  1.00  0.00     0.169 HD
BRANCH  25  27
HETATM   27  C5  UNL     1      28.786  15.274  55.946  1.00  0.00     0.130 A 
HETATM   28  C4  UNL     1      28.455  15.735  57.217  1.00  0.00     0.087 A 
HETATM   29  C3  UNL     1      29.214  14.957  58.090  1.00  0.00     0.120 A 
HETATM   30  N9  UNL     1      29.936  14.098  57.359  1.00  0.00    -0.288 N 
HETATM   31  N8  UNL     1      29.697  14.265  56.073  1.00  0.00    -0.250 N 
ATOM     32  H9  UNL     1      30.581  13.408  57.744  1.00  0.00     0.188 HD
BRANCH  29  33
HETATM   33  C2  UNL     1      29.177  15.110  59.560  1.00  0.00     0.269 C 
HETATM   34  N1  UNL     1      30.282  14.716  60.320  1.00  0.00    -0.360 N 
HETATM   35  C1  UNL     1      30.244  14.870  61.771  1.00  0.00     0.149 C 
ATOM     36  H1  UNL     1      31.107  14.326  59.865  1.00  0.00     0.162 HD
HETATM   37  O1  UNL     1      28.166  15.588  60.132  1.00  0.00    -0.266 OA
ENDBRANCH  29  33
BRANCH  31  38
HETATM   38  C19 UNL     1      30.256  13.507  55.026  1.00  0.00     0.121 C 
BRANCH  38  39
HETATM   39  C20 UNL     1      29.535  12.263  54.580  1.00  0.00    -0.062 C 
HETATM   40  C21 UNL     1      28.747  12.315  53.345  1.00  0.00     0.036 C 
HETATM   41  C22 UNL     1      27.248  12.283  53.493  1.00  0.00     0.011 C 
HETATM   42  C23 UNL     1      26.874  11.093  54.343  1.00  0.00     0.010 C 
HETATM   43  C26 UNL     1      27.428  11.421  55.722  1.00  0.00     0.011 C 
HETATM   44  C27 UNL     1      28.899  11.537  55.741  1.00  0.00     0.036 C 
BRANCH  42  45
HETATM   45  C24 UNL     1      27.436   9.824  53.798  1.00  0.00     0.171 C 
BRANCH  45  46
HETATM   46  O2  UNL     1      27.134   8.691  54.505  1.00  0.00    -0.396 OA
HETATM   47  C25 UNL     1      28.181   7.887  54.862  1.00  0.00     0.201 C 
ENDBRANCH  45  46
ENDBRANCH  42  45
ENDBRANCH  38  39
ENDBRANCH  31  38
ENDBRANCH  25  27
ENDBRANCH  18  25
ENDBRANCH  14  16
ENDBRANCH  10  14
ENDBRANCH   4   7
ENDBRANCH   1   4
TORSDOF 11
ENDMDL
