MODEL 1
REMARK VINA RESULT: -7.233217714      0.000      0.000
REMARK  13 active torsions:
REMARK  status: ('A' for Active; 'I' for Inactive)
REMARK    1  A    between atoms: C2_2  and  C3_3 
REMARK    2  A    between atoms: C3_3  and  C4_4 
REMARK    3  A    between atoms: C4_4  and  C5_5 
REMARK    4  A    between atoms: C6_6  and  C7_7 
REMARK    5  A    between atoms: C7_7  and  C8_8 
REMARK    6  A    between atoms: C8_8  and  C9_9 
REMARK    7  A    between atoms: C10_11  and  O2_12 
REMARK    8  A    between atoms: C12_15  and  O3_17 
REMARK    9  A    between atoms: C14_19  and  O4_20 
REMARK   10  A    between atoms: C17_26  and  N1_27 
REMARK   11  A    between atoms: C24_34  and  O6_36 
REMARK   12  A    between atoms: O6_36  and  C26_37 
REMARK       I    between atoms: C26_37  and  N2_39 
REMARK   13  A    between atoms: N2_39  and  C27_41 
ROOT
HETATM    1  C9  UNL     1      25.455  12.693  53.028  1.00  0.00     0.163 C 
HETATM    2  O1  UNL     1      26.742  12.421  52.626  1.00  0.00    -0.352 OA
HETATM    3  C10 UNL     1      27.505  12.174  53.769  1.00  0.00     0.267 C 
HETATM    4  C11 UNL     1      27.542  13.472  54.571  1.00  0.00     0.117 C 
HETATM    5  C12 UNL     1      28.843  13.778  55.154  1.00  0.00     0.096 C 
HETATM    6  C13 UNL     1      29.554  12.735  55.963  1.00  0.00     0.049 C 
HETATM    7  C14 UNL     1      28.978  15.176  55.678  1.00  0.00     0.201 C 
HETATM    8  C15 UNL     1      27.722  15.949  55.752  1.00  0.00     0.091 C 
HETATM    9 CL1  UNL     1      27.904  17.544  54.912  1.00  0.00    -0.082 Cl
HETATM   10  C16 UNL     1      26.458  15.298  55.519  1.00  0.00     0.201 C 
HETATM   11  O5  UNL     1      25.445  15.981  55.623  1.00  0.00    -0.289 OA
HETATM   12  C17 UNL     1      26.222  13.810  55.147  1.00  0.00     0.140 C 
HETATM   13  C24 UNL     1      25.276  13.872  53.956  1.00  0.00     0.128 C 
HETATM   14  C25 UNL     1      23.811  13.581  54.508  1.00  0.00     0.052 C 
ENDROOT
BRANCH   1  15
HETATM   15  C8  UNL     1      24.441  12.652  51.919  1.00  0.00     0.039 C 
BRANCH  15  16
HETATM   16  C7  UNL     1      23.919  11.212  51.731  1.00  0.00     0.029 C 
BRANCH  16  17
HETATM   17  C6  UNL     1      22.457  11.188  51.656  1.00  0.00    -0.031 C 
HETATM   18  C5  UNL     1      21.811  11.143  50.521  1.00  0.00    -0.031 C 
BRANCH  18  19
HETATM   19  C4  UNL     1      22.347  11.109  49.151  1.00  0.00     0.027 C 
BRANCH  19  20
HETATM   20  C3  UNL     1      21.358  11.848  48.266  1.00  0.00     0.003 C 
BRANCH  20  21
HETATM   21  C2  UNL     1      19.974  11.364  48.603  1.00  0.00    -0.004 C 
HETATM   22  C1  UNL     1      19.142  11.400  47.337  1.00  0.00     0.005 C 
ENDBRANCH  20  21
ENDBRANCH  19  20
ENDBRANCH  18  19
ENDBRANCH  16  17
ENDBRANCH  15  16
ENDBRANCH   1  15
BRANCH  13  23
HETATM   23  O6  UNL     1      25.065  15.054  53.409  1.00  0.00    -0.287 OA
BRANCH  23  24
HETATM   24  C26 UNL     1      24.367  15.965  52.812  1.00  0.00     0.361 C 
HETATM   25  O7  UNL     1      24.667  16.066  51.601  1.00  0.00    -0.238 OA
HETATM   26  N2  UNL     1      23.351  16.832  53.322  1.00  0.00    -0.337 N 
ATOM     27  H2  UNL     1      23.092  16.763  54.306  1.00  0.00     0.164 HD
BRANCH  26  28
HETATM   28  C27 UNL     1      22.680  17.799  52.489  1.00  0.00     0.120 C 
HETATM   29  C28 UNL     1      21.186  17.563  52.536  1.00  0.00     0.026 C 
ENDBRANCH  26  28
ENDBRANCH  23  24
ENDBRANCH  13  23
BRANCH   3  30
HETATM   30  O2  UNL     1      28.742  11.765  53.362  1.00  0.00    -0.371 OA
ATOM     31  H2  UNL     1      29.186  11.395  54.116  1.00  0.00     0.212 HD
ENDBRANCH   3  30
BRANCH  12  32
HETATM   32  N1  UNL     1      25.742  13.336  56.358  1.00  0.00    -0.390 N 
HETATM   33  C18 UNL     1      26.058  14.027  57.584  1.00  0.00     0.118 C 
HETATM   34  C19 UNL     1      25.316  13.496  58.817  1.00  0.00     0.020 C 
HETATM   35  C20 UNL     1      24.006  12.902  58.450  1.00  0.00     0.004 C 
HETATM   36  C21 UNL     1      24.348  11.707  57.601  1.00  0.00     0.024 C 
HETATM   37  C22 UNL     1      25.579  11.986  56.723  1.00  0.00     0.076 C 
HETATM   38  C23 UNL     1      26.716  11.362  57.533  1.00  0.00     0.032 C 
ENDBRANCH  12  32
BRANCH   5  39
HETATM   39  O3  UNL     1      29.730  13.830  53.989  1.00  0.00    -0.387 OA
ATOM     40  H3  UNL     1      30.175  14.663  54.091  1.00  0.00     0.210 HD
ENDBRANCH   5  39
BRANCH   7  41
HETATM   41  O4  UNL     1      29.650  15.057  56.923  1.00  0.00    -0.387 OA
ATOM     42  H4  UNL     1      30.544  14.818  56.710  1.00  0.00     0.210 HD
ENDBRANCH   7  41
TORSDOF 13
ENDMDL
MODEL 2
REMARK VINA RESULT: -7.045596594      2.020      3.151
REMARK  13 active torsions:
REMARK  status: ('A' for Active; 'I' for Inactive)
REMARK    1  A    between atoms: C2_2  and  C3_3 
REMARK    2  A    between atoms: C3_3  and  C4_4 
REMARK    3  A    between atoms: C4_4  and  C5_5 
REMARK    4  A    between atoms: C6_6  and  C7_7 
REMARK    5  A    between atoms: C7_7  and  C8_8 
REMARK    6  A    between atoms: C8_8  and  C9_9 
REMARK    7  A    between atoms: C10_11  and  O2_12 
REMARK    8  A    between atoms: C12_15  and  O3_17 
REMARK    9  A    between atoms: C14_19  and  O4_20 
REMARK   10  A    between atoms: C17_26  and  N1_27 
REMARK   11  A    between atoms: C24_34  and  O6_36 
REMARK   12  A    between atoms: O6_36  and  C26_37 
REMARK       I    between atoms: C26_37  and  N2_39 
REMARK   13  A    between atoms: N2_39  and  C27_41 
ROOT
HETATM    1  C9  UNL     1      24.758  13.228  53.697  1.00  0.00     0.163 C 
HETATM    2  O1  UNL     1      25.153  12.365  52.700  1.00  0.00    -0.352 OA
HETATM    3  C10 UNL     1      25.613  11.194  53.304  1.00  0.00     0.267 C 
HETATM    4  C11 UNL     1      26.859  11.564  54.105  1.00  0.00     0.117 C 
HETATM    5  C12 UNL     1      27.940  10.591  54.013  1.00  0.00     0.096 C 
HETATM    6  C13 UNL     1      27.656   9.143  54.278  1.00  0.00     0.049 C 
HETATM    7  C14 UNL     1      29.260  11.075  54.535  1.00  0.00     0.201 C 
HETATM    8  C15 UNL     1      29.218  12.350  55.278  1.00  0.00     0.091 C 
HETATM    9 CL1  UNL     1      30.430  13.518  54.607  1.00  0.00    -0.082 Cl
HETATM   10  C16 UNL     1      27.953  12.944  55.624  1.00  0.00     0.201 C 
HETATM   11  O5  UNL     1      27.977  13.988  56.268  1.00  0.00    -0.289 OA
HETATM   12  C17 UNL     1      26.538  12.410  55.276  1.00  0.00     0.140 C 
HETATM   13  C24 UNL     1      25.817  13.621  54.701  1.00  0.00     0.128 C 
HETATM   14  C25 UNL     1      24.902  14.215  55.862  1.00  0.00     0.052 C 
ENDROOT
BRANCH   1  15
HETATM   15  C8  UNL     1      23.935  14.390  53.217  1.00  0.00     0.039 C 
BRANCH  15  16
HETATM   16  C7  UNL     1      23.614  14.227  51.716  1.00  0.00     0.029 C 
BRANCH  16  17
HETATM   17  C6  UNL     1      22.182  14.011  51.504  1.00  0.00    -0.031 C 
HETATM   18  C5  UNL     1      21.691  12.858  51.132  1.00  0.00    -0.031 C 
BRANCH  18  19
HETATM   19  C4  UNL     1      22.398  11.598  50.854  1.00  0.00     0.027 C 
BRANCH  19  20
HETATM   20  C3  UNL     1      22.511  11.472  49.345  1.00  0.00     0.003 C 
BRANCH  20  21
HETATM   21  C2  UNL     1      21.272  10.784  48.838  1.00  0.00    -0.004 C 
HETATM   22  C1  UNL     1      20.685  11.632  47.727  1.00  0.00     0.005 C 
ENDBRANCH  20  21
ENDBRANCH  19  20
ENDBRANCH  18  19
ENDBRANCH  16  17
ENDBRANCH  15  16
ENDBRANCH   1  15
BRANCH  13  23
HETATM   23  O6  UNL     1      26.542  14.692  54.436  1.00  0.00    -0.287 OA
BRANCH  23  24
HETATM   24  C26 UNL     1      26.813  15.957  54.431  1.00  0.00     0.361 C 
HETATM   25  O7  UNL     1      25.940  16.619  53.825  1.00  0.00    -0.238 OA
HETATM   26  N2  UNL     1      27.917  16.667  54.994  1.00  0.00    -0.337 N 
ATOM     27  H2  UNL     1      28.638  16.145  55.493  1.00  0.00     0.164 HD
BRANCH  26  28
HETATM   28  C27 UNL     1      28.046  18.099  54.879  1.00  0.00     0.120 C 
HETATM   29  C28 UNL     1      27.767  18.745  56.219  1.00  0.00     0.026 C 
ENDBRANCH  26  28
ENDBRANCH  23  24
ENDBRANCH  13  23
BRANCH   3  30
HETATM   30  O2  UNL     1      25.868  10.289  52.314  1.00  0.00    -0.371 OA
ATOM     31  H2  UNL     1      25.032  10.008  51.959  1.00  0.00     0.212 HD
ENDBRANCH   3  30
BRANCH  12  32
HETATM   32  N1  UNL     1      26.152  11.931  56.518  1.00  0.00    -0.390 N 
HETATM   33  C18 UNL     1      27.145  11.639  57.523  1.00  0.00     0.118 C 
HETATM   34  C19 UNL     1      26.567  11.289  58.899  1.00  0.00     0.020 C 
HETATM   35  C20 UNL     1      25.252  11.942  59.119  1.00  0.00     0.004 C 
HETATM   36  C21 UNL     1      24.338  11.326  58.094  1.00  0.00     0.024 C 
HETATM   37  C22 UNL     1      25.088  11.048  56.780  1.00  0.00     0.076 C 
HETATM   38  C23 UNL     1      25.451   9.568  56.910  1.00  0.00     0.032 C 
ENDBRANCH  12  32
BRANCH   5  39
HETATM   39  O3  UNL     1      28.215  10.528  52.576  1.00  0.00    -0.387 OA
ATOM     40  H3  UNL     1      27.843   9.692  52.319  1.00  0.00     0.210 HD
ENDBRANCH   5  39
BRANCH   7  41
HETATM   41  O4  UNL     1      29.797   9.995  55.284  1.00  0.00    -0.387 OA
ATOM     42  H4  UNL     1      29.065   9.628  55.766  1.00  0.00     0.210 HD
ENDBRANCH   7  41
TORSDOF 13
ENDMDL
MODEL 3
REMARK VINA RESULT: -7.013182364      1.356      1.571
REMARK  13 active torsions:
REMARK  status: ('A' for Active; 'I' for Inactive)
REMARK    1  A    between atoms: C2_2  and  C3_3 
REMARK    2  A    between atoms: C3_3  and  C4_4 
REMARK    3  A    between atoms: C4_4  and  C5_5 
REMARK    4  A    between atoms: C6_6  and  C7_7 
REMARK    5  A    between atoms: C7_7  and  C8_8 
REMARK    6  A    between atoms: C8_8  and  C9_9 
REMARK    7  A    between atoms: C10_11  and  O2_12 
REMARK    8  A    between atoms: C12_15  and  O3_17 
REMARK    9  A    between atoms: C14_19  and  O4_20 
REMARK   10  A    between atoms: C17_26  and  N1_27 
REMARK   11  A    between atoms: C24_34  and  O6_36 
REMARK   12  A    between atoms: O6_36  and  C26_37 
REMARK       I    between atoms: C26_37  and  N2_39 
REMARK   13  A    between atoms: N2_39  and  C27_41 
ROOT
HETATM    1  C9  UNL     1      24.542  11.513  53.256  1.00  0.00     0.163 C 
HETATM    2  O1  UNL     1      25.598  11.269  52.408  1.00  0.00    -0.352 OA
HETATM    3  C10 UNL     1      26.713  10.964  53.190  1.00  0.00     0.267 C 
HETATM    4  C11 UNL     1      27.054  12.217  53.992  1.00  0.00     0.117 C 
HETATM    5  C12 UNL     1      28.482  12.496  54.088  1.00  0.00     0.096 C 
HETATM    6  C13 UNL     1      29.418  11.414  54.535  1.00  0.00     0.049 C 
HETATM    7  C14 UNL     1      28.815  13.866  54.601  1.00  0.00     0.201 C 
HETATM    8  C15 UNL     1      27.680  14.627  55.157  1.00  0.00     0.091 C 
HETATM    9 CL1  UNL     1      27.576  16.266  54.391  1.00  0.00    -0.082 Cl
HETATM   10  C16 UNL     1      26.406  13.985  55.357  1.00  0.00     0.201 C 
HETATM   11  O5  UNL     1      25.507  14.658  55.850  1.00  0.00    -0.289 OA
HETATM   12  C17 UNL     1      26.031  12.518  55.017  1.00  0.00     0.140 C 
HETATM   13  C24 UNL     1      24.724  12.640  54.247  1.00  0.00     0.128 C 
HETATM   14  C25 UNL     1      23.547  12.314  55.268  1.00  0.00     0.052 C 
ENDROOT
BRANCH   1  15
HETATM   15  C8  UNL     1      23.200  11.528  52.581  1.00  0.00     0.039 C 
BRANCH  15  16
HETATM   16  C7  UNL     1      23.352  11.159  51.090  1.00  0.00     0.029 C 
BRANCH  16  17
HETATM   17  C6  UNL     1      22.885  12.246  50.228  1.00  0.00    -0.031 C 
HETATM   18  C5  UNL     1      21.941  12.083  49.338  1.00  0.00    -0.031 C 
BRANCH  18  19
HETATM   19  C4  UNL     1      21.180  10.868  49.009  1.00  0.00     0.027 C 
BRANCH  19  20
HETATM   20  C3  UNL     1      20.155  11.254  47.957  1.00  0.00     0.003 C 
BRANCH  20  21
HETATM   21  C2  UNL     1      20.851  12.070  46.902  1.00  0.00    -0.004 C 
HETATM   22  C1  UNL     1      20.142  11.835  45.583  1.00  0.00     0.005 C 
ENDBRANCH  20  21
ENDBRANCH  19  20
ENDBRANCH  18  19
ENDBRANCH  16  17
ENDBRANCH  15  16
ENDBRANCH   1  15
BRANCH  13  23
HETATM   23  O6  UNL     1      24.349  13.849  53.872  1.00  0.00    -0.287 OA
BRANCH  23  24
HETATM   24  C26 UNL     1      24.067  14.781  53.021  1.00  0.00     0.361 C 
HETATM   25  O7  UNL     1      24.771  14.702  51.989  1.00  0.00    -0.238 OA
HETATM   26  N2  UNL     1      23.108  15.838  53.094  1.00  0.00    -0.337 N 
ATOM     27  H2  UNL     1      22.523  15.918  53.926  1.00  0.00     0.164 HD
BRANCH  26  28
HETATM   28  C27 UNL     1      22.940  16.795  52.028  1.00  0.00     0.120 C 
HETATM   29  C28 UNL     1      21.946  17.857  52.449  1.00  0.00     0.026 C 
ENDBRANCH  26  28
ENDBRANCH  23  24
ENDBRANCH  13  23
BRANCH   3  30
HETATM   30  O2  UNL     1      27.718  10.582  52.348  1.00  0.00    -0.371 OA
ATOM     31  H2  UNL     1      28.402  11.239  52.400  1.00  0.00     0.212 HD
ENDBRANCH   3  30
BRANCH  12  32
HETATM   32  N1  UNL     1      26.006  11.978  56.294  1.00  0.00    -0.390 N 
HETATM   33  C18 UNL     1      26.846  12.527  57.330  1.00  0.00     0.118 C 
HETATM   34  C19 UNL     1      26.584  11.950  58.726  1.00  0.00     0.020 C 
HETATM   35  C20 UNL     1      25.176  11.502  58.875  1.00  0.00     0.004 C 
HETATM   36  C21 UNL     1      25.029  10.364  57.900  1.00  0.00     0.024 C 
HETATM   37  C22 UNL     1      25.848  10.619  56.624  1.00  0.00     0.076 C 
HETATM   38  C23 UNL     1      27.132   9.832  56.888  1.00  0.00     0.032 C 
ENDBRANCH  12  32
BRANCH   5  39
HETATM   39  O3  UNL     1      28.896  12.614  52.687  1.00  0.00    -0.387 OA
ATOM     40  H3  UNL     1      28.793  13.542  52.507  1.00  0.00     0.210 HD
ENDBRANCH   5  39
BRANCH   7  41
HETATM   41  O4  UNL     1      29.884  13.682  55.517  1.00  0.00    -0.387 OA
ATOM     42  H4  UNL     1      29.625  12.956  56.072  1.00  0.00     0.210 HD
ENDBRANCH   7  41
TORSDOF 13
ENDMDL
MODEL 4
REMARK VINA RESULT: -6.962687368      3.348      6.596
REMARK  13 active torsions:
REMARK  status: ('A' for Active; 'I' for Inactive)
REMARK    1  A    between atoms: C2_2  and  C3_3 
REMARK    2  A    between atoms: C3_3  and  C4_4 
REMARK    3  A    between atoms: C4_4  and  C5_5 
REMARK    4  A    between atoms: C6_6  and  C7_7 
REMARK    5  A    between atoms: C7_7  and  C8_8 
REMARK    6  A    between atoms: C8_8  and  C9_9 
REMARK    7  A    between atoms: C10_11  and  O2_12 
REMARK    8  A    between atoms: C12_15  and  O3_17 
REMARK    9  A    between atoms: C14_19  and  O4_20 
REMARK   10  A    between atoms: C17_26  and  N1_27 
REMARK   11  A    between atoms: C24_34  and  O6_36 
REMARK   12  A    between atoms: O6_36  and  C26_37 
REMARK       I    between atoms: C26_37  and  N2_39 
REMARK   13  A    between atoms: N2_39  and  C27_41 
ROOT
HETATM    1  C9  UNL     1      22.284  12.692  52.889  1.00  0.00     0.163 C 
HETATM    2  O1  UNL     1      21.001  12.221  53.049  1.00  0.00    -0.352 OA
HETATM    3  C10 UNL     1      20.156  13.321  53.197  1.00  0.00     0.267 C 
HETATM    4  C11 UNL     1      20.550  14.017  54.497  1.00  0.00     0.117 C 
HETATM    5  C12 UNL     1      19.421  14.480  55.295  1.00  0.00     0.096 C 
HETATM    6  C13 UNL     1      18.354  15.313  54.652  1.00  0.00     0.049 C 
HETATM    7  C14 UNL     1      19.773  14.884  56.696  1.00  0.00     0.201 C 
HETATM    8  C15 UNL     1      21.217  14.989  56.981  1.00  0.00     0.091 C 
HETATM    9 CL1  UNL     1      21.648  14.018  58.449  1.00  0.00    -0.082 Cl
HETATM   10  C16 UNL     1      22.175  14.897  55.909  1.00  0.00     0.201 C 
HETATM   11  O5  UNL     1      23.360  15.021  56.200  1.00  0.00    -0.289 OA
HETATM   12  C17 UNL     1      21.880  14.659  54.404  1.00  0.00     0.140 C 
HETATM   13  C24 UNL     1      22.833  13.538  54.014  1.00  0.00     0.128 C 
HETATM   14  C25 UNL     1      24.075  14.214  53.283  1.00  0.00     0.052 C 
ENDROOT
BRANCH   1  15
HETATM   15  C8  UNL     1      23.260  11.665  52.388  1.00  0.00     0.039 C 
BRANCH  15  16
HETATM   16  C7  UNL     1      22.754  11.055  51.064  1.00  0.00     0.029 C 
BRANCH  16  17
HETATM   17  C6  UNL     1      22.531  12.093  50.056  1.00  0.00    -0.031 C 
HETATM   18  C5  UNL     1      21.553  12.036  49.191  1.00  0.00    -0.031 C 
BRANCH  18  19
HETATM   19  C4  UNL     1      20.521  11.000  49.027  1.00  0.00     0.027 C 
BRANCH  19  20
HETATM   20  C3  UNL     1      19.758  11.326  47.755  1.00  0.00     0.003 C 
BRANCH  20  21
HETATM   21  C2  UNL     1      20.680  12.079  46.835  1.00  0.00    -0.004 C 
HETATM   22  C1  UNL     1      20.215  11.847  45.411  1.00  0.00     0.005 C 
ENDBRANCH  20  21
ENDBRANCH  19  20
ENDBRANCH  18  19
ENDBRANCH  16  17
ENDBRANCH  15  16
ENDBRANCH   1  15
BRANCH  13  23
HETATM   23  O6  UNL     1      23.473  12.918  54.988  1.00  0.00    -0.287 OA
BRANCH  23  24
HETATM   24  C26 UNL     1      24.351  12.112  55.491  1.00  0.00     0.361 C 
HETATM   25  O7  UNL     1      24.071  11.791  56.668  1.00  0.00    -0.238 OA
HETATM   26  N2  UNL     1      25.540  11.566  54.916  1.00  0.00    -0.337 N 
ATOM     27  H2  UNL     1      25.784  11.815  53.957  1.00  0.00     0.164 HD
BRANCH  26  28
HETATM   28  C27 UNL     1      26.406  10.674  55.648  1.00  0.00     0.120 C 
HETATM   29  C28 UNL     1      26.125   9.243  55.240  1.00  0.00     0.026 C 
ENDBRANCH  26  28
ENDBRANCH  23  24
ENDBRANCH  13  23
BRANCH   3  30
HETATM   30  O2  UNL     1      18.871  12.859  53.211  1.00  0.00    -0.371 OA
ATOM     31  H2  UNL     1      18.340  13.467  52.709  1.00  0.00     0.212 HD
ENDBRANCH   3  30
BRANCH  12  32
HETATM   32  N1  UNL     1      22.112  15.934  53.912  1.00  0.00    -0.390 N 
HETATM   33  C18 UNL     1      22.030  17.076  54.789  1.00  0.00     0.118 C 
HETATM   34  C19 UNL     1      22.483  18.394  54.152  1.00  0.00     0.020 C 
HETATM   35  C20 UNL     1      23.495  18.167  53.089  1.00  0.00     0.004 C 
HETATM   36  C21 UNL     1      22.766  17.396  52.022  1.00  0.00     0.024 C 
HETATM   37  C22 UNL     1      21.754  16.416  52.639  1.00  0.00     0.076 C 
HETATM   38  C23 UNL     1      20.441  17.195  52.554  1.00  0.00     0.032 C 
ENDBRANCH  12  32
BRANCH   5  39
HETATM   39  O3  UNL     1      18.659  13.253  55.541  1.00  0.00    -0.387 OA
ATOM     40  H3  UNL     1      17.881  13.370  55.009  1.00  0.00     0.210 HD
ENDBRANCH   5  39
BRANCH   7  41
HETATM   41  O4  UNL     1      19.053  16.083  56.941  1.00  0.00    -0.387 OA
ATOM     42  H4  UNL     1      18.134  15.845  56.894  1.00  0.00     0.210 HD
ENDBRANCH   7  41
TORSDOF 13
ENDMDL
MODEL 5
REMARK VINA RESULT: -6.937363863      2.489      5.396
REMARK  13 active torsions:
REMARK  status: ('A' for Active; 'I' for Inactive)
REMARK    1  A    between atoms: C2_2  and  C3_3 
REMARK    2  A    between atoms: C3_3  and  C4_4 
REMARK    3  A    between atoms: C4_4  and  C5_5 
REMARK    4  A    between atoms: C6_6  and  C7_7 
REMARK    5  A    between atoms: C7_7  and  C8_8 
REMARK    6  A    between atoms: C8_8  and  C9_9 
REMARK    7  A    between atoms: C10_11  and  O2_12 
REMARK    8  A    between atoms: C12_15  and  O3_17 
REMARK    9  A    between atoms: C14_19  and  O4_20 
REMARK   10  A    between atoms: C17_26  and  N1_27 
REMARK   11  A    between atoms: C24_34  and  O6_36 
REMARK   12  A    between atoms: O6_36  and  C26_37 
REMARK       I    between atoms: C26_37  and  N2_39 
REMARK   13  A    between atoms: N2_39  and  C27_41 
ROOT
HETATM    1  C9  UNL     1      22.264  14.464  52.745  1.00  0.00     0.163 C 
HETATM    2  O1  UNL     1      21.485  13.925  53.743  1.00  0.00    -0.352 OA
HETATM    3  C10 UNL     1      21.412  14.857  54.780  1.00  0.00     0.267 C 
HETATM    4  C11 UNL     1      22.823  15.014  55.340  1.00  0.00     0.117 C 
HETATM    5  C12 UNL     1      22.883  15.099  56.794  1.00  0.00     0.096 C 
HETATM    6  C13 UNL     1      22.007  16.079  57.515  1.00  0.00     0.049 C 
HETATM    7  C14 UNL     1      24.260  14.948  57.370  1.00  0.00     0.201 C 
HETATM    8  C15 UNL     1      25.364  14.983  56.390  1.00  0.00     0.091 C 
HETATM    9 CL1  UNL     1      26.440  13.540  56.591  1.00  0.00    -0.082 Cl
HETATM   10  C16 UNL     1      25.103  15.341  55.020  1.00  0.00     0.201 C 
HETATM   11  O5  UNL     1      26.062  15.383  54.256  1.00  0.00    -0.289 OA
HETATM   12  C17 UNL     1      23.730  15.687  54.384  1.00  0.00     0.140 C 
HETATM   13  C24 UNL     1      23.680  14.832  53.125  1.00  0.00     0.128 C 
HETATM   14  C25 UNL     1      24.066  15.777  51.903  1.00  0.00     0.052 C 
ENDROOT
BRANCH   1  15
HETATM   15  C8  UNL     1      22.172  13.740  51.432  1.00  0.00     0.039 C 
BRANCH  15  16
HETATM   16  C7  UNL     1      21.435  12.397  51.617  1.00  0.00     0.029 C 
BRANCH  16  17
HETATM   17  C6  UNL     1      20.121  12.424  50.974  1.00  0.00    -0.031 C 
HETATM   18  C5  UNL     1      19.867  11.782  49.863  1.00  0.00    -0.031 C 
BRANCH  18  19
HETATM   19  C4  UNL     1      20.765  10.946  49.052  1.00  0.00     0.027 C 
BRANCH  19  20
HETATM   20  C3  UNL     1      21.125  11.747  47.813  1.00  0.00     0.003 C 
BRANCH  20  21
HETATM   21  C2  UNL     1      19.940  11.736  46.887  1.00  0.00    -0.004 C 
HETATM   22  C1  UNL     1      20.427  12.090  45.496  1.00  0.00     0.005 C 
ENDBRANCH  20  21
ENDBRANCH  19  20
ENDBRANCH  18  19
ENDBRANCH  16  17
ENDBRANCH  15  16
ENDBRANCH   1  15
BRANCH  13  23
HETATM   23  O6  UNL     1      24.611  13.908  52.980  1.00  0.00    -0.287 OA
BRANCH  23  24
HETATM   24  C26 UNL     1      25.116  12.722  53.081  1.00  0.00     0.361 C 
HETATM   25  O7  UNL     1      26.000  12.514  52.219  1.00  0.00    -0.238 OA
HETATM   26  N2  UNL     1      24.818  11.666  53.997  1.00  0.00    -0.337 N 
ATOM     27  H2  UNL     1      24.101  11.817  54.708  1.00  0.00     0.164 HD
BRANCH  26  28
HETATM   28  C27 UNL     1      25.496  10.394  53.949  1.00  0.00     0.120 C 
HETATM   29  C28 UNL     1      25.835   9.944  55.354  1.00  0.00     0.026 C 
ENDBRANCH  26  28
ENDBRANCH  23  24
ENDBRANCH  13  23
BRANCH   3  30
HETATM   30  O2  UNL     1      20.524  14.381  55.702  1.00  0.00    -0.371 OA
ATOM     31  H2  UNL     1      19.968  15.105  55.966  1.00  0.00     0.212 HD
ENDBRANCH   3  30
BRANCH  12  32
HETATM   32  N1  UNL     1      23.868  17.060  54.254  1.00  0.00    -0.390 N 
HETATM   33  C18 UNL     1      24.753  17.786  55.131  1.00  0.00     0.118 C 
HETATM   34  C19 UNL     1      24.940  19.261  54.758  1.00  0.00     0.020 C 
HETATM   35  C20 UNL     1      24.763  19.482  53.300  1.00  0.00     0.004 C 
HETATM   36  C21 UNL     1      23.321  19.145  53.032  1.00  0.00     0.024 C 
HETATM   37  C22 UNL     1      22.853  17.973  53.911  1.00  0.00     0.076 C 
HETATM   38  C23 UNL     1      22.160  18.684  55.074  1.00  0.00     0.032 C 
ENDBRANCH  12  32
BRANCH   5  39
HETATM   39  O3  UNL     1      22.260  13.847  57.230  1.00  0.00    -0.387 OA
ATOM     40  H3  UNL     1      21.532  14.141  57.766  1.00  0.00     0.210 HD
ENDBRANCH   5  39
BRANCH   7  41
HETATM   41  O4  UNL     1      24.363  15.937  58.383  1.00  0.00    -0.387 OA
ATOM     42  H4  UNL     1      25.294  16.063  58.525  1.00  0.00     0.210 HD
ENDBRANCH   7  41
TORSDOF 13
ENDMDL
