MODEL 1
REMARK VINA RESULT: -8.113969083      0.000      0.000
REMARK  12 active torsions:
REMARK  status: ('A' for Active; 'I' for Inactive)
REMARK    1  A    between atoms: O1_2  and  C2_3 
REMARK    2  A    between atoms: C3_4  and  N1_5 
REMARK    3  A    between atoms: C8_10  and  C9_11 
REMARK       I    between atoms: C9_11  and  N2_13 
REMARK    4  A    between atoms: N2_13  and  C10_15 
REMARK    5  A    between atoms: C17_22  and  N3_23 
REMARK       I    between atoms: N3_23  and  C18_25 
REMARK    6  A    between atoms: C18_25  and  C19_27 
REMARK    7  A    between atoms: C19_27  and  O4_28 
REMARK    8  A    between atoms: O4_28  and  C20_29 
REMARK    9  A    between atoms: C20_29  and  C21_31 
REMARK   10  A    between atoms: C21_31  and  N4_32 
REMARK       I    between atoms: N4_32  and  C22_34 
REMARK   11  A    between atoms: C22_34  and  C23_36 
REMARK       I    between atoms: C23_36  and  N5_38 
REMARK   12  A    between atoms: N5_38  and  C24_40 
ROOT
HETATM    1  C2  UNL     1      23.058  15.803  53.603  1.00  0.00     0.122 A 
HETATM    2  C3  UNL     1      22.264  16.892  53.342  1.00  0.00     0.065 A 
HETATM    3  C6  UNL     1      21.110  16.658  52.633  1.00  0.00     0.033 A 
HETATM    4  C7  UNL     1      20.750  15.406  52.194  1.00  0.00     0.022 A 
HETATM    5  C8  UNL     1      21.541  14.288  52.447  1.00  0.00     0.061 A 
HETATM    6  C17 UNL     1      22.703  14.515  53.162  1.00  0.00     0.086 A 
ENDROOT
BRANCH   6   7
HETATM    7  N3  UNL     1      23.553  13.432  53.460  1.00  0.00    -0.322 N 
HETATM    8  C18 UNL     1      24.561  13.041  52.503  1.00  0.00     0.246 C 
HETATM    9  O3  UNL     1      24.692  13.633  51.414  1.00  0.00    -0.271 OA
ATOM     10  H3  UNL     1      23.458  12.928  54.343  1.00  0.00     0.169 HD
BRANCH   8  11
HETATM   11  C19 UNL     1      25.469  11.907  52.823  1.00  0.00     0.281 C 
BRANCH  11  12
HETATM   12  O4  UNL     1      26.788  12.297  52.833  1.00  0.00    -0.311 OA
BRANCH  12  13
HETATM   13  C20 UNL     1      27.834  11.491  53.196  1.00  0.00     0.277 C 
HETATM   14  O5  UNL     1      28.835  11.958  53.769  1.00  0.00    -0.263 OA
BRANCH  13  15
HETATM   15  C21 UNL     1      27.699  10.042  52.871  1.00  0.00     0.234 C 
BRANCH  15  16
HETATM   16  N4  UNL     1      28.179   9.272  53.962  1.00  0.00    -0.344 N 
HETATM   17  C22 UNL     1      27.367   8.679  54.935  1.00  0.00     0.309 C 
HETATM   18  O6  UNL     1      26.107   8.779  54.949  1.00  0.00    -0.262 OA
ATOM     19  H4  UNL     1      29.187   9.140  54.042  1.00  0.00     0.163 HD
BRANCH  17  20
HETATM   20  C23 UNL     1      28.037   7.900  55.989  1.00  0.00     0.309 C 
HETATM   21  O7  UNL     1      29.196   8.217  56.403  1.00  0.00    -0.262 OA
HETATM   22  N5  UNL     1      27.384   6.784  56.545  1.00  0.00    -0.345 N 
ATOM     23  H5  UNL     1      26.452   6.528  56.217  1.00  0.00     0.163 HD
BRANCH  22  24
HETATM   24  C24 UNL     1      28.030   5.992  57.585  1.00  0.00     0.022 C 
HETATM   25  C25 UNL     1      28.281   6.835  58.826  1.00  0.00     0.037 C 
HETATM   26  C26 UNL     1      29.354   5.441  57.141  1.00  0.00     0.037 C 
HETATM   27  C27 UNL     1      27.137   4.812  57.898  1.00  0.00     0.037 C 
ENDBRANCH  22  24
ENDBRANCH  17  20
ENDBRANCH  15  16
ENDBRANCH  13  15
ENDBRANCH  12  13
ENDBRANCH  11  12
ENDBRANCH   8  11
ENDBRANCH   6   7
BRANCH   1  28
HETATM   28  O1  UNL     1      24.221  15.991  54.313  1.00  0.00    -0.351 OA
HETATM   29  C1  UNL     1      25.481  16.318  53.825  1.00  0.00     0.210 C 
ENDBRANCH   1  28
BRANCH   5  30
HETATM   30  C9  UNL     1      21.144  12.963  51.972  1.00  0.00     0.254 C 
HETATM   31  O2  UNL     1      20.994  11.986  52.770  1.00  0.00    -0.268 OA
HETATM   32  N2  UNL     1      20.897  12.653  50.615  1.00  0.00    -0.352 N 
ATOM     33  H2  UNL     1      20.986  13.396  49.922  1.00  0.00     0.163 HD
BRANCH  32  34
HETATM   34  C10 UNL     1      20.523  11.322  50.161  1.00  0.00     0.084 C 
HETATM   35  C11 UNL     1      21.361  10.989  48.973  1.00  0.00     0.025 C 
HETATM   36  C12 UNL     1      21.349  11.942  47.841  1.00  0.00     0.002 C 
HETATM   37  C13 UNL     1      20.213  11.660  46.915  1.00  0.00     0.000 C 
HETATM   38  C14 UNL     1      18.898  11.789  47.646  1.00  0.00     0.000 C 
HETATM   39  C15 UNL     1      18.676  10.678  48.641  1.00  0.00     0.002 C 
HETATM   40  C16 UNL     1      19.066  11.091  50.037  1.00  0.00     0.025 C 
ENDBRANCH  32  34
ENDBRANCH   5  30
BRANCH   2  41
HETATM   41  N1  UNL     1      22.616  18.203  53.790  1.00  0.00    -0.387 N 
HETATM   42  C4  UNL     1      23.325  19.165  52.968  1.00  0.00     0.149 C 
HETATM   43  C5  UNL     1      22.266  18.608  55.123  1.00  0.00     0.149 C 
ENDBRANCH   2  41
TORSDOF 12
ENDMDL
MODEL 2
REMARK VINA RESULT: -8.047676990      2.176      8.920
REMARK  12 active torsions:
REMARK  status: ('A' for Active; 'I' for Inactive)
REMARK    1  A    between atoms: O1_2  and  C2_3 
REMARK    2  A    between atoms: C3_4  and  N1_5 
REMARK    3  A    between atoms: C8_10  and  C9_11 
REMARK       I    between atoms: C9_11  and  N2_13 
REMARK    4  A    between atoms: N2_13  and  C10_15 
REMARK    5  A    between atoms: C17_22  and  N3_23 
REMARK       I    between atoms: N3_23  and  C18_25 
REMARK    6  A    between atoms: C18_25  and  C19_27 
REMARK    7  A    between atoms: C19_27  and  O4_28 
REMARK    8  A    between atoms: O4_28  and  C20_29 
REMARK    9  A    between atoms: C20_29  and  C21_31 
REMARK   10  A    between atoms: C21_31  and  N4_32 
REMARK       I    between atoms: N4_32  and  C22_34 
REMARK   11  A    between atoms: C22_34  and  C23_36 
REMARK       I    between atoms: C23_36  and  N5_38 
REMARK   12  A    between atoms: N5_38  and  C24_40 
ROOT
HETATM    1  C2  UNL     1      25.897  13.939  53.724  1.00  0.00     0.122 A 
HETATM    2  C3  UNL     1      26.429  14.562  54.825  1.00  0.00     0.065 A 
HETATM    3  C6  UNL     1      27.168  13.779  55.679  1.00  0.00     0.033 A 
HETATM    4  C7  UNL     1      27.374  12.437  55.465  1.00  0.00     0.022 A 
HETATM    5  C8  UNL     1      26.843  11.785  54.355  1.00  0.00     0.061 A 
HETATM    6  C17 UNL     1      26.100  12.566  53.489  1.00  0.00     0.086 A 
ENDROOT
BRANCH   6   7
HETATM    7  N3  UNL     1      25.533  11.978  52.341  1.00  0.00    -0.322 N 
HETATM    8  C18 UNL     1      24.180  11.477  52.400  1.00  0.00     0.246 C 
HETATM    9  O3  UNL     1      23.503  11.544  53.444  1.00  0.00    -0.271 OA
ATOM     10  H3  UNL     1      26.072  11.906  51.478  1.00  0.00     0.169 HD
BRANCH   8  11
HETATM   11  C19 UNL     1      23.574  10.870  51.184  1.00  0.00     0.281 C 
BRANCH  11  12
HETATM   12  O4  UNL     1      23.284  11.816  50.230  1.00  0.00    -0.311 OA
BRANCH  12  13
HETATM   13  C20 UNL     1      22.070  11.952  49.613  1.00  0.00     0.277 C 
HETATM   14  O5  UNL     1      21.991  12.298  48.421  1.00  0.00    -0.263 OA
BRANCH  13  15
HETATM   15  C21 UNL     1      20.867  11.660  50.445  1.00  0.00     0.234 C 
BRANCH  15  16
HETATM   16  N4  UNL     1      20.597  12.771  51.285  1.00  0.00    -0.344 N 
HETATM   17  C22 UNL     1      20.296  12.683  52.649  1.00  0.00     0.309 C 
HETATM   18  O6  UNL     1      20.221  11.588  53.277  1.00  0.00    -0.262 OA
ATOM     19  H4  UNL     1      20.626  13.700  50.866  1.00  0.00     0.163 HD
BRANCH  17  20
HETATM   20  C23 UNL     1      20.058  13.943  53.370  1.00  0.00     0.309 C 
HETATM   21  O7  UNL     1      20.046  13.980  54.640  1.00  0.00    -0.262 OA
HETATM   22  N5  UNL     1      19.837  15.126  52.640  1.00  0.00    -0.345 N 
ATOM     23  H5  UNL     1      19.848  15.101  51.620  1.00  0.00     0.163 HD
BRANCH  22  24
HETATM   24  C24 UNL     1      19.590  16.386  53.332  1.00  0.00     0.022 C 
HETATM   25  C25 UNL     1      20.801  16.790  54.161  1.00  0.00     0.037 C 
HETATM   26  C26 UNL     1      18.415  16.305  54.262  1.00  0.00     0.037 C 
HETATM   27  C27 UNL     1      19.266  17.435  52.293  1.00  0.00     0.037 C 
ENDBRANCH  22  24
ENDBRANCH  17  20
ENDBRANCH  15  16
ENDBRANCH  13  15
ENDBRANCH  12  13
ENDBRANCH  11  12
ENDBRANCH   8  11
ENDBRANCH   6   7
BRANCH   1  28
HETATM   28  O1  UNL     1      25.152  14.686  52.840  1.00  0.00    -0.351 OA
HETATM   29  C1  UNL     1      23.788  14.950  52.877  1.00  0.00     0.210 C 
ENDBRANCH   1  28
BRANCH   5  30
HETATM   30  C9  UNL     1      27.071  10.356  54.142  1.00  0.00     0.254 C 
HETATM   31  O2  UNL     1      27.212   9.870  52.976  1.00  0.00    -0.268 OA
HETATM   32  N2  UNL     1      27.152   9.406  55.185  1.00  0.00    -0.352 N 
ATOM     33  H2  UNL     1      27.060   9.732  56.147  1.00  0.00     0.163 HD
BRANCH  32  34
HETATM   34  C10 UNL     1      27.359   7.985  54.950  1.00  0.00     0.084 C 
HETATM   35  C11 UNL     1      26.296   7.239  55.683  1.00  0.00     0.025 C 
HETATM   36  C12 UNL     1      26.152   7.505  57.132  1.00  0.00     0.002 C 
HETATM   37  C13 UNL     1      27.077   6.649  57.929  1.00  0.00     0.000 C 
HETATM   38  C14 UNL     1      28.511   6.929  57.546  1.00  0.00     0.000 C 
HETATM   39  C15 UNL     1      28.851   6.426  56.166  1.00  0.00     0.002 C 
HETATM   40  C16 UNL     1      28.752   7.518  55.133  1.00  0.00     0.025 C 
ENDBRANCH  32  34
ENDBRANCH   5  30
BRANCH   2  41
HETATM   41  N1  UNL     1      26.230  15.957  55.069  1.00  0.00    -0.387 N 
HETATM   42  C4  UNL     1      27.056  16.996  54.485  1.00  0.00     0.149 C 
HETATM   43  C5  UNL     1      25.167  16.373  55.941  1.00  0.00     0.149 C 
ENDBRANCH   2  41
TORSDOF 12
ENDMDL
MODEL 3
REMARK VINA RESULT: -8.038439686      1.247      1.769
REMARK  12 active torsions:
REMARK  status: ('A' for Active; 'I' for Inactive)
REMARK    1  A    between atoms: O1_2  and  C2_3 
REMARK    2  A    between atoms: C3_4  and  N1_5 
REMARK    3  A    between atoms: C8_10  and  C9_11 
REMARK       I    between atoms: C9_11  and  N2_13 
REMARK    4  A    between atoms: N2_13  and  C10_15 
REMARK    5  A    between atoms: C17_22  and  N3_23 
REMARK       I    between atoms: N3_23  and  C18_25 
REMARK    6  A    between atoms: C18_25  and  C19_27 
REMARK    7  A    between atoms: C19_27  and  O4_28 
REMARK    8  A    between atoms: O4_28  and  C20_29 
REMARK    9  A    between atoms: C20_29  and  C21_31 
REMARK   10  A    between atoms: C21_31  and  N4_32 
REMARK       I    between atoms: N4_32  and  C22_34 
REMARK   11  A    between atoms: C22_34  and  C23_36 
REMARK       I    between atoms: C23_36  and  N5_38 
REMARK   12  A    between atoms: N5_38  and  C24_40 
ROOT
HETATM    1  C2  UNL     1      23.301  16.414  53.908  1.00  0.00     0.122 A 
HETATM    2  C3  UNL     1      22.557  17.555  53.743  1.00  0.00     0.065 A 
HETATM    3  C6  UNL     1      21.284  17.394  53.250  1.00  0.00     0.033 A 
HETATM    4  C7  UNL     1      20.762  16.164  52.929  1.00  0.00     0.022 A 
HETATM    5  C8  UNL     1      21.501  14.994  53.088  1.00  0.00     0.061 A 
HETATM    6  C17 UNL     1      22.782  15.146  53.586  1.00  0.00     0.086 A 
ENDROOT
BRANCH   6   7
HETATM    7  N3  UNL     1      23.588  14.008  53.778  1.00  0.00    -0.322 N 
HETATM    8  C18 UNL     1      24.422  13.543  52.694  1.00  0.00     0.246 C 
HETATM    9  O3  UNL     1      24.440  14.118  51.589  1.00  0.00    -0.271 OA
ATOM     10  H3  UNL     1      23.584  13.516  54.672  1.00  0.00     0.169 HD
BRANCH   8  11
HETATM   11  C19 UNL     1      25.287  12.349  52.900  1.00  0.00     0.281 C 
BRANCH  11  12
HETATM   12  O4  UNL     1      26.622  12.665  52.816  1.00  0.00    -0.311 OA
BRANCH  12  13
HETATM   13  C20 UNL     1      27.456  12.814  53.892  1.00  0.00     0.277 C 
HETATM   14  O5  UNL     1      27.189  13.617  54.804  1.00  0.00    -0.263 OA
BRANCH  13  15
HETATM   15  C21 UNL     1      28.681  11.964  53.904  1.00  0.00     0.234 C 
BRANCH  15  16
HETATM   16  N4  UNL     1      28.440  10.809  54.693  1.00  0.00    -0.344 N 
HETATM   17  C22 UNL     1      27.848   9.633  54.221  1.00  0.00     0.309 C 
HETATM   18  O6  UNL     1      27.450   9.481  53.030  1.00  0.00    -0.262 OA
ATOM     19  H4  UNL     1      28.720  10.837  55.673  1.00  0.00     0.163 HD
BRANCH  17  20
HETATM   20  C23 UNL     1      27.689   8.526  55.178  1.00  0.00     0.309 C 
HETATM   21  O7  UNL     1      26.734   7.695  55.068  1.00  0.00    -0.262 OA
HETATM   22  N5  UNL     1      28.611   8.388  56.233  1.00  0.00    -0.345 N 
ATOM     23  H5  UNL     1      29.381   9.050  56.323  1.00  0.00     0.163 HD
BRANCH  22  24
HETATM   24  C24 UNL     1      28.470   7.303  57.198  1.00  0.00     0.022 C 
HETATM   25  C25 UNL     1      28.835   5.968  56.566  1.00  0.00     0.037 C 
HETATM   26  C26 UNL     1      27.069   7.185  57.722  1.00  0.00     0.037 C 
HETATM   27  C27 UNL     1      29.364   7.610  58.379  1.00  0.00     0.037 C 
ENDBRANCH  22  24
ENDBRANCH  17  20
ENDBRANCH  15  16
ENDBRANCH  13  15
ENDBRANCH  12  13
ENDBRANCH  11  12
ENDBRANCH   8  11
ENDBRANCH   6   7
BRANCH   1  28
HETATM   28  O1  UNL     1      24.580  16.528  54.403  1.00  0.00    -0.351 OA
HETATM   29  C1  UNL     1      25.754  16.771  53.698  1.00  0.00     0.210 C 
ENDBRANCH   1  28
BRANCH   5  30
HETATM   30  C9  UNL     1      20.931  13.692  52.740  1.00  0.00     0.254 C 
HETATM   31  O2  UNL     1      20.585  12.856  53.632  1.00  0.00    -0.268 OA
HETATM   32  N2  UNL     1      20.719  13.254  51.413  1.00  0.00    -0.352 N 
ATOM     33  H2  UNL     1      20.962  13.882  50.648  1.00  0.00     0.163 HD
BRANCH  32  34
HETATM   34  C10 UNL     1      20.169  11.946  51.089  1.00  0.00     0.084 C 
HETATM   35  C11 UNL     1      21.293  10.966  51.079  1.00  0.00     0.025 C 
HETATM   36  C12 UNL     1      22.453  11.267  50.211  1.00  0.00     0.002 C 
HETATM   37  C13 UNL     1      22.225  10.773  48.821  1.00  0.00     0.000 C 
HETATM   38  C14 UNL     1      21.010  11.441  48.221  1.00  0.00     0.000 C 
HETATM   39  C15 UNL     1      19.723  10.976  48.853  1.00  0.00     0.002 C 
HETATM   40  C16 UNL     1      19.253  11.924  49.926  1.00  0.00     0.025 C 
ENDBRANCH  32  34
ENDBRANCH   5  30
BRANCH   2  41
HETATM   41  N1  UNL     1      23.076  18.846  54.073  1.00  0.00    -0.387 N 
HETATM   42  C4  UNL     1      23.061  19.395  55.414  1.00  0.00     0.149 C 
HETATM   43  C5  UNL     1      23.640  19.662  53.034  1.00  0.00     0.149 C 
ENDBRANCH   2  41
TORSDOF 12
ENDMDL
MODEL 4
REMARK VINA RESULT: -8.018746489      1.460      1.828
REMARK  12 active torsions:
REMARK  status: ('A' for Active; 'I' for Inactive)
REMARK    1  A    between atoms: O1_2  and  C2_3 
REMARK    2  A    between atoms: C3_4  and  N1_5 
REMARK    3  A    between atoms: C8_10  and  C9_11 
REMARK       I    between atoms: C9_11  and  N2_13 
REMARK    4  A    between atoms: N2_13  and  C10_15 
REMARK    5  A    between atoms: C17_22  and  N3_23 
REMARK       I    between atoms: N3_23  and  C18_25 
REMARK    6  A    between atoms: C18_25  and  C19_27 
REMARK    7  A    between atoms: C19_27  and  O4_28 
REMARK    8  A    between atoms: O4_28  and  C20_29 
REMARK    9  A    between atoms: C20_29  and  C21_31 
REMARK   10  A    between atoms: C21_31  and  N4_32 
REMARK       I    between atoms: N4_32  and  C22_34 
REMARK   11  A    between atoms: C22_34  and  C23_36 
REMARK       I    between atoms: C23_36  and  N5_38 
REMARK   12  A    between atoms: N5_38  and  C24_40 
ROOT
HETATM    1  C2  UNL     1      23.263  16.429  53.862  1.00  0.00     0.122 A 
HETATM    2  C3  UNL     1      22.531  17.574  53.669  1.00  0.00     0.065 A 
HETATM    3  C6  UNL     1      21.264  17.417  53.159  1.00  0.00     0.033 A 
HETATM    4  C7  UNL     1      20.737  16.187  52.846  1.00  0.00     0.022 A 
HETATM    5  C8  UNL     1      21.463  15.013  53.033  1.00  0.00     0.061 A 
HETATM    6  C17 UNL     1      22.737  15.162  53.548  1.00  0.00     0.086 A 
ENDROOT
BRANCH   6   7
HETATM    7  N3  UNL     1      23.531  14.019  53.768  1.00  0.00    -0.322 N 
HETATM    8  C18 UNL     1      24.368  13.524  52.700  1.00  0.00     0.246 C 
HETATM    9  O3  UNL     1      24.398  14.078  51.584  1.00  0.00    -0.271 OA
ATOM     10  H3  UNL     1      23.515  13.545  54.672  1.00  0.00     0.169 HD
BRANCH   8  11
HETATM   11  C19 UNL     1      25.218  12.326  52.936  1.00  0.00     0.281 C 
BRANCH  11  12
HETATM   12  O4  UNL     1      26.547  12.590  52.704  1.00  0.00    -0.311 OA
BRANCH  12  13
HETATM   13  C20 UNL     1      27.458  12.907  53.675  1.00  0.00     0.277 C 
HETATM   14  O5  UNL     1      27.140  13.613  54.649  1.00  0.00    -0.263 OA
BRANCH  13  15
HETATM   15  C21 UNL     1      28.833  12.356  53.500  1.00  0.00     0.234 C 
BRANCH  15  16
HETATM   16  N4  UNL     1      28.878  11.035  54.015  1.00  0.00    -0.344 N 
HETATM   17  C22 UNL     1      29.287  10.700  55.311  1.00  0.00     0.309 C 
HETATM   18  O6  UNL     1      29.674  11.550  56.162  1.00  0.00    -0.262 OA
ATOM     19  H4  UNL     1      28.591  10.275  53.398  1.00  0.00     0.163 HD
BRANCH  17  20
HETATM   20  C23 UNL     1      29.255   9.275  55.681  1.00  0.00     0.309 C 
HETATM   21  O7  UNL     1      30.325   8.642  55.944  1.00  0.00    -0.262 OA
HETATM   22  N5  UNL     1      28.019   8.604  55.740  1.00  0.00    -0.345 N 
ATOM     23  H5  UNL     1      27.158   9.110  55.533  1.00  0.00     0.163 HD
BRANCH  22  24
HETATM   24  C24 UNL     1      27.963   7.191  56.097  1.00  0.00     0.022 C 
HETATM   25  C25 UNL     1      28.447   6.976  57.523  1.00  0.00     0.037 C 
HETATM   26  C26 UNL     1      28.817   6.343  55.200  1.00  0.00     0.037 C 
HETATM   27  C27 UNL     1      26.535   6.723  55.928  1.00  0.00     0.037 C 
ENDBRANCH  22  24
ENDBRANCH  17  20
ENDBRANCH  15  16
ENDBRANCH  13  15
ENDBRANCH  12  13
ENDBRANCH  11  12
ENDBRANCH   8  11
ENDBRANCH   6   7
BRANCH   1  28
HETATM   28  O1  UNL     1      24.535  16.539  54.374  1.00  0.00    -0.351 OA
HETATM   29  C1  UNL     1      25.721  16.761  53.684  1.00  0.00     0.210 C 
ENDBRANCH   1  28
BRANCH   5  30
HETATM   30  C9  UNL     1      20.887  13.711  52.694  1.00  0.00     0.254 C 
HETATM   31  O2  UNL     1      20.500  12.900  53.592  1.00  0.00    -0.268 OA
HETATM   32  N2  UNL     1      20.714  13.246  51.371  1.00  0.00    -0.352 N 
ATOM     33  H2  UNL     1      20.992  13.854  50.601  1.00  0.00     0.163 HD
BRANCH  32  34
HETATM   34  C10 UNL     1      20.158  11.939  51.057  1.00  0.00     0.084 C 
HETATM   35  C11 UNL     1      21.273  10.949  51.079  1.00  0.00     0.025 C 
HETATM   36  C12 UNL     1      22.449  11.227  50.225  1.00  0.00     0.002 C 
HETATM   37  C13 UNL     1      22.239  10.715  48.839  1.00  0.00     0.000 C 
HETATM   38  C14 UNL     1      21.040  11.385  48.211  1.00  0.00     0.000 C 
HETATM   39  C15 UNL     1      19.738  10.941  48.829  1.00  0.00     0.002 C 
HETATM   40  C16 UNL     1      19.260  11.908  49.880  1.00  0.00     0.025 C 
ENDBRANCH  32  34
ENDBRANCH   5  30
BRANCH   2  41
HETATM   41  N1  UNL     1      23.056  18.865  53.989  1.00  0.00    -0.387 N 
HETATM   42  C4  UNL     1      23.026  19.432  55.322  1.00  0.00     0.149 C 
HETATM   43  C5  UNL     1      23.641  19.662  52.947  1.00  0.00     0.149 C 
ENDBRANCH   2  41
TORSDOF 12
ENDMDL
MODEL 5
REMARK VINA RESULT: -8.007122965      0.771      1.180
REMARK  12 active torsions:
REMARK  status: ('A' for Active; 'I' for Inactive)
REMARK    1  A    between atoms: O1_2  and  C2_3 
REMARK    2  A    between atoms: C3_4  and  N1_5 
REMARK    3  A    between atoms: C8_10  and  C9_11 
REMARK       I    between atoms: C9_11  and  N2_13 
REMARK    4  A    between atoms: N2_13  and  C10_15 
REMARK    5  A    between atoms: C17_22  and  N3_23 
REMARK       I    between atoms: N3_23  and  C18_25 
REMARK    6  A    between atoms: C18_25  and  C19_27 
REMARK    7  A    between atoms: C19_27  and  O4_28 
REMARK    8  A    between atoms: O4_28  and  C20_29 
REMARK    9  A    between atoms: C20_29  and  C21_31 
REMARK   10  A    between atoms: C21_31  and  N4_32 
REMARK       I    between atoms: N4_32  and  C22_34 
REMARK   11  A    between atoms: C22_34  and  C23_36 
REMARK       I    between atoms: C23_36  and  N5_38 
REMARK   12  A    between atoms: N5_38  and  C24_40 
ROOT
HETATM    1  C2  UNL     1      23.412  16.371  54.011  1.00  0.00     0.122 A 
HETATM    2  C3  UNL     1      22.676  17.514  53.820  1.00  0.00     0.065 A 
HETATM    3  C6  UNL     1      21.421  17.357  53.284  1.00  0.00     0.033 A 
HETATM    4  C7  UNL     1      20.907  16.128  52.944  1.00  0.00     0.022 A 
HETATM    5  C8  UNL     1      21.637  14.956  53.129  1.00  0.00     0.061 A 
HETATM    6  C17 UNL     1      22.900  15.106  53.670  1.00  0.00     0.086 A 
ENDROOT
BRANCH   6   7
HETATM    7  N3  UNL     1      23.697  13.965  53.890  1.00  0.00    -0.322 N 
HETATM    8  C18 UNL     1      24.520  13.461  52.816  1.00  0.00     0.246 C 
HETATM    9  O3  UNL     1      24.537  14.005  51.695  1.00  0.00    -0.271 OA
ATOM     10  H3  UNL     1      23.693  13.499  54.798  1.00  0.00     0.169 HD
BRANCH   8  11
HETATM   11  C19 UNL     1      25.374  12.265  53.051  1.00  0.00     0.281 C 
BRANCH  11  12
HETATM   12  O4  UNL     1      26.707  12.545  52.865  1.00  0.00    -0.311 OA
BRANCH  12  13
HETATM   13  C20 UNL     1      27.736  11.760  53.311  1.00  0.00     0.277 C 
HETATM   14  O5  UNL     1      28.637  12.229  54.030  1.00  0.00    -0.263 OA
BRANCH  13  15
HETATM   15  C21 UNL     1      27.708  10.329  52.892  1.00  0.00     0.234 C 
BRANCH  15  16
HETATM   16  N4  UNL     1      28.174   9.520  53.961  1.00  0.00    -0.344 N 
HETATM   17  C22 UNL     1      27.350   8.804  54.835  1.00  0.00     0.309 C 
HETATM   18  O6  UNL     1      26.087   8.814  54.769  1.00  0.00    -0.262 OA
ATOM     19  H4  UNL     1      29.183   9.455  54.101  1.00  0.00     0.163 HD
BRANCH  17  20
HETATM   20  C23 UNL     1      28.008   8.002  55.880  1.00  0.00     0.309 C 
HETATM   21  O7  UNL     1      29.174   8.294  56.292  1.00  0.00    -0.262 OA
HETATM   22  N5  UNL     1      27.335   6.894  56.427  1.00  0.00    -0.345 N 
ATOM     23  H5  UNL     1      26.398   6.659  56.101  1.00  0.00     0.163 HD
BRANCH  22  24
HETATM   24  C24 UNL     1      27.970   6.080  57.457  1.00  0.00     0.022 C 
HETATM   25  C25 UNL     1      28.250   6.908  58.702  1.00  0.00     0.037 C 
HETATM   26  C26 UNL     1      29.277   5.500  57.000  1.00  0.00     0.037 C 
HETATM   27  C27 UNL     1      27.052   4.919  57.768  1.00  0.00     0.037 C 
ENDBRANCH  22  24
ENDBRANCH  17  20
ENDBRANCH  15  16
ENDBRANCH  13  15
ENDBRANCH  12  13
ENDBRANCH  11  12
ENDBRANCH   8  11
ENDBRANCH   6   7
BRANCH   1  28
HETATM   28  O1  UNL     1      24.673  16.483  54.549  1.00  0.00    -0.351 OA
HETATM   29  C1  UNL     1      25.875  16.689  53.881  1.00  0.00     0.210 C 
ENDBRANCH   1  28
BRANCH   5  30
HETATM   30  C9  UNL     1      21.076  13.656  52.762  1.00  0.00     0.254 C 
HETATM   31  O2  UNL     1      20.814  12.772  53.637  1.00  0.00    -0.268 OA
HETATM   32  N2  UNL     1      20.783  13.270  51.434  1.00  0.00    -0.352 N 
ATOM     33  H2  UNL     1      20.957  13.938  50.684  1.00  0.00     0.163 HD
BRANCH  32  34
HETATM   34  C10 UNL     1      20.244  11.963  51.089  1.00  0.00     0.084 C 
HETATM   35  C11 UNL     1      21.379  10.997  51.041  1.00  0.00     0.025 C 
HETATM   36  C12 UNL     1      22.523  11.331  50.163  1.00  0.00     0.002 C 
HETATM   37  C13 UNL     1      22.280  10.866  48.766  1.00  0.00     0.000 C 
HETATM   38  C14 UNL     1      21.049  11.532  48.199  1.00  0.00     0.000 C 
HETATM   39  C15 UNL     1      19.776  11.037  48.839  1.00  0.00     0.002 C 
HETATM   40  C16 UNL     1      19.311  11.956  49.940  1.00  0.00     0.025 C 
ENDBRANCH  32  34
ENDBRANCH   5  30
BRANCH   2  41
HETATM   41  N1  UNL     1      23.188  18.804  54.166  1.00  0.00    -0.387 N 
HETATM   42  C4  UNL     1      23.116  19.359  55.504  1.00  0.00     0.149 C 
HETATM   43  C5  UNL     1      23.800  19.613  53.150  1.00  0.00     0.149 C 
ENDBRANCH   2  41
TORSDOF 12
ENDMDL
