MODEL 1
REMARK VINA RESULT: -7.248889229      0.000      0.000
REMARK  13 active torsions:
REMARK  status: ('A' for Active; 'I' for Inactive)
REMARK    1  A    between atoms: C4_4  and  C5_5 
REMARK    2  A    between atoms: C5_5  and  N1_6 
REMARK    3  A    between atoms: N1_6  and  C7_8 
REMARK    4  A    between atoms: C7_8  and  C8_9 
REMARK    5  A    between atoms: C13_15  and  C14_16 
REMARK    6  A    between atoms: C21_25  and  C22_26 
REMARK    7  A    between atoms: C22_26  and  O3_27 
REMARK    8  A    between atoms: C22_26  and  O4_29 
REMARK    9  A    between atoms: N2_34  and  C25_35 
REMARK   10  A    between atoms: C25_35  and  C26_36 
REMARK   11  A    between atoms: C25_35  and  C27_39 
REMARK   12  A    between atoms: C26_36  and  O6_37 
REMARK   13  A    between atoms: C27_39  and  O7_40 
ROOT
HETATM    1  C8  UNL     1      22.098  14.760  53.835  1.00  0.00     0.162 C 
HETATM    2  O1  UNL     1      22.536  13.486  54.296  1.00  0.00    -0.338 OA
HETATM    3  C9  UNL     1      23.285  12.565  53.552  1.00  0.00     0.142 A 
HETATM    4  C10 UNL     1      22.896  12.164  52.291  1.00  0.00     0.106 A 
HETATM    5  C11 UNL     1      23.719  11.265  51.657  1.00  0.00     0.041 A 
HETATM    6  C12 UNL     1      24.884  10.768  52.233  1.00  0.00     0.018 A 
HETATM    7  C13 UNL     1      25.292  11.153  53.496  1.00  0.00     0.011 A 
HETATM    8  C20 UNL     1      24.449  12.053  54.104  1.00  0.00     0.163 A 
HETATM    9  F1  UNL     1      24.766  12.453  55.395  1.00  0.00    -0.202 F 
HETATM   10  O2  UNL     1      21.755  12.619  51.677  1.00  0.00    -0.338 OA
HETATM   11  C21 UNL     1      20.400  12.418  51.826  1.00  0.00     0.192 C 
HETATM   12  C23 UNL     1      19.876  11.884  53.095  1.00  0.00     0.140 C 
HETATM   13  C24 UNL     1      18.836  12.801  53.637  1.00  0.00     0.222 C 
HETATM   14  O5  UNL     1      17.786  12.909  52.953  1.00  0.00    -0.273 OA
HETATM   15  N2  UNL     1      18.949  13.540  54.845  1.00  0.00    -0.343 N 
HETATM   16  C28 UNL     1      20.167  14.112  55.323  1.00  0.00     0.133 C 
HETATM   17  C29 UNL     1      20.803  15.175  54.504  1.00  0.00     0.031 C 
HETATM   18  C30 UNL     1      19.893  15.898  53.541  1.00  0.00     0.014 C 
ENDROOT
BRANCH   1  19
HETATM   19  C7  UNL     1      23.206  15.712  54.341  1.00  0.00     0.304 C 
BRANCH  19  20
HETATM   20  N1  UNL     1      23.931  16.346  53.312  1.00  0.00     0.087 N 
HETATM   21  C6  UNL     1      23.521  15.924  51.988  1.00  0.00     0.310 C 
BRANCH  20  22
HETATM   22  C5  UNL     1      25.331  16.080  53.427  1.00  0.00     0.277 C 
BRANCH  22  23
HETATM   23  C4  UNL     1      25.791  15.530  54.727  1.00  0.00     0.018 A 
HETATM   24  C2  UNL     1      26.999  16.094  55.380  1.00  0.00    -0.012 A 
HETATM   25  C1  UNL     1      27.688  17.312  54.811  1.00  0.00     0.010 C 
HETATM   26  C3  UNL     1      27.139  14.783  54.664  1.00  0.00     0.011 A 
ENDBRANCH  22  23
ENDBRANCH  20  22
ENDBRANCH  19  20
ENDBRANCH   1  19
BRANCH  15  27
HETATM   27  C25 UNL     1      17.711  13.686  55.623  1.00  0.00     0.134 C 
BRANCH  27  28
HETATM   28  C26 UNL     1      18.108  13.532  57.113  1.00  0.00     0.191 C 
BRANCH  28  29
HETATM   29  O6  UNL     1      18.200  12.209  57.474  1.00  0.00    -0.399 OA
ATOM     30  H6  UNL     1      17.849  12.062  58.345  1.00  0.00     0.209 HD
ENDBRANCH  28  29
ENDBRANCH  27  28
BRANCH  27  31
HETATM   31  C27 UNL     1      17.082  15.031  55.524  1.00  0.00     0.191 C 
BRANCH  31  32
HETATM   32  O7  UNL     1      16.506  15.112  54.237  1.00  0.00    -0.399 OA
ATOM     33  H7  UNL     1      15.567  15.186  54.364  1.00  0.00     0.209 HD
ENDBRANCH  31  32
ENDBRANCH  27  31
ENDBRANCH  15  27
BRANCH   7  34
HETATM   34  C14 UNL     1      26.505  10.584  54.079  1.00  0.00    -0.049 C 
HETATM   35  C15 UNL     1      26.561   9.765  55.109  1.00  0.00    -0.019 C 
HETATM   36  C16 UNL     1      27.944   9.315  55.521  1.00  0.00     0.028 C 
HETATM   37  C17 UNL     1      28.830  10.517  55.725  1.00  0.00     0.004 C 
HETATM   38  C18 UNL     1      28.649  11.543  54.627  1.00  0.00     0.005 C 
HETATM   39  C19 UNL     1      27.877  10.867  53.513  1.00  0.00     0.039 C 
ENDBRANCH   7  34
BRANCH  11  40
HETATM   40  C22 UNL     1      19.795  11.599  50.683  1.00  0.00     0.283 C 
BRANCH  40  41
HETATM   41  O3  UNL     1      18.622  12.176  50.203  1.00  0.00    -0.369 OA
ATOM     42  H3  UNL     1      17.855  11.680  50.466  1.00  0.00     0.212 HD
ENDBRANCH  40  41
BRANCH  40  43
HETATM   43  O4  UNL     1      20.664  11.462  49.622  1.00  0.00    -0.369 OA
ATOM     44  H4  UNL     1      20.747  12.264  49.119  1.00  0.00     0.212 HD
ENDBRANCH  40  43
ENDBRANCH  11  40
TORSDOF 13
ENDMDL
MODEL 2
REMARK VINA RESULT: -7.135749570      1.617      2.601
REMARK  13 active torsions:
REMARK  status: ('A' for Active; 'I' for Inactive)
REMARK    1  A    between atoms: C4_4  and  C5_5 
REMARK    2  A    between atoms: C5_5  and  N1_6 
REMARK    3  A    between atoms: N1_6  and  C7_8 
REMARK    4  A    between atoms: C7_8  and  C8_9 
REMARK    5  A    between atoms: C13_15  and  C14_16 
REMARK    6  A    between atoms: C21_25  and  C22_26 
REMARK    7  A    between atoms: C22_26  and  O3_27 
REMARK    8  A    between atoms: C22_26  and  O4_29 
REMARK    9  A    between atoms: N2_34  and  C25_35 
REMARK   10  A    between atoms: C25_35  and  C26_36 
REMARK   11  A    between atoms: C25_35  and  C27_39 
REMARK   12  A    between atoms: C26_36  and  O6_37 
REMARK   13  A    between atoms: C27_39  and  O7_40 
ROOT
HETATM    1  C8  UNL     1      23.396  14.117  54.378  1.00  0.00     0.162 C 
HETATM    2  O1  UNL     1      23.436  12.732  54.704  1.00  0.00    -0.338 OA
HETATM    3  C9  UNL     1      24.398  11.818  54.255  1.00  0.00     0.142 A 
HETATM    4  C10 UNL     1      24.704  11.686  52.917  1.00  0.00     0.106 A 
HETATM    5  C11 UNL     1      25.673  10.763  52.602  1.00  0.00     0.041 A 
HETATM    6  C12 UNL     1      26.323   9.991  53.559  1.00  0.00     0.018 A 
HETATM    7  C13 UNL     1      26.030  10.104  54.906  1.00  0.00     0.011 A 
HETATM    8  C20 UNL     1      25.058  11.034  55.189  1.00  0.00     0.163 A 
HETATM    9  F1  UNL     1      24.676  11.173  56.516  1.00  0.00    -0.202 F 
HETATM   10  O2  UNL     1      24.092  12.419  51.931  1.00  0.00    -0.338 OA
HETATM   11  C21 UNL     1      22.851  12.436  51.332  1.00  0.00     0.192 C 
HETATM   12  C23 UNL     1      21.702  11.816  52.013  1.00  0.00     0.140 C 
HETATM   13  C24 UNL     1      20.599  12.807  52.146  1.00  0.00     0.222 C 
HETATM   14  O5  UNL     1      20.077  13.198  51.071  1.00  0.00    -0.273 OA
HETATM   15  N2  UNL     1      20.111  13.324  53.376  1.00  0.00    -0.343 N 
HETATM   16  C28 UNL     1      20.931  13.597  54.512  1.00  0.00     0.133 C 
HETATM   17  C29 UNL     1      21.976  14.645  54.379  1.00  0.00     0.031 C 
HETATM   18  C30 UNL     1      21.761  15.652  53.275  1.00  0.00     0.014 C 
ENDROOT
BRANCH   1  19
HETATM   19  C7  UNL     1      24.135  14.775  55.566  1.00  0.00     0.304 C 
BRANCH  19  20
HETATM   20  N1  UNL     1      25.288  15.496  55.196  1.00  0.00     0.087 N 
HETATM   21  C6  UNL     1      25.499  15.528  53.762  1.00  0.00     0.310 C 
BRANCH  20  22
HETATM   22  C5  UNL     1      26.461  14.930  55.784  1.00  0.00     0.277 C 
BRANCH  22  23
HETATM   23  C4  UNL     1      27.260  14.025  54.920  1.00  0.00     0.018 A 
HETATM   24  C2  UNL     1      28.161  13.020  55.539  1.00  0.00    -0.012 A 
HETATM   25  C1  UNL     1      28.173  12.810  57.035  1.00  0.00     0.010 C 
HETATM   26  C3  UNL     1      28.782  14.266  54.978  1.00  0.00     0.011 A 
ENDBRANCH  22  23
ENDBRANCH  20  22
ENDBRANCH  19  20
ENDBRANCH   1  19
BRANCH  15  27
HETATM   27  C25 UNL     1      18.662  13.563  53.438  1.00  0.00     0.134 C 
BRANCH  27  28
HETATM   28  C26 UNL     1      18.030  12.278  54.030  1.00  0.00     0.191 C 
BRANCH  28  29
HETATM   29  O6  UNL     1      17.933  12.352  55.399  1.00  0.00    -0.399 OA
ATOM     30  H6  UNL     1      18.104  11.509  55.804  1.00  0.00     0.209 HD
ENDBRANCH  28  29
ENDBRANCH  27  28
BRANCH  27  31
HETATM   31  C27 UNL     1      18.263  14.656  54.366  1.00  0.00     0.191 C 
BRANCH  31  32
HETATM   32  O7  UNL     1      16.897  14.917  54.116  1.00  0.00    -0.399 OA
ATOM     33  H7  UNL     1      16.846  15.280  53.239  1.00  0.00     0.209 HD
ENDBRANCH  31  32
ENDBRANCH  27  31
ENDBRANCH  15  27
BRANCH   7  34
HETATM   34  C14 UNL     1      26.712   9.252  55.877  1.00  0.00    -0.049 C 
HETATM   35  C15 UNL     1      27.994   9.294  56.181  1.00  0.00    -0.019 C 
HETATM   36  C16 UNL     1      28.458   8.304  57.224  1.00  0.00     0.028 C 
HETATM   37  C17 UNL     1      28.031   6.913  56.831  1.00  0.00     0.004 C 
HETATM   38  C18 UNL     1      26.606   6.884  56.322  1.00  0.00     0.005 C 
HETATM   39  C19 UNL     1      25.978   8.212  56.691  1.00  0.00     0.039 C 
ENDBRANCH   7  34
BRANCH  11  40
HETATM   40  C22 UNL     1      22.883  11.917  49.892  1.00  0.00     0.283 C 
BRANCH  40  41
HETATM   41  O3  UNL     1      22.410  10.610  49.807  1.00  0.00    -0.369 OA
ATOM     42  H3  UNL     1      21.487  10.556  50.020  1.00  0.00     0.212 HD
ENDBRANCH  40  41
BRANCH  40  43
HETATM   43  O4  UNL     1      22.130  12.695  49.039  1.00  0.00    -0.369 OA
ATOM     44  H4  UNL     1      22.031  13.585  49.356  1.00  0.00     0.212 HD
ENDBRANCH  40  43
ENDBRANCH  11  40
TORSDOF 13
ENDMDL
MODEL 3
REMARK VINA RESULT: -7.116970402      1.455      2.243
REMARK  13 active torsions:
REMARK  status: ('A' for Active; 'I' for Inactive)
REMARK    1  A    between atoms: C4_4  and  C5_5 
REMARK    2  A    between atoms: C5_5  and  N1_6 
REMARK    3  A    between atoms: N1_6  and  C7_8 
REMARK    4  A    between atoms: C7_8  and  C8_9 
REMARK    5  A    between atoms: C13_15  and  C14_16 
REMARK    6  A    between atoms: C21_25  and  C22_26 
REMARK    7  A    between atoms: C22_26  and  O3_27 
REMARK    8  A    between atoms: C22_26  and  O4_29 
REMARK    9  A    between atoms: N2_34  and  C25_35 
REMARK   10  A    between atoms: C25_35  and  C26_36 
REMARK   11  A    between atoms: C25_35  and  C27_39 
REMARK   12  A    between atoms: C26_36  and  O6_37 
REMARK   13  A    between atoms: C27_39  and  O7_40 
ROOT
HETATM    1  C8  UNL     1      22.780  14.325  53.389  1.00  0.00     0.162 C 
HETATM    2  O1  UNL     1      23.067  13.095  54.044  1.00  0.00    -0.338 OA
HETATM    3  C9  UNL     1      23.997  12.140  53.611  1.00  0.00     0.142 A 
HETATM    4  C10 UNL     1      23.985  11.648  52.323  1.00  0.00     0.106 A 
HETATM    5  C11 UNL     1      24.954  10.723  52.015  1.00  0.00     0.041 A 
HETATM    6  C12 UNL     1      25.905  10.290  52.933  1.00  0.00     0.018 A 
HETATM    7  C13 UNL     1      25.935  10.766  54.231  1.00  0.00     0.011 A 
HETATM    8  C20 UNL     1      24.953  11.689  54.508  1.00  0.00     0.163 A 
HETATM    9  F1  UNL     1      24.888  12.180  55.804  1.00  0.00    -0.202 F 
HETATM   10  O2  UNL     1      23.068  12.038  51.379  1.00  0.00    -0.338 OA
HETATM   11  C21 UNL     1      21.727  11.821  51.148  1.00  0.00     0.192 C 
HETATM   12  C23 UNL     1      20.861  11.364  52.247  1.00  0.00     0.140 C 
HETATM   13  C24 UNL     1      19.710  12.295  52.405  1.00  0.00     0.222 C 
HETATM   14  O5  UNL     1      18.901  12.337  51.443  1.00  0.00    -0.273 OA
HETATM   15  N2  UNL     1      19.473  13.115  53.540  1.00  0.00    -0.343 N 
HETATM   16  C28 UNL     1      20.504  13.742  54.304  1.00  0.00     0.133 C 
HETATM   17  C29 UNL     1      21.349  14.760  53.629  1.00  0.00     0.031 C 
HETATM   18  C30 UNL     1      20.753  15.399  52.398  1.00  0.00     0.014 C 
ENDROOT
BRANCH   1  19
HETATM   19  C7  UNL     1      23.698  15.331  54.123  1.00  0.00     0.304 C 
BRANCH  19  20
HETATM   20  N1  UNL     1      24.932  15.555  53.480  1.00  0.00     0.087 N 
HETATM   21  C6  UNL     1      26.067  15.423  54.372  1.00  0.00     0.310 C 
BRANCH  20  22
HETATM   22  C5  UNL     1      24.988  16.866  52.914  1.00  0.00     0.277 C 
BRANCH  22  23
HETATM   23  C4  UNL     1      24.717  17.995  53.840  1.00  0.00     0.018 A 
HETATM   24  C2  UNL     1      23.564  18.896  53.587  1.00  0.00    -0.012 A 
HETATM   25  C1  UNL     1      22.580  18.600  52.479  1.00  0.00     0.010 C 
HETATM   26  C3  UNL     1      24.933  19.392  53.224  1.00  0.00     0.011 A 
ENDBRANCH  22  23
ENDBRANCH  20  22
ENDBRANCH  19  20
ENDBRANCH   1  19
BRANCH  15  27
HETATM   27  C25 UNL     1      18.064  13.290  53.919  1.00  0.00     0.134 C 
BRANCH  27  28
HETATM   28  C26 UNL     1      17.743  12.170  54.941  1.00  0.00     0.191 C 
BRANCH  28  29
HETATM   29  O6  UNL     1      16.681  12.514  55.744  1.00  0.00    -0.399 OA
ATOM     30  H6  UNL     1      16.559  11.883  56.445  1.00  0.00     0.209 HD
ENDBRANCH  28  29
ENDBRANCH  27  28
BRANCH  27  31
HETATM   31  C27 UNL     1      17.777  14.563  54.634  1.00  0.00     0.191 C 
BRANCH  31  32
HETATM   32  O7  UNL     1      16.549  15.042  54.125  1.00  0.00    -0.399 OA
ATOM     33  H7  UNL     1      16.052  15.359  54.870  1.00  0.00     0.209 HD
ENDBRANCH  31  32
ENDBRANCH  27  31
ENDBRANCH  15  27
BRANCH   7  34
HETATM   34  C14 UNL     1      26.930  10.262  55.174  1.00  0.00    -0.049 C 
HETATM   35  C15 UNL     1      27.956  10.935  55.653  1.00  0.00    -0.019 C 
HETATM   36  C16 UNL     1      28.844  10.186  56.620  1.00  0.00     0.028 C 
HETATM   37  C17 UNL     1      29.280   8.881  56.004  1.00  0.00     0.004 C 
HETATM   38  C18 UNL     1      28.137   8.178  55.305  1.00  0.00     0.005 C 
HETATM   39  C19 UNL     1      26.861   8.865  55.746  1.00  0.00     0.039 C 
ENDBRANCH   7  34
BRANCH  11  40
HETATM   40  C22 UNL     1      21.474  10.916  49.940  1.00  0.00     0.283 C 
BRANCH  40  41
HETATM   41  O3  UNL     1      20.649  11.530  49.001  1.00  0.00    -0.369 OA
ATOM     42  H3  UNL     1      19.803  11.103  48.946  1.00  0.00     0.212 HD
ENDBRANCH  40  41
BRANCH  40  43
HETATM   43  O4  UNL     1      22.643  10.555  49.303  1.00  0.00    -0.369 OA
ATOM     44  H4  UNL     1      23.107  11.305  48.950  1.00  0.00     0.212 HD
ENDBRANCH  40  43
ENDBRANCH  11  40
TORSDOF 13
ENDMDL
MODEL 4
REMARK VINA RESULT: -7.116355969      1.135      1.498
REMARK  13 active torsions:
REMARK  status: ('A' for Active; 'I' for Inactive)
REMARK    1  A    between atoms: C4_4  and  C5_5 
REMARK    2  A    between atoms: C5_5  and  N1_6 
REMARK    3  A    between atoms: N1_6  and  C7_8 
REMARK    4  A    between atoms: C7_8  and  C8_9 
REMARK    5  A    between atoms: C13_15  and  C14_16 
REMARK    6  A    between atoms: C21_25  and  C22_26 
REMARK    7  A    between atoms: C22_26  and  O3_27 
REMARK    8  A    between atoms: C22_26  and  O4_29 
REMARK    9  A    between atoms: N2_34  and  C25_35 
REMARK   10  A    between atoms: C25_35  and  C26_36 
REMARK   11  A    between atoms: C25_35  and  C27_39 
REMARK   12  A    between atoms: C26_36  and  O6_37 
REMARK   13  A    between atoms: C27_39  and  O7_40 
ROOT
HETATM    1  C8  UNL     1      22.719  14.604  53.412  1.00  0.00     0.162 C 
HETATM    2  O1  UNL     1      23.051  13.407  54.106  1.00  0.00    -0.338 OA
HETATM    3  C9  UNL     1      24.010  12.470  53.698  1.00  0.00     0.142 A 
HETATM    4  C10 UNL     1      24.005  11.934  52.427  1.00  0.00     0.106 A 
HETATM    5  C11 UNL     1      25.002  11.032  52.143  1.00  0.00     0.041 A 
HETATM    6  C12 UNL     1      25.974  10.662  53.067  1.00  0.00     0.018 A 
HETATM    7  C13 UNL     1      25.997  11.184  54.347  1.00  0.00     0.011 A 
HETATM    8  C20 UNL     1      24.987  12.082  54.601  1.00  0.00     0.163 A 
HETATM    9  F1  UNL     1      24.916  12.615  55.880  1.00  0.00    -0.202 F 
HETATM   10  O2  UNL     1      23.068  12.260  51.478  1.00  0.00    -0.338 OA
HETATM   11  C21 UNL     1      21.733  11.991  51.267  1.00  0.00     0.192 C 
HETATM   12  C23 UNL     1      20.892  11.543  52.389  1.00  0.00     0.140 C 
HETATM   13  C24 UNL     1      19.711  12.440  52.524  1.00  0.00     0.222 C 
HETATM   14  O5  UNL     1      18.894  12.422  51.569  1.00  0.00    -0.273 OA
HETATM   15  N2  UNL     1      19.455  13.291  53.633  1.00  0.00    -0.343 N 
HETATM   16  C28 UNL     1      20.470  13.977  54.366  1.00  0.00     0.133 C 
HETATM   17  C29 UNL     1      21.275  14.999  53.649  1.00  0.00     0.031 C 
HETATM   18  C30 UNL     1      20.649  15.575  52.402  1.00  0.00     0.014 C 
ENDROOT
BRANCH   1  19
HETATM   19  C7  UNL     1      23.607  15.665  54.103  1.00  0.00     0.304 C 
BRANCH  19  20
HETATM   20  N1  UNL     1      24.393  16.423  53.212  1.00  0.00     0.087 N 
HETATM   21  C6  UNL     1      24.421  15.871  51.872  1.00  0.00     0.310 C 
BRANCH  20  22
HETATM   22  C5  UNL     1      25.746  16.510  53.663  1.00  0.00     0.277 C 
BRANCH  22  23
HETATM   23  C4  UNL     1      26.095  15.701  54.859  1.00  0.00     0.018 A 
HETATM   24  C2  UNL     1      27.229  16.114  55.723  1.00  0.00    -0.012 A 
HETATM   25  C1  UNL     1      27.949  17.421  55.482  1.00  0.00     0.010 C 
HETATM   26  C3  UNL     1      27.454  14.979  54.768  1.00  0.00     0.011 A 
ENDBRANCH  22  23
ENDBRANCH  20  22
ENDBRANCH  19  20
ENDBRANCH   1  19
BRANCH  15  27
HETATM   27  C25 UNL     1      18.044  13.431  54.018  1.00  0.00     0.134 C 
BRANCH  27  28
HETATM   28  C26 UNL     1      17.779  12.363  55.109  1.00  0.00     0.191 C 
BRANCH  28  29
HETATM   29  O6  UNL     1      16.546  12.537  55.692  1.00  0.00    -0.399 OA
ATOM     30  H6  UNL     1      16.249  13.436  55.610  1.00  0.00     0.209 HD
ENDBRANCH  28  29
ENDBRANCH  27  28
BRANCH  27  31
HETATM   31  C27 UNL     1      17.712  14.733  54.659  1.00  0.00     0.191 C 
BRANCH  31  32
HETATM   32  O7  UNL     1      16.547  15.210  54.018  1.00  0.00    -0.399 OA
ATOM     33  H7  UNL     1      16.793  15.415  53.123  1.00  0.00     0.209 HD
ENDBRANCH  31  32
ENDBRANCH  27  31
ENDBRANCH  15  27
BRANCH   7  34
HETATM   34  C14 UNL     1      27.016  10.746  55.299  1.00  0.00    -0.049 C 
HETATM   35  C15 UNL     1      28.053  11.450  55.703  1.00  0.00    -0.019 C 
HETATM   36  C16 UNL     1      28.966  10.769  56.698  1.00  0.00     0.028 C 
HETATM   37  C17 UNL     1      29.387   9.424  56.164  1.00  0.00     0.004 C 
HETATM   38  C18 UNL     1      28.227   8.675  55.545  1.00  0.00     0.005 C 
HETATM   39  C19 UNL     1      26.962   9.392  55.968  1.00  0.00     0.039 C 
ENDBRANCH   7  34
BRANCH  11  40
HETATM   40  C22 UNL     1      21.502  11.037  50.093  1.00  0.00     0.283 C 
BRANCH  40  41
HETATM   41  O3  UNL     1      20.682  11.606  49.122  1.00  0.00    -0.369 OA
ATOM     42  H3  UNL     1      20.370  10.957  48.503  1.00  0.00     0.212 HD
ENDBRANCH  40  41
BRANCH  40  43
HETATM   43  O4  UNL     1      22.681  10.662  49.484  1.00  0.00    -0.369 OA
ATOM     44  H4  UNL     1      22.566  10.476  48.560  1.00  0.00     0.212 HD
ENDBRANCH  40  43
ENDBRANCH  11  40
TORSDOF 13
ENDMDL
MODEL 5
REMARK VINA RESULT: -7.080554224      2.473      3.994
REMARK  13 active torsions:
REMARK  status: ('A' for Active; 'I' for Inactive)
REMARK    1  A    between atoms: C4_4  and  C5_5 
REMARK    2  A    between atoms: C5_5  and  N1_6 
REMARK    3  A    between atoms: N1_6  and  C7_8 
REMARK    4  A    between atoms: C7_8  and  C8_9 
REMARK    5  A    between atoms: C13_15  and  C14_16 
REMARK    6  A    between atoms: C21_25  and  C22_26 
REMARK    7  A    between atoms: C22_26  and  O3_27 
REMARK    8  A    between atoms: C22_26  and  O4_29 
REMARK    9  A    between atoms: N2_34  and  C25_35 
REMARK   10  A    between atoms: C25_35  and  C26_36 
REMARK   11  A    between atoms: C25_35  and  C27_39 
REMARK   12  A    between atoms: C26_36  and  O6_37 
REMARK   13  A    between atoms: C27_39  and  O7_40 
ROOT
HETATM    1  C8  UNL     1      25.032  15.523  53.214  1.00  0.00     0.162 C 
HETATM    2  O1  UNL     1      25.415  14.808  54.383  1.00  0.00    -0.338 OA
HETATM    3  C9  UNL     1      26.473  13.894  54.468  1.00  0.00     0.142 A 
HETATM    4  C10 UNL     1      26.602  12.847  53.579  1.00  0.00     0.106 A 
HETATM    5  C11 UNL     1      27.688  12.025  53.758  1.00  0.00     0.041 A 
HETATM    6  C12 UNL     1      28.621  12.214  54.773  1.00  0.00     0.018 A 
HETATM    7  C13 UNL     1      28.511  13.254  55.678  1.00  0.00     0.011 A 
HETATM    8  C20 UNL     1      27.415  14.058  55.472  1.00  0.00     0.163 A 
HETATM    9  F1  UNL     1      27.211  15.098  56.368  1.00  0.00    -0.202 F 
HETATM   10  O2  UNL     1      25.709  12.612  52.562  1.00  0.00    -0.338 OA
HETATM   11  C21 UNL     1      24.419  12.138  52.464  1.00  0.00     0.192 C 
HETATM   12  C23 UNL     1      23.542  12.155  53.646  1.00  0.00     0.140 C 
HETATM   13  C24 UNL     1      22.284  12.887  53.331  1.00  0.00     0.222 C 
HETATM   14  O5  UNL     1      21.539  12.356  52.468  1.00  0.00    -0.273 OA
HETATM   15  N2  UNL     1      21.882  14.112  53.927  1.00  0.00    -0.343 N 
HETATM   16  C28 UNL     1      22.783  15.158  54.294  1.00  0.00     0.133 C 
HETATM   17  C29 UNL     1      23.548  15.828  53.212  1.00  0.00     0.031 C 
HETATM   18  C30 UNL     1      22.964  15.713  51.824  1.00  0.00     0.014 C 
ENDROOT
BRANCH   1  19
HETATM   19  C7  UNL     1      25.780  16.868  53.370  1.00  0.00     0.304 C 
BRANCH  19  20
HETATM   20  N1  UNL     1      25.045  17.856  54.058  1.00  0.00     0.087 N 
HETATM   21  C6  UNL     1      24.911  19.087  53.306  1.00  0.00     0.310 C 
BRANCH  20  22
HETATM   22  C5  UNL     1      25.664  18.185  55.303  1.00  0.00     0.277 C 
BRANCH  22  23
HETATM   23  C4  UNL     1      27.148  18.174  55.324  1.00  0.00     0.018 A 
HETATM   24  C2  UNL     1      27.868  18.288  56.618  1.00  0.00    -0.012 A 
HETATM   25  C1  UNL     1      27.113  18.275  57.926  1.00  0.00     0.010 C 
HETATM   26  C3  UNL     1      27.791  19.510  55.751  1.00  0.00     0.011 A 
ENDBRANCH  22  23
ENDBRANCH  20  22
ENDBRANCH  19  20
ENDBRANCH   1  19
BRANCH  15  27
HETATM   27  C25 UNL     1      20.441  14.261  54.173  1.00  0.00     0.134 C 
BRANCH  27  28
HETATM   28  C26 UNL     1      20.295  14.780  55.626  1.00  0.00     0.191 C 
BRANCH  28  29
HETATM   29  O6  UNL     1      19.552  13.915  56.394  1.00  0.00    -0.399 OA
ATOM     30  H6  UNL     1      19.394  13.096  55.939  1.00  0.00     0.209 HD
ENDBRANCH  28  29
ENDBRANCH  27  28
BRANCH  27  31
HETATM   31  C27 UNL     1      19.779  15.288  53.324  1.00  0.00     0.191 C 
BRANCH  31  32
HETATM   32  O7  UNL     1      19.767  14.774  52.007  1.00  0.00    -0.399 OA
ATOM     33  H7  UNL     1      20.640  14.906  51.657  1.00  0.00     0.209 HD
ENDBRANCH  31  32
ENDBRANCH  27  31
ENDBRANCH  15  27
BRANCH   7  34
HETATM   34  C14 UNL     1      29.494  13.399  56.749  1.00  0.00    -0.049 C 
HETATM   35  C15 UNL     1      30.328  14.408  56.905  1.00  0.00    -0.019 C 
HETATM   36  C16 UNL     1      31.250  14.323  58.099  1.00  0.00     0.028 C 
HETATM   37  C17 UNL     1      31.979  13.004  58.087  1.00  0.00     0.004 C 
HETATM   38  C18 UNL     1      31.056  11.854  57.743  1.00  0.00     0.005 C 
HETATM   39  C19 UNL     1      29.639  12.378  57.852  1.00  0.00     0.039 C 
ENDBRANCH   7  34
BRANCH  11  40
HETATM   40  C22 UNL     1      24.350  10.740  51.844  1.00  0.00     0.283 C 
BRANCH  40  41
HETATM   41  O3  UNL     1      23.552  10.722  50.704  1.00  0.00    -0.369 OA
ATOM     42  H3  UNL     1      22.828  11.333  50.773  1.00  0.00     0.212 HD
ENDBRANCH  40  41
BRANCH  40  43
HETATM   43  O4  UNL     1      25.595  10.260  51.497  1.00  0.00    -0.369 OA
ATOM     44  H4  UNL     1      25.551   9.617  50.800  1.00  0.00     0.212 HD
ENDBRANCH  40  43
ENDBRANCH  11  40
TORSDOF 13
ENDMDL
