MODEL 1
REMARK VINA RESULT: -8.731249163      0.000      0.000
REMARK  12 active torsions:
REMARK  status: ('A' for Active; 'I' for Inactive)
REMARK    1  A    between atoms: C2_2  and  O1_3 
REMARK    2  A    between atoms: O1_3  and  C3_4 
REMARK       I    between atoms: C3_4  and  N1_6 
REMARK    3  A    between atoms: C4_8  and  C5_9 
REMARK    4  A    between atoms: C5_9  and  N2_10 
REMARK    5  A    between atoms: N2_10  and  C6_13 
REMARK    6  A    between atoms: C9_16  and  N3_17 
REMARK    7  A    between atoms: N3_17  and  C10_19 
REMARK    8  A    between atoms: C11_22  and  O3_23 
REMARK    9  A    between atoms: O3_23  and  C12_24 
REMARK   10  A    between atoms: C12_24  and  C13_25 
REMARK   11  A    between atoms: C17_32  and  C18_33 
REMARK   12  A    between atoms: C19_37  and  C20_38 
ROOT
HETATM    1  C10 UNL     1     -50.257 -14.093 -22.913  1.00  0.00     0.680 A 
HETATM    2  N4  UNL     1     -51.321 -13.972 -23.750  1.00  0.00    -0.171 N 
ATOM      3  H4  UNL     1     -51.688 -13.034 -23.911  1.00  0.00     0.186 HD
HETATM    4  C11 UNL     1     -51.921 -14.978 -24.375  1.00  0.00     0.158 A 
HETATM    5  C25 UNL     1     -51.382 -16.255 -24.124  1.00  0.00     0.074 A 
HETATM    6  C26 UNL     1     -50.310 -16.435 -23.290  1.00  0.00     0.110 A 
HETATM    7  N7  UNL     1     -49.775 -15.320 -22.701  1.00  0.00    -0.202 N 
ATOM      8  H7  UNL     1     -48.977 -15.431 -22.077  1.00  0.00     0.183 HD
ENDROOT
BRANCH   4   9
HETATM    9  O3  UNL     1     -52.994 -14.911 -25.224  1.00  0.00    -0.335 OA
BRANCH   9  10
HETATM   10  C12 UNL     1     -53.920 -13.892 -25.149  1.00  0.00     0.184 C 
BRANCH  10  11
HETATM   11  C13 UNL     1     -53.921 -12.953 -26.338  1.00  0.00     0.046 C 
HETATM   12  C14 UNL     1     -53.953 -13.641 -27.645  1.00  0.00     0.239 C 
HETATM   13  N5  UNL     1     -52.663 -14.075 -28.069  1.00  0.00    -0.075 N 
HETATM   14  C15 UNL     1     -51.803 -12.937 -28.197  1.00  0.00     0.233 C 
ATOM     15  H52 UNL     1     -52.273 -14.789 -27.454  1.00  0.00     0.277 HD
ATOM     16  H51 UNL     1     -52.703 -14.629 -28.925  1.00  0.00     0.277 HD
HETATM   17  C16 UNL     1     -51.596 -12.191 -26.902  1.00  0.00     0.039 C 
HETATM   18  C17 UNL     1     -52.890 -11.871 -26.210  1.00  0.00     0.058 C 
BRANCH  18  19
HETATM   19  C18 UNL     1     -53.419 -10.580 -26.737  1.00  0.00     0.121 A 
HETATM   20  O4  UNL     1     -53.309 -10.134 -27.990  1.00  0.00    -0.238 OA
HETATM   21  N6  UNL     1     -53.878  -8.973 -28.114  1.00  0.00    -0.261 N 
HETATM   22  C19 UNL     1     -54.394  -8.588 -26.958  1.00  0.00     0.081 A 
ATOM     23  H6  UNL     1     -53.921  -8.435 -28.979  1.00  0.00     0.194 HD
HETATM   24  C24 UNL     1     -54.112  -9.611 -26.048  1.00  0.00     0.173 A 
HETATM   25  F1  UNL     1     -54.463  -9.626 -24.755  1.00  0.00    -0.201 F 
BRANCH  22  26
HETATM   26  C20 UNL     1     -55.142  -7.343 -26.593  1.00  0.00    -0.004 C 
HETATM   27  C21 UNL     1     -54.476  -6.640 -25.451  1.00  0.00     0.021 C 
HETATM   28  C22 UNL     1     -55.135  -6.402 -27.781  1.00  0.00     0.021 C 
HETATM   29  C23 UNL     1     -56.555  -7.695 -26.268  1.00  0.00     0.021 C 
ENDBRANCH  22  26
ENDBRANCH  18  19
ENDBRANCH  10  11
ENDBRANCH   9  10
ENDBRANCH   4   9
BRANCH   1  30
HETATM   30  N3  UNL     1     -49.744 -13.072 -22.346  1.00  0.00    -0.221 N 
ATOM     31  H3  UNL     1     -48.852 -12.772 -22.739  1.00  0.00     0.178 HD
BRANCH  30  32
HETATM   32  C9  UNL     1     -50.198 -12.292 -21.275  1.00  0.00     0.101 C 
HETATM   33  C8  UNL     1     -51.315 -11.307 -21.632  1.00  0.00     0.027 C 
HETATM   34  C7  UNL     1     -51.829 -10.915 -20.279  1.00  0.00     0.035 C 
HETATM   35  C6  UNL     1     -51.714 -12.112 -19.418  1.00  0.00     0.188 C 
HETATM   36  C27 UNL     1     -50.886 -13.111 -20.179  1.00  0.00     0.058 C 
BRANCH  35  37
HETATM   37  N2  UNL     1     -50.994 -11.856 -18.179  1.00  0.00    -0.067 N 
ATOM     38  H22 UNL     1     -50.245 -12.536 -18.057  1.00  0.00     0.278 HD
ATOM     39  H21 UNL     1     -51.576 -12.090 -17.375  1.00  0.00     0.278 HD
BRANCH  37  40
HETATM   40  C5  UNL     1     -50.486 -10.530 -18.055  1.00  0.00     0.277 C 
BRANCH  40  41
HETATM   41  C4  UNL     1     -49.030 -10.413 -18.207  1.00  0.00     0.093 C 
HETATM   42  N1  UNL     1     -48.276 -10.109 -17.210  1.00  0.00    -0.315 N 
HETATM   43  C3  UNL     1     -46.868  -9.973 -17.262  1.00  0.00     0.364 C 
ATOM     44  H1  UNL     1     -48.729  -9.953 -16.309  1.00  0.00     0.170 HD
HETATM   45  O2  UNL     1     -46.190 -10.303 -16.229  1.00  0.00    -0.238 OA
BRANCH  43  46
HETATM   46  O1  UNL     1     -46.144  -9.512 -18.340  1.00  0.00    -0.304 OA
BRANCH  46  47
HETATM   47  C2  UNL     1     -45.537 -10.373 -19.288  1.00  0.00     0.176 C 
HETATM   48  C1  UNL     1     -44.059 -10.365 -19.046  1.00  0.00     0.034 C 
ENDBRANCH  46  47
ENDBRANCH  43  46
ENDBRANCH  40  41
ENDBRANCH  37  40
ENDBRANCH  35  37
ENDBRANCH  30  32
ENDBRANCH   1  30
TORSDOF 12
ENDMDL
MODEL 2
REMARK VINA RESULT: -8.374858464      3.057      5.142
REMARK  12 active torsions:
REMARK  status: ('A' for Active; 'I' for Inactive)
REMARK    1  A    between atoms: C2_2  and  O1_3 
REMARK    2  A    between atoms: O1_3  and  C3_4 
REMARK       I    between atoms: C3_4  and  N1_6 
REMARK    3  A    between atoms: C4_8  and  C5_9 
REMARK    4  A    between atoms: C5_9  and  N2_10 
REMARK    5  A    between atoms: N2_10  and  C6_13 
REMARK    6  A    between atoms: C9_16  and  N3_17 
REMARK    7  A    between atoms: N3_17  and  C10_19 
REMARK    8  A    between atoms: C11_22  and  O3_23 
REMARK    9  A    between atoms: O3_23  and  C12_24 
REMARK   10  A    between atoms: C12_24  and  C13_25 
REMARK   11  A    between atoms: C17_32  and  C18_33 
REMARK   12  A    between atoms: C19_37  and  C20_38 
ROOT
HETATM    1  C10 UNL     1     -51.433 -10.668 -25.543  1.00  0.00     0.680 A 
HETATM    2  N4  UNL     1     -52.236  -9.691 -26.040  1.00  0.00    -0.171 N 
ATOM      3  H4  UNL     1     -52.211  -8.782 -25.577  1.00  0.00     0.186 HD
HETATM    4  C11 UNL     1     -53.050  -9.825 -27.080  1.00  0.00     0.158 A 
HETATM    5  C25 UNL     1     -53.051 -11.095 -27.689  1.00  0.00     0.074 A 
HETATM    6  C26 UNL     1     -52.261 -12.117 -27.230  1.00  0.00     0.110 A 
HETATM    7  N7  UNL     1     -51.462 -11.858 -26.147  1.00  0.00    -0.202 N 
ATOM      8  H7  UNL     1     -50.866 -12.604 -25.790  1.00  0.00     0.183 HD
ENDROOT
BRANCH   4   9
HETATM    9  O3  UNL     1     -53.878  -8.876 -27.618  1.00  0.00    -0.335 OA
BRANCH   9  10
HETATM   10  C12 UNL     1     -53.620  -7.527 -27.493  1.00  0.00     0.184 C 
BRANCH  10  11
HETATM   11  C13 UNL     1     -54.656  -6.759 -26.698  1.00  0.00     0.046 C 
HETATM   12  C14 UNL     1     -54.548  -6.943 -25.236  1.00  0.00     0.239 C 
HETATM   13  N5  UNL     1     -55.180  -8.137 -24.785  1.00  0.00    -0.075 N 
HETATM   14  C15 UNL     1     -56.573  -8.085 -25.115  1.00  0.00     0.233 C 
ATOM     15  H52 UNL     1     -54.728  -8.976 -25.146  1.00  0.00     0.277 HD
ATOM     16  H51 UNL     1     -55.024  -8.307 -23.791  1.00  0.00     0.277 HD
HETATM   17  C16 UNL     1     -56.837  -7.999 -26.598  1.00  0.00     0.039 C 
HETATM   18  C17 UNL     1     -56.037  -6.914 -27.262  1.00  0.00     0.058 C 
BRANCH  18  19
HETATM   19  C18 UNL     1     -56.787  -5.629 -27.169  1.00  0.00     0.121 A 
HETATM   20  O4  UNL     1     -57.228  -5.050 -26.050  1.00  0.00    -0.238 OA
HETATM   21  N6  UNL     1     -57.845  -3.940 -26.321  1.00  0.00    -0.261 N 
HETATM   22  C19 UNL     1     -57.847  -3.722 -27.627  1.00  0.00     0.081 A 
ATOM     23  H6  UNL     1     -58.267  -3.324 -25.627  1.00  0.00     0.194 HD
HETATM   24  C24 UNL     1     -57.168  -4.801 -28.200  1.00  0.00     0.173 A 
HETATM   25  F1  UNL     1     -56.939  -4.973 -29.509  1.00  0.00    -0.201 F 
BRANCH  22  26
HETATM   26  C20 UNL     1     -58.424  -2.593 -28.422  1.00  0.00    -0.004 C 
HETATM   27  C21 UNL     1     -59.618  -3.051 -29.203  1.00  0.00     0.021 C 
HETATM   28  C22 UNL     1     -58.885  -1.508 -27.471  1.00  0.00     0.021 C 
HETATM   29  C23 UNL     1     -57.370  -2.032 -29.317  1.00  0.00     0.021 C 
ENDBRANCH  22  26
ENDBRANCH  18  19
ENDBRANCH  10  11
ENDBRANCH   9  10
ENDBRANCH   4   9
BRANCH   1  30
HETATM   30  N3  UNL     1     -50.684 -10.457 -24.532  1.00  0.00    -0.221 N 
ATOM     31  H3  UNL     1     -49.900  -9.829 -24.709  1.00  0.00     0.178 HD
BRANCH  30  32
HETATM   32  C9  UNL     1     -50.756 -10.940 -23.219  1.00  0.00     0.101 C 
HETATM   33  C8  UNL     1     -49.952 -12.218 -22.966  1.00  0.00     0.027 C 
HETATM   34  C7  UNL     1     -49.912 -12.270 -21.468  1.00  0.00     0.035 C 
HETATM   35  C6  UNL     1     -49.841 -10.870 -20.996  1.00  0.00     0.188 C 
HETATM   36  C27 UNL     1     -50.118 -10.000 -22.193  1.00  0.00     0.058 C 
BRANCH  35  37
HETATM   37  N2  UNL     1     -50.870 -10.545 -20.019  1.00  0.00    -0.067 N 
ATOM     38  H22 UNL     1     -51.563 -11.291 -19.972  1.00  0.00     0.278 HD
ATOM     39  H21 UNL     1     -51.456  -9.783 -20.360  1.00  0.00     0.278 HD
BRANCH  37  40
HETATM   40  C5  UNL     1     -50.374 -10.246 -18.716  1.00  0.00     0.277 C 
BRANCH  40  41
HETATM   41  C4  UNL     1     -48.909 -10.223 -18.607  1.00  0.00     0.093 C 
HETATM   42  N1  UNL     1     -48.326  -9.967 -17.490  1.00  0.00    -0.315 N 
HETATM   43  C3  UNL     1     -46.925  -9.922 -17.290  1.00  0.00     0.364 C 
ATOM     44  H1  UNL     1     -48.920  -9.782 -16.682  1.00  0.00     0.170 HD
HETATM   45  O2  UNL     1     -46.463 -10.294 -16.157  1.00  0.00    -0.238 OA
BRANCH  43  46
HETATM   46  O1  UNL     1     -45.995  -9.509 -18.218  1.00  0.00    -0.304 OA
BRANCH  46  47
HETATM   47  C2  UNL     1     -45.445 -10.373 -19.198  1.00  0.00     0.176 C 
HETATM   48  C1  UNL     1     -43.956 -10.371 -19.040  1.00  0.00     0.034 C 
ENDBRANCH  46  47
ENDBRANCH  43  46
ENDBRANCH  40  41
ENDBRANCH  37  40
ENDBRANCH  35  37
ENDBRANCH  30  32
ENDBRANCH   1  30
TORSDOF 12
ENDMDL
MODEL 3
REMARK VINA RESULT: -8.328206350      1.721      2.453
REMARK  12 active torsions:
REMARK  status: ('A' for Active; 'I' for Inactive)
REMARK    1  A    between atoms: C2_2  and  O1_3 
REMARK    2  A    between atoms: O1_3  and  C3_4 
REMARK       I    between atoms: C3_4  and  N1_6 
REMARK    3  A    between atoms: C4_8  and  C5_9 
REMARK    4  A    between atoms: C5_9  and  N2_10 
REMARK    5  A    between atoms: N2_10  and  C6_13 
REMARK    6  A    between atoms: C9_16  and  N3_17 
REMARK    7  A    between atoms: N3_17  and  C10_19 
REMARK    8  A    between atoms: C11_22  and  O3_23 
REMARK    9  A    between atoms: O3_23  and  C12_24 
REMARK   10  A    between atoms: C12_24  and  C13_25 
REMARK   11  A    between atoms: C17_32  and  C18_33 
REMARK   12  A    between atoms: C19_37  and  C20_38 
ROOT
HETATM    1  C10 UNL     1     -51.309 -17.116 -24.074  1.00  0.00     0.680 A 
HETATM    2  N4  UNL     1     -51.987 -16.227 -24.847  1.00  0.00    -0.171 N 
ATOM      3  H4  UNL     1     -52.026 -15.259 -24.527  1.00  0.00     0.186 HD
HETATM    4  C11 UNL     1     -52.602 -16.519 -25.987  1.00  0.00     0.158 A 
HETATM    5  C25 UNL     1     -52.523 -17.865 -26.391  1.00  0.00     0.074 A 
HETATM    6  C26 UNL     1     -51.852 -18.803 -25.650  1.00  0.00     0.110 A 
HETATM    7  N7  UNL     1     -51.256 -18.382 -24.491  1.00  0.00    -0.202 N 
ATOM      8  H7  UNL     1     -50.752 -19.064 -23.924  1.00  0.00     0.183 HD
ENDROOT
BRANCH   4   9
HETATM    9  O3  UNL     1     -53.298 -15.664 -26.800  1.00  0.00    -0.335 OA
BRANCH   9  10
HETATM   10  C12 UNL     1     -53.963 -14.563 -26.303  1.00  0.00     0.184 C 
BRANCH  10  11
HETATM   11  C13 UNL     1     -54.096 -13.413 -27.281  1.00  0.00     0.046 C 
HETATM   12  C14 UNL     1     -54.015 -13.820 -28.699  1.00  0.00     0.239 C 
HETATM   13  N5  UNL     1     -52.672 -13.967 -29.152  1.00  0.00    -0.075 N 
HETATM   14  C15 UNL     1     -51.992 -12.713 -29.020  1.00  0.00     0.233 C 
ATOM     15  H52 UNL     1     -52.183 -14.725 -28.677  1.00  0.00     0.277 HD
ATOM     16  H51 UNL     1     -52.621 -14.337 -30.102  1.00  0.00     0.277 HD
HETATM   17  C16 UNL     1     -51.909 -12.222 -27.595  1.00  0.00     0.039 C 
HETATM   18  C17 UNL     1     -53.241 -12.241 -26.902  1.00  0.00     0.058 C 
BRANCH  18  19
HETATM   19  C18 UNL     1     -53.954 -10.962 -27.182  1.00  0.00     0.121 A 
HETATM   20  O4  UNL     1     -55.136 -10.832 -27.789  1.00  0.00    -0.238 OA
HETATM   21  N6  UNL     1     -55.471  -9.581 -27.876  1.00  0.00    -0.261 N 
HETATM   22  C19 UNL     1     -54.537  -8.815 -27.335  1.00  0.00     0.081 A 
ATOM     23  H6  UNL     1     -56.333  -9.237 -28.301  1.00  0.00     0.194 HD
HETATM   24  C24 UNL     1     -53.542  -9.684 -26.877  1.00  0.00     0.173 A 
HETATM   25  F1  UNL     1     -52.412  -9.320 -26.257  1.00  0.00    -0.201 F 
BRANCH  22  26
HETATM   26  C20 UNL     1     -54.462  -7.327 -27.191  1.00  0.00    -0.004 C 
HETATM   27  C21 UNL     1     -53.308  -6.777 -27.971  1.00  0.00     0.021 C 
HETATM   28  C22 UNL     1     -55.731  -6.717 -27.751  1.00  0.00     0.021 C 
HETATM   29  C23 UNL     1     -54.359  -6.977 -25.745  1.00  0.00     0.021 C 
ENDBRANCH  22  26
ENDBRANCH  18  19
ENDBRANCH  10  11
ENDBRANCH   9  10
ENDBRANCH   4   9
BRANCH   1  30
HETATM   30  N3  UNL     1     -50.751 -16.752 -22.985  1.00  0.00    -0.221 N 
ATOM     31  H3  UNL     1     -50.013 -17.375 -22.659  1.00  0.00     0.178 HD
BRANCH  30  32
HETATM   32  C9  UNL     1     -50.980 -15.642 -22.162  1.00  0.00     0.101 C 
HETATM   33  C8  UNL     1     -50.811 -15.912 -20.665  1.00  0.00     0.027 C 
HETATM   34  C7  UNL     1     -50.743 -14.524 -20.103  1.00  0.00     0.035 C 
HETATM   35  C6  UNL     1     -50.047 -13.692 -21.109  1.00  0.00     0.188 C 
HETATM   36  C27 UNL     1     -49.957 -14.520 -22.362  1.00  0.00     0.058 C 
BRANCH  35  37
HETATM   37  N2  UNL     1     -50.792 -12.496 -21.472  1.00  0.00    -0.067 N 
ATOM     38  H22 UNL     1     -51.462 -12.258 -20.741  1.00  0.00     0.278 HD
ATOM     39  H21 UNL     1     -51.434 -12.696 -22.239  1.00  0.00     0.278 HD
BRANCH  37  40
HETATM   40  C5  UNL     1     -49.980 -11.367 -21.787  1.00  0.00     0.277 C 
BRANCH  40  41
HETATM   41  C4  UNL     1     -48.794 -11.206 -20.935  1.00  0.00     0.093 C 
HETATM   42  N1  UNL     1     -48.861 -10.595 -19.805  1.00  0.00    -0.315 N 
HETATM   43  C3  UNL     1     -47.775 -10.393 -18.920  1.00  0.00     0.364 C 
ATOM     44  H1  UNL     1     -49.770 -10.227 -19.523  1.00  0.00     0.170 HD
HETATM   45  O2  UNL     1     -48.011 -10.385 -17.664  1.00  0.00    -0.238 OA
BRANCH  43  46
HETATM   46  O1  UNL     1     -46.462 -10.200 -19.291  1.00  0.00    -0.304 OA
BRANCH  46  47
HETATM   47  C2  UNL     1     -45.417  -9.993 -18.356  1.00  0.00     0.176 C 
HETATM   48  C1  UNL     1     -44.124 -10.366 -19.012  1.00  0.00     0.034 C 
ENDBRANCH  46  47
ENDBRANCH  43  46
ENDBRANCH  40  41
ENDBRANCH  37  40
ENDBRANCH  35  37
ENDBRANCH  30  32
ENDBRANCH   1  30
TORSDOF 12
ENDMDL
MODEL 4
REMARK VINA RESULT: -8.175217061      1.389      1.730
REMARK  12 active torsions:
REMARK  status: ('A' for Active; 'I' for Inactive)
REMARK    1  A    between atoms: C2_2  and  O1_3 
REMARK    2  A    between atoms: O1_3  and  C3_4 
REMARK       I    between atoms: C3_4  and  N1_6 
REMARK    3  A    between atoms: C4_8  and  C5_9 
REMARK    4  A    between atoms: C5_9  and  N2_10 
REMARK    5  A    between atoms: N2_10  and  C6_13 
REMARK    6  A    between atoms: C9_16  and  N3_17 
REMARK    7  A    between atoms: N3_17  and  C10_19 
REMARK    8  A    between atoms: C11_22  and  O3_23 
REMARK    9  A    between atoms: O3_23  and  C12_24 
REMARK   10  A    between atoms: C12_24  and  C13_25 
REMARK   11  A    between atoms: C17_32  and  C18_33 
REMARK   12  A    between atoms: C19_37  and  C20_38 
ROOT
HETATM    1  C10 UNL     1     -50.399 -14.027 -23.002  1.00  0.00     0.680 A 
HETATM    2  N4  UNL     1     -51.263 -13.496 -23.907  1.00  0.00    -0.171 N 
ATOM      3  H4  UNL     1     -51.323 -12.480 -23.959  1.00  0.00     0.186 HD
HETATM    4  C11 UNL     1     -52.036 -14.197 -24.728  1.00  0.00     0.158 A 
HETATM    5  C25 UNL     1     -51.921 -15.597 -24.622  1.00  0.00     0.074 A 
HETATM    6  C26 UNL     1     -51.065 -16.185 -23.728  1.00  0.00     0.110 A 
HETATM    7  N7  UNL     1     -50.318 -15.358 -22.932  1.00  0.00    -0.202 N 
ATOM      8  H7  UNL     1     -49.675 -15.775 -22.259  1.00  0.00     0.183 HD
ENDROOT
BRANCH   4   9
HETATM    9  O3  UNL     1     -52.922 -13.713 -25.653  1.00  0.00    -0.335 OA
BRANCH   9  10
HETATM   10  C12 UNL     1     -53.900 -12.801 -25.319  1.00  0.00     0.184 C 
BRANCH  10  11
HETATM   11  C13 UNL     1     -53.737 -11.439 -25.963  1.00  0.00     0.046 C 
HETATM   12  C14 UNL     1     -52.836 -11.434 -27.134  1.00  0.00     0.239 C 
HETATM   13  N5  UNL     1     -51.461 -11.356 -26.769  1.00  0.00    -0.075 N 
HETATM   14  C15 UNL     1     -51.236 -10.142 -26.042  1.00  0.00     0.233 C 
ATOM     15  H52 UNL     1     -51.149 -12.179 -26.255  1.00  0.00     0.277 HD
ATOM     16  H51 UNL     1     -50.841 -11.446 -27.574  1.00  0.00     0.277 HD
HETATM   17  C16 UNL     1     -52.022 -10.057 -24.757  1.00  0.00     0.039 C 
HETATM   18  C17 UNL     1     -53.480 -10.358 -24.955  1.00  0.00     0.058 C 
BRANCH  18  19
HETATM   19  C18 UNL     1     -54.190  -9.105 -25.340  1.00  0.00     0.121 A 
HETATM   20  O4  UNL     1     -53.708  -7.864 -25.249  1.00  0.00    -0.238 OA
HETATM   21  N6  UNL     1     -54.584  -7.001 -25.666  1.00  0.00    -0.261 N 
HETATM   22  C19 UNL     1     -55.689  -7.617 -26.054  1.00  0.00     0.081 A 
ATOM     23  H6  UNL     1     -54.440  -5.991 -25.691  1.00  0.00     0.194 HD
HETATM   24  C24 UNL     1     -55.461  -8.982 -25.854  1.00  0.00     0.173 A 
HETATM   25  F1  UNL     1     -56.329  -9.966 -26.123  1.00  0.00    -0.201 F 
BRANCH  22  26
HETATM   26  C20 UNL     1     -56.966  -7.066 -26.606  1.00  0.00    -0.004 C 
HETATM   27  C21 UNL     1     -58.115  -7.384 -25.699  1.00  0.00     0.021 C 
HETATM   28  C22 UNL     1     -56.852  -5.559 -26.695  1.00  0.00     0.021 C 
HETATM   29  C23 UNL     1     -57.187  -7.613 -27.977  1.00  0.00     0.021 C 
ENDBRANCH  22  26
ENDBRANCH  18  19
ENDBRANCH  10  11
ENDBRANCH   9  10
ENDBRANCH   4   9
BRANCH   1  30
HETATM   30  N3  UNL     1     -49.696 -13.279 -22.243  1.00  0.00    -0.221 N 
ATOM     31  H3  UNL     1     -48.691 -13.335 -22.407  1.00  0.00     0.178 HD
BRANCH  30  32
HETATM   32  C9  UNL     1     -50.071 -12.395 -21.223  1.00  0.00     0.101 C 
HETATM   33  C8  UNL     1     -50.966 -11.239 -21.679  1.00  0.00     0.027 C 
HETATM   34  C7  UNL     1     -51.489 -10.716 -20.375  1.00  0.00     0.035 C 
HETATM   35  C6  UNL     1     -51.649 -11.885 -19.482  1.00  0.00     0.188 C 
HETATM   36  C27 UNL     1     -50.966 -13.041 -20.162  1.00  0.00     0.058 C 
BRANCH  35  37
HETATM   37  N2  UNL     1     -50.978 -11.720 -18.202  1.00  0.00    -0.067 N 
ATOM     38  H22 UNL     1     -50.261 -12.435 -18.082  1.00  0.00     0.278 HD
ATOM     39  H21 UNL     1     -51.605 -11.970 -17.437  1.00  0.00     0.278 HD
BRANCH  37  40
HETATM   40  C5  UNL     1     -50.426 -10.423 -17.987  1.00  0.00     0.277 C 
BRANCH  40  41
HETATM   41  C4  UNL     1     -48.967 -10.343 -18.139  1.00  0.00     0.093 C 
HETATM   42  N1  UNL     1     -48.204 -10.084 -17.136  1.00  0.00    -0.315 N 
HETATM   43  C3  UNL     1     -46.793  -9.987 -17.187  1.00  0.00     0.364 C 
ATOM     44  H1  UNL     1     -48.651  -9.937 -16.231  1.00  0.00     0.170 HD
HETATM   45  O2  UNL     1     -46.123 -10.360 -16.163  1.00  0.00    -0.238 OA
BRANCH  43  46
HETATM   46  O1  UNL     1     -46.058  -9.520 -18.254  1.00  0.00    -0.304 OA
BRANCH  46  47
HETATM   47  C2  UNL     1     -45.531 -10.370 -19.259  1.00  0.00     0.176 C 
HETATM   48  C1  UNL     1     -44.041 -10.400 -19.110  1.00  0.00     0.034 C 
ENDBRANCH  46  47
ENDBRANCH  43  46
ENDBRANCH  40  41
ENDBRANCH  37  40
ENDBRANCH  35  37
ENDBRANCH  30  32
ENDBRANCH   1  30
TORSDOF 12
ENDMDL
MODEL 5
REMARK VINA RESULT: -8.156263956      2.180      3.192
REMARK  12 active torsions:
REMARK  status: ('A' for Active; 'I' for Inactive)
REMARK    1  A    between atoms: C2_2  and  O1_3 
REMARK    2  A    between atoms: O1_3  and  C3_4 
REMARK       I    between atoms: C3_4  and  N1_6 
REMARK    3  A    between atoms: C4_8  and  C5_9 
REMARK    4  A    between atoms: C5_9  and  N2_10 
REMARK    5  A    between atoms: N2_10  and  C6_13 
REMARK    6  A    between atoms: C9_16  and  N3_17 
REMARK    7  A    between atoms: N3_17  and  C10_19 
REMARK    8  A    between atoms: C11_22  and  O3_23 
REMARK    9  A    between atoms: O3_23  and  C12_24 
REMARK   10  A    between atoms: C12_24  and  C13_25 
REMARK   11  A    between atoms: C17_32  and  C18_33 
REMARK   12  A    between atoms: C19_37  and  C20_38 
ROOT
HETATM    1  C10 UNL     1     -51.680 -16.300 -20.516  1.00  0.00     0.680 A 
HETATM    2  N4  UNL     1     -51.447 -15.359 -21.468  1.00  0.00    -0.171 N 
ATOM      3  H4  UNL     1     -51.585 -14.382 -21.207  1.00  0.00     0.186 HD
HETATM    4  C11 UNL     1     -51.054 -15.609 -22.711  1.00  0.00     0.158 A 
HETATM    5  C25 UNL     1     -50.875 -16.970 -23.028  1.00  0.00     0.074 A 
HETATM    6  C26 UNL     1     -51.095 -17.961 -22.106  1.00  0.00     0.110 A 
HETATM    7  N7  UNL     1     -51.499 -17.579 -20.854  1.00  0.00    -0.202 N 
ATOM      8  H7  UNL     1     -51.668 -18.300 -20.153  1.00  0.00     0.183 HD
ENDROOT
BRANCH   4   9
HETATM    9  O3  UNL     1     -50.808 -14.701 -23.707  1.00  0.00    -0.335 OA
BRANCH   9  10
HETATM   10  C12 UNL     1     -51.824 -13.998 -24.320  1.00  0.00     0.184 C 
BRANCH  10  11
HETATM   11  C13 UNL     1     -51.567 -12.511 -24.457  1.00  0.00     0.046 C 
HETATM   12  C14 UNL     1     -50.387 -12.035 -23.706  1.00  0.00     0.239 C 
HETATM   13  N5  UNL     1     -50.672 -11.794 -22.331  1.00  0.00    -0.075 N 
HETATM   14  C15 UNL     1     -51.687 -10.788 -22.231  1.00  0.00     0.233 C 
ATOM     15  H52 UNL     1     -50.922 -12.647 -21.831  1.00  0.00     0.277 HD
ATOM     16  H51 UNL     1     -49.836 -11.555 -21.798  1.00  0.00     0.277 HD
HETATM   17  C16 UNL     1     -52.994 -11.186 -22.873  1.00  0.00     0.039 C 
HETATM   18  C17 UNL     1     -52.813 -11.698 -24.273  1.00  0.00     0.058 C 
BRANCH  18  19
HETATM   19  C18 UNL     1     -52.830 -10.546 -25.220  1.00  0.00     0.121 A 
HETATM   20  O4  UNL     1     -51.876 -10.230 -26.097  1.00  0.00    -0.238 OA
HETATM   21  N6  UNL     1     -52.202  -9.167 -26.767  1.00  0.00    -0.261 N 
HETATM   22  C19 UNL     1     -53.384  -8.720 -26.373  1.00  0.00     0.081 A 
ATOM     23  H6  UNL     1     -51.629  -8.736 -27.493  1.00  0.00     0.194 HD
HETATM   24  C24 UNL     1     -53.815  -9.596 -25.371  1.00  0.00     0.173 A 
HETATM   25  F1  UNL     1     -54.972  -9.509 -24.702  1.00  0.00    -0.201 F 
BRANCH  22  26
HETATM   26  C20 UNL     1     -54.182  -7.541 -26.836  1.00  0.00    -0.004 C 
HETATM   27  C21 UNL     1     -54.479  -6.621 -25.692  1.00  0.00     0.021 C 
HETATM   28  C22 UNL     1     -53.366  -6.766 -27.851  1.00  0.00     0.021 C 
HETATM   29  C23 UNL     1     -55.434  -8.019 -27.491  1.00  0.00     0.021 C 
ENDBRANCH  22  26
ENDBRANCH  18  19
ENDBRANCH  10  11
ENDBRANCH   9  10
ENDBRANCH   4   9
BRANCH   1  30
HETATM   30  N3  UNL     1     -52.064 -15.973 -19.344  1.00  0.00    -0.221 N 
ATOM     31  H3  UNL     1     -52.068 -16.738 -18.670  1.00  0.00     0.178 HD
BRANCH  30  32
HETATM   32  C9  UNL     1     -52.479 -14.740 -18.825  1.00  0.00     0.101 C 
HETATM   33  C8  UNL     1     -53.912 -14.345 -19.192  1.00  0.00     0.027 C 
HETATM   34  C7  UNL     1     -54.185 -13.230 -18.227  1.00  0.00     0.035 C 
HETATM   35  C6  UNL     1     -53.472 -13.567 -16.976  1.00  0.00     0.188 C 
HETATM   36  C27 UNL     1     -52.567 -14.725 -17.296  1.00  0.00     0.058 C 
BRANCH  35  37
HETATM   37  N2  UNL     1     -52.603 -12.497 -16.509  1.00  0.00    -0.067 N 
ATOM     38  H22 UNL     1     -51.647 -12.837 -16.402  1.00  0.00     0.278 HD
ATOM     39  H21 UNL     1     -52.816 -12.263 -15.540  1.00  0.00     0.278 HD
BRANCH  37  40
HETATM   40  C5  UNL     1     -52.624 -11.324 -17.319  1.00  0.00     0.277 C 
BRANCH  40  41
HETATM   41  C4  UNL     1     -51.300 -10.838 -17.732  1.00  0.00     0.093 C 
HETATM   42  N1  UNL     1     -50.530 -11.549 -18.478  1.00  0.00    -0.315 N 
HETATM   43  C3  UNL     1     -49.242 -11.165 -18.923  1.00  0.00     0.364 C 
ATOM     44  H1  UNL     1     -50.874 -12.463 -18.772  1.00  0.00     0.170 HD
HETATM   45  O2  UNL     1     -48.856 -11.566 -20.074  1.00  0.00    -0.238 OA
BRANCH  43  46
HETATM   46  O1  UNL     1     -48.349 -10.386 -18.222  1.00  0.00    -0.304 OA
BRANCH  46  47
HETATM   47  C2  UNL     1     -47.073 -10.029 -18.726  1.00  0.00     0.176 C 
HETATM   48  C1  UNL     1     -46.103 -10.031 -17.585  1.00  0.00     0.034 C 
ENDBRANCH  46  47
ENDBRANCH  43  46
ENDBRANCH  40  41
ENDBRANCH  37  40
ENDBRANCH  35  37
ENDBRANCH  30  32
ENDBRANCH   1  30
TORSDOF 12
ENDMDL
