MODEL 1
REMARK VINA RESULT: -7.637410950      0.000      0.000
REMARK  13 active torsions:
REMARK  status: ('A' for Active; 'I' for Inactive)
REMARK    1  A    between atoms: C2_2  and  N1_3 
REMARK    2  A    between atoms: N1_3  and  C3_4 
REMARK       I    between atoms: N1_3  and  C11_17 
REMARK    3  A    between atoms: C3_4  and  C4_5 
REMARK    4  A    between atoms: C4_5  and  N2_6 
REMARK    5  A    between atoms: C6_8  and  O1_9 
REMARK    6  A    between atoms: N3_11  and  C7_12 
REMARK       I    between atoms: C11_17  and  N6_29 
REMARK    7  A    between atoms: N4_18  and  N5_20 
REMARK    8  A    between atoms: C12_22  and  C14_24 
REMARK    9  A    between atoms: C14_24  and  O3_26 
REMARK   10  A    between atoms: N6_29  and  C16_31 
REMARK   11  A    between atoms: C16_31  and  C17_32 
REMARK   12  A    between atoms: C17_32  and  C18_33 
REMARK   13  A    between atoms: C18_33  and  C19_34 
ROOT
HETATM    1  C18 UNL     1     -53.187 -11.918 -25.293  1.00  0.00     0.089 C 
HETATM    2  O4  UNL     1     -53.739 -12.588 -26.432  1.00  0.00    -0.354 OA
HETATM    3  C23 UNL     1     -52.818 -13.298 -27.141  1.00  0.00     0.339 C 
HETATM    4  O5  UNL     1     -52.044 -12.450 -27.969  1.00  0.00    -0.366 OA
HETATM    5  C24 UNL     1     -51.520 -11.471 -27.164  1.00  0.00     0.192 C 
HETATM    6  C25 UNL     1     -51.772 -11.650 -25.689  1.00  0.00     0.152 C 
HETATM    7  C26 UNL     1     -51.107 -10.581 -24.994  1.00  0.00     0.069 C 
HETATM    8  N7  UNL     1     -50.555  -9.731 -24.451  1.00  0.00    -0.197 NA
ENDROOT
BRANCH   1   9
HETATM    9  C17 UNL     1     -53.258 -13.015 -24.260  1.00  0.00     0.060 C 
BRANCH   9  10
HETATM   10  C16 UNL     1     -52.018 -13.627 -23.775  1.00  0.00     0.141 C 
BRANCH  10  11
HETATM   11  N6  UNL     1     -51.702 -12.945 -22.496  1.00  0.00    -0.225 N 
HETATM   12  C11 UNL     1     -50.985 -13.622 -21.482  1.00  0.00     0.690 C 
HETATM   13  N1  UNL     1     -51.610 -14.707 -20.812  1.00  0.00    -0.215 N 
HETATM   14  N4  UNL     1     -49.803 -13.327 -21.106  1.00  0.00    -0.132 N 
ATOM     15  H4  UNL     1     -49.422 -13.902 -20.355  1.00  0.00     0.205 HD
ATOM     16  H6  UNL     1     -52.004 -11.983 -22.347  1.00  0.00     0.177 HD
BRANCH  13  17
HETATM   17  C2  UNL     1     -52.796 -14.450 -20.019  1.00  0.00     0.137 C 
HETATM   18  C1  UNL     1     -52.417 -13.936 -18.670  1.00  0.00     0.027 C 
ENDBRANCH  13  17
BRANCH  13  19
HETATM   19  C3  UNL     1     -51.027 -16.025 -20.933  1.00  0.00     0.161 C 
BRANCH  19  20
HETATM   20  C4  UNL     1     -52.023 -17.122 -21.096  1.00  0.00     0.153 C 
BRANCH  20  21
HETATM   21  N2  UNL     1     -51.896 -17.653 -22.463  1.00  0.00    -0.304 N 
HETATM   22  C5  UNL     1     -50.973 -18.504 -22.886  1.00  0.00     0.151 A 
HETATM   23  C6  UNL     1     -51.207 -18.744 -24.239  1.00  0.00     0.162 A 
HETATM   24  N3  UNL     1     -52.277 -18.019 -24.586  1.00  0.00    -0.274 N 
HETATM   25  C10 UNL     1     -52.684 -17.359 -23.488  1.00  0.00     0.331 A 
HETATM   26  O2  UNL     1     -53.671 -16.558 -23.388  1.00  0.00    -0.246 OA
BRANCH  23  27
HETATM   27  O1  UNL     1     -50.418 -19.587 -24.972  1.00  0.00    -0.345 OA
ATOM     28  H1  UNL     1     -50.395 -20.523 -24.811  1.00  0.00     0.219 HD
ENDBRANCH  23  27
BRANCH  24  29
HETATM   29  C7  UNL     1     -52.880 -17.952 -25.869  1.00  0.00     0.097 A 
HETATM   30  C8  UNL     1     -52.766 -19.021 -26.880  1.00  0.00     0.028 A 
HETATM   31  C9  UNL     1     -54.034 -18.928 -26.084  1.00  0.00     0.028 A 
ENDBRANCH  24  29
ENDBRANCH  20  21
ENDBRANCH  19  20
ENDBRANCH  13  19
BRANCH  14  32
HETATM   32  N5  UNL     1     -48.976 -12.339 -21.575  1.00  0.00    -0.289 N 
HETATM   33  C12 UNL     1     -48.703 -11.320 -20.810  1.00  0.00     0.066 C 
HETATM   34  C13 UNL     1     -49.282 -11.243 -19.456  1.00  0.00     0.071 C 
ATOM     35  H5  UNL     1     -48.580 -12.401 -22.513  1.00  0.00     0.187 HD
BRANCH  33  36
HETATM   36  C14 UNL     1     -47.808 -10.258 -21.334  1.00  0.00     0.239 C 
HETATM   37  C15 UNL     1     -47.354  -9.425 -20.147  1.00  0.00     0.091 C 
HETATM   38  F1  UNL     1     -46.707 -10.838 -21.913  1.00  0.00    -0.205 F 
BRANCH  36  39
HETATM   39  O3  UNL     1     -48.458  -9.470 -22.280  1.00  0.00    -0.357 OA
ATOM     40  H3  UNL     1     -48.308  -8.545 -22.122  1.00  0.00     0.213 HD
ENDBRANCH  36  39
ENDBRANCH  33  36
ENDBRANCH  14  32
ENDBRANCH  10  11
ENDBRANCH   9  10
ENDBRANCH   1   9
BRANCH   1  41
HETATM   41  C19 UNL     1     -54.099 -10.783 -25.122  1.00  0.00    -0.018 C 
HETATM   42  C20 UNL     1     -55.546 -11.186 -25.494  1.00  0.00     0.018 C 
HETATM   43  C21 UNL     1     -54.217 -10.524 -23.602  1.00  0.00     0.018 C 
HETATM   44  C22 UNL     1     -53.874  -9.488 -25.764  1.00  0.00     0.018 C 
ENDBRANCH   1  41
TORSDOF 13
ENDMDL
MODEL 2
REMARK VINA RESULT: -7.501163525      2.531      8.103
REMARK  13 active torsions:
REMARK  status: ('A' for Active; 'I' for Inactive)
REMARK    1  A    between atoms: C2_2  and  N1_3 
REMARK    2  A    between atoms: N1_3  and  C3_4 
REMARK       I    between atoms: N1_3  and  C11_17 
REMARK    3  A    between atoms: C3_4  and  C4_5 
REMARK    4  A    between atoms: C4_5  and  N2_6 
REMARK    5  A    between atoms: C6_8  and  O1_9 
REMARK    6  A    between atoms: N3_11  and  C7_12 
REMARK       I    between atoms: C11_17  and  N6_29 
REMARK    7  A    between atoms: N4_18  and  N5_20 
REMARK    8  A    between atoms: C12_22  and  C14_24 
REMARK    9  A    between atoms: C14_24  and  O3_26 
REMARK   10  A    between atoms: N6_29  and  C16_31 
REMARK   11  A    between atoms: C16_31  and  C17_32 
REMARK   12  A    between atoms: C17_32  and  C18_33 
REMARK   13  A    between atoms: C18_33  and  C19_34 
ROOT
HETATM    1  C18 UNL     1     -52.343 -17.122 -22.651  1.00  0.00     0.089 C 
HETATM    2  O4  UNL     1     -51.993 -18.003 -21.577  1.00  0.00    -0.354 OA
HETATM    3  C23 UNL     1     -50.717 -18.471 -21.655  1.00  0.00     0.339 C 
HETATM    4  O5  UNL     1     -50.611 -19.519 -22.599  1.00  0.00    -0.366 OA
HETATM    5  C24 UNL     1     -51.124 -19.050 -23.782  1.00  0.00     0.192 C 
HETATM    6  C25 UNL     1     -51.491 -17.588 -23.785  1.00  0.00     0.152 C 
HETATM    7  C26 UNL     1     -51.949 -17.251 -25.106  1.00  0.00     0.069 C 
HETATM    8  N7  UNL     1     -52.295 -16.993 -26.172  1.00  0.00    -0.197 NA
ENDROOT
BRANCH   1   9
HETATM    9  C17 UNL     1     -51.844 -15.806 -22.108  1.00  0.00     0.060 C 
BRANCH   9  10
HETATM   10  C16 UNL     1     -51.137 -14.883 -23.001  1.00  0.00     0.141 C 
BRANCH  10  11
HETATM   11  N6  UNL     1     -52.189 -14.071 -23.661  1.00  0.00    -0.225 N 
HETATM   12  C11 UNL     1     -51.952 -12.714 -23.981  1.00  0.00     0.690 C 
HETATM   13  N1  UNL     1     -51.817 -11.777 -22.922  1.00  0.00    -0.215 N 
HETATM   14  N4  UNL     1     -51.855 -12.252 -25.165  1.00  0.00    -0.132 N 
ATOM     15  H4  UNL     1     -51.692 -11.248 -25.235  1.00  0.00     0.205 HD
ATOM     16  H6  UNL     1     -53.089 -14.495 -23.886  1.00  0.00     0.177 HD
BRANCH  13  17
HETATM   17  C2  UNL     1     -52.952 -11.536 -22.053  1.00  0.00     0.137 C 
HETATM   18  C1  UNL     1     -54.162 -11.203 -22.859  1.00  0.00     0.027 C 
ENDBRANCH  13  17
BRANCH  13  19
HETATM   19  C3  UNL     1     -50.557 -11.085 -22.765  1.00  0.00     0.161 C 
BRANCH  19  20
HETATM   20  C4  UNL     1     -49.441 -11.948 -22.282  1.00  0.00     0.153 C 
BRANCH  20  21
HETATM   21  N2  UNL     1     -48.991 -11.426 -20.982  1.00  0.00    -0.304 N 
HETATM   22  C5  UNL     1     -49.610 -11.586 -19.821  1.00  0.00     0.151 A 
HETATM   23  C6  UNL     1     -48.857 -10.934 -18.846  1.00  0.00     0.162 A 
HETATM   24  N3  UNL     1     -47.798 -10.398 -19.463  1.00  0.00    -0.274 N 
HETATM   25  C10 UNL     1     -47.897 -10.709 -20.767  1.00  0.00     0.331 A 
HETATM   26  O2  UNL     1     -47.091 -10.389 -21.703  1.00  0.00    -0.246 OA
BRANCH  23  27
HETATM   27  O1  UNL     1     -49.235 -10.915 -17.531  1.00  0.00    -0.345 OA
ATOM     28  H1  UNL     1     -48.673 -10.561 -16.852  1.00  0.00     0.219 HD
ENDBRANCH  23  27
BRANCH  24  29
HETATM   29  C7  UNL     1     -46.757  -9.641 -18.864  1.00  0.00     0.097 A 
HETATM   30  C8  UNL     1     -46.086 -10.030 -17.609  1.00  0.00     0.028 A 
HETATM   31  C9  UNL     1     -45.382 -10.303 -18.905  1.00  0.00     0.028 A 
ENDBRANCH  24  29
ENDBRANCH  20  21
ENDBRANCH  19  20
ENDBRANCH  13  19
BRANCH  14  32
HETATM   32  N5  UNL     1     -51.943 -12.924 -26.357  1.00  0.00    -0.289 N 
HETATM   33  C12 UNL     1     -52.855 -12.574 -27.220  1.00  0.00     0.066 C 
HETATM   34  C13 UNL     1     -53.775 -11.465 -26.906  1.00  0.00     0.071 C 
ATOM     35  H5  UNL     1     -51.302 -13.690 -26.566  1.00  0.00     0.187 HD
BRANCH  33  36
HETATM   36  C14 UNL     1     -52.939 -13.312 -28.504  1.00  0.00     0.239 C 
HETATM   37  C15 UNL     1     -54.331 -13.082 -29.067  1.00  0.00     0.091 C 
HETATM   38  F1  UNL     1     -52.017 -12.799 -29.382  1.00  0.00    -0.205 F 
BRANCH  36  39
HETATM   39  O3  UNL     1     -52.689 -14.671 -28.325  1.00  0.00    -0.357 OA
ATOM     40  H3  UNL     1     -52.073 -14.998 -28.970  1.00  0.00     0.213 HD
ENDBRANCH  36  39
ENDBRANCH  33  36
ENDBRANCH  14  32
ENDBRANCH  10  11
ENDBRANCH   9  10
ENDBRANCH   1   9
BRANCH   1  41
HETATM   41  C19 UNL     1     -53.796 -17.296 -22.741  1.00  0.00    -0.018 C 
HETATM   42  C20 UNL     1     -54.153 -18.783 -22.974  1.00  0.00     0.018 C 
HETATM   43  C21 UNL     1     -54.370 -17.044 -21.328  1.00  0.00     0.018 C 
HETATM   44  C22 UNL     1     -54.622 -16.541 -23.683  1.00  0.00     0.018 C 
ENDBRANCH   1  41
TORSDOF 13
ENDMDL
MODEL 3
REMARK VINA RESULT: -7.445800598      3.070      6.686
REMARK  13 active torsions:
REMARK  status: ('A' for Active; 'I' for Inactive)
REMARK    1  A    between atoms: C2_2  and  N1_3 
REMARK    2  A    between atoms: N1_3  and  C3_4 
REMARK       I    between atoms: N1_3  and  C11_17 
REMARK    3  A    between atoms: C3_4  and  C4_5 
REMARK    4  A    between atoms: C4_5  and  N2_6 
REMARK    5  A    between atoms: C6_8  and  O1_9 
REMARK    6  A    between atoms: N3_11  and  C7_12 
REMARK       I    between atoms: C11_17  and  N6_29 
REMARK    7  A    between atoms: N4_18  and  N5_20 
REMARK    8  A    between atoms: C12_22  and  C14_24 
REMARK    9  A    between atoms: C14_24  and  O3_26 
REMARK   10  A    between atoms: N6_29  and  C16_31 
REMARK   11  A    between atoms: C16_31  and  C17_32 
REMARK   12  A    between atoms: C17_32  and  C18_33 
REMARK   13  A    between atoms: C18_33  and  C19_34 
ROOT
HETATM    1  C18 UNL     1     -53.770 -11.151 -24.593  1.00  0.00     0.089 C 
HETATM    2  O4  UNL     1     -54.511 -12.249 -25.136  1.00  0.00    -0.354 OA
HETATM    3  C23 UNL     1     -53.871 -13.445 -25.015  1.00  0.00     0.339 C 
HETATM    4  O5  UNL     1     -52.865 -13.590 -25.998  1.00  0.00    -0.366 OA
HETATM    5  C24 UNL     1     -52.049 -12.491 -25.906  1.00  0.00     0.192 C 
HETATM    6  C25 UNL     1     -52.345 -11.570 -24.751  1.00  0.00     0.152 C 
HETATM    7  C26 UNL     1     -51.368 -10.515 -24.766  1.00  0.00     0.069 C 
HETATM    8  N7  UNL     1     -50.569  -9.688 -24.781  1.00  0.00    -0.197 NA
ENDROOT
BRANCH   1   9
HETATM    9  C17 UNL     1     -54.192 -11.213 -23.147  1.00  0.00     0.060 C 
BRANCH   9  10
HETATM   10  C16 UNL     1     -53.173 -11.385 -22.107  1.00  0.00     0.141 C 
BRANCH  10  11
HETATM   11  N6  UNL     1     -53.504 -12.659 -21.422  1.00  0.00    -0.225 N 
HETATM   12  C11 UNL     1     -52.485 -13.430 -20.815  1.00  0.00     0.690 C 
HETATM   13  N1  UNL     1     -51.522 -14.063 -21.644  1.00  0.00    -0.215 N 
HETATM   14  N4  UNL     1     -52.364 -13.615 -19.559  1.00  0.00    -0.132 N 
ATOM     15  H4  UNL     1     -51.582 -14.205 -19.273  1.00  0.00     0.205 HD
ATOM     16  H6  UNL     1     -54.471 -12.980 -21.389  1.00  0.00     0.177 HD
BRANCH  13  17
HETATM   17  C2  UNL     1     -51.962 -15.088 -22.571  1.00  0.00     0.137 C 
HETATM   18  C1  UNL     1     -50.808 -15.600 -23.365  1.00  0.00     0.027 C 
ENDBRANCH  13  17
BRANCH  13  19
HETATM   19  C3  UNL     1     -50.136 -13.674 -21.518  1.00  0.00     0.161 C 
BRANCH  19  20
HETATM   20  C4  UNL     1     -49.864 -12.252 -21.876  1.00  0.00     0.153 C 
BRANCH  20  21
HETATM   21  N2  UNL     1     -49.232 -11.603 -20.716  1.00  0.00    -0.304 N 
HETATM   22  C5  UNL     1     -49.690 -11.611 -19.473  1.00  0.00     0.151 A 
HETATM   23  C6  UNL     1     -48.799 -10.880 -18.689  1.00  0.00     0.162 A 
HETATM   24  N3  UNL     1     -47.825 -10.452 -19.499  1.00  0.00    -0.274 N 
HETATM   25  C10 UNL     1     -48.107 -10.903 -20.734  1.00  0.00     0.331 A 
HETATM   26  O2  UNL     1     -47.430 -10.718 -21.799  1.00  0.00    -0.246 OA
BRANCH  23  27
HETATM   27  O1  UNL     1     -48.994 -10.701 -17.347  1.00  0.00    -0.345 OA
ATOM     28  H1  UNL     1     -49.230  -9.857 -16.981  1.00  0.00     0.219 HD
ENDBRANCH  23  27
BRANCH  24  29
HETATM   29  C7  UNL     1     -46.698  -9.669 -19.136  1.00  0.00     0.097 A 
HETATM   30  C8  UNL     1     -45.923  -9.881 -17.898  1.00  0.00     0.028 A 
HETATM   31  C9  UNL     1     -45.364 -10.408 -19.187  1.00  0.00     0.028 A 
ENDBRANCH  24  29
ENDBRANCH  20  21
ENDBRANCH  19  20
ENDBRANCH  13  19
BRANCH  14  32
HETATM   32  N5  UNL     1     -53.143 -13.128 -18.542  1.00  0.00    -0.289 N 
HETATM   33  C12 UNL     1     -53.406 -13.891 -17.519  1.00  0.00     0.066 C 
HETATM   34  C13 UNL     1     -52.864 -15.262 -17.468  1.00  0.00     0.071 C 
ATOM     35  H5  UNL     1     -53.514 -12.178 -18.586  1.00  0.00     0.187 HD
BRANCH  33  36
HETATM   36  C14 UNL     1     -54.253 -13.350 -16.427  1.00  0.00     0.239 C 
HETATM   37  C15 UNL     1     -54.926 -12.095 -16.957  1.00  0.00     0.091 C 
HETATM   38  F1  UNL     1     -55.221 -14.269 -16.108  1.00  0.00    -0.205 F 
BRANCH  36  39
HETATM   39  O3  UNL     1     -53.497 -13.071 -15.291  1.00  0.00    -0.357 OA
ATOM     40  H3  UNL     1     -53.389 -13.844 -14.749  1.00  0.00     0.213 HD
ENDBRANCH  36  39
ENDBRANCH  33  36
ENDBRANCH  14  32
ENDBRANCH  10  11
ENDBRANCH   9  10
ENDBRANCH   1   9
BRANCH   1  41
HETATM   41  C19 UNL     1     -54.263 -10.017 -25.382  1.00  0.00    -0.018 C 
HETATM   42  C20 UNL     1     -53.828 -10.152 -26.860  1.00  0.00     0.018 C 
HETATM   43  C21 UNL     1     -55.798 -10.171 -25.483  1.00  0.00     0.018 C 
HETATM   44  C22 UNL     1     -53.992  -8.627 -25.017  1.00  0.00     0.018 C 
ENDBRANCH   1  41
TORSDOF 13
ENDMDL
MODEL 4
REMARK VINA RESULT: -7.397273581      2.675      6.296
REMARK  13 active torsions:
REMARK  status: ('A' for Active; 'I' for Inactive)
REMARK    1  A    between atoms: C2_2  and  N1_3 
REMARK    2  A    between atoms: N1_3  and  C3_4 
REMARK       I    between atoms: N1_3  and  C11_17 
REMARK    3  A    between atoms: C3_4  and  C4_5 
REMARK    4  A    between atoms: C4_5  and  N2_6 
REMARK    5  A    between atoms: C6_8  and  O1_9 
REMARK    6  A    between atoms: N3_11  and  C7_12 
REMARK       I    between atoms: C11_17  and  N6_29 
REMARK    7  A    between atoms: N4_18  and  N5_20 
REMARK    8  A    between atoms: C12_22  and  C14_24 
REMARK    9  A    between atoms: C14_24  and  O3_26 
REMARK   10  A    between atoms: N6_29  and  C16_31 
REMARK   11  A    between atoms: C16_31  and  C17_32 
REMARK   12  A    between atoms: C17_32  and  C18_33 
REMARK   13  A    between atoms: C18_33  and  C19_34 
ROOT
HETATM    1  C18 UNL     1     -51.367 -15.938 -22.404  1.00  0.00     0.089 C 
HETATM    2  O4  UNL     1     -51.286 -16.862 -23.496  1.00  0.00    -0.354 OA
HETATM    3  C23 UNL     1     -51.709 -16.338 -24.680  1.00  0.00     0.339 C 
HETATM    4  O5  UNL     1     -53.121 -16.317 -24.755  1.00  0.00    -0.366 OA
HETATM    5  C24 UNL     1     -53.575 -15.658 -23.641  1.00  0.00     0.192 C 
HETATM    6  C25 UNL     1     -52.502 -15.042 -22.780  1.00  0.00     0.152 C 
HETATM    7  C26 UNL     1     -53.148 -14.345 -21.701  1.00  0.00     0.069 C 
HETATM    8  N7  UNL     1     -53.679 -13.776 -20.854  1.00  0.00    -0.197 NA
ENDROOT
BRANCH   1   9
HETATM    9  C17 UNL     1     -50.048 -15.221 -22.542  1.00  0.00     0.060 C 
BRANCH   9  10
HETATM   10  C16 UNL     1     -50.025 -13.756 -22.575  1.00  0.00     0.141 C 
BRANCH  10  11
HETATM   11  N6  UNL     1     -49.566 -13.327 -21.231  1.00  0.00    -0.225 N 
HETATM   12  C11 UNL     1     -49.851 -12.025 -20.759  1.00  0.00     0.690 C 
HETATM   13  N1  UNL     1     -49.221 -10.918 -21.387  1.00  0.00    -0.215 N 
HETATM   14  N4  UNL     1     -50.636 -11.758 -19.790  1.00  0.00    -0.132 N 
ATOM     15  H4  UNL     1     -50.733 -10.769 -19.560  1.00  0.00     0.205 HD
ATOM     16  H6  UNL     1     -49.042 -13.976 -20.644  1.00  0.00     0.177 HD
BRANCH  13  17
HETATM   17  C2  UNL     1     -47.778 -10.799 -21.311  1.00  0.00     0.137 C 
HETATM   18  C1  UNL     1     -47.378 -10.139 -20.034  1.00  0.00     0.027 C 
ENDBRANCH  13  17
BRANCH  13  19
HETATM   19  C3  UNL     1     -50.047  -9.942 -22.062  1.00  0.00     0.161 C 
BRANCH  19  20
HETATM   20  C4  UNL     1     -50.143 -10.136 -23.537  1.00  0.00     0.153 C 
BRANCH  20  21
HETATM   21  N2  UNL     1     -51.435 -10.776 -23.829  1.00  0.00    -0.304 N 
HETATM   22  C5  UNL     1     -52.519 -10.725 -23.069  1.00  0.00     0.151 A 
HETATM   23  C6  UNL     1     -53.518 -11.463 -23.704  1.00  0.00     0.162 A 
HETATM   24  N3  UNL     1     -52.991 -11.938 -24.839  1.00  0.00    -0.274 N 
HETATM   25  C10 UNL     1     -51.718 -11.508 -24.897  1.00  0.00     0.331 A 
HETATM   26  O2  UNL     1     -50.865 -11.738 -25.817  1.00  0.00    -0.246 OA
BRANCH  23  27
HETATM   27  O1  UNL     1     -54.767 -11.604 -23.167  1.00  0.00    -0.345 OA
ATOM     28  H1  UNL     1     -55.256 -12.416 -23.236  1.00  0.00     0.219 HD
ENDBRANCH  23  27
BRANCH  24  29
HETATM   29  C7  UNL     1     -53.643 -12.745 -25.807  1.00  0.00     0.097 A 
HETATM   30  C8  UNL     1     -55.049 -12.555 -26.212  1.00  0.00     0.028 A 
HETATM   31  C9  UNL     1     -53.972 -12.030 -27.115  1.00  0.00     0.028 A 
ENDBRANCH  24  29
ENDBRANCH  20  21
ENDBRANCH  19  20
ENDBRANCH  13  19
BRANCH  14  32
HETATM   32  N5  UNL     1     -51.367 -12.622 -19.016  1.00  0.00    -0.289 N 
HETATM   33  C12 UNL     1     -52.177 -12.142 -18.116  1.00  0.00     0.066 C 
HETATM   34  C13 UNL     1     -52.297 -10.682 -17.941  1.00  0.00     0.071 C 
ATOM     35  H5  UNL     1     -51.277 -13.631 -19.144  1.00  0.00     0.187 HD
BRANCH  33  36
HETATM   36  C14 UNL     1     -52.959 -13.090 -17.285  1.00  0.00     0.239 C 
HETATM   37  C15 UNL     1     -54.422 -12.698 -17.409  1.00  0.00     0.091 C 
HETATM   38  F1  UNL     1     -52.798 -14.362 -17.776  1.00  0.00    -0.205 F 
BRANCH  36  39
HETATM   39  O3  UNL     1     -52.544 -13.060 -15.956  1.00  0.00    -0.357 OA
ATOM     40  H3  UNL     1     -52.583 -12.179 -15.601  1.00  0.00     0.213 HD
ENDBRANCH  36  39
ENDBRANCH  33  36
ENDBRANCH  14  32
ENDBRANCH  10  11
ENDBRANCH   9  10
ENDBRANCH   1   9
BRANCH   1  41
HETATM   41  C19 UNL     1     -51.524 -16.828 -21.250  1.00  0.00    -0.018 C 
HETATM   42  C20 UNL     1     -50.714 -18.130 -21.452  1.00  0.00     0.018 C 
HETATM   43  C21 UNL     1     -50.779 -16.167 -20.066  1.00  0.00     0.018 C 
HETATM   44  C22 UNL     1     -52.833 -17.251 -20.753  1.00  0.00     0.018 C 
ENDBRANCH   1  41
TORSDOF 13
ENDMDL
MODEL 5
REMARK VINA RESULT: -7.272127920      2.909      6.199
REMARK  13 active torsions:
REMARK  status: ('A' for Active; 'I' for Inactive)
REMARK    1  A    between atoms: C2_2  and  N1_3 
REMARK    2  A    between atoms: N1_3  and  C3_4 
REMARK       I    between atoms: N1_3  and  C11_17 
REMARK    3  A    between atoms: C3_4  and  C4_5 
REMARK    4  A    between atoms: C4_5  and  N2_6 
REMARK    5  A    between atoms: C6_8  and  O1_9 
REMARK    6  A    between atoms: N3_11  and  C7_12 
REMARK       I    between atoms: C11_17  and  N6_29 
REMARK    7  A    between atoms: N4_18  and  N5_20 
REMARK    8  A    between atoms: C12_22  and  C14_24 
REMARK    9  A    between atoms: C14_24  and  O3_26 
REMARK   10  A    between atoms: N6_29  and  C16_31 
REMARK   11  A    between atoms: C16_31  and  C17_32 
REMARK   12  A    between atoms: C17_32  and  C18_33 
REMARK   13  A    between atoms: C18_33  and  C19_34 
ROOT
HETATM    1  C18 UNL     1     -52.481 -11.481 -25.304  1.00  0.00     0.089 C 
HETATM    2  O4  UNL     1     -52.043 -10.836 -26.505  1.00  0.00    -0.354 OA
HETATM    3  C23 UNL     1     -51.704  -9.529 -26.323  1.00  0.00     0.339 C 
HETATM    4  O5  UNL     1     -52.852  -8.706 -26.257  1.00  0.00    -0.366 OA
HETATM    5  C24 UNL     1     -53.666  -9.228 -25.284  1.00  0.00     0.192 C 
HETATM    6  C25 UNL     1     -53.075 -10.372 -24.500  1.00  0.00     0.152 C 
HETATM    7  C26 UNL     1     -54.026 -10.753 -23.491  1.00  0.00     0.069 C 
HETATM    8  N7  UNL     1     -54.789 -11.035 -22.678  1.00  0.00    -0.197 NA
ENDROOT
BRANCH   1   9
HETATM    9  C17 UNL     1     -51.161 -11.920 -24.722  1.00  0.00     0.060 C 
BRANCH   9  10
HETATM   10  C16 UNL     1     -50.701 -11.334 -23.460  1.00  0.00     0.141 C 
BRANCH  10  11
HETATM   11  N6  UNL     1     -49.638 -12.238 -22.956  1.00  0.00    -0.225 N 
HETATM   12  C11 UNL     1     -49.397 -12.356 -21.567  1.00  0.00     0.690 C 
HETATM   13  N1  UNL     1     -48.856 -11.243 -20.871  1.00  0.00    -0.215 N 
HETATM   14  N4  UNL     1     -49.622 -13.404 -20.877  1.00  0.00    -0.132 N 
ATOM     15  H4  UNL     1     -49.389 -13.338 -19.886  1.00  0.00     0.205 HD
ATOM     16  H6  UNL     1     -49.077 -12.777 -23.615  1.00  0.00     0.177 HD
BRANCH  13  17
HETATM   17  C2  UNL     1     -47.528 -10.778 -21.220  1.00  0.00     0.137 C 
HETATM   18  C1  UNL     1     -46.764 -10.416 -19.990  1.00  0.00     0.027 C 
ENDBRANCH  13  17
BRANCH  13  19
HETATM   19  C3  UNL     1     -49.645 -10.628 -19.827  1.00  0.00     0.161 C 
BRANCH  19  20
HETATM   20  C4  UNL     1     -51.029 -10.262 -20.241  1.00  0.00     0.153 C 
BRANCH  20  21
HETATM   21  N2  UNL     1     -51.967 -10.876 -19.287  1.00  0.00    -0.304 N 
HETATM   22  C5  UNL     1     -52.214 -10.454 -18.056  1.00  0.00     0.151 A 
HETATM   23  C6  UNL     1     -53.157 -11.315 -17.494  1.00  0.00     0.162 A 
HETATM   24  N3  UNL     1     -53.447 -12.235 -18.421  1.00  0.00    -0.274 N 
HETATM   25  C10 UNL     1     -52.711 -11.951 -19.509  1.00  0.00     0.331 A 
HETATM   26  O2  UNL     1     -52.689 -12.584 -20.616  1.00  0.00    -0.246 OA
BRANCH  23  27
HETATM   27  O1  UNL     1     -53.622 -11.146 -16.219  1.00  0.00    -0.345 OA
ATOM     28  H1  UNL     1     -54.194 -11.782 -15.804  1.00  0.00     0.219 HD
ENDBRANCH  23  27
BRANCH  24  29
HETATM   29  C7  UNL     1     -54.361 -13.314 -18.292  1.00  0.00     0.097 A 
HETATM   30  C8  UNL     1     -55.631 -13.221 -17.547  1.00  0.00     0.028 A 
HETATM   31  C9  UNL     1     -55.676 -13.129 -19.044  1.00  0.00     0.028 A 
ENDBRANCH  24  29
ENDBRANCH  20  21
ENDBRANCH  19  20
ENDBRANCH  13  19
BRANCH  14  32
HETATM   32  N5  UNL     1     -50.137 -14.607 -21.288  1.00  0.00    -0.289 N 
HETATM   33  C12 UNL     1     -50.666 -15.407 -20.406  1.00  0.00     0.066 C 
HETATM   34  C13 UNL     1     -50.705 -15.012 -18.986  1.00  0.00     0.071 C 
ATOM     35  H5  UNL     1     -50.105 -14.871 -22.272  1.00  0.00     0.187 HD
BRANCH  33  36
HETATM   36  C14 UNL     1     -51.216 -16.706 -20.866  1.00  0.00     0.239 C 
HETATM   37  C15 UNL     1     -51.719 -16.507 -22.286  1.00  0.00     0.091 C 
HETATM   38  F1  UNL     1     -50.213 -17.643 -20.881  1.00  0.00    -0.205 F 
BRANCH  36  39
HETATM   39  O3  UNL     1     -52.238 -17.148 -20.030  1.00  0.00    -0.357 OA
ATOM     40  H3  UNL     1     -52.342 -18.091 -20.078  1.00  0.00     0.213 HD
ENDBRANCH  36  39
ENDBRANCH  33  36
ENDBRANCH  14  32
ENDBRANCH  10  11
ENDBRANCH   9  10
ENDBRANCH   1   9
BRANCH   1  41
HETATM   41  C19 UNL     1     -53.365 -12.533 -25.815  1.00  0.00    -0.018 C 
HETATM   42  C20 UNL     1     -52.777 -13.162 -27.100  1.00  0.00     0.018 C 
HETATM   43  C21 UNL     1     -53.291 -13.711 -24.816  1.00  0.00     0.018 C 
HETATM   44  C22 UNL     1     -54.780 -12.301 -26.104  1.00  0.00     0.018 C 
ENDBRANCH   1  41
TORSDOF 13
ENDMDL
