MODEL 1
REMARK VINA RESULT: -8.747629176      0.000      0.000
REMARK  8 active torsions:
REMARK  status: ('A' for Active; 'I' for Inactive)
REMARK    1  A    between atoms: N1_2  and  C2_4 
REMARK    2  A    between atoms: C2_4  and  C3_5 
REMARK    3  A    between atoms: C6_8  and  C7_9 
REMARK       I    between atoms: C7_9  and  N2_11 
REMARK    4  A    between atoms: N2_11  and  C8_13 
REMARK    5  A    between atoms: C11_16  and  C12_17 
REMARK    6  A    between atoms: C17_23  and  C18_24 
REMARK    7  A    between atoms: C24_35  and  C25_36 
REMARK    8  A    between atoms: C25_36  and  C26_37 
ROOT
HETATM    1  C7  UNL     1      53.699  24.840  12.846  1.00  0.00     0.268 C 
HETATM    2  O1  UNL     1      54.374  25.556  13.625  1.00  0.00    -0.266 OA
HETATM    3  N2  UNL     1      53.852  25.048  11.474  1.00  0.00    -0.342 N 
ATOM      4  H2  UNL     1      53.347  24.456  10.815  1.00  0.00     0.163 HD
ENDROOT
BRANCH   1   5
HETATM    5  C6  UNL     1      52.780  23.834  13.414  1.00  0.00     0.093 C 
HETATM    6  C5  UNL     1      51.464  23.672  12.774  1.00  0.00     0.010 C 
HETATM    7  C4  UNL     1      51.257  22.861  11.577  1.00  0.00     0.060 C 
HETATM    8  C3  UNL     1      50.731  21.501  11.951  1.00  0.00     0.126 C 
HETATM    9  N5  UNL     1      51.897  20.655  12.140  1.00  0.00    -0.350 N 
HETATM   10  C30 UNL     1      53.005  20.777  13.000  1.00  0.00     0.241 C 
ATOM     11  H5  UNL     1      51.916  19.827  11.545  1.00  0.00     0.163 HD
HETATM   12  C24 UNL     1      53.304  21.513  14.216  1.00  0.00     0.174 C 
HETATM   13  O3  UNL     1      53.958  20.044  12.576  1.00  0.00    -0.271 OA
HETATM   14  N4  UNL     1      53.282  22.876  14.299  1.00  0.00    -0.372 N 
ATOM     15  H4  UNL     1      53.700  23.258  15.147  1.00  0.00     0.160 HD
BRANCH   8  16
HETATM   16  C2  UNL     1      49.681  20.902  11.114  1.00  0.00     0.080 C 
BRANCH  16  17
HETATM   17  N1  UNL     1      49.567  19.512  10.985  1.00  0.00    -0.405 N 
HETATM   18  C1  UNL     1      48.399  18.798  11.274  1.00  0.00     0.145 C 
ATOM     19  H1  UNL     1      50.382  18.990  10.663  1.00  0.00     0.158 HD
ENDBRANCH  16  17
ENDBRANCH   8  16
BRANCH  12  20
HETATM   20  C25 UNL     1      52.499  20.860  15.331  1.00  0.00     0.043 C 
BRANCH  20  21
HETATM   21  C26 UNL     1      53.142  20.708  16.646  1.00  0.00    -0.049 C 
HETATM   22  C27 UNL     1      52.499  19.441  17.274  1.00  0.00     0.014 C 
HETATM   23  C28 UNL     1      54.618  20.417  16.562  1.00  0.00     0.014 C 
HETATM   24  C29 UNL     1      52.874  21.795  17.631  1.00  0.00     0.014 C 
ENDBRANCH  20  21
ENDBRANCH  12  20
ENDBRANCH   1   5
BRANCH   3  25
HETATM   25  C8  UNL     1      54.726  26.102  10.975  1.00  0.00     0.177 C 
HETATM   26  C9  UNL     1      56.052  25.639  10.480  1.00  0.00     0.041 C 
HETATM   27  C10 UNL     1      56.825  26.530   9.569  1.00  0.00     0.061 C 
HETATM   28  C11 UNL     1      56.110  27.667   8.958  1.00  0.00     0.026 C 
HETATM   29  N3  UNL     1      54.719  27.854   9.251  1.00  0.00    -0.328 N 
HETATM   30  C23 UNL     1      53.999  27.046  10.113  1.00  0.00     0.244 C 
ATOM     31  H3  UNL     1      54.232  28.627   8.798  1.00  0.00     0.168 HD
HETATM   32  O2  UNL     1      52.717  27.131  10.149  1.00  0.00    -0.271 OA
BRANCH  28  33
HETATM   33  C12 UNL     1      56.779  28.934   8.727  1.00  0.00     0.032 A 
HETATM   34  C13 UNL     1      56.967  29.798   9.821  1.00  0.00     0.129 A 
HETATM   35  F1  UNL     1      56.671  29.349  11.042  1.00  0.00    -0.205 F 
HETATM   36  C14 UNL     1      57.453  31.067   9.724  1.00  0.00     0.043 A 
HETATM   37  C15 UNL     1      57.789  31.557   8.497  1.00  0.00     0.004 A 
HETATM   38  C16 UNL     1      57.624  30.760   7.386  1.00  0.00     0.009 A 
HETATM   39  C17 UNL     1      57.114  29.445   7.519  1.00  0.00    -0.039 A 
BRANCH  39  40
HETATM   40  C18 UNL     1      56.895  28.694   6.265  1.00  0.00     0.019 C 
HETATM   41  C19 UNL     1      57.374  29.498   5.061  1.00  0.00     0.009 C 
HETATM   42  C20 UNL     1      58.649  28.993   4.565  1.00  0.00     0.001 C 
HETATM   43  C21 UNL     1      59.096  27.993   5.578  1.00  0.00     0.001 C 
HETATM   44  C22 UNL     1      57.794  27.485   6.213  1.00  0.00     0.009 C 
ENDBRANCH  39  40
ENDBRANCH  28  33
ENDBRANCH   3  25
TORSDOF 8
ENDMDL
MODEL 2
REMARK VINA RESULT: -8.743624367      3.173     10.536
REMARK  8 active torsions:
REMARK  status: ('A' for Active; 'I' for Inactive)
REMARK    1  A    between atoms: N1_2  and  C2_4 
REMARK    2  A    between atoms: C2_4  and  C3_5 
REMARK    3  A    between atoms: C6_8  and  C7_9 
REMARK       I    between atoms: C7_9  and  N2_11 
REMARK    4  A    between atoms: N2_11  and  C8_13 
REMARK    5  A    between atoms: C11_16  and  C12_17 
REMARK    6  A    between atoms: C17_23  and  C18_24 
REMARK    7  A    between atoms: C24_35  and  C25_36 
REMARK    8  A    between atoms: C25_36  and  C26_37 
ROOT
HETATM    1  C7  UNL     1      53.865  26.403  11.146  1.00  0.00     0.268 C 
HETATM    2  O1  UNL     1      54.485  25.514  10.514  1.00  0.00    -0.266 OA
HETATM    3  N2  UNL     1      52.750  26.016  11.890  1.00  0.00    -0.342 N 
ATOM      4  H2  UNL     1      52.248  26.708  12.446  1.00  0.00     0.163 HD
ENDROOT
BRANCH   1   5
HETATM    5  C6  UNL     1      54.337  27.800  11.063  1.00  0.00     0.093 C 
HETATM    6  C5  UNL     1      53.976  28.709  12.164  1.00  0.00     0.010 C 
HETATM    7  C4  UNL     1      54.716  28.768  13.422  1.00  0.00     0.060 C 
HETATM    8  C3  UNL     1      55.688  29.917  13.403  1.00  0.00     0.126 C 
HETATM    9  N5  UNL     1      56.931  29.385  12.871  1.00  0.00    -0.350 N 
HETATM   10  C30 UNL     1      57.222  28.747  11.650  1.00  0.00     0.241 C 
ATOM     11  H5  UNL     1      57.734  29.493  13.490  1.00  0.00     0.163 HD
HETATM   12  C24 UNL     1      56.587  28.652  10.346  1.00  0.00     0.174 C 
HETATM   13  O3  UNL     1      58.322  28.111  11.751  1.00  0.00    -0.271 OA
HETATM   14  N4  UNL     1      55.342  28.127  10.150  1.00  0.00    -0.372 N 
ATOM     15  H4  UNL     1      55.107  27.942   9.175  1.00  0.00     0.160 HD
BRANCH   8  16
HETATM   16  C2  UNL     1      55.850  30.716  14.627  1.00  0.00     0.080 C 
BRANCH  16  17
HETATM   17  N1  UNL     1      56.131  32.087  14.560  1.00  0.00    -0.405 N 
HETATM   18  C1  UNL     1      56.975  32.662  13.603  1.00  0.00     0.145 C 
ATOM     19  H1  UNL     1      55.696  32.701  15.249  1.00  0.00     0.158 HD
ENDBRANCH  16  17
ENDBRANCH   8  16
BRANCH  12  20
HETATM   20  C25 UNL     1      56.744  30.013   9.684  1.00  0.00     0.043 C 
BRANCH  20  21
HETATM   21  C26 UNL     1      57.554  30.092   8.458  1.00  0.00    -0.049 C 
HETATM   22  C27 UNL     1      57.659  31.607   8.131  1.00  0.00     0.014 C 
HETATM   23  C28 UNL     1      58.971  29.616   8.643  1.00  0.00     0.014 C 
HETATM   24  C29 UNL     1      56.949  29.485   7.237  1.00  0.00     0.014 C 
ENDBRANCH  20  21
ENDBRANCH  12  20
ENDBRANCH   1   5
BRANCH   3  25
HETATM   25  C8  UNL     1      52.295  24.631  11.880  1.00  0.00     0.177 C 
HETATM   26  C9  UNL     1      52.027  24.046  13.223  1.00  0.00     0.041 C 
HETATM   27  C10 UNL     1      51.164  22.834  13.315  1.00  0.00     0.061 C 
HETATM   28  C11 UNL     1      50.372  22.469  12.125  1.00  0.00     0.026 C 
HETATM   29  N3  UNL     1      50.453  23.293  10.954  1.00  0.00    -0.328 N 
HETATM   30  C23 UNL     1      51.267  24.405  10.851  1.00  0.00     0.244 C 
ATOM     31  H3  UNL     1      49.876  23.044  10.151  1.00  0.00     0.168 HD
HETATM   32  O2  UNL     1      51.118  25.220   9.868  1.00  0.00    -0.271 OA
BRANCH  28  33
HETATM   33  C12 UNL     1      50.136  21.078  11.782  1.00  0.00     0.032 A 
HETATM   34  C13 UNL     1      48.825  20.685  11.458  1.00  0.00     0.129 A 
HETATM   35  F1  UNL     1      47.894  21.631  11.323  1.00  0.00    -0.205 F 
HETATM   36  C14 UNL     1      48.438  19.395  11.251  1.00  0.00     0.043 A 
HETATM   37  C15 UNL     1      49.364  18.400  11.357  1.00  0.00     0.004 A 
HETATM   38  C16 UNL     1      50.664  18.721  11.676  1.00  0.00     0.009 A 
HETATM   39  C17 UNL     1      51.036  20.072  11.887  1.00  0.00    -0.039 A 
BRANCH  39  40
HETATM   40  C18 UNL     1      52.433  20.314  12.305  1.00  0.00     0.019 C 
HETATM   41  C19 UNL     1      53.128  19.003  12.654  1.00  0.00     0.009 C 
HETATM   42  C20 UNL     1      54.035  18.588  11.589  1.00  0.00     0.001 C 
HETATM   43  C21 UNL     1      53.769  19.526  10.460  1.00  0.00     0.001 C 
HETATM   44  C22 UNL     1      53.252  20.803  11.138  1.00  0.00     0.009 C 
ENDBRANCH  39  40
ENDBRANCH  28  33
ENDBRANCH   3  25
TORSDOF 8
ENDMDL
MODEL 3
REMARK VINA RESULT: -8.737818133      1.567      2.167
REMARK  8 active torsions:
REMARK  status: ('A' for Active; 'I' for Inactive)
REMARK    1  A    between atoms: N1_2  and  C2_4 
REMARK    2  A    between atoms: C2_4  and  C3_5 
REMARK    3  A    between atoms: C6_8  and  C7_9 
REMARK       I    between atoms: C7_9  and  N2_11 
REMARK    4  A    between atoms: N2_11  and  C8_13 
REMARK    5  A    between atoms: C11_16  and  C12_17 
REMARK    6  A    between atoms: C17_23  and  C18_24 
REMARK    7  A    between atoms: C24_35  and  C25_36 
REMARK    8  A    between atoms: C25_36  and  C26_37 
ROOT
HETATM    1  C7  UNL     1      52.655  24.301  12.332  1.00  0.00     0.268 C 
HETATM    2  O1  UNL     1      52.546  24.334  11.082  1.00  0.00    -0.266 OA
HETATM    3  N2  UNL     1      53.399  25.310  12.946  1.00  0.00    -0.342 N 
ATOM      4  H2  UNL     1      53.474  25.334  13.963  1.00  0.00     0.163 HD
ENDROOT
BRANCH   1   5
HETATM    5  C6  UNL     1      52.008  23.204  13.079  1.00  0.00     0.093 C 
HETATM    6  C5  UNL     1      50.828  22.567  12.470  1.00  0.00     0.010 C 
HETATM    7  C4  UNL     1      50.924  21.522  11.455  1.00  0.00     0.060 C 
HETATM    8  C3  UNL     1      50.763  20.164  12.085  1.00  0.00     0.126 C 
HETATM    9  N5  UNL     1      52.099  19.726  12.448  1.00  0.00    -0.350 N 
HETATM   10  C30 UNL     1      53.075  20.308  13.277  1.00  0.00     0.241 C 
ATOM     11  H5  UNL     1      52.378  18.839  12.028  1.00  0.00     0.163 HD
HETATM   12  C24 UNL     1      53.087  21.312  14.328  1.00  0.00     0.174 C 
HETATM   13  O3  UNL     1      54.216  19.803  13.016  1.00  0.00    -0.271 OA
HETATM   14  N4  UNL     1      52.692  22.607  14.140  1.00  0.00    -0.372 N 
ATOM     15  H4  UNL     1      52.937  23.241  14.899  1.00  0.00     0.160 HD
BRANCH   8  16
HETATM   16  C2  UNL     1      49.969  19.153  11.372  1.00  0.00     0.080 C 
BRANCH  16  17
HETATM   17  N1  UNL     1      48.699  19.459  10.865  1.00  0.00    -0.405 N 
HETATM   18  C1  UNL     1      47.506  19.212  11.554  1.00  0.00     0.145 C 
ATOM     19  H1  UNL     1      48.640  19.886   9.941  1.00  0.00     0.158 HD
ENDBRANCH  16  17
ENDBRANCH   8  16
BRANCH  12  20
HETATM   20  C25 UNL     1      52.419  20.682  15.542  1.00  0.00     0.043 C 
BRANCH  20  21
HETATM   21  C26 UNL     1      53.151  20.702  16.818  1.00  0.00    -0.049 C 
HETATM   22  C27 UNL     1      52.714  19.411  17.563  1.00  0.00     0.014 C 
HETATM   23  C28 UNL     1      54.645  20.592  16.654  1.00  0.00     0.014 C 
HETATM   24  C29 UNL     1      52.803  21.812  17.751  1.00  0.00     0.014 C 
ENDBRANCH  20  21
ENDBRANCH  12  20
ENDBRANCH   1   5
BRANCH   3  25
HETATM   25  C8  UNL     1      54.070  26.330  12.148  1.00  0.00     0.177 C 
HETATM   26  C9  UNL     1      53.365  27.640  12.079  1.00  0.00     0.041 C 
HETATM   27  C10 UNL     1      54.142  28.848  11.682  1.00  0.00     0.061 C 
HETATM   28  C11 UNL     1      55.614  28.745  11.686  1.00  0.00     0.026 C 
HETATM   29  N3  UNL     1      56.224  27.510  12.083  1.00  0.00    -0.328 N 
HETATM   30  C23 UNL     1      55.513  26.376  12.431  1.00  0.00     0.244 C 
ATOM     31  H3  UNL     1      57.243  27.464  12.109  1.00  0.00     0.168 HD
HETATM   32  O2  UNL     1      56.115  25.389  12.992  1.00  0.00    -0.271 OA
BRANCH  28  33
HETATM   33  C12 UNL     1      56.415  29.441  10.696  1.00  0.00     0.032 A 
HETATM   34  C13 UNL     1      57.287  30.453  11.135  1.00  0.00     0.129 A 
HETATM   35  F1  UNL     1      57.459  30.616  12.448  1.00  0.00    -0.205 F 
HETATM   36  C14 UNL     1      57.992  31.274  10.307  1.00  0.00     0.043 A 
HETATM   37  C15 UNL     1      57.862  31.125   8.958  1.00  0.00     0.004 A 
HETATM   38  C16 UNL     1      57.019  30.154   8.466  1.00  0.00     0.009 A 
HETATM   39  C17 UNL     1      56.298  29.317   9.352  1.00  0.00    -0.039 A 
BRANCH  39  40
HETATM   40  C18 UNL     1      55.357  28.358   8.735  1.00  0.00     0.019 C 
HETATM   41  C19 UNL     1      55.299  28.554   7.224  1.00  0.00     0.009 C 
HETATM   42  C20 UNL     1      56.048  27.512   6.529  1.00  0.00     0.001 C 
HETATM   43  C21 UNL     1      56.763  26.762   7.602  1.00  0.00     0.001 C 
HETATM   44  C22 UNL     1      55.889  26.953   8.850  1.00  0.00     0.009 C 
ENDBRANCH  39  40
ENDBRANCH  28  33
ENDBRANCH   3  25
TORSDOF 8
ENDMDL
MODEL 4
REMARK VINA RESULT: -8.669278143      1.970      3.597
REMARK  8 active torsions:
REMARK  status: ('A' for Active; 'I' for Inactive)
REMARK    1  A    between atoms: N1_2  and  C2_4 
REMARK    2  A    between atoms: C2_4  and  C3_5 
REMARK    3  A    between atoms: C6_8  and  C7_9 
REMARK       I    between atoms: C7_9  and  N2_11 
REMARK    4  A    between atoms: N2_11  and  C8_13 
REMARK    5  A    between atoms: C11_16  and  C12_17 
REMARK    6  A    between atoms: C17_23  and  C18_24 
REMARK    7  A    between atoms: C24_35  and  C25_36 
REMARK    8  A    between atoms: C25_36  and  C26_37 
ROOT
HETATM    1  C7  UNL     1      52.560  24.821  12.438  1.00  0.00     0.268 C 
HETATM    2  O1  UNL     1      52.165  25.160  11.296  1.00  0.00    -0.266 OA
HETATM    3  N2  UNL     1      53.552  25.596  13.041  1.00  0.00    -0.342 N 
ATOM      4  H2  UNL     1      53.866  25.370  13.985  1.00  0.00     0.163 HD
ENDROOT
BRANCH   1   5
HETATM    5  C6  UNL     1      51.968  23.626  13.075  1.00  0.00     0.093 C 
HETATM    6  C5  UNL     1      50.855  22.962  12.377  1.00  0.00     0.010 C 
HETATM    7  C4  UNL     1      51.055  22.009  11.288  1.00  0.00     0.060 C 
HETATM    8  C3  UNL     1      50.969  20.598  11.804  1.00  0.00     0.126 C 
HETATM    9  N5  UNL     1      52.322  20.223  12.180  1.00  0.00    -0.350 N 
HETATM   10  C30 UNL     1      53.229  20.802  13.086  1.00  0.00     0.241 C 
ATOM     11  H5  UNL     1      52.675  19.394  11.703  1.00  0.00     0.163 HD
HETATM   12  C24 UNL     1      53.139  21.718  14.211  1.00  0.00     0.174 C 
HETATM   13  O3  UNL     1      54.410  20.397  12.827  1.00  0.00    -0.271 OA
HETATM   14  N4  UNL     1      52.660  22.993  14.110  1.00  0.00    -0.372 N 
ATOM     15  H4  UNL     1      52.837  23.580  14.925  1.00  0.00     0.160 HD
BRANCH   8  16
HETATM   16  C2  UNL     1      50.270  19.596  10.987  1.00  0.00     0.080 C 
BRANCH  16  17
HETATM   17  N1  UNL     1      48.881  19.649  10.814  1.00  0.00    -0.405 N 
HETATM   18  C1  UNL     1      47.979  18.838  11.512  1.00  0.00     0.145 C 
ATOM     19  H1  UNL     1      48.505  20.316  10.140  1.00  0.00     0.158 HD
ENDBRANCH  16  17
ENDBRANCH   8  16
BRANCH  12  20
HETATM   20  C25 UNL     1      52.480  20.949  15.348  1.00  0.00     0.043 C 
BRANCH  20  21
HETATM   21  C26 UNL     1      53.176  20.908  16.644  1.00  0.00    -0.049 C 
HETATM   22  C27 UNL     1      52.664  19.619  17.344  1.00  0.00     0.014 C 
HETATM   23  C28 UNL     1      54.668  20.739  16.519  1.00  0.00     0.014 C 
HETATM   24  C29 UNL     1      52.847  22.009  17.594  1.00  0.00     0.014 C 
ENDBRANCH  20  21
ENDBRANCH  12  20
ENDBRANCH   1   5
BRANCH   3  25
HETATM   25  C8  UNL     1      54.143  26.726  12.334  1.00  0.00     0.177 C 
HETATM   26  C9  UNL     1      53.661  28.065  12.773  1.00  0.00     0.041 C 
HETATM   27  C10 UNL     1      54.488  29.262  12.450  1.00  0.00     0.061 C 
HETATM   28  C11 UNL     1      55.875  29.033  12.000  1.00  0.00     0.026 C 
HETATM   29  N3  UNL     1      56.364  27.688  11.911  1.00  0.00    -0.328 N 
HETATM   30  C23 UNL     1      55.599  26.570  12.186  1.00  0.00     0.244 C 
ATOM     31  H3  UNL     1      57.334  27.548  11.627  1.00  0.00     0.168 HD
HETATM   32  O2  UNL     1      56.162  25.421  12.307  1.00  0.00    -0.271 OA
BRANCH  28  33
HETATM   33  C12 UNL     1      56.489  29.890  11.003  1.00  0.00     0.032 A 
HETATM   34  C13 UNL     1      56.085  29.750   9.664  1.00  0.00     0.129 A 
HETATM   35  F1  UNL     1      55.046  28.958   9.394  1.00  0.00    -0.205 F 
HETATM   36  C14 UNL     1      56.671  30.389   8.613  1.00  0.00     0.043 A 
HETATM   37  C15 UNL     1      57.722  31.225   8.847  1.00  0.00     0.004 A 
HETATM   38  C16 UNL     1      58.168  31.400  10.138  1.00  0.00     0.009 A 
HETATM   39  C17 UNL     1      57.538  30.721  11.210  1.00  0.00    -0.039 A 
BRANCH  39  40
HETATM   40  C18 UNL     1      58.136  30.906  12.550  1.00  0.00     0.019 C 
HETATM   41  C19 UNL     1      59.363  31.808  12.475  1.00  0.00     0.009 C 
HETATM   42  C20 UNL     1      59.062  33.149  12.963  1.00  0.00     0.001 C 
HETATM   43  C21 UNL     1      57.583  33.171  13.160  1.00  0.00     0.001 C 
HETATM   44  C22 UNL     1      57.211  31.706  13.431  1.00  0.00     0.009 C 
ENDBRANCH  39  40
ENDBRANCH  28  33
ENDBRANCH   3  25
TORSDOF 8
ENDMDL
MODEL 5
REMARK VINA RESULT: -8.612290974      1.518      2.794
REMARK  8 active torsions:
REMARK  status: ('A' for Active; 'I' for Inactive)
REMARK    1  A    between atoms: N1_2  and  C2_4 
REMARK    2  A    between atoms: C2_4  and  C3_5 
REMARK    3  A    between atoms: C6_8  and  C7_9 
REMARK       I    between atoms: C7_9  and  N2_11 
REMARK    4  A    between atoms: N2_11  and  C8_13 
REMARK    5  A    between atoms: C11_16  and  C12_17 
REMARK    6  A    between atoms: C17_23  and  C18_24 
REMARK    7  A    between atoms: C24_35  and  C25_36 
REMARK    8  A    between atoms: C25_36  and  C26_37 
ROOT
HETATM    1  C7  UNL     1      52.703  24.827  11.503  1.00  0.00     0.268 C 
HETATM    2  O1  UNL     1      52.046  25.193  10.498  1.00  0.00    -0.266 OA
HETATM    3  N2  UNL     1      53.993  25.336  11.657  1.00  0.00    -0.342 N 
ATOM      4  H2  UNL     1      54.538  25.088  12.484  1.00  0.00     0.163 HD
ENDROOT
BRANCH   1   5
HETATM    5  C6  UNL     1      52.088  23.878  12.453  1.00  0.00     0.093 C 
HETATM    6  C5  UNL     1      50.958  23.065  11.971  1.00  0.00     0.010 C 
HETATM    7  C4  UNL     1      51.135  21.836  11.202  1.00  0.00     0.060 C 
HETATM    8  C3  UNL     1      51.021  20.635  12.102  1.00  0.00     0.126 C 
HETATM    9  N5  UNL     1      52.366  20.355  12.574  1.00  0.00    -0.350 N 
HETATM   10  C30 UNL     1      53.288  21.150  13.279  1.00  0.00     0.241 C 
ATOM     11  H5  UNL     1      52.700  19.416  12.356  1.00  0.00     0.163 HD
HETATM   12  C24 UNL     1      53.220  22.351  14.093  1.00  0.00     0.174 C 
HETATM   13  O3  UNL     1      54.459  20.662  13.151  1.00  0.00    -0.271 OA
HETATM   14  N4  UNL     1      52.769  23.554  13.628  1.00  0.00    -0.372 N 
ATOM     15  H4  UNL     1      52.961  24.346  14.241  1.00  0.00     0.160 HD
BRANCH   8  16
HETATM   16  C2  UNL     1      50.298  19.455  11.604  1.00  0.00     0.080 C 
BRANCH  16  17
HETATM   17  N1  UNL     1      49.108  19.592  10.877  1.00  0.00    -0.405 N 
HETATM   18  C1  UNL     1      47.887  19.033  11.271  1.00  0.00     0.145 C 
ATOM     19  H1  UNL     1      49.133  20.130  10.011  1.00  0.00     0.158 HD
ENDBRANCH  16  17
ENDBRANCH   8  16
BRANCH  12  20
HETATM   20  C25 UNL     1      52.548  21.956  15.401  1.00  0.00     0.043 C 
BRANCH  20  21
HETATM   21  C26 UNL     1      53.393  21.839  16.600  1.00  0.00    -0.049 C 
HETATM   22  C27 UNL     1      52.815  22.868  17.610  1.00  0.00     0.014 C 
HETATM   23  C28 UNL     1      53.289  20.498  17.279  1.00  0.00     0.014 C 
HETATM   24  C29 UNL     1      54.821  22.236  16.432  1.00  0.00     0.014 C 
ENDBRANCH  20  21
ENDBRANCH  12  20
ENDBRANCH   1   5
BRANCH   3  25
HETATM   25  C8  UNL     1      54.570  26.218  10.650  1.00  0.00     0.177 C 
HETATM   26  C9  UNL     1      54.208  27.656  10.791  1.00  0.00     0.041 C 
HETATM   27  C10 UNL     1      55.062  28.676  10.118  1.00  0.00     0.061 C 
HETATM   28  C11 UNL     1      56.381  28.241   9.620  1.00  0.00     0.026 C 
HETATM   29  N3  UNL     1      56.785  26.879   9.816  1.00  0.00    -0.328 N 
HETATM   30  C23 UNL     1      55.992  25.920  10.419  1.00  0.00     0.244 C 
ATOM     31  H3  UNL     1      57.711  26.601   9.493  1.00  0.00     0.168 HD
HETATM   32  O2  UNL     1      56.501  24.792  10.766  1.00  0.00    -0.271 OA
BRANCH  28  33
HETATM   33  C12 UNL     1      56.935  28.788   8.396  1.00  0.00     0.032 A 
HETATM   34  C13 UNL     1      56.440  28.314   7.168  1.00  0.00     0.129 A 
HETATM   35  F1  UNL     1      55.377  27.508   7.182  1.00  0.00    -0.205 F 
HETATM   36  C14 UNL     1      56.961  28.637   5.952  1.00  0.00     0.043 A 
HETATM   37  C15 UNL     1      58.034  29.476   5.892  1.00  0.00     0.004 A 
HETATM   38  C16 UNL     1      58.568  29.971   7.060  1.00  0.00     0.009 A 
HETATM   39  C17 UNL     1      58.005  29.615   8.311  1.00  0.00    -0.039 A 
BRANCH  39  40
HETATM   40  C18 UNL     1      58.693  30.129   9.514  1.00  0.00     0.019 C 
HETATM   41  C19 UNL     1      59.980  30.853   9.134  1.00  0.00     0.009 C 
HETATM   42  C20 UNL     1      59.812  32.300   9.213  1.00  0.00     0.001 C 
HETATM   43  C21 UNL     1      58.353  32.513   9.444  1.00  0.00     0.001 C 
HETATM   44  C22 UNL     1      57.887  31.232  10.150  1.00  0.00     0.009 C 
ENDBRANCH  39  40
ENDBRANCH  28  33
ENDBRANCH   3  25
TORSDOF 8
ENDMDL
