MODEL 1
REMARK VINA RESULT: -8.811910982      0.000      0.000
REMARK  9 active torsions:
REMARK  status: ('A' for Active; 'I' for Inactive)
REMARK    1  A    between atoms: O1_2  and  C2_3 
REMARK    2  A    between atoms: C2_3  and  C3_5 
REMARK    3  A    between atoms: C7_9  and  C8_10 
REMARK    4  A    between atoms: C9_11  and  C10_12 
REMARK    5  A    between atoms: C9_11  and  N1_15 
REMARK    6  A    between atoms: C10_12  and  O3_13 
REMARK       I    between atoms: N1_15  and  C11_17 
REMARK       I    between atoms: C11_17  and  N5_25 
REMARK       I    between atoms: N2_18  and  C12_20 
REMARK    7  A    between atoms: N5_25  and  C13_27 
REMARK    8  A    between atoms: C13_27  and  C14_28 
REMARK    9  A    between atoms: C26_41  and  O4_42 
ROOT
HETATM    1  C8  UNL     1      55.208  25.373  13.887  1.00  0.00     0.012 C 
HETATM    2  C9  UNL     1      54.099  24.518  13.962  1.00  0.00     0.047 C 
ENDROOT
BRANCH   2   3
HETATM    3  C10 UNL     1      52.934  24.611  14.847  1.00  0.00     0.221 C 
BRANCH   3   4
HETATM    4  O3  UNL     1      51.690  24.687  14.238  1.00  0.00    -0.395 OA
ATOM      5  H3  UNL     1      50.958  24.934  14.789  1.00  0.00     0.209 HD
ENDBRANCH   3   4
ENDBRANCH   2   3
BRANCH   2   6
HETATM    6  N1  UNL     1      53.562  23.945  12.704  1.00  0.00    -0.194 N 
HETATM    7  C11 UNL     1      53.451  22.539  12.452  1.00  0.00     0.681 C 
HETATM    8  N2  UNL     1      54.341  21.772  13.035  1.00  0.00    -0.164 N 
HETATM    9  N5  UNL     1      52.510  21.946  11.621  1.00  0.00    -0.222 N 
HETATM   10  C12 UNL     1      54.349  20.372  12.874  1.00  0.00     0.200 C 
ATOM     11  H2  UNL     1      55.052  22.203  13.625  1.00  0.00     0.187 HD
HETATM   12  N3  UNL     1      53.838  19.620  13.784  1.00  0.00    -0.373 N 
HETATM   13  N4  UNL     1      54.907  19.716  11.745  1.00  0.00    -0.063 NA
ATOM     14  H32 UNL     1      53.437  20.091  14.595  1.00  0.00     0.158 HD
ATOM     15  H31 UNL     1      53.844  18.607  13.667  1.00  0.00     0.158 HD
ATOM     16  H5  UNL     1      52.787  21.057  11.204  1.00  0.00     0.178 HD
ATOM     17  H1  UNL     1      53.253  24.590  11.976  1.00  0.00     0.184 HD
BRANCH   9  18
HETATM   18  C13 UNL     1      51.194  22.417  11.268  1.00  0.00     0.176 C 
BRANCH  18  19
HETATM   19  C14 UNL     1      50.134  21.396  11.339  1.00  0.00    -0.040 A 
HETATM   20  C15 UNL     1      48.842  21.758  11.626  1.00  0.00     0.012 A 
HETATM   21  C16 UNL     1      47.826  20.810  11.699  1.00  0.00     0.043 A 
HETATM   22  C17 UNL     1      48.124  19.496  11.480  1.00  0.00     0.116 A 
HETATM   23  F1  UNL     1      47.160  18.540  11.543  1.00  0.00    -0.206 F 
HETATM   24  C18 UNL     1      49.414  19.127  11.192  1.00  0.00     0.043 A 
HETATM   25  C19 UNL     1      50.420  20.069  11.121  1.00  0.00     0.012 A 
ENDBRANCH  18  19
ENDBRANCH   9  18
ENDBRANCH   2   6
BRANCH   1  26
HETATM   26  C7  UNL     1      55.586  26.761  13.621  1.00  0.00    -0.004 C 
HETATM   27  C6  UNL     1      54.245  27.533  13.540  1.00  0.00     0.016 C 
HETATM   28  C5  UNL     1      53.595  27.180  12.254  1.00  0.00     0.021 C 
HETATM   29  C3  UNL     1      54.753  27.428  11.371  1.00  0.00     0.052 C 
HETATM   30  C4  UNL     1      54.699  28.886  10.996  1.00  0.00     0.027 C 
HETATM   31  C20 UNL     1      55.943  26.940  12.114  1.00  0.00    -0.016 C 
HETATM   32  C21 UNL     1      56.269  25.599  11.443  1.00  0.00     0.018 C 
HETATM   33  C22 UNL     1      57.057  27.810  11.769  1.00  0.00     0.012 C 
HETATM   34  C23 UNL     1      57.591  28.767  12.755  1.00  0.00     0.013 C 
HETATM   35  C24 UNL     1      57.829  27.945  13.939  1.00  0.00    -0.010 C 
HETATM   36  C25 UNL     1      58.807  26.832  13.727  1.00  0.00     0.018 C 
HETATM   37  C26 UNL     1      58.458  28.772  15.035  1.00  0.00     0.127 C 
HETATM   38  C29 UNL     1      56.501  27.499  14.521  1.00  0.00    -0.022 C 
HETATM   39  C27 UNL     1      58.196  27.864  16.157  1.00  0.00     0.033 C 
HETATM   40  C28 UNL     1      57.124  26.852  15.713  1.00  0.00     0.013 C 
HETATM   41  C30 UNL     1      55.810  28.731  15.140  1.00  0.00     0.017 C 
BRANCH  29  42
HETATM   42  C2  UNL     1      54.476  26.720  10.074  1.00  0.00     0.267 C 
HETATM   43  O2  UNL     1      53.847  25.605  10.046  1.00  0.00    -0.264 OA
BRANCH  42  44
HETATM   44  O1  UNL     1      54.867  27.208   8.840  1.00  0.00    -0.326 OA
HETATM   45  C1  UNL     1      55.741  26.449   7.996  1.00  0.00     0.213 C 
ENDBRANCH  42  44
ENDBRANCH  29  42
BRANCH  37  46
HETATM   46  O4  UNL     1      58.149  30.076  15.084  1.00  0.00    -0.395 OA
ATOM     47  H4  UNL     1      58.625  30.618  15.701  1.00  0.00     0.210 HD
ENDBRANCH  37  46
ENDBRANCH   1  26
TORSDOF 9
ENDMDL
MODEL 2
REMARK VINA RESULT: -8.554718672      2.151      4.985
REMARK  9 active torsions:
REMARK  status: ('A' for Active; 'I' for Inactive)
REMARK    1  A    between atoms: O1_2  and  C2_3 
REMARK    2  A    between atoms: C2_3  and  C3_5 
REMARK    3  A    between atoms: C7_9  and  C8_10 
REMARK    4  A    between atoms: C9_11  and  C10_12 
REMARK    5  A    between atoms: C9_11  and  N1_15 
REMARK    6  A    between atoms: C10_12  and  O3_13 
REMARK       I    between atoms: N1_15  and  C11_17 
REMARK       I    between atoms: C11_17  and  N5_25 
REMARK       I    between atoms: N2_18  and  C12_20 
REMARK    7  A    between atoms: N5_25  and  C13_27 
REMARK    8  A    between atoms: C13_27  and  C14_28 
REMARK    9  A    between atoms: C26_41  and  O4_42 
ROOT
HETATM    1  C8  UNL     1      55.280  27.105  11.368  1.00  0.00     0.012 C 
HETATM    2  C9  UNL     1      54.073  26.394  11.310  1.00  0.00     0.047 C 
ENDROOT
BRANCH   2   3
HETATM    3  C10 UNL     1      52.898  26.659  10.476  1.00  0.00     0.221 C 
BRANCH   3   4
HETATM    4  O3  UNL     1      52.677  27.978  10.106  1.00  0.00    -0.395 OA
ATOM      5  H3  UNL     1      53.374  28.410   9.626  1.00  0.00     0.209 HD
ENDBRANCH   3   4
ENDBRANCH   2   3
BRANCH   2   6
HETATM    6  N1  UNL     1      54.116  24.917  11.428  1.00  0.00    -0.194 N 
HETATM    7  C11 UNL     1      53.541  24.187  12.518  1.00  0.00     0.681 C 
HETATM    8  N2  UNL     1      53.509  24.800  13.676  1.00  0.00    -0.164 N 
HETATM    9  N5  UNL     1      53.058  22.887  12.445  1.00  0.00    -0.222 N 
HETATM   10  C12 UNL     1      52.972  24.199  14.832  1.00  0.00     0.200 C 
ATOM     11  H2  UNL     1      53.888  25.745  13.744  1.00  0.00     0.187 HD
HETATM   12  N3  UNL     1      51.777  24.491  15.208  1.00  0.00    -0.373 N 
HETATM   13  N4  UNL     1      53.685  23.272  15.637  1.00  0.00    -0.063 NA
ATOM     14  H32 UNL     1      51.264  25.158  14.630  1.00  0.00     0.158 HD
ATOM     15  H31 UNL     1      51.388  24.056  16.045  1.00  0.00     0.158 HD
ATOM     16  H5  UNL     1      53.080  22.358  13.317  1.00  0.00     0.178 HD
ATOM     17  H1  UNL     1      54.584  24.390  10.689  1.00  0.00     0.184 HD
BRANCH   9  18
HETATM   18  C13 UNL     1      52.529  22.184  11.302  1.00  0.00     0.176 C 
BRANCH  18  19
HETATM   19  C14 UNL     1      51.106  21.813  11.411  1.00  0.00    -0.040 A 
HETATM   20  C15 UNL     1      50.695  20.546  11.083  1.00  0.00     0.012 A 
HETATM   21  C16 UNL     1      49.357  20.175  11.177  1.00  0.00     0.043 A 
HETATM   22  C17 UNL     1      48.440  21.092  11.603  1.00  0.00     0.116 A 
HETATM   23  F1  UNL     1      47.123  20.769  11.707  1.00  0.00    -0.206 F 
HETATM   24  C18 UNL     1      48.845  22.361  11.933  1.00  0.00     0.043 A 
HETATM   25  C19 UNL     1      50.172  22.726  11.838  1.00  0.00     0.012 A 
ENDBRANCH  18  19
ENDBRANCH   9  18
ENDBRANCH   2   6
BRANCH   1  26
HETATM   26  C7  UNL     1      56.419  27.523  10.551  1.00  0.00    -0.004 C 
HETATM   27  C6  UNL     1      57.671  27.112  11.368  1.00  0.00     0.016 C 
HETATM   28  C5  UNL     1      57.797  28.053  12.509  1.00  0.00     0.021 C 
HETATM   29  C3  UNL     1      57.679  29.311  11.744  1.00  0.00     0.052 C 
HETATM   30  C4  UNL     1      59.072  29.669  11.296  1.00  0.00     0.027 C 
HETATM   31  C20 UNL     1      56.652  29.058  10.701  1.00  0.00    -0.016 C 
HETATM   32  C21 UNL     1      55.404  29.773  11.237  1.00  0.00     0.018 C 
HETATM   33  C22 UNL     1      57.037  29.814   9.520  1.00  0.00     0.012 C 
HETATM   34  C23 UNL     1      57.546  29.122   8.322  1.00  0.00     0.013 C 
HETATM   35  C24 UNL     1      56.538  28.097   8.062  1.00  0.00    -0.010 C 
HETATM   36  C25 UNL     1      55.168  28.636   7.796  1.00  0.00     0.018 C 
HETATM   37  C26 UNL     1      56.876  27.336   6.802  1.00  0.00     0.127 C 
HETATM   38  C29 UNL     1      56.589  27.050   9.159  1.00  0.00    -0.022 C 
HETATM   39  C27 UNL     1      56.002  26.178   7.019  1.00  0.00     0.033 C 
HETATM   40  C28 UNL     1      55.583  26.165   8.501  1.00  0.00     0.013 C 
HETATM   41  C30 UNL     1      57.894  26.243   8.993  1.00  0.00     0.017 C 
BRANCH  29  42
HETATM   42  C2  UNL     1      57.336  30.392  12.729  1.00  0.00     0.267 C 
HETATM   43  O2  UNL     1      57.659  31.613  12.517  1.00  0.00    -0.264 OA
BRANCH  42  44
HETATM   44  O1  UNL     1      56.658  30.160  13.912  1.00  0.00    -0.326 OA
HETATM   45  C1  UNL     1      55.952  31.217  14.572  1.00  0.00     0.213 C 
ENDBRANCH  42  44
ENDBRANCH  29  42
BRANCH  37  46
HETATM   46  O4  UNL     1      58.172  27.203   6.486  1.00  0.00    -0.395 OA
ATOM     47  H4  UNL     1      58.404  26.539   5.847  1.00  0.00     0.210 HD
ENDBRANCH  37  46
ENDBRANCH   1  26
TORSDOF 9
ENDMDL
MODEL 3
REMARK VINA RESULT: -8.472607708      1.263      1.865
REMARK  9 active torsions:
REMARK  status: ('A' for Active; 'I' for Inactive)
REMARK    1  A    between atoms: O1_2  and  C2_3 
REMARK    2  A    between atoms: C2_3  and  C3_5 
REMARK    3  A    between atoms: C7_9  and  C8_10 
REMARK    4  A    between atoms: C9_11  and  C10_12 
REMARK    5  A    between atoms: C9_11  and  N1_15 
REMARK    6  A    between atoms: C10_12  and  O3_13 
REMARK       I    between atoms: N1_15  and  C11_17 
REMARK       I    between atoms: C11_17  and  N5_25 
REMARK       I    between atoms: N2_18  and  C12_20 
REMARK    7  A    between atoms: N5_25  and  C13_27 
REMARK    8  A    between atoms: C13_27  and  C14_28 
REMARK    9  A    between atoms: C26_41  and  O4_42 
ROOT
HETATM    1  C8  UNL     1      55.366  25.997  12.642  1.00  0.00     0.012 C 
HETATM    2  C9  UNL     1      54.506  24.971  13.060  1.00  0.00     0.047 C 
ENDROOT
BRANCH   2   3
HETATM    3  C10 UNL     1      53.647  24.929  14.246  1.00  0.00     0.221 C 
BRANCH   3   4
HETATM    4  O3  UNL     1      52.301  25.207  14.055  1.00  0.00    -0.395 OA
ATOM      5  H3  UNL     1      51.903  25.828  14.654  1.00  0.00     0.209 HD
ENDBRANCH   3   4
ENDBRANCH   2   3
BRANCH   2   6
HETATM    6  N1  UNL     1      53.749  24.220  12.030  1.00  0.00    -0.194 N 
HETATM    7  C11 UNL     1      53.577  22.798  12.046  1.00  0.00     0.681 C 
HETATM    8  N2  UNL     1      54.545  22.101  12.591  1.00  0.00    -0.164 N 
HETATM    9  N5  UNL     1      52.497  22.116  11.502  1.00  0.00    -0.222 N 
HETATM   10  C12 UNL     1      54.506  20.695  12.674  1.00  0.00     0.200 C 
ATOM     11  H2  UNL     1      55.354  22.594  12.969  1.00  0.00     0.187 HD
HETATM   12  N3  UNL     1      54.153  20.129  13.774  1.00  0.00    -0.373 N 
HETATM   13  N4  UNL     1      54.849  19.837  11.597  1.00  0.00    -0.063 NA
ATOM     14  H32 UNL     1      53.906  20.745  14.548  1.00  0.00     0.158 HD
ATOM     15  H31 UNL     1      54.125  19.111  13.834  1.00  0.00     0.158 HD
ATOM     16  H5  UNL     1      52.685  21.159  11.203  1.00  0.00     0.178 HD
ATOM     17  H1  UNL     1      53.327  24.747  11.264  1.00  0.00     0.184 HD
BRANCH   9  18
HETATM   18  C13 UNL     1      51.146  22.578  11.302  1.00  0.00     0.176 C 
BRANCH  18  19
HETATM   19  C14 UNL     1      50.119  21.523  11.362  1.00  0.00    -0.040 A 
HETATM   20  C15 UNL     1      50.461  20.210  11.153  1.00  0.00     0.012 A 
HETATM   21  C16 UNL     1      49.506  19.200  11.204  1.00  0.00     0.043 A 
HETATM   22  C17 UNL     1      48.207  19.523  11.467  1.00  0.00     0.116 A 
HETATM   23  F1  UNL     1      47.244  18.564  11.524  1.00  0.00    -0.206 F 
HETATM   24  C18 UNL     1      47.858  20.834  11.677  1.00  0.00     0.043 A 
HETATM   25  C19 UNL     1      48.806  21.834  11.625  1.00  0.00     0.012 A 
ENDBRANCH  18  19
ENDBRANCH   9  18
ENDBRANCH   2   6
BRANCH   1  26
HETATM   26  C7  UNL     1      55.386  27.405  12.246  1.00  0.00    -0.004 C 
HETATM   27  C6  UNL     1      54.151  27.579  11.325  1.00  0.00     0.016 C 
HETATM   28  C5  UNL     1      54.459  26.930  10.027  1.00  0.00     0.021 C 
HETATM   29  C3  UNL     1      55.770  27.568   9.790  1.00  0.00     0.052 C 
HETATM   30  C4  UNL     1      55.490  28.863   9.074  1.00  0.00     0.027 C 
HETATM   31  C20 UNL     1      56.436  27.630  11.116  1.00  0.00    -0.016 C 
HETATM   32  C21 UNL     1      57.465  26.492  11.062  1.00  0.00     0.018 C 
HETATM   33  C22 UNL     1      57.229  28.849  11.146  1.00  0.00     0.012 C 
HETATM   34  C23 UNL     1      56.814  29.991  11.982  1.00  0.00     0.013 C 
HETATM   35  C24 UNL     1      56.599  29.394  13.298  1.00  0.00    -0.010 C 
HETATM   36  C25 UNL     1      57.815  28.749  13.885  1.00  0.00     0.018 C 
HETATM   37  C26 UNL     1      56.236  30.460  14.304  1.00  0.00     0.127 C 
HETATM   38  C29 UNL     1      55.380  28.492  13.251  1.00  0.00    -0.022 C 
HETATM   39  C27 UNL     1      55.692  29.584  15.347  1.00  0.00     0.033 C 
HETATM   40  C28 UNL     1      55.407  28.208  14.716  1.00  0.00     0.013 C 
HETATM   41  C30 UNL     1      54.128  29.382  13.113  1.00  0.00     0.017 C 
BRANCH  29  42
HETATM   42  C2  UNL     1      56.480  26.740   8.757  1.00  0.00     0.267 C 
HETATM   43  O2  UNL     1      56.159  25.518   8.547  1.00  0.00    -0.264 OA
BRANCH  42  44
HETATM   44  O1  UNL     1      57.510  27.223   7.969  1.00  0.00    -0.326 OA
HETATM   45  C1  UNL     1      57.518  26.995   6.554  1.00  0.00     0.213 C 
ENDBRANCH  42  44
ENDBRANCH  29  42
BRANCH  37  46
HETATM   46  O4  UNL     1      55.573  31.536  13.857  1.00  0.00    -0.395 OA
ATOM     47  H4  UNL     1      55.759  32.371  14.271  1.00  0.00     0.210 HD
ENDBRANCH  37  46
ENDBRANCH   1  26
TORSDOF 9
ENDMDL
MODEL 4
REMARK VINA RESULT: -8.442301960      3.856      6.728
REMARK  9 active torsions:
REMARK  status: ('A' for Active; 'I' for Inactive)
REMARK    1  A    between atoms: O1_2  and  C2_3 
REMARK    2  A    between atoms: C2_3  and  C3_5 
REMARK    3  A    between atoms: C7_9  and  C8_10 
REMARK    4  A    between atoms: C9_11  and  C10_12 
REMARK    5  A    between atoms: C9_11  and  N1_15 
REMARK    6  A    between atoms: C10_12  and  O3_13 
REMARK       I    between atoms: N1_15  and  C11_17 
REMARK       I    between atoms: C11_17  and  N5_25 
REMARK       I    between atoms: N2_18  and  C12_20 
REMARK    7  A    between atoms: N5_25  and  C13_27 
REMARK    8  A    between atoms: C13_27  and  C14_28 
REMARK    9  A    between atoms: C26_41  and  O4_42 
ROOT
HETATM    1  C8  UNL     1      52.891  22.984  15.625  1.00  0.00     0.012 C 
HETATM    2  C9  UNL     1      52.312  22.893  14.350  1.00  0.00     0.047 C 
ENDROOT
BRANCH   2   3
HETATM    3  C10 UNL     1      52.211  23.930  13.320  1.00  0.00     0.221 C 
BRANCH   3   4
HETATM    4  O3  UNL     1      51.023  24.644  13.266  1.00  0.00    -0.395 OA
ATOM      5  H3  UNL     1      50.251  24.172  12.977  1.00  0.00     0.209 HD
ENDBRANCH   3   4
ENDBRANCH   2   3
BRANCH   2   6
HETATM    6  N1  UNL     1      52.473  21.631  13.590  1.00  0.00    -0.194 N 
HETATM    7  C11 UNL     1      51.620  21.238  12.507  1.00  0.00     0.681 C 
HETATM    8  N2  UNL     1      50.379  21.657  12.563  1.00  0.00    -0.164 N 
HETATM    9  N5  UNL     1      51.997  20.430  11.444  1.00  0.00    -0.222 N 
HETATM   10  C12 UNL     1      49.433  21.346  11.567  1.00  0.00     0.200 C 
ATOM     11  H2  UNL     1      50.088  22.229  13.357  1.00  0.00     0.187 HD
HETATM   12  N3  UNL     1      49.158  22.209  10.654  1.00  0.00    -0.373 N 
HETATM   13  N4  UNL     1      48.737  20.110  11.506  1.00  0.00    -0.063 NA
ATOM     14  H32 UNL     1      49.658  23.097  10.697  1.00  0.00     0.158 HD
ATOM     15  H31 UNL     1      48.473  21.983   9.932  1.00  0.00     0.158 HD
ATOM     16  H5  UNL     1      51.245  19.897  11.006  1.00  0.00     0.178 HD
ATOM     17  H1  UNL     1      53.235  21.005  13.853  1.00  0.00     0.184 HD
BRANCH   9  18
HETATM   18  C13 UNL     1      53.308  20.242  10.874  1.00  0.00     0.176 C 
BRANCH  18  19
HETATM   19  C14 UNL     1      54.274  19.567  11.760  1.00  0.00    -0.040 A 
HETATM   20  C15 UNL     1      55.473  20.164  12.060  1.00  0.00     0.012 A 
HETATM   21  C16 UNL     1      56.399  19.543  12.892  1.00  0.00     0.043 A 
HETATM   22  C17 UNL     1      56.107  18.318  13.418  1.00  0.00     0.116 A 
HETATM   23  F1  UNL     1      56.986  17.679  14.235  1.00  0.00    -0.206 F 
HETATM   24  C18 UNL     1      54.909  17.716  13.122  1.00  0.00     0.043 A 
HETATM   25  C19 UNL     1      53.993  18.333  12.296  1.00  0.00     0.012 A 
ENDBRANCH  18  19
ENDBRANCH   9  18
ENDBRANCH   2   6
BRANCH   1  26
HETATM   26  C7  UNL     1      54.155  23.260  16.308  1.00  0.00    -0.004 C 
HETATM   27  C6  UNL     1      55.227  22.499  15.487  1.00  0.00     0.016 C 
HETATM   28  C5  UNL     1      55.075  21.051  15.776  1.00  0.00     0.021 C 
HETATM   29  C3  UNL     1      55.064  21.141  17.249  1.00  0.00     0.052 C 
HETATM   30  C4  UNL     1      56.503  21.076  17.691  1.00  0.00     0.027 C 
HETATM   31  C20 UNL     1      54.286  22.362  17.576  1.00  0.00    -0.016 C 
HETATM   32  C21 UNL     1      52.925  21.818  18.031  1.00  0.00     0.018 C 
HETATM   33  C22 UNL     1      54.873  22.945  18.773  1.00  0.00     0.012 C 
HETATM   34  C23 UNL     1      55.647  24.197  18.693  1.00  0.00     0.013 C 
HETATM   35  C24 UNL     1      54.759  25.105  17.970  1.00  0.00    -0.010 C 
HETATM   36  C25 UNL     1      53.451  25.357  18.653  1.00  0.00     0.018 C 
HETATM   37  C26 UNL     1      55.382  26.477  17.869  1.00  0.00     0.127 C 
HETATM   38  C29 UNL     1      54.628  24.644  16.531  1.00  0.00    -0.022 C 
HETATM   39  C27 UNL     1      54.532  27.011  16.799  1.00  0.00     0.033 C 
HETATM   40  C28 UNL     1      53.818  25.828  16.119  1.00  0.00     0.013 C 
HETATM   41  C30 UNL     1      55.972  24.903  15.819  1.00  0.00     0.017 C 
BRANCH  29  42
HETATM   42  C2  UNL     1      54.480  19.855  17.763  1.00  0.00     0.267 C 
HETATM   43  O2  UNL     1      54.952  19.278  18.804  1.00  0.00    -0.264 OA
BRANCH  42  44
HETATM   44  O1  UNL     1      53.410  19.212  17.167  1.00  0.00    -0.326 OA
HETATM   45  C1  UNL     1      52.892  17.993  17.712  1.00  0.00     0.213 C 
ENDBRANCH  42  44
ENDBRANCH  29  42
BRANCH  37  46
HETATM   46  O4  UNL     1      56.720  26.550  17.822  1.00  0.00    -0.395 OA
ATOM     47  H4  UNL     1      57.132  26.527  16.966  1.00  0.00     0.210 HD
ENDBRANCH  37  46
ENDBRANCH   1  26
TORSDOF 9
ENDMDL
MODEL 5
REMARK VINA RESULT: -8.439908148      3.771      6.768
REMARK  9 active torsions:
REMARK  status: ('A' for Active; 'I' for Inactive)
REMARK    1  A    between atoms: O1_2  and  C2_3 
REMARK    2  A    between atoms: C2_3  and  C3_5 
REMARK    3  A    between atoms: C7_9  and  C8_10 
REMARK    4  A    between atoms: C9_11  and  C10_12 
REMARK    5  A    between atoms: C9_11  and  N1_15 
REMARK    6  A    between atoms: C10_12  and  O3_13 
REMARK       I    between atoms: N1_15  and  C11_17 
REMARK       I    between atoms: C11_17  and  N5_25 
REMARK       I    between atoms: N2_18  and  C12_20 
REMARK    7  A    between atoms: N5_25  and  C13_27 
REMARK    8  A    between atoms: C13_27  and  C14_28 
REMARK    9  A    between atoms: C26_41  and  O4_42 
ROOT
HETATM    1  C8  UNL     1      54.711  20.748  14.799  1.00  0.00     0.012 C 
HETATM    2  C9  UNL     1      54.151  20.140  13.667  1.00  0.00     0.047 C 
ENDROOT
BRANCH   2   3
HETATM    3  C10 UNL     1      54.349  18.774  13.174  1.00  0.00     0.221 C 
BRANCH   3   4
HETATM    4  O3  UNL     1      53.216  18.085  12.766  1.00  0.00    -0.395 OA
ATOM      5  H3  UNL     1      52.806  17.518  13.407  1.00  0.00     0.209 HD
ENDBRANCH   3   4
ENDBRANCH   2   3
BRANCH   2   6
HETATM    6  N1  UNL     1      52.746  20.458  13.316  1.00  0.00    -0.194 N 
HETATM    7  C11 UNL     1      52.338  21.681  12.690  1.00  0.00     0.681 C 
HETATM    8  N2  UNL     1      53.059  22.742  12.961  1.00  0.00    -0.164 N 
HETATM    9  N5  UNL     1      51.232  21.827  11.864  1.00  0.00    -0.222 N 
HETATM   10  C12 UNL     1      52.771  24.008  12.414  1.00  0.00     0.200 C 
ATOM     11  H2  UNL     1      53.857  22.647  13.589  1.00  0.00     0.187 HD
HETATM   12  N3  UNL     1      53.434  24.431  11.397  1.00  0.00    -0.373 N 
HETATM   13  N4  UNL     1      51.775  24.876  12.932  1.00  0.00    -0.063 NA
ATOM     14  H32 UNL     1      54.151  23.807  11.024  1.00  0.00     0.158 HD
ATOM     15  H31 UNL     1      53.225  25.348  11.001  1.00  0.00     0.158 HD
ATOM     16  H5  UNL     1      50.820  22.760  11.839  1.00  0.00     0.178 HD
ATOM     17  H1  UNL     1      52.028  19.766  13.534  1.00  0.00     0.184 HD
BRANCH   9  18
HETATM   18  C13 UNL     1      50.588  20.838  11.036  1.00  0.00     0.176 C 
BRANCH  18  19
HETATM   19  C14 UNL     1      49.160  20.622  11.332  1.00  0.00    -0.040 A 
HETATM   20  C15 UNL     1      48.369  21.670  11.732  1.00  0.00     0.012 A 
HETATM   21  C16 UNL     1      47.020  21.487  12.017  1.00  0.00     0.043 A 
HETATM   22  C17 UNL     1      46.476  20.241  11.895  1.00  0.00     0.116 A 
HETATM   23  F1  UNL     1      45.161  20.022  12.166  1.00  0.00    -0.206 F 
HETATM   24  C18 UNL     1      47.261  19.189  11.495  1.00  0.00     0.043 A 
HETATM   25  C19 UNL     1      48.599  19.373  11.214  1.00  0.00     0.012 A 
ENDBRANCH  18  19
ENDBRANCH   9  18
ENDBRANCH   2   6
BRANCH   1  26
HETATM   26  C7  UNL     1      54.795  20.634  16.255  1.00  0.00    -0.004 C 
HETATM   27  C6  UNL     1      53.323  20.584  16.738  1.00  0.00     0.016 C 
HETATM   28  C5  UNL     1      52.756  21.949  16.607  1.00  0.00     0.021 C 
HETATM   29  C3  UNL     1      53.834  22.682  17.300  1.00  0.00     0.052 C 
HETATM   30  C4  UNL     1      53.479  22.677  18.764  1.00  0.00     0.027 C 
HETATM   31  C20 UNL     1      55.102  22.028  16.885  1.00  0.00    -0.016 C 
HETATM   32  C21 UNL     1      55.694  22.999  15.856  1.00  0.00     0.018 C 
HETATM   33  C22 UNL     1      56.011  22.085  18.019  1.00  0.00     0.012 C 
HETATM   34  C23 UNL     1      56.340  20.863  18.776  1.00  0.00     0.013 C 
HETATM   35  C24 UNL     1      56.747  19.916  17.741  1.00  0.00    -0.010 C 
HETATM   36  C25 UNL     1      57.932  20.353  16.939  1.00  0.00     0.018 C 
HETATM   37  C26 UNL     1      57.196  18.616  18.366  1.00  0.00     0.127 C 
HETATM   38  C29 UNL     1      55.541  19.533  16.904  1.00  0.00    -0.022 C 
HETATM   39  C27 UNL     1      57.130  17.775  17.166  1.00  0.00     0.033 C 
HETATM   40  C28 UNL     1      56.288  18.514  16.109  1.00  0.00     0.013 C 
HETATM   41  C30 UNL     1      54.613  18.657  17.771  1.00  0.00     0.017 C 
BRANCH  29  42
HETATM   42  C2  UNL     1      53.705  24.127  16.911  1.00  0.00     0.267 C 
HETATM   43  O2  UNL     1      52.990  24.486  15.910  1.00  0.00    -0.264 OA
BRANCH  42  44
HETATM   44  O1  UNL     1      54.330  25.159  17.588  1.00  0.00    -0.326 OA
HETATM   45  C1  UNL     1      54.477  26.449  16.984  1.00  0.00     0.213 C 
ENDBRANCH  42  44
ENDBRANCH  29  42
BRANCH  37  46
HETATM   46  O4  UNL     1      56.625  18.254  19.524  1.00  0.00    -0.395 OA
ATOM     47  H4  UNL     1      55.706  18.012  19.505  1.00  0.00     0.210 HD
ENDBRANCH  37  46
ENDBRANCH   1  26
TORSDOF 9
ENDMDL
