MODEL 1
REMARK VINA RESULT: -8.941642662      0.000      0.000
REMARK  7 active torsions:
REMARK  status: ('A' for Active; 'I' for Inactive)
REMARK    1  A    between atoms: C3_3  and  S1_4 
REMARK    2  A    between atoms: S1_4  and  N1_7 
REMARK    3  A    between atoms: N1_7  and  C4_9 
REMARK    4  A    between atoms: C4_9  and  C5_10 
REMARK    5  A    between atoms: C4_9  and  C17_28 
REMARK       I    between atoms: C5_10  and  N2_12 
REMARK       I    between atoms: N2_12  and  C6_14 
REMARK       I    between atoms: C6_14  and  N3_16 
REMARK    6  A    between atoms: N3_16  and  C7_18 
REMARK    7  A    between atoms: C22_33  and  N4_34 
REMARK       I    between atoms: N4_34  and  C23_36 
ROOT
HETATM    1  C4  UNL     1      51.049  22.148  11.466  1.00  0.00     0.188 C 
ENDROOT
BRANCH   1   2
HETATM    2  N1  UNL     1      51.144  22.002  12.842  1.00  0.00    -0.301 N 
ATOM      3  H1  UNL     1      50.260  22.220  13.303  1.00  0.00     0.173 HD
BRANCH   2   4
HETATM    4  S1  UNL     1      52.284  21.577  13.915  1.00  0.00     0.260 S 
HETATM    5  O1  UNL     1      53.614  21.349  13.140  1.00  0.00    -0.200 OA
HETATM    6  O2  UNL     1      52.073  20.153  14.484  1.00  0.00    -0.200 OA
BRANCH   4   7
HETATM    7  C3  UNL     1      52.723  22.640  15.236  1.00  0.00     0.087 A 
HETATM    8  C2  UNL     1      53.569  22.376  16.264  1.00  0.00    -0.015 A 
HETATM    9  C1  UNL     1      54.348  21.085  16.291  1.00  0.00     0.052 C 
HETATM   10  C24 UNL     1      53.820  23.265  17.285  1.00  0.00     0.068 A 
HETATM   11  C22 UNL     1      53.166  24.513  17.305  1.00  0.00     0.058 A 
HETATM   12 CL1  UNL     1      54.921  22.812  18.553  1.00  0.00    -0.081 Cl
HETATM   13  C21 UNL     1      52.299  24.825  16.310  1.00  0.00     0.033 A 
HETATM   14  C20 UNL     1      52.094  23.863  15.273  1.00  0.00     0.028 A 
BRANCH  11  15
HETATM   15  N4  UNL     1      53.470  25.380  18.407  1.00  0.00    -0.310 N 
HETATM   16  C23 UNL     1      54.242  26.546  18.353  1.00  0.00     0.333 C 
HETATM   17  N5  UNL     1      54.509  27.305  19.524  1.00  0.00    -0.040 NA
HETATM   18  O5  UNL     1      54.765  27.030  17.283  1.00  0.00    -0.251 OA
ATOM     19  H4  UNL     1      53.086  25.123  19.316  1.00  0.00     0.170 HD
ENDBRANCH  11  15
ENDBRANCH   4   7
ENDBRANCH   2   4
ENDBRANCH   1   2
BRANCH   1  20
HETATM   20  C5  UNL     1      51.391  23.533  11.083  1.00  0.00     0.249 C 
HETATM   21  O3  UNL     1      50.767  24.316  10.505  1.00  0.00    -0.271 OA
HETATM   22  N2  UNL     1      52.952  24.017  11.564  1.00  0.00    -0.278 N 
HETATM   23  C6  UNL     1      52.939  25.267  10.891  1.00  0.00     0.323 C 
ATOM     24  H2  UNL     1      53.658  23.562  12.142  1.00  0.00     0.173 HD
HETATM   25  O4  UNL     1      52.172  25.914  10.320  1.00  0.00    -0.247 OA
HETATM   26  N3  UNL     1      54.291  25.939  10.974  1.00  0.00    -0.337 N 
ATOM     27  H3  UNL     1      55.099  25.455  11.365  1.00  0.00     0.164 HD
BRANCH  26  28
HETATM   28  C7  UNL     1      54.394  27.294  10.477  1.00  0.00     0.102 C 
HETATM   29  C8  UNL     1      54.788  28.261  11.590  1.00  0.00    -0.022 C 
HETATM   30  C9  UNL     1      53.682  28.908  12.307  1.00  0.00     0.017 C 
HETATM   31  C10 UNL     1      55.881  27.652  12.402  1.00  0.00     0.011 C 
HETATM   32  C13 UNL     1      55.611  29.298  10.776  1.00  0.00     0.016 C 
HETATM   33  C11 UNL     1      57.048  27.600  11.399  1.00  0.00     0.006 C 
HETATM   34  C12 UNL     1      56.513  28.251  10.145  1.00  0.00    -0.004 C 
HETATM   35  C14 UNL     1      55.485  27.390   9.478  1.00  0.00    -0.023 C 
HETATM   36  C15 UNL     1      56.057  26.075   8.997  1.00  0.00     0.017 C 
HETATM   37  C16 UNL     1      55.016  28.113   8.222  1.00  0.00     0.017 C 
ENDBRANCH  26  28
ENDBRANCH   1  20
BRANCH   1  38
HETATM   38  C17 UNL     1      49.719  21.675  10.956  1.00  0.00     0.010 C 
HETATM   39  C18 UNL     1      49.732  20.123  10.899  1.00  0.00     0.012 C 
HETATM   40  C19 UNL     1      48.617  21.973  11.974  1.00  0.00     0.012 C 
ENDBRANCH   1  38
TORSDOF 7
ENDMDL
MODEL 2
REMARK VINA RESULT: -8.682713259      2.775      3.613
REMARK  7 active torsions:
REMARK  status: ('A' for Active; 'I' for Inactive)
REMARK    1  A    between atoms: C3_3  and  S1_4 
REMARK    2  A    between atoms: S1_4  and  N1_7 
REMARK    3  A    between atoms: N1_7  and  C4_9 
REMARK    4  A    between atoms: C4_9  and  C5_10 
REMARK    5  A    between atoms: C4_9  and  C17_28 
REMARK       I    between atoms: C5_10  and  N2_12 
REMARK       I    between atoms: N2_12  and  C6_14 
REMARK       I    between atoms: C6_14  and  N3_16 
REMARK    6  A    between atoms: N3_16  and  C7_18 
REMARK    7  A    between atoms: C22_33  and  N4_34 
REMARK       I    between atoms: N4_34  and  C23_36 
ROOT
HETATM    1  C4  UNL     1      51.970  22.936  11.717  1.00  0.00     0.188 C 
ENDROOT
BRANCH   1   2
HETATM    2  N1  UNL     1      51.811  23.023  13.093  1.00  0.00    -0.301 N 
ATOM      3  H1  UNL     1      50.828  22.966  13.360  1.00  0.00     0.173 HD
BRANCH   2   4
HETATM    4  S1  UNL     1      52.770  23.192  14.390  1.00  0.00     0.260 S 
HETATM    5  O1  UNL     1      52.066  24.159  15.387  1.00  0.00    -0.200 OA
HETATM    6  O2  UNL     1      54.044  24.019  14.091  1.00  0.00    -0.200 OA
BRANCH   4   7
HETATM    7  C3  UNL     1      53.224  21.811  15.366  1.00  0.00     0.087 A 
HETATM    8  C2  UNL     1      53.830  20.670  14.952  1.00  0.00    -0.015 A 
HETATM    9  C1  UNL     1      54.303  20.537  13.526  1.00  0.00     0.052 C 
HETATM   10  C24 UNL     1      54.110  19.614  15.791  1.00  0.00     0.068 A 
HETATM   11  C22 UNL     1      53.742  19.682  17.150  1.00  0.00     0.058 A 
HETATM   12 CL1  UNL     1      54.887  18.199  15.144  1.00  0.00    -0.081 Cl
HETATM   13  C21 UNL     1      53.120  20.793  17.615  1.00  0.00     0.033 A 
HETATM   14  C20 UNL     1      52.873  21.858  16.695  1.00  0.00     0.028 A 
BRANCH  11  15
HETATM   15  N4  UNL     1      54.056  18.538  17.958  1.00  0.00    -0.310 N 
HETATM   16  C23 UNL     1      55.165  18.400  18.800  1.00  0.00     0.333 C 
HETATM   17  N5  UNL     1      55.393  17.200  19.524  1.00  0.00    -0.040 NA
HETATM   18  O5  UNL     1      56.053  19.309  18.997  1.00  0.00    -0.251 OA
ATOM     19  H4  UNL     1      53.409  17.752  17.915  1.00  0.00     0.170 HD
ENDBRANCH  11  15
ENDBRANCH   4   7
ENDBRANCH   2   4
ENDBRANCH   1   2
BRANCH   1  20
HETATM   20  C5  UNL     1      52.188  24.282  11.150  1.00  0.00     0.249 C 
HETATM   21  O3  UNL     1      51.439  24.999  10.637  1.00  0.00    -0.271 OA
HETATM   22  N2  UNL     1      53.797  24.830  11.269  1.00  0.00    -0.278 N 
HETATM   23  C6  UNL     1      53.614  26.009  10.500  1.00  0.00     0.323 C 
ATOM     24  H2  UNL     1      54.616  24.441  11.736  1.00  0.00     0.173 HD
HETATM   25  O4  UNL     1      52.731  26.589  10.035  1.00  0.00    -0.247 OA
HETATM   26  N3  UNL     1      54.935  26.703  10.254  1.00  0.00    -0.337 N 
ATOM     27  H3  UNL     1      55.818  26.269  10.520  1.00  0.00     0.164 HD
BRANCH  26  28
HETATM   28  C7  UNL     1      54.897  28.005   9.625  1.00  0.00     0.102 C 
HETATM   29  C8  UNL     1      55.604  29.052  10.482  1.00  0.00    -0.022 C 
HETATM   30  C9  UNL     1      54.758  29.795  11.425  1.00  0.00     0.017 C 
HETATM   31  C10 UNL     1      56.882  28.481  10.996  1.00  0.00     0.011 C 
HETATM   32  C13 UNL     1      56.161  29.987   9.372  1.00  0.00     0.016 C 
HETATM   33  C11 UNL     1      57.706  28.304   9.707  1.00  0.00     0.006 C 
HETATM   34  C12 UNL     1      56.834  28.860   8.607  1.00  0.00    -0.004 C 
HETATM   35  C14 UNL     1      55.650  27.979   8.349  1.00  0.00    -0.023 C 
HETATM   36  C15 UNL     1      56.050  26.608   7.847  1.00  0.00     0.017 C 
HETATM   37  C16 UNL     1      54.841  28.605   7.220  1.00  0.00     0.017 C 
ENDBRANCH  26  28
ENDBRANCH   1  20
BRANCH   1  38
HETATM   38  C17 UNL     1      50.844  22.172  11.085  1.00  0.00     0.010 C 
HETATM   39  C18 UNL     1      51.188  20.658  11.120  1.00  0.00     0.012 C 
HETATM   40  C19 UNL     1      49.584  22.259  11.949  1.00  0.00     0.012 C 
ENDBRANCH   1  38
TORSDOF 7
ENDMDL
MODEL 3
REMARK VINA RESULT: -8.544465287      3.274      4.532
REMARK  7 active torsions:
REMARK  status: ('A' for Active; 'I' for Inactive)
REMARK    1  A    between atoms: C3_3  and  S1_4 
REMARK    2  A    between atoms: S1_4  and  N1_7 
REMARK    3  A    between atoms: N1_7  and  C4_9 
REMARK    4  A    between atoms: C4_9  and  C5_10 
REMARK    5  A    between atoms: C4_9  and  C17_28 
REMARK       I    between atoms: C5_10  and  N2_12 
REMARK       I    between atoms: N2_12  and  C6_14 
REMARK       I    between atoms: C6_14  and  N3_16 
REMARK    6  A    between atoms: N3_16  and  C7_18 
REMARK    7  A    between atoms: C22_33  and  N4_34 
REMARK       I    between atoms: N4_34  and  C23_36 
ROOT
HETATM    1  C4  UNL     1      51.297  22.625  11.353  1.00  0.00     0.188 C 
ENDROOT
BRANCH   1   2
HETATM    2  N1  UNL     1      51.476  22.483  12.721  1.00  0.00    -0.301 N 
ATOM      3  H1  UNL     1      50.584  22.492  13.217  1.00  0.00     0.173 HD
BRANCH   2   4
HETATM    4  S1  UNL     1      52.723  22.309  13.743  1.00  0.00     0.260 S 
HETATM    5  O1  UNL     1      52.190  21.642  15.045  1.00  0.00    -0.200 OA
HETATM    6  O2  UNL     1      53.212  23.656  14.329  1.00  0.00    -0.200 OA
BRANCH   4   7
HETATM    7  C3  UNL     1      54.125  21.356  13.305  1.00  0.00     0.087 A 
HETATM    8  C2  UNL     1      54.147  20.075  12.857  1.00  0.00    -0.015 A 
HETATM    9  C1  UNL     1      52.855  19.351  12.569  1.00  0.00     0.052 C 
HETATM   10  C24 UNL     1      55.309  19.390  12.578  1.00  0.00     0.068 A 
HETATM   11  C22 UNL     1      56.556  20.015  12.777  1.00  0.00     0.058 A 
HETATM   12 CL1  UNL     1      55.211  17.748  12.013  1.00  0.00    -0.081 Cl
HETATM   13  C21 UNL     1      56.594  21.291  13.236  1.00  0.00     0.033 A 
HETATM   14  C20 UNL     1      55.352  21.949  13.493  1.00  0.00     0.028 A 
BRANCH  11  15
HETATM   15  N4  UNL     1      57.721  19.235  12.475  1.00  0.00    -0.310 N 
HETATM   16  C23 UNL     1      58.520  18.550  13.398  1.00  0.00     0.333 C 
HETATM   17  N5  UNL     1      59.678  17.840  12.983  1.00  0.00    -0.040 NA
HETATM   18  O5  UNL     1      58.294  18.494  14.662  1.00  0.00    -0.251 OA
ATOM     19  H4  UNL     1      57.994  19.173  11.494  1.00  0.00     0.170 HD
ENDBRANCH  11  15
ENDBRANCH   4   7
ENDBRANCH   2   4
ENDBRANCH   1   2
BRANCH   1  20
HETATM   20  C5  UNL     1      51.633  24.003  10.941  1.00  0.00     0.249 C 
HETATM   21  O3  UNL     1      50.983  24.794  10.404  1.00  0.00    -0.271 OA
HETATM   22  N2  UNL     1      53.229  24.465  11.314  1.00  0.00    -0.278 N 
HETATM   23  C6  UNL     1      53.189  25.713  10.638  1.00  0.00     0.323 C 
ATOM     24  H2  UNL     1      53.967  24.001  11.845  1.00  0.00     0.173 HD
HETATM   25  O4  UNL     1      52.395  26.369  10.117  1.00  0.00    -0.247 OA
HETATM   26  N3  UNL     1      54.554  26.364  10.626  1.00  0.00    -0.337 N 
ATOM     27  H3  UNL     1      55.379  25.870  10.963  1.00  0.00     0.164 HD
BRANCH  26  28
HETATM   28  C7  UNL     1      54.643  27.716  10.118  1.00  0.00     0.102 C 
HETATM   29  C8  UNL     1      55.195  28.668  11.175  1.00  0.00    -0.022 C 
HETATM   30  C9  UNL     1      54.201  29.350  12.014  1.00  0.00     0.017 C 
HETATM   31  C10 UNL     1      56.354  28.022  11.858  1.00  0.00     0.011 C 
HETATM   32  C13 UNL     1      55.952  29.678  10.270  1.00  0.00     0.016 C 
HETATM   33  C11 UNL     1      57.394  27.933  10.726  1.00  0.00     0.006 C 
HETATM   34  C12 UNL     1      56.741  28.603   9.541  1.00  0.00    -0.004 C 
HETATM   35  C14 UNL     1      55.614  27.778   8.999  1.00  0.00    -0.023 C 
HETATM   36  C15 UNL     1      56.084  26.445   8.458  1.00  0.00     0.017 C 
HETATM   37  C16 UNL     1      55.028  28.517   7.804  1.00  0.00     0.017 C 
ENDBRANCH  26  28
ENDBRANCH   1  20
BRANCH   1  38
HETATM   38  C17 UNL     1      49.931  22.168  10.930  1.00  0.00     0.010 C 
HETATM   39  C18 UNL     1      49.907  20.615  10.919  1.00  0.00     0.012 C 
HETATM   40  C19 UNL     1      48.893  22.520  11.998  1.00  0.00     0.012 C 
ENDBRANCH   1  38
TORSDOF 7
ENDMDL
MODEL 4
REMARK VINA RESULT: -8.527621389      1.648      1.836
REMARK  7 active torsions:
REMARK  status: ('A' for Active; 'I' for Inactive)
REMARK    1  A    between atoms: C3_3  and  S1_4 
REMARK    2  A    between atoms: S1_4  and  N1_7 
REMARK    3  A    between atoms: N1_7  and  C4_9 
REMARK    4  A    between atoms: C4_9  and  C5_10 
REMARK    5  A    between atoms: C4_9  and  C17_28 
REMARK       I    between atoms: C5_10  and  N2_12 
REMARK       I    between atoms: N2_12  and  C6_14 
REMARK       I    between atoms: C6_14  and  N3_16 
REMARK    6  A    between atoms: N3_16  and  C7_18 
REMARK    7  A    between atoms: C22_33  and  N4_34 
REMARK       I    between atoms: N4_34  and  C23_36 
ROOT
HETATM    1  C4  UNL     1      51.457  22.586  11.428  1.00  0.00     0.188 C 
ENDROOT
BRANCH   1   2
HETATM    2  N1  UNL     1      51.616  22.478  12.802  1.00  0.00    -0.301 N 
ATOM      3  H1  UNL     1      50.789  22.806  13.300  1.00  0.00     0.173 HD
BRANCH   2   4
HETATM    4  S1  UNL     1      52.766  21.971  13.828  1.00  0.00     0.260 S 
HETATM    5  O1  UNL     1      53.790  21.119  13.021  1.00  0.00    -0.200 OA
HETATM    6  O2  UNL     1      52.257  20.891  14.813  1.00  0.00    -0.200 OA
BRANCH   4   7
HETATM    7  C3  UNL     1      53.752  23.112  14.718  1.00  0.00     0.087 A 
HETATM    8  C2  UNL     1      53.360  23.935  15.723  1.00  0.00    -0.015 A 
HETATM    9  C1  UNL     1      51.959  23.842  16.275  1.00  0.00     0.052 C 
HETATM   10  C24 UNL     1      54.203  24.835  16.337  1.00  0.00     0.068 A 
HETATM   11  C22 UNL     1      55.540  24.947  15.909  1.00  0.00     0.058 A 
HETATM   12 CL1  UNL     1      53.584  25.842  17.613  1.00  0.00    -0.081 Cl
HETATM   13  C21 UNL     1      55.983  24.159  14.898  1.00  0.00     0.033 A 
HETATM   14  C20 UNL     1      55.061  23.236  14.314  1.00  0.00     0.028 A 
BRANCH  11  15
HETATM   15  N4  UNL     1      56.353  25.914  16.588  1.00  0.00    -0.310 N 
HETATM   16  C23 UNL     1      56.477  27.269  16.259  1.00  0.00     0.333 C 
HETATM   17  N5  UNL     1      57.348  28.125  16.984  1.00  0.00    -0.040 NA
HETATM   18  O5  UNL     1      55.839  27.852  15.307  1.00  0.00    -0.251 OA
ATOM     19  H4  UNL     1      56.893  25.583  17.388  1.00  0.00     0.170 HD
ENDBRANCH  11  15
ENDBRANCH   4   7
ENDBRANCH   2   4
ENDBRANCH   1   2
BRANCH   1  20
HETATM   20  C5  UNL     1      51.754  23.967  10.994  1.00  0.00     0.249 C 
HETATM   21  O3  UNL     1      51.075  24.737  10.462  1.00  0.00    -0.271 OA
HETATM   22  N2  UNL     1      53.347  24.468  11.327  1.00  0.00    -0.278 N 
HETATM   23  C6  UNL     1      53.265  25.707  10.638  1.00  0.00     0.323 C 
ATOM     24  H2  UNL     1      54.106  24.027  11.847  1.00  0.00     0.173 HD
HETATM   25  O4  UNL     1      52.445  26.339  10.127  1.00  0.00    -0.247 OA
HETATM   26  N3  UNL     1      54.614  26.388  10.590  1.00  0.00    -0.337 N 
ATOM     27  H3  UNL     1      55.457  25.916  10.915  1.00  0.00     0.164 HD
BRANCH  26  28
HETATM   28  C7  UNL     1      54.662  27.735  10.065  1.00  0.00     0.102 C 
HETATM   29  C8  UNL     1      55.233  28.708  11.093  1.00  0.00    -0.022 C 
HETATM   30  C9  UNL     1      54.255  29.382  11.958  1.00  0.00     0.017 C 
HETATM   31  C10 UNL     1      56.425  28.090  11.743  1.00  0.00     0.011 C 
HETATM   32  C13 UNL     1      55.941  29.722  10.152  1.00  0.00     0.016 C 
HETATM   33  C11 UNL     1      57.428  28.007  10.577  1.00  0.00     0.006 C 
HETATM   34  C12 UNL     1      56.723  28.653   9.408  1.00  0.00    -0.004 C 
HETATM   35  C14 UNL     1      55.593  27.802   8.914  1.00  0.00    -0.023 C 
HETATM   36  C15 UNL     1      56.068  26.472   8.370  1.00  0.00     0.017 C 
HETATM   37  C16 UNL     1      54.954  28.518   7.731  1.00  0.00     0.017 C 
ENDBRANCH  26  28
ENDBRANCH   1  20
BRANCH   1  38
HETATM   38  C17 UNL     1      50.116  22.074  10.991  1.00  0.00     0.010 C 
HETATM   39  C18 UNL     1      50.141  20.521  11.025  1.00  0.00     0.012 C 
HETATM   40  C19 UNL     1      49.045  22.424  12.026  1.00  0.00     0.012 C 
ENDBRANCH   1  38
TORSDOF 7
ENDMDL
MODEL 5
REMARK VINA RESULT: -8.473404119      3.075      4.413
REMARK  7 active torsions:
REMARK  status: ('A' for Active; 'I' for Inactive)
REMARK    1  A    between atoms: C3_3  and  S1_4 
REMARK    2  A    between atoms: S1_4  and  N1_7 
REMARK    3  A    between atoms: N1_7  and  C4_9 
REMARK    4  A    between atoms: C4_9  and  C5_10 
REMARK    5  A    between atoms: C4_9  and  C17_28 
REMARK       I    between atoms: C5_10  and  N2_12 
REMARK       I    between atoms: N2_12  and  C6_14 
REMARK       I    between atoms: C6_14  and  N3_16 
REMARK    6  A    between atoms: N3_16  and  C7_18 
REMARK    7  A    between atoms: C22_33  and  N4_34 
REMARK       I    between atoms: N4_34  and  C23_36 
ROOT
HETATM    1  C4  UNL     1      51.578  22.652  11.469  1.00  0.00     0.188 C 
ENDROOT
BRANCH   1   2
HETATM    2  N1  UNL     1      51.688  22.582  12.851  1.00  0.00    -0.301 N 
ATOM      3  H1  UNL     1      51.094  23.274  13.309  1.00  0.00     0.173 HD
BRANCH   2   4
HETATM    4  S1  UNL     1      52.511  21.696  13.933  1.00  0.00     0.260 S 
HETATM    5  O1  UNL     1      51.680  20.414  14.235  1.00  0.00    -0.200 OA
HETATM    6  O2  UNL     1      52.522  22.331  15.344  1.00  0.00    -0.200 OA
BRANCH   4   7
HETATM    7  C3  UNL     1      54.119  21.103  13.580  1.00  0.00     0.087 A 
HETATM    8  C2  UNL     1      55.278  21.809  13.574  1.00  0.00    -0.015 A 
HETATM    9  C1  UNL     1      55.289  23.250  14.019  1.00  0.00     0.052 C 
HETATM   10  C24 UNL     1      56.497  21.261  13.239  1.00  0.00     0.068 A 
HETATM   11  C22 UNL     1      56.576  19.907  12.859  1.00  0.00     0.058 A 
HETATM   12 CL1  UNL     1      57.915  22.268  13.263  1.00  0.00    -0.081 Cl
HETATM   13  C21 UNL     1      55.447  19.157  12.833  1.00  0.00     0.033 A 
HETATM   14  C20 UNL     1      54.217  19.783  13.205  1.00  0.00     0.028 A 
BRANCH  11  15
HETATM   15  N4  UNL     1      57.878  19.412  12.513  1.00  0.00    -0.310 N 
HETATM   16  C23 UNL     1      58.734  18.683  13.347  1.00  0.00     0.333 C 
HETATM   17  N5  UNL     1      60.022  18.279  12.906  1.00  0.00    -0.040 NA
HETATM   18  O5  UNL     1      58.452  18.318  14.547  1.00  0.00    -0.251 OA
ATOM     19  H4  UNL     1      58.211  19.609  11.570  1.00  0.00     0.170 HD
ENDBRANCH  11  15
ENDBRANCH   4   7
ENDBRANCH   2   4
ENDBRANCH   1   2
BRANCH   1  20
HETATM   20  C5  UNL     1      51.854  24.029  11.012  1.00  0.00     0.249 C 
HETATM   21  O3  UNL     1      51.159  24.787  10.483  1.00  0.00    -0.271 OA
HETATM   22  N2  UNL     1      53.450  24.547  11.308  1.00  0.00    -0.278 N 
HETATM   23  C6  UNL     1      53.345  25.776  10.604  1.00  0.00     0.323 C 
ATOM     24  H2  UNL     1      54.222  24.119  11.819  1.00  0.00     0.173 HD
HETATM   25  O4  UNL     1      52.510  26.395  10.100  1.00  0.00    -0.247 OA
HETATM   26  N3  UNL     1      54.687  26.467  10.520  1.00  0.00    -0.337 N 
ATOM     27  H3  UNL     1      55.540  26.006  10.835  1.00  0.00     0.164 HD
BRANCH  26  28
HETATM   28  C7  UNL     1      54.714  27.807   9.976  1.00  0.00     0.102 C 
HETATM   29  C8  UNL     1      55.297  28.798  10.980  1.00  0.00    -0.022 C 
HETATM   30  C9  UNL     1      54.331  29.476  11.855  1.00  0.00     0.017 C 
HETATM   31  C10 UNL     1      56.506  28.198  11.614  1.00  0.00     0.011 C 
HETATM   32  C13 UNL     1      55.978  29.804  10.012  1.00  0.00     0.016 C 
HETATM   33  C11 UNL     1      57.487  28.107  10.430  1.00  0.00     0.006 C 
HETATM   34  C12 UNL     1      56.754  28.731   9.267  1.00  0.00    -0.004 C 
HETATM   35  C14 UNL     1      55.622  27.866   8.806  1.00  0.00    -0.023 C 
HETATM   36  C15 UNL     1      56.096  26.531   8.272  1.00  0.00     0.017 C 
HETATM   37  C16 UNL     1      54.954  28.561   7.627  1.00  0.00     0.017 C 
ENDBRANCH  26  28
ENDBRANCH   1  20
BRANCH   1  38
HETATM   38  C17 UNL     1      50.267  22.095  10.998  1.00  0.00     0.010 C 
HETATM   39  C18 UNL     1      50.358  20.544  10.995  1.00  0.00     0.012 C 
HETATM   40  C19 UNL     1      49.165  22.373  12.022  1.00  0.00     0.012 C 
ENDBRANCH   1  38
TORSDOF 7
ENDMDL
