MODEL 1
REMARK VINA RESULT: -8.256641855      0.000      0.000
REMARK  9 active torsions:
REMARK  status: ('A' for Active; 'I' for Inactive)
REMARK    1  A    between atoms: C2_3  and  N2_4 
REMARK       I    between atoms: N2_4  and  C3_6 
REMARK       I    between atoms: C3_6  and  N3_8 
REMARK    2  A    between atoms: N3_8  and  C4_10 
REMARK    3  A    between atoms: C9_16  and  C10_17 
REMARK       I    between atoms: C10_17  and  N4_19 
REMARK    4  A    between atoms: N4_19  and  C11_21 
REMARK    5  A    between atoms: C11_21  and  C12_22 
REMARK    6  A    between atoms: C12_22  and  O3_23 
REMARK    7  A    between atoms: C12_22  and  N5_25 
REMARK    8  A    between atoms: N5_25  and  C13_27 
REMARK    9  A    between atoms: C13_27  and  C14_28 
ROOT
HETATM    1  N1  UNL     1      51.296  24.796  10.181  1.00  0.00    -0.195 NA
HETATM    2  C1  UNL     1      50.970  23.889  10.825  1.00  0.00     0.091 C 
HETATM    3  C2  UNL     1      50.552  22.695  11.635  1.00  0.00     0.126 C 
HETATM    4  C22 UNL     1      51.415  21.518  11.244  1.00  0.00     0.074 C 
HETATM    5  C23 UNL     1      50.575  20.358  10.731  1.00  0.00     0.235 C 
HETATM    6  N6  UNL     1      49.550  20.070  11.711  1.00  0.00    -0.075 N 
ATOM      7  H61 UNL     1      49.963  19.821  12.611  1.00  0.00     0.277 HD
ATOM      8  H62 UNL     1      49.077  19.192  11.498  1.00  0.00     0.277 HD
HETATM    9  C24 UNL     1      48.609  21.138  11.857  1.00  0.00     0.235 C 
HETATM   10  C25 UNL     1      49.102  22.443  11.304  1.00  0.00     0.074 C 
ENDROOT
BRANCH   3  11
HETATM   11  N2  UNL     1      50.678  23.103  13.000  1.00  0.00    -0.321 N 
HETATM   12  C3  UNL     1      51.861  22.845  13.807  1.00  0.00     0.322 C 
HETATM   13  O1  UNL     1      52.783  22.215  13.301  1.00  0.00    -0.247 OA
HETATM   14  N3  UNL     1      51.851  23.337  15.111  1.00  0.00    -0.308 N 
ATOM     15  H3  UNL     1      51.053  23.895  15.412  1.00  0.00     0.170 HD
ATOM     16  H2  UNL     1      49.898  23.601  13.430  1.00  0.00     0.166 HD
BRANCH  14  17
HETATM   17  C4  UNL     1      52.888  23.101  16.034  1.00  0.00     0.052 A 
HETATM   18  C5  UNL     1      52.828  21.991  16.898  1.00  0.00     0.032 A 
HETATM   19  C6  UNL     1      53.746  21.828  17.898  1.00  0.00     0.021 A 
HETATM   20  C7  UNL     1      54.746  22.713  18.105  1.00  0.00     0.012 A 
HETATM   21 BR1  UNL     1      56.039  22.465  19.524  1.00  0.00    -0.051 Br
HETATM   22  C8  UNL     1      54.858  23.834  17.280  1.00  0.00     0.038 A 
HETATM   23  C9  UNL     1      53.903  23.992  16.241  1.00  0.00     0.060 A 
BRANCH  23  24
HETATM   24  C10 UNL     1      54.167  25.063  15.261  1.00  0.00     0.255 C 
HETATM   25  O2  UNL     1      53.967  26.253  15.636  1.00  0.00    -0.268 OA
HETATM   26  N4  UNL     1      54.610  24.812  13.945  1.00  0.00    -0.340 N 
ATOM     27  H4  UNL     1      54.805  23.846  13.687  1.00  0.00     0.164 HD
BRANCH  26  28
HETATM   28  C11 UNL     1      54.809  25.841  12.929  1.00  0.00     0.098 A 
HETATM   29  C20 UNL     1      55.822  25.432  11.871  1.00  0.00     0.042 A 
HETATM   30  C21 UNL     1      56.116  26.519  12.820  1.00  0.00     0.042 A 
BRANCH  28  31
HETATM   31  C12 UNL     1      53.592  26.519  12.427  1.00  0.00     0.140 C 
BRANCH  31  32
HETATM   32  O3  UNL     1      52.471  25.924  12.815  1.00  0.00    -0.348 OA
ATOM     33  H3  UNL     1      51.810  25.899  12.133  1.00  0.00     0.219 HD
ENDBRANCH  31  32
BRANCH  31  34
HETATM   34  N5  UNL     1      53.476  27.654  11.649  1.00  0.00    -0.372 N 
ATOM     35  H5  UNL     1      53.461  28.564  12.108  1.00  0.00     0.161 HD
BRANCH  34  36
HETATM   36  C13 UNL     1      53.374  27.601  10.208  1.00  0.00     0.126 C 
BRANCH  36  37
HETATM   37  C14 UNL     1      54.536  28.075   9.433  1.00  0.00     0.003 C 
HETATM   38  C15 UNL     1      55.304  27.079   8.655  1.00  0.00     0.006 C 
HETATM   39  C16 UNL     1      56.668  27.660   8.288  1.00  0.00     0.000 C 
HETATM   40  C17 UNL     1      56.576  29.163   8.003  1.00  0.00     0.000 C 
HETATM   41  C18 UNL     1      56.179  29.913   9.265  1.00  0.00     0.000 C 
HETATM   42  C19 UNL     1      55.470  28.973  10.221  1.00  0.00     0.006 C 
ENDBRANCH  36  37
ENDBRANCH  34  36
ENDBRANCH  31  34
ENDBRANCH  28  31
ENDBRANCH  26  28
ENDBRANCH  23  24
ENDBRANCH  14  17
ENDBRANCH   3  11
TORSDOF 9
ENDMDL
MODEL 2
REMARK VINA RESULT: -8.088375943      1.443      1.953
REMARK  9 active torsions:
REMARK  status: ('A' for Active; 'I' for Inactive)
REMARK    1  A    between atoms: C2_3  and  N2_4 
REMARK       I    between atoms: N2_4  and  C3_6 
REMARK       I    between atoms: C3_6  and  N3_8 
REMARK    2  A    between atoms: N3_8  and  C4_10 
REMARK    3  A    between atoms: C9_16  and  C10_17 
REMARK       I    between atoms: C10_17  and  N4_19 
REMARK    4  A    between atoms: N4_19  and  C11_21 
REMARK    5  A    between atoms: C11_21  and  C12_22 
REMARK    6  A    between atoms: C12_22  and  O3_23 
REMARK    7  A    between atoms: C12_22  and  N5_25 
REMARK    8  A    between atoms: N5_25  and  C13_27 
REMARK    9  A    between atoms: C13_27  and  C14_28 
ROOT
HETATM    1  N1  UNL     1      51.373  24.794  10.251  1.00  0.00    -0.195 NA
HETATM    2  C1  UNL     1      51.020  23.887  10.880  1.00  0.00     0.091 C 
HETATM    3  C2  UNL     1      50.567  22.692  11.670  1.00  0.00     0.126 C 
HETATM    4  C22 UNL     1      51.403  21.499  11.267  1.00  0.00     0.074 C 
HETATM    5  C23 UNL     1      50.538  20.368  10.732  1.00  0.00     0.235 C 
HETATM    6  N6  UNL     1      49.499  20.092  11.702  1.00  0.00    -0.075 N 
ATOM      7  H61 UNL     1      49.901  19.820  12.600  1.00  0.00     0.277 HD
ATOM      8  H62 UNL     1      49.006  19.229  11.474  1.00  0.00     0.277 HD
HETATM    9  C24 UNL     1      48.584  21.181  11.858  1.00  0.00     0.235 C 
HETATM   10  C25 UNL     1      49.114  22.481  11.327  1.00  0.00     0.074 C 
ENDROOT
BRANCH   3  11
HETATM   11  N2  UNL     1      50.694  23.077  13.041  1.00  0.00    -0.321 N 
HETATM   12  C3  UNL     1      51.884  22.821  13.838  1.00  0.00     0.322 C 
HETATM   13  O1  UNL     1      52.813  22.213  13.316  1.00  0.00    -0.247 OA
HETATM   14  N3  UNL     1      51.875  23.289  15.151  1.00  0.00    -0.308 N 
ATOM     15  H3  UNL     1      51.070  23.831  15.466  1.00  0.00     0.170 HD
ATOM     16  H2  UNL     1      49.910  23.556  13.484  1.00  0.00     0.166 HD
BRANCH  14  17
HETATM   17  C4  UNL     1      52.920  23.052  16.064  1.00  0.00     0.052 A 
HETATM   18  C5  UNL     1      52.850  21.959  16.950  1.00  0.00     0.032 A 
HETATM   19  C6  UNL     1      53.778  21.797  17.941  1.00  0.00     0.021 A 
HETATM   20  C7  UNL     1      54.797  22.667  18.118  1.00  0.00     0.012 A 
HETATM   21 BR1  UNL     1      56.105  22.421  19.524  1.00  0.00    -0.051 Br
HETATM   22  C8  UNL     1      54.919  23.770  17.270  1.00  0.00     0.038 A 
HETATM   23  C9  UNL     1      53.954  23.927  16.241  1.00  0.00     0.060 A 
BRANCH  23  24
HETATM   24  C10 UNL     1      54.224  24.974  15.237  1.00  0.00     0.255 C 
HETATM   25  O2  UNL     1      54.068  26.175  15.598  1.00  0.00    -0.268 OA
HETATM   26  N4  UNL     1      54.627  24.690  13.916  1.00  0.00    -0.340 N 
ATOM     27  H4  UNL     1      54.787  23.714  13.669  1.00  0.00     0.164 HD
BRANCH  26  28
HETATM   28  C11 UNL     1      54.830  25.696  12.878  1.00  0.00     0.098 A 
HETATM   29  C20 UNL     1      55.716  25.200  11.745  1.00  0.00     0.042 A 
HETATM   30  C21 UNL     1      56.178  26.258  12.658  1.00  0.00     0.042 A 
BRANCH  28  31
HETATM   31  C12 UNL     1      53.640  26.476  12.470  1.00  0.00     0.140 C 
BRANCH  31  32
HETATM   32  O3  UNL     1      52.499  25.921  12.860  1.00  0.00    -0.348 OA
ATOM     33  H3  UNL     1      51.826  25.948  12.190  1.00  0.00     0.219 HD
ENDBRANCH  31  32
BRANCH  31  34
HETATM   34  N5  UNL     1      53.565  27.667  11.775  1.00  0.00    -0.372 N 
ATOM     35  H5  UNL     1      53.610  27.644  10.757  1.00  0.00     0.161 HD
BRANCH  34  36
HETATM   36  C13 UNL     1      53.425  28.945  12.436  1.00  0.00     0.126 C 
BRANCH  36  37
HETATM   37  C14 UNL     1      54.659  29.716  12.678  1.00  0.00     0.003 C 
HETATM   38  C15 UNL     1      55.732  29.642  11.664  1.00  0.00     0.006 C 
HETATM   39  C16 UNL     1      57.044  30.134  12.273  1.00  0.00     0.000 C 
HETATM   40  C17 UNL     1      56.804  31.280  13.262  1.00  0.00     0.000 C 
HETATM   41  C18 UNL     1      56.003  30.785  14.455  1.00  0.00     0.000 C 
HETATM   42  C19 UNL     1      55.227  29.538  14.072  1.00  0.00     0.006 C 
ENDBRANCH  36  37
ENDBRANCH  34  36
ENDBRANCH  31  34
ENDBRANCH  28  31
ENDBRANCH  26  28
ENDBRANCH  23  24
ENDBRANCH  14  17
ENDBRANCH   3  11
TORSDOF 9
ENDMDL
MODEL 3
REMARK VINA RESULT: -7.914860870      3.645      5.750
REMARK  9 active torsions:
REMARK  status: ('A' for Active; 'I' for Inactive)
REMARK    1  A    between atoms: C2_3  and  N2_4 
REMARK       I    between atoms: N2_4  and  C3_6 
REMARK       I    between atoms: C3_6  and  N3_8 
REMARK    2  A    between atoms: N3_8  and  C4_10 
REMARK    3  A    between atoms: C9_16  and  C10_17 
REMARK       I    between atoms: C10_17  and  N4_19 
REMARK    4  A    between atoms: N4_19  and  C11_21 
REMARK    5  A    between atoms: C11_21  and  C12_22 
REMARK    6  A    between atoms: C12_22  and  O3_23 
REMARK    7  A    between atoms: C12_22  and  N5_25 
REMARK    8  A    between atoms: N5_25  and  C13_27 
REMARK    9  A    between atoms: C13_27  and  C14_28 
ROOT
HETATM    1  N1  UNL     1      56.331  22.381  13.074  1.00  0.00    -0.195 NA
HETATM    2  C1  UNL     1      55.903  21.305  13.010  1.00  0.00     0.091 C 
HETATM    3  C2  UNL     1      55.362  19.905  12.955  1.00  0.00     0.126 C 
HETATM    4  C22 UNL     1      54.969  19.482  14.351  1.00  0.00     0.074 C 
HETATM    5  C23 UNL     1      55.719  18.233  14.787  1.00  0.00     0.235 C 
HETATM    6  N6  UNL     1      55.547  17.220  13.766  1.00  0.00    -0.075 N 
ATOM      7  H61 UNL     1      54.559  16.998  13.634  1.00  0.00     0.277 HD
ATOM      8  H62 UNL     1      55.878  16.312  14.092  1.00  0.00     0.277 HD
HETATM    9  C24 UNL     1      56.163  17.576  12.525  1.00  0.00     0.235 C 
HETATM   10  C25 UNL     1      56.474  19.040  12.415  1.00  0.00     0.074 C 
ENDROOT
BRANCH   3  11
HETATM   11  N2  UNL     1      54.283  19.955  12.018  1.00  0.00    -0.321 N 
HETATM   12  C3  UNL     1      52.892  20.129  12.407  1.00  0.00     0.322 C 
HETATM   13  O1  UNL     1      52.628  20.203  13.602  1.00  0.00    -0.247 OA
HETATM   14  N3  UNL     1      51.955  20.196  11.377  1.00  0.00    -0.308 N 
ATOM     15  H3  UNL     1      52.291  20.179  10.415  1.00  0.00     0.170 HD
ATOM     16  H2  UNL     1      54.500  19.864  11.026  1.00  0.00     0.166 HD
BRANCH  14  17
HETATM   17  C4  UNL     1      50.568  20.286  11.599  1.00  0.00     0.052 A 
HETATM   18  C5  UNL     1      49.743  19.163  11.392  1.00  0.00     0.032 A 
HETATM   19  C6  UNL     1      48.381  19.268  11.457  1.00  0.00     0.021 A 
HETATM   20  C7  UNL     1      47.765  20.441  11.720  1.00  0.00     0.012 A 
HETATM   21 BR1  UNL     1      45.836  20.572  11.813  1.00  0.00    -0.051 Br
HETATM   22  C8  UNL     1      48.529  21.591  11.935  1.00  0.00     0.038 A 
HETATM   23  C9  UNL     1      49.942  21.470  11.870  1.00  0.00     0.060 A 
BRANCH  23  24
HETATM   24  C10 UNL     1      50.725  22.643  12.306  1.00  0.00     0.255 C 
HETATM   25  O2  UNL     1      50.821  23.607  11.494  1.00  0.00    -0.268 OA
HETATM   26  N4  UNL     1      51.366  22.720  13.559  1.00  0.00    -0.340 N 
ATOM     27  H4  UNL     1      51.233  21.946  14.209  1.00  0.00     0.164 HD
BRANCH  26  28
HETATM   28  C11 UNL     1      52.207  23.832  13.991  1.00  0.00     0.098 A 
HETATM   29  C20 UNL     1      53.153  23.449  15.119  1.00  0.00     0.042 A 
HETATM   30  C21 UNL     1      52.044  24.389  15.349  1.00  0.00     0.042 A 
BRANCH  28  31
HETATM   31  C12 UNL     1      52.789  24.676  12.923  1.00  0.00     0.140 C 
BRANCH  31  32
HETATM   32  O3  UNL     1      52.180  25.850  12.802  1.00  0.00    -0.348 OA
ATOM     33  H3  UNL     1      52.780  26.561  12.609  1.00  0.00     0.219 HD
ENDBRANCH  31  32
BRANCH  31  34
HETATM   34  N5  UNL     1      53.850  24.419  12.078  1.00  0.00    -0.372 N 
ATOM     35  H5  UNL     1      53.838  23.562  11.523  1.00  0.00     0.161 HD
BRANCH  34  36
HETATM   36  C13 UNL     1      54.976  25.315  11.948  1.00  0.00     0.126 C 
BRANCH  36  37
HETATM   37  C14 UNL     1      55.251  25.861  10.606  1.00  0.00     0.003 C 
HETATM   38  C15 UNL     1      56.525  25.486   9.953  1.00  0.00     0.006 C 
HETATM   39  C16 UNL     1      56.816  26.455   8.809  1.00  0.00     0.000 C 
HETATM   40  C17 UNL     1      55.526  26.890   8.105  1.00  0.00     0.000 C 
HETATM   41  C18 UNL     1      54.652  27.691   9.057  1.00  0.00     0.000 C 
HETATM   42  C19 UNL     1      55.012  27.353  10.492  1.00  0.00     0.006 C 
ENDBRANCH  36  37
ENDBRANCH  34  36
ENDBRANCH  31  34
ENDBRANCH  28  31
ENDBRANCH  26  28
ENDBRANCH  23  24
ENDBRANCH  14  17
ENDBRANCH   3  11
TORSDOF 9
ENDMDL
MODEL 4
REMARK VINA RESULT: -7.833259487      4.444      7.022
REMARK  9 active torsions:
REMARK  status: ('A' for Active; 'I' for Inactive)
REMARK    1  A    between atoms: C2_3  and  N2_4 
REMARK       I    between atoms: N2_4  and  C3_6 
REMARK       I    between atoms: C3_6  and  N3_8 
REMARK    2  A    between atoms: N3_8  and  C4_10 
REMARK    3  A    between atoms: C9_16  and  C10_17 
REMARK       I    between atoms: C10_17  and  N4_19 
REMARK    4  A    between atoms: N4_19  and  C11_21 
REMARK    5  A    between atoms: C11_21  and  C12_22 
REMARK    6  A    between atoms: C12_22  and  O3_23 
REMARK    7  A    between atoms: C12_22  and  N5_25 
REMARK    8  A    between atoms: N5_25  and  C13_27 
REMARK    9  A    between atoms: C13_27  and  C14_28 
ROOT
HETATM    1  N1  UNL     1      50.745  23.241  10.907  1.00  0.00    -0.195 NA
HETATM    2  C1  UNL     1      51.496  23.697  11.663  1.00  0.00     0.091 C 
HETATM    3  C2  UNL     1      52.481  24.259  12.648  1.00  0.00     0.126 C 
HETATM    4  C22 UNL     1      53.772  23.481  12.541  1.00  0.00     0.074 C 
HETATM    5  C23 UNL     1      54.149  22.841  13.869  1.00  0.00     0.235 C 
HETATM    6  N6  UNL     1      54.133  23.869  14.889  1.00  0.00    -0.075 N 
ATOM      7  H61 UNL     1      54.794  24.614  14.668  1.00  0.00     0.277 HD
ATOM      8  H62 UNL     1      54.550  23.529  15.756  1.00  0.00     0.277 HD
HETATM    9  C24 UNL     1      52.824  24.397  15.121  1.00  0.00     0.235 C 
HETATM   10  C25 UNL     1      51.858  24.096  14.012  1.00  0.00     0.074 C 
ENDROOT
BRANCH   3  11
HETATM   11  N2  UNL     1      52.589  25.647  12.322  1.00  0.00    -0.321 N 
HETATM   12  C3  UNL     1      53.542  26.171  11.357  1.00  0.00     0.322 C 
HETATM   13  O1  UNL     1      54.316  25.385  10.819  1.00  0.00    -0.247 OA
HETATM   14  N3  UNL     1      53.504  27.544  11.116  1.00  0.00    -0.308 N 
ATOM     15  H3  UNL     1      52.782  28.096  11.579  1.00  0.00     0.170 HD
ATOM     16  H2  UNL     1      51.966  26.304  12.792  1.00  0.00     0.166 HD
BRANCH  14  17
HETATM   17  C4  UNL     1      54.411  28.206  10.268  1.00  0.00     0.052 A 
HETATM   18  C5  UNL     1      54.384  27.968   8.879  1.00  0.00     0.032 A 
HETATM   19  C6  UNL     1      55.349  28.484   8.059  1.00  0.00     0.021 A 
HETATM   20  C7  UNL     1      56.364  29.239   8.533  1.00  0.00     0.012 A 
HETATM   21 BR1  UNL     1      57.719  29.965   7.357  1.00  0.00    -0.051 Br
HETATM   22  C8  UNL     1      56.445  29.510   9.901  1.00  0.00     0.038 A 
HETATM   23  C9  UNL     1      55.436  28.974  10.744  1.00  0.00     0.060 A 
BRANCH  23  24
HETATM   24  C10 UNL     1      55.426  29.446  12.142  1.00  0.00     0.255 C 
HETATM   25  O2  UNL     1      54.401  30.071  12.534  1.00  0.00    -0.268 OA
HETATM   26  N4  UNL     1      56.500  29.241  13.033  1.00  0.00    -0.340 N 
ATOM     27  H4  UNL     1      57.294  28.694  12.701  1.00  0.00     0.164 HD
BRANCH  26  28
HETATM   28  C11 UNL     1      56.554  29.757  14.397  1.00  0.00     0.098 A 
HETATM   29  C20 UNL     1      57.455  28.930  15.302  1.00  0.00     0.042 A 
HETATM   30  C21 UNL     1      55.997  28.956  15.505  1.00  0.00     0.042 A 
BRANCH  28  31
HETATM   31  C12 UNL     1      56.667  31.226  14.545  1.00  0.00     0.140 C 
BRANCH  31  32
HETATM   32  O3  UNL     1      55.528  31.797  14.917  1.00  0.00    -0.348 OA
ATOM     33  H3  UNL     1      55.648  32.675  15.258  1.00  0.00     0.219 HD
ENDBRANCH  31  32
BRANCH  31  34
HETATM   34  N5  UNL     1      57.763  32.046  14.366  1.00  0.00    -0.372 N 
ATOM     35  H5  UNL     1      58.160  32.518  15.179  1.00  0.00     0.161 HD
BRANCH  34  36
HETATM   36  C13 UNL     1      58.370  32.262  13.072  1.00  0.00     0.126 C 
BRANCH  36  37
HETATM   37  C14 UNL     1      58.498  33.658  12.613  1.00  0.00     0.003 C 
HETATM   38  C15 UNL     1      57.431  34.611  12.987  1.00  0.00     0.006 C 
HETATM   39  C16 UNL     1      57.512  35.846  12.091  1.00  0.00     0.000 C 
HETATM   40  C17 UNL     1      58.966  36.194  11.753  1.00  0.00     0.000 C 
HETATM   41  C18 UNL     1      59.591  35.086  10.919  1.00  0.00     0.000 C 
HETATM   42  C19 UNL     1      58.838  33.788  11.142  1.00  0.00     0.006 C 
ENDBRANCH  36  37
ENDBRANCH  34  36
ENDBRANCH  31  34
ENDBRANCH  28  31
ENDBRANCH  26  28
ENDBRANCH  23  24
ENDBRANCH  14  17
ENDBRANCH   3  11
TORSDOF 9
ENDMDL
MODEL 5
REMARK VINA RESULT: -7.710434453      3.784      6.024
REMARK  9 active torsions:
REMARK  status: ('A' for Active; 'I' for Inactive)
REMARK    1  A    between atoms: C2_3  and  N2_4 
REMARK       I    between atoms: N2_4  and  C3_6 
REMARK       I    between atoms: C3_6  and  N3_8 
REMARK    2  A    between atoms: N3_8  and  C4_10 
REMARK    3  A    between atoms: C9_16  and  C10_17 
REMARK       I    between atoms: C10_17  and  N4_19 
REMARK    4  A    between atoms: N4_19  and  C11_21 
REMARK    5  A    between atoms: C11_21  and  C12_22 
REMARK    6  A    between atoms: C12_22  and  O3_23 
REMARK    7  A    between atoms: C12_22  and  N5_25 
REMARK    8  A    between atoms: N5_25  and  C13_27 
REMARK    9  A    between atoms: C13_27  and  C14_28 
ROOT
HETATM    1  N1  UNL     1      56.342  22.301  12.860  1.00  0.00    -0.195 NA
HETATM    2  C1  UNL     1      55.882  21.237  12.852  1.00  0.00     0.091 C 
HETATM    3  C2  UNL     1      55.300  19.853  12.871  1.00  0.00     0.126 C 
HETATM    4  C22 UNL     1      54.916  19.507  14.291  1.00  0.00     0.074 C 
HETATM    5  C23 UNL     1      55.637  18.257  14.774  1.00  0.00     0.235 C 
HETATM    6  N6  UNL     1      55.420  17.204  13.805  1.00  0.00    -0.075 N 
ATOM      7  H61 UNL     1      54.425  17.005  13.697  1.00  0.00     0.277 HD
ATOM      8  H62 UNL     1      55.730  16.303  14.168  1.00  0.00     0.277 HD
HETATM    9  C24 UNL     1      56.027  17.483  12.540  1.00  0.00     0.235 C 
HETATM   10  C25 UNL     1      56.379  18.931  12.357  1.00  0.00     0.074 C 
ENDROOT
BRANCH   3  11
HETATM   11  N2  UNL     1      54.210  19.890  11.948  1.00  0.00    -0.321 N 
HETATM   12  C3  UNL     1      52.823  20.064  12.353  1.00  0.00     0.322 C 
HETATM   13  O1  UNL     1      52.574  20.148  13.550  1.00  0.00    -0.247 OA
HETATM   14  N3  UNL     1      51.872  20.118  11.334  1.00  0.00    -0.308 N 
ATOM     15  H3  UNL     1      52.196  20.093  10.367  1.00  0.00     0.170 HD
ATOM     16  H2  UNL     1      54.414  19.790  10.953  1.00  0.00     0.166 HD
BRANCH  14  17
HETATM   17  C4  UNL     1      50.488  20.207  11.573  1.00  0.00     0.052 A 
HETATM   18  C5  UNL     1      49.671  19.068  11.428  1.00  0.00     0.032 A 
HETATM   19  C6  UNL     1      48.309  19.165  11.509  1.00  0.00     0.021 A 
HETATM   20  C7  UNL     1      47.686  20.343  11.730  1.00  0.00     0.012 A 
HETATM   21 BR1  UNL     1      45.758  20.463  11.846  1.00  0.00    -0.051 Br
HETATM   22  C8  UNL     1      48.443  21.508  11.882  1.00  0.00     0.038 A 
HETATM   23  C9  UNL     1      49.856  21.396  11.801  1.00  0.00     0.060 A 
BRANCH  23  24
HETATM   24  C10 UNL     1      50.635  22.594  12.173  1.00  0.00     0.255 C 
HETATM   25  O2  UNL     1      50.629  23.561  11.360  1.00  0.00    -0.268 OA
HETATM   26  N4  UNL     1      51.378  22.691  13.367  1.00  0.00    -0.340 N 
ATOM     27  H4  UNL     1      51.326  21.911  14.023  1.00  0.00     0.164 HD
BRANCH  26  28
HETATM   28  C11 UNL     1      52.217  23.828  13.730  1.00  0.00     0.098 A 
HETATM   29  C20 UNL     1      53.127  23.534  14.913  1.00  0.00     0.042 A 
HETATM   30  C21 UNL     1      52.020  24.498  15.032  1.00  0.00     0.042 A 
BRANCH  28  31
HETATM   31  C12 UNL     1      52.836  24.578  12.613  1.00  0.00     0.140 C 
BRANCH  31  32
HETATM   32  O3  UNL     1      53.670  23.837  11.893  1.00  0.00    -0.348 OA
ATOM     33  H3  UNL     1      53.334  23.635  11.028  1.00  0.00     0.219 HD
ENDBRANCH  31  32
BRANCH  31  34
HETATM   34  N5  UNL     1      52.656  25.891  12.228  1.00  0.00    -0.372 N 
ATOM     35  H5  UNL     1      51.734  26.313  12.340  1.00  0.00     0.161 HD
BRANCH  34  36
HETATM   36  C13 UNL     1      53.724  26.692  11.672  1.00  0.00     0.126 C 
BRANCH  36  37
HETATM   37  C14 UNL     1      54.374  27.664  12.570  1.00  0.00     0.003 C 
HETATM   38  C15 UNL     1      54.819  27.190  13.899  1.00  0.00     0.006 C 
HETATM   39  C16 UNL     1      55.061  28.390  14.814  1.00  0.00     0.000 C 
HETATM   40  C17 UNL     1      55.630  29.580  14.034  1.00  0.00     0.000 C 
HETATM   41  C18 UNL     1      54.611  30.082  13.023  1.00  0.00     0.000 C 
HETATM   42  C19 UNL     1      53.625  28.976  12.694  1.00  0.00     0.006 C 
ENDBRANCH  36  37
ENDBRANCH  34  36
ENDBRANCH  31  34
ENDBRANCH  28  31
ENDBRANCH  26  28
ENDBRANCH  23  24
ENDBRANCH  14  17
ENDBRANCH   3  11
TORSDOF 9
ENDMDL
