MODEL 1
REMARK VINA RESULT: -9.569720435      0.000      0.000
REMARK  3 active torsions:
REMARK  status: ('A' for Active; 'I' for Inactive)
REMARK    1  A    between atoms: C1_2  and  C2_3 
REMARK       I    between atoms: C1_2  and  N3_27 
REMARK    2  A    between atoms: C2_3  and  C3_4 
REMARK    3  A    between atoms: N3_27  and  N4_29 
REMARK       I    between atoms: N4_29  and  C21_31 
REMARK       I    between atoms: C21_31  and  N5_33 
ROOT
HETATM    1  C3  UNL     1      -1.206  14.541  -6.857  1.00  0.00     0.066 C 
HETATM    2  C4  UNL     1       0.137  15.225  -6.759  1.00  0.00     0.013 C 
HETATM    3  C5  UNL     1       1.108  14.555  -5.837  1.00  0.00     0.001 C 
HETATM    4  C6  UNL     1       2.305  15.474  -5.622  1.00  0.00     0.000 C 
HETATM    5  C7  UNL     1       2.993  15.240  -4.308  1.00  0.00     0.000 C 
HETATM    6  C8  UNL     1       3.172  16.585  -3.622  1.00  0.00     0.000 C 
HETATM    7  C9  UNL     1       2.778  16.520  -2.153  1.00  0.00     0.002 C 
HETATM    8  C10 UNL     1       1.554  15.650  -1.961  1.00  0.00     0.020 C 
HETATM    9  C11 UNL     1       0.679  16.148  -0.842  1.00  0.00     0.127 C 
HETATM   10  N1  UNL     1      -0.695  15.764  -0.975  1.00  0.00    -0.365 N 
HETATM   11  C12 UNL     1      -1.623  16.807  -1.099  1.00  0.00     0.063 C 
HETATM   12  C13 UNL     1      -1.313  17.842  -2.168  1.00  0.00     0.044 C 
HETATM   13  C14 UNL     1      -2.499  18.109  -3.061  1.00  0.00     0.005 C 
HETATM   14  C15 UNL     1      -3.075  16.894  -3.695  1.00  0.00     0.003 C 
HETATM   15  C16 UNL     1      -2.059  16.022  -4.391  1.00  0.00     0.033 C 
HETATM   16  C17 UNL     1      -2.471  14.604  -4.551  1.00  0.00     0.154 C 
HETATM   17  N2  UNL     1      -2.593  13.834  -3.347  1.00  0.00    -0.345 N 
ATOM     18  H2  UNL     1      -3.001  12.907  -3.472  1.00  0.00     0.163 HD
HETATM   19  C18 UNL     1      -2.242  14.150  -2.027  1.00  0.00     0.257 C 
HETATM   20  O2  UNL     1      -3.208  14.145  -1.172  1.00  0.00    -0.267 OA
HETATM   21  C19 UNL     1      -0.940  14.483  -1.465  1.00  0.00     0.164 C 
HETATM   22  C20 UNL     1      -1.633  13.937  -5.579  1.00  0.00     0.154 C 
HETATM   23  O3  UNL     1      -1.266  12.795  -5.352  1.00  0.00    -0.295 OA
ENDROOT
BRANCH   1  24
HETATM   24  C2  UNL     1      -1.166  13.621  -8.029  1.00  0.00     0.117 C 
BRANCH  24  25
HETATM   25  C1  UNL     1      -2.505  13.536  -8.710  1.00  0.00     0.236 C 
HETATM   26  O1  UNL     1      -3.383  14.323  -8.332  1.00  0.00    -0.272 OA
HETATM   27  N3  UNL     1      -2.694  12.581  -9.735  1.00  0.00    -0.266 N 
ATOM     28  H3  UNL     1      -1.875  12.006  -9.931  1.00  0.00     0.190 HD
BRANCH  27  29
HETATM   29  N4  UNL     1      -3.777  12.294 -10.504  1.00  0.00    -0.249 N 
HETATM   30  C21 UNL     1      -5.078  11.881 -10.200  1.00  0.00     0.337 C 
HETATM   31  O4  UNL     1      -5.499  11.689  -9.042  1.00  0.00    -0.245 OA
HETATM   32  N5  UNL     1      -6.030  11.647 -11.244  1.00  0.00    -0.333 N 
HETATM   33  C22 UNL     1      -7.395  11.184 -11.021  1.00  0.00     0.127 C 
HETATM   34  C25 UNL     1      -5.825  11.834 -12.665  1.00  0.00     0.127 C 
HETATM   35  C23 UNL     1      -8.095  11.289 -12.336  1.00  0.00     0.022 C 
HETATM   36  C24 UNL     1      -7.224  12.254 -13.104  1.00  0.00     0.022 C 
ATOM     37  H4  UNL     1      -3.606  12.401 -11.504  1.00  0.00     0.192 HD
ENDBRANCH  27  29
ENDBRANCH  24  25
ENDBRANCH   1  24
TORSDOF 3
ENDMDL
MODEL 2
REMARK VINA RESULT: -9.480505678      1.519      1.645
REMARK  3 active torsions:
REMARK  status: ('A' for Active; 'I' for Inactive)
REMARK    1  A    between atoms: C1_2  and  C2_3 
REMARK       I    between atoms: C1_2  and  N3_27 
REMARK    2  A    between atoms: C2_3  and  C3_4 
REMARK    3  A    between atoms: N3_27  and  N4_29 
REMARK       I    between atoms: N4_29  and  C21_31 
REMARK       I    between atoms: C21_31  and  N5_33 
ROOT
HETATM    1  C3  UNL     1      -1.264  14.841  -6.810  1.00  0.00     0.066 C 
HETATM    2  C4  UNL     1       0.086  15.501  -6.657  1.00  0.00     0.013 C 
HETATM    3  C5  UNL     1       1.044  14.757  -5.779  1.00  0.00     0.001 C 
HETATM    4  C6  UNL     1       2.249  15.645  -5.494  1.00  0.00     0.000 C 
HETATM    5  C7  UNL     1       2.927  15.313  -4.196  1.00  0.00     0.000 C 
HETATM    6  C8  UNL     1       3.116  16.605  -3.417  1.00  0.00     0.000 C 
HETATM    7  C9  UNL     1       2.712  16.442  -1.958  1.00  0.00     0.002 C 
HETATM    8  C10 UNL     1       1.478  15.574  -1.834  1.00  0.00     0.020 C 
HETATM    9  C11 UNL     1       0.602  16.003  -0.687  1.00  0.00     0.127 C 
HETATM   10  N1  UNL     1      -0.776  15.644  -0.855  1.00  0.00    -0.365 N 
HETATM   11  C12 UNL     1      -1.691  16.704  -0.910  1.00  0.00     0.063 C 
HETATM   12  C13 UNL     1      -1.364  17.807  -1.902  1.00  0.00     0.044 C 
HETATM   13  C14 UNL     1      -2.541  18.149  -2.781  1.00  0.00     0.005 C 
HETATM   14  C15 UNL     1      -3.126  16.988  -3.501  1.00  0.00     0.003 C 
HETATM   15  C16 UNL     1      -2.115  16.155  -4.251  1.00  0.00     0.033 C 
HETATM   16  C17 UNL     1      -2.542  14.757  -4.512  1.00  0.00     0.154 C 
HETATM   17  N2  UNL     1      -2.680  13.906  -3.366  1.00  0.00    -0.345 N 
ATOM     18  H2  UNL     1      -3.097  12.995  -3.557  1.00  0.00     0.163 HD
HETATM   19  C18 UNL     1      -2.333  14.125  -2.025  1.00  0.00     0.257 C 
HETATM   20  O2  UNL     1      -3.304  14.072  -1.177  1.00  0.00    -0.267 OA
HETATM   21  C19 UNL     1      -1.031  14.403  -1.433  1.00  0.00     0.164 C 
HETATM   22  C20 UNL     1      -1.705  14.154  -5.580  1.00  0.00     0.154 C 
HETATM   23  O3  UNL     1      -1.352  12.994  -5.431  1.00  0.00    -0.295 OA
ENDROOT
BRANCH   1  24
HETATM   24  C2  UNL     1      -1.226  14.003  -8.043  1.00  0.00     0.117 C 
BRANCH  24  25
HETATM   25  C1  UNL     1      -2.589  13.468  -8.388  1.00  0.00     0.236 C 
HETATM   26  O1  UNL     1      -3.411  14.271  -8.851  1.00  0.00    -0.272 OA
HETATM   27  N3  UNL     1      -2.863  12.098  -8.174  1.00  0.00    -0.266 N 
ATOM     28  H3  UNL     1      -2.083  11.568  -7.787  1.00  0.00     0.190 HD
BRANCH  27  29
HETATM   29  N4  UNL     1      -3.984  11.363  -8.395  1.00  0.00    -0.249 N 
HETATM   30  C21 UNL     1      -5.294  11.456  -7.912  1.00  0.00     0.337 C 
HETATM   31  O4  UNL     1      -5.684  12.328  -7.110  1.00  0.00    -0.245 OA
HETATM   32  N5  UNL     1      -6.291  10.516  -8.328  1.00  0.00    -0.333 N 
HETATM   33  C22 UNL     1      -7.670  10.518  -7.850  1.00  0.00     0.127 C 
HETATM   34  C25 UNL     1      -6.126   9.437  -9.277  1.00  0.00     0.127 C 
HETATM   35  C23 UNL     1      -8.408   9.531  -8.692  1.00  0.00     0.022 C 
HETATM   36  C24 UNL     1      -7.517   9.389  -9.903  1.00  0.00     0.022 C 
ATOM     37  H4  UNL     1      -3.843  10.589  -9.043  1.00  0.00     0.192 HD
ENDBRANCH  27  29
ENDBRANCH  24  25
ENDBRANCH   1  24
TORSDOF 3
ENDMDL
MODEL 3
REMARK VINA RESULT: -9.092136990      2.797      4.631
REMARK  3 active torsions:
REMARK  status: ('A' for Active; 'I' for Inactive)
REMARK    1  A    between atoms: C1_2  and  C2_3 
REMARK       I    between atoms: C1_2  and  N3_27 
REMARK    2  A    between atoms: C2_3  and  C3_4 
REMARK    3  A    between atoms: N3_27  and  N4_29 
REMARK       I    between atoms: N4_29  and  C21_31 
REMARK       I    between atoms: C21_31  and  N5_33 
ROOT
HETATM    1  C3  UNL     1      -1.312  14.176  -4.726  1.00  0.00     0.066 C 
HETATM    2  C4  UNL     1      -0.295  14.078  -3.614  1.00  0.00     0.013 C 
HETATM    3  C5  UNL     1      -0.207  15.294  -2.746  1.00  0.00     0.001 C 
HETATM    4  C6  UNL     1       1.020  15.176  -1.848  1.00  0.00     0.000 C 
HETATM    5  C7  UNL     1       1.567  16.509  -1.427  1.00  0.00     0.000 C 
HETATM    6  C8  UNL     1       3.065  16.510  -1.692  1.00  0.00     0.000 C 
HETATM    7  C9  UNL     1       3.511  17.797  -2.372  1.00  0.00     0.002 C 
HETATM    8  C10 UNL     1       2.489  18.250  -3.394  1.00  0.00     0.020 C 
HETATM    9  C11 UNL     1       3.135  18.922  -4.576  1.00  0.00     0.127 C 
HETATM   10  N1  UNL     1       2.353  18.848  -5.775  1.00  0.00    -0.365 N 
HETATM   11  C12 UNL     1       2.932  18.167  -6.854  1.00  0.00     0.063 C 
HETATM   12  C13 UNL     1       3.465  16.777  -6.548  1.00  0.00     0.044 C 
HETATM   13  C14 UNL     1       2.979  15.750  -7.541  1.00  0.00     0.005 C 
HETATM   14  C15 UNL     1       1.501  15.697  -7.694  1.00  0.00     0.003 C 
HETATM   15  C16 UNL     1       0.751  15.584  -6.388  1.00  0.00     0.033 C 
HETATM   16  C17 UNL     1      -0.655  16.058  -6.444  1.00  0.00     0.154 C 
HETATM   17  N2  UNL     1      -0.850  17.462  -6.657  1.00  0.00    -0.345 N 
ATOM     18  H2  UNL     1      -1.817  17.740  -6.822  1.00  0.00     0.163 HD
HETATM   19  C18 UNL     1       0.077  18.515  -6.676  1.00  0.00     0.257 C 
HETATM   20  O2  UNL     1       0.153  19.177  -7.781  1.00  0.00    -0.267 OA
HETATM   21  C19 UNL     1       0.974  18.984  -5.629  1.00  0.00     0.164 C 
HETATM   22  C20 UNL     1      -1.420  15.540  -5.281  1.00  0.00     0.154 C 
HETATM   23  O3  UNL     1      -2.202  16.304  -4.737  1.00  0.00    -0.295 OA
ENDROOT
BRANCH   1  24
HETATM   24  C2  UNL     1      -2.584  13.572  -4.238  1.00  0.00     0.117 C 
BRANCH  24  25
HETATM   25  C1  UNL     1      -3.207  12.681  -5.278  1.00  0.00     0.236 C 
HETATM   26  O1  UNL     1      -2.461  11.880  -5.856  1.00  0.00    -0.272 OA
HETATM   27  N3  UNL     1      -4.592  12.795  -5.540  1.00  0.00    -0.266 N 
ATOM     28  H3  UNL     1      -5.069  13.502  -4.980  1.00  0.00     0.190 HD
BRANCH  27  29
HETATM   29  N4  UNL     1      -5.398  12.129  -6.407  1.00  0.00    -0.249 N 
HETATM   30  C21 UNL     1      -5.390  11.989  -7.798  1.00  0.00     0.337 C 
HETATM   31  O4  UNL     1      -4.545  12.514  -8.550  1.00  0.00    -0.245 OA
HETATM   32  N5  UNL     1      -6.393  11.206  -8.457  1.00  0.00    -0.333 N 
HETATM   33  C22 UNL     1      -6.480  11.034  -9.903  1.00  0.00     0.127 C 
HETATM   34  C25 UNL     1      -7.460  10.456  -7.830  1.00  0.00     0.127 C 
HETATM   35  C23 UNL     1      -7.514   9.983 -10.139  1.00  0.00     0.022 C 
HETATM   36  C24 UNL     1      -7.599   9.288  -8.801  1.00  0.00     0.022 C 
ATOM     37  H4  UNL     1      -6.162  11.631  -5.951  1.00  0.00     0.192 HD
ENDBRANCH  27  29
ENDBRANCH  24  25
ENDBRANCH   1  24
TORSDOF 3
ENDMDL
MODEL 4
REMARK VINA RESULT: -9.084968417      2.372      4.312
REMARK  3 active torsions:
REMARK  status: ('A' for Active; 'I' for Inactive)
REMARK    1  A    between atoms: C1_2  and  C2_3 
REMARK       I    between atoms: C1_2  and  N3_27 
REMARK    2  A    between atoms: C2_3  and  C3_4 
REMARK    3  A    between atoms: N3_27  and  N4_29 
REMARK       I    between atoms: N4_29  and  C21_31 
REMARK       I    between atoms: C21_31  and  N5_33 
ROOT
HETATM    1  C3  UNL     1      -2.218  13.552  -4.486  1.00  0.00     0.066 C 
HETATM    2  C4  UNL     1      -2.111  14.132  -3.095  1.00  0.00     0.013 C 
HETATM    3  C5  UNL     1      -2.591  15.544  -2.974  1.00  0.00     0.001 C 
HETATM    4  C6  UNL     1      -2.186  16.091  -1.610  1.00  0.00     0.000 C 
HETATM    5  C7  UNL     1      -2.030  17.585  -1.602  1.00  0.00     0.000 C 
HETATM    6  C8  UNL     1      -0.691  17.917  -0.961  1.00  0.00     0.000 C 
HETATM    7  C9  UNL     1       0.069  18.963  -1.764  1.00  0.00     0.002 C 
HETATM    8  C10 UNL     1      -0.102  18.730  -3.250  1.00  0.00     0.020 C 
HETATM    9  C11 UNL     1       1.132  19.109  -4.025  1.00  0.00     0.127 C 
HETATM   10  N1  UNL     1       1.263  18.412  -5.270  1.00  0.00    -0.365 N 
HETATM   11  C12 UNL     1       2.393  17.595  -5.409  1.00  0.00     0.063 C 
HETATM   12  C13 UNL     1       2.633  16.604  -4.282  1.00  0.00     0.044 C 
HETATM   13  C14 UNL     1       2.878  15.207  -4.796  1.00  0.00     0.005 C 
HETATM   14  C15 UNL     1       1.815  14.690  -5.697  1.00  0.00     0.003 C 
HETATM   15  C16 UNL     1       0.418  14.825  -5.142  1.00  0.00     0.033 C 
HETATM   16  C17 UNL     1      -0.654  14.835  -6.169  1.00  0.00     0.154 C 
HETATM   17  N2  UNL     1      -0.688  15.966  -7.050  1.00  0.00    -0.345 N 
ATOM     18  H2  UNL     1      -1.347  15.886  -7.824  1.00  0.00     0.163 HD
HETATM   19  C18 UNL     1       0.041  17.163  -7.017  1.00  0.00     0.257 C 
HETATM   20  O2  UNL     1       0.780  17.400  -8.048  1.00  0.00    -0.267 OA
HETATM   21  C19 UNL     1       0.090  18.195  -5.990  1.00  0.00     0.164 C 
HETATM   22  C20 UNL     1      -1.971  14.554  -5.541  1.00  0.00     0.154 C 
HETATM   23  O3  UNL     1      -2.929  15.204  -5.930  1.00  0.00    -0.295 OA
ENDROOT
BRANCH   1  24
HETATM   24  C2  UNL     1      -3.513  12.819  -4.577  1.00  0.00     0.117 C 
BRANCH  24  25
HETATM   25  C1  UNL     1      -3.756  12.298  -5.967  1.00  0.00     0.236 C 
HETATM   26  O1  UNL     1      -2.910  11.524  -6.436  1.00  0.00    -0.272 OA
HETATM   27  N3  UNL     1      -4.918  12.706  -6.661  1.00  0.00    -0.266 N 
ATOM     28  H3  UNL     1      -5.516  13.346  -6.139  1.00  0.00     0.190 HD
BRANCH  27  29
HETATM   29  N4  UNL     1      -5.378  12.394  -7.900  1.00  0.00    -0.249 N 
HETATM   30  C21 UNL     1      -6.313  11.462  -8.362  1.00  0.00     0.337 C 
HETATM   31  O4  UNL     1      -6.945  10.680  -7.625  1.00  0.00    -0.245 OA
HETATM   32  N5  UNL     1      -6.603  11.353  -9.761  1.00  0.00    -0.333 N 
HETATM   33  C22 UNL     1      -7.536  10.389 -10.332  1.00  0.00     0.127 C 
HETATM   34  C25 UNL     1      -6.052  12.161 -10.827  1.00  0.00     0.127 C 
HETATM   35  C23 UNL     1      -7.702  10.765 -11.768  1.00  0.00     0.022 C 
HETATM   36  C24 UNL     1      -7.229  12.198 -11.797  1.00  0.00     0.022 C 
ATOM     37  H4  UNL     1      -4.958  12.952  -8.643  1.00  0.00     0.192 HD
ENDBRANCH  27  29
ENDBRANCH  24  25
ENDBRANCH   1  24
TORSDOF 3
ENDMDL
MODEL 5
REMARK VINA RESULT: -9.055805850      1.901      2.546
REMARK  3 active torsions:
REMARK  status: ('A' for Active; 'I' for Inactive)
REMARK    1  A    between atoms: C1_2  and  C2_3 
REMARK       I    between atoms: C1_2  and  N3_27 
REMARK    2  A    between atoms: C2_3  and  C3_4 
REMARK    3  A    between atoms: N3_27  and  N4_29 
REMARK       I    between atoms: N4_29  and  C21_31 
REMARK       I    between atoms: C21_31  and  N5_33 
ROOT
HETATM    1  C3  UNL     1      -1.268  13.199  -6.598  1.00  0.00     0.066 C 
HETATM    2  C4  UNL     1      -1.071  14.357  -7.547  1.00  0.00     0.013 C 
HETATM    3  C5  UNL     1       0.320  14.911  -7.570  1.00  0.00     0.001 C 
HETATM    4  C6  UNL     1       0.321  16.221  -8.349  1.00  0.00     0.000 C 
HETATM    5  C7  UNL     1       1.421  17.152  -7.926  1.00  0.00     0.000 C 
HETATM    6  C8  UNL     1       0.811  18.522  -7.674  1.00  0.00     0.000 C 
HETATM    7  C9  UNL     1       1.319  19.130  -6.375  1.00  0.00     0.002 C 
HETATM    8  C10 UNL     1       1.450  18.072  -5.300  1.00  0.00     0.020 C 
HETATM    9  C11 UNL     1       1.145  18.620  -3.931  1.00  0.00     0.127 C 
HETATM   10  N1  UNL     1       0.694  17.624  -3.004  1.00  0.00    -0.365 N 
HETATM   11  C12 UNL     1      -0.599  17.796  -2.489  1.00  0.00     0.063 C 
HETATM   12  C13 UNL     1      -1.694  18.018  -3.518  1.00  0.00     0.044 C 
HETATM   13  C14 UNL     1      -2.878  17.110  -3.294  1.00  0.00     0.005 C 
HETATM   14  C15 UNL     1      -2.538  15.664  -3.231  1.00  0.00     0.003 C 
HETATM   15  C16 UNL     1      -1.695  15.180  -4.386  1.00  0.00     0.033 C 
HETATM   16  C17 UNL     1      -0.912  13.951  -4.102  1.00  0.00     0.154 C 
HETATM   17  N2  UNL     1       0.139  14.071  -3.134  1.00  0.00    -0.345 N 
ATOM     18  H2  UNL     1       0.574  13.189  -2.862  1.00  0.00     0.163 HD
HETATM   19  C18 UNL     1       0.665  15.206  -2.501  1.00  0.00     0.257 C 
HETATM   20  O2  UNL     1       0.573  15.226  -1.214  1.00  0.00    -0.267 OA
HETATM   21  C19 UNL     1       1.311  16.378  -3.077  1.00  0.00     0.164 C 
HETATM   22  C20 UNL     1      -0.458  13.325  -5.370  1.00  0.00     0.154 C 
HETATM   23  O3  UNL     1       0.677  12.876  -5.402  1.00  0.00    -0.295 OA
ENDROOT
BRANCH   1  24
HETATM   24  C2  UNL     1      -1.083  11.938  -7.371  1.00  0.00     0.117 C 
BRANCH  24  25
HETATM   25  C1  UNL     1      -2.335  11.555  -8.111  1.00  0.00     0.236 C 
HETATM   26  O1  UNL     1      -3.045  10.676  -7.603  1.00  0.00    -0.272 OA
HETATM   27  N3  UNL     1      -2.641  12.205  -9.328  1.00  0.00    -0.266 N 
ATOM     28  H3  UNL     1      -1.957  12.906  -9.613  1.00  0.00     0.190 HD
BRANCH  27  29
HETATM   29  N4  UNL     1      -3.685  12.061 -10.184  1.00  0.00    -0.249 N 
HETATM   30  C21 UNL     1      -5.069  11.987  -9.994  1.00  0.00     0.337 C 
HETATM   31  O4  UNL     1      -5.627  12.049  -8.880  1.00  0.00    -0.245 OA
HETATM   32  N5  UNL     1      -5.950  11.829 -11.112  1.00  0.00    -0.333 N 
HETATM   33  C22 UNL     1      -7.400  11.709 -11.002  1.00  0.00     0.127 C 
HETATM   34  C25 UNL     1      -5.579  11.773 -12.509  1.00  0.00     0.127 C 
HETATM   35  C23 UNL     1      -7.934  11.786 -12.395  1.00  0.00     0.022 C 
HETATM   36  C24 UNL     1      -6.797  12.426 -13.156  1.00  0.00     0.022 C 
ATOM     37  H4  UNL     1      -3.404  11.994 -11.162  1.00  0.00     0.192 HD
ENDBRANCH  27  29
ENDBRANCH  24  25
ENDBRANCH   1  24
TORSDOF 3
ENDMDL
