MODEL 1
REMARK VINA RESULT: -5.782949409      0.000      0.000
REMARK  1 active torsions:
REMARK  status: ('A' for Active; 'I' for Inactive)
REMARK    1  A    between atoms: C2_7  and  C3_8 
ROOT
HETATM    1  O1  UNL     1      -9.874  -1.415  42.274  1.00  0.00    -0.245 OA
HETATM    2  C1  UNL     1     -10.502  -2.439  41.937  1.00  0.00     0.341 A 
HETATM    3  N1  UNL     1     -10.273  -3.591  42.596  1.00  0.00    -0.251 N 
ATOM      4  H1  UNL     1      -9.593  -3.610  43.356  1.00  0.00     0.191 HD
HETATM    5  N2  UNL     1     -10.909  -4.683  42.272  1.00  0.00    -0.290 N 
ATOM      6  H2  UNL     1     -10.698  -5.529  42.802  1.00  0.00     0.187 HD
HETATM    7  C2  UNL     1     -11.831  -4.773  41.282  1.00  0.00     0.140 A 
HETATM    8  C6  UNL     1     -12.071  -3.606  40.608  1.00  0.00     0.279 A 
HETATM    9  O2  UNL     1     -12.881  -3.519  39.678  1.00  0.00    -0.265 OA
HETATM   10  N5  UNL     1     -11.408  -2.459  40.941  1.00  0.00    -0.272 N 
ATOM     11  H5  UNL     1     -11.602  -1.600  40.425  1.00  0.00     0.173 HD
ENDROOT
BRANCH   7  12
HETATM   12  C3  UNL     1     -12.514  -6.026  40.976  1.00  0.00     0.057 C 
HETATM   13  N3  UNL     1     -13.796  -6.103  40.721  1.00  0.00    -0.306 N 
HETATM   14  N4  UNL     1     -14.158  -7.428  40.468  1.00  0.00    -0.141 NA
ATOM     15  H3  UNL     1     -14.438  -5.310  40.708  1.00  0.00     0.182 HD
HETATM   16  C4  UNL     1     -12.944  -8.012  39.933  1.00  0.00     0.141 C 
HETATM   17  C5  UNL     1     -11.948  -7.372  40.900  1.00  0.00     0.078 C 
ENDBRANCH   7  12
TORSDOF 1
ENDMDL
MODEL 2
REMARK VINA RESULT: -5.621052875      2.365      5.124
REMARK  1 active torsions:
REMARK  status: ('A' for Active; 'I' for Inactive)
REMARK    1  A    between atoms: C2_7  and  C3_8 
ROOT
HETATM    1  O1  UNL     1     -12.876  -8.320  40.283  1.00  0.00    -0.245 OA
HETATM    2  C1  UNL     1     -12.426  -7.263  40.769  1.00  0.00     0.341 A 
HETATM    3  N1  UNL     1     -13.153  -6.134  40.663  1.00  0.00    -0.251 N 
ATOM      4  H1  UNL     1     -14.056  -6.160  40.189  1.00  0.00     0.191 HD
HETATM    5  N2  UNL     1     -12.717  -5.009  41.157  1.00  0.00    -0.290 N 
ATOM      6  H2  UNL     1     -13.305  -4.183  41.049  1.00  0.00     0.187 HD
HETATM    7  C2  UNL     1     -11.534  -4.860  41.806  1.00  0.00     0.140 A 
HETATM    8  C6  UNL     1     -10.789  -6.003  41.920  1.00  0.00     0.279 A 
HETATM    9  O2  UNL     1      -9.689  -6.036  42.481  1.00  0.00    -0.265 OA
HETATM   10  N5  UNL     1     -11.241  -7.184  41.403  1.00  0.00    -0.272 N 
ATOM     11  H5  UNL     1     -10.669  -8.023  41.499  1.00  0.00     0.173 HD
ENDROOT
BRANCH   7  12
HETATM   12  C3  UNL     1     -11.108  -3.572  42.344  1.00  0.00     0.057 C 
HETATM   13  N3  UNL     1     -10.223  -2.805  41.759  1.00  0.00    -0.306 N 
HETATM   14  N4  UNL     1     -10.021  -1.644  42.509  1.00  0.00    -0.141 NA
ATOM     15  H3  UNL     1      -9.750  -3.024  40.882  1.00  0.00     0.182 HD
HETATM   16  C4  UNL     1     -11.289  -1.457  43.186  1.00  0.00     0.141 C 
HETATM   17  C5  UNL     1     -11.549  -2.912  43.573  1.00  0.00     0.078 C 
ENDBRANCH   7  12
TORSDOF 1
ENDMDL
MODEL 3
REMARK VINA RESULT: -5.271299057      2.335      2.910
REMARK  1 active torsions:
REMARK  status: ('A' for Active; 'I' for Inactive)
REMARK    1  A    between atoms: C2_7  and  C3_8 
ROOT
HETATM    1  O1  UNL     1      -8.682  -5.247  43.228  1.00  0.00    -0.245 OA
HETATM    2  C1  UNL     1      -9.761  -5.376  42.613  1.00  0.00     0.341 A 
HETATM    3  N1  UNL     1     -10.730  -4.460  42.800  1.00  0.00    -0.251 N 
ATOM      4  H1  UNL     1     -10.570  -3.679  43.436  1.00  0.00     0.191 HD
HETATM    5  N2  UNL     1     -11.872  -4.560  42.177  1.00  0.00    -0.290 N 
ATOM      6  H2  UNL     1     -12.573  -3.840  42.353  1.00  0.00     0.187 HD
HETATM    7  C2  UNL     1     -12.192  -5.553  41.310  1.00  0.00     0.140 A 
HETATM    8  C6  UNL     1     -11.212  -6.488  41.115  1.00  0.00     0.279 A 
HETATM    9  O2  UNL     1     -11.346  -7.456  40.358  1.00  0.00    -0.265 OA
HETATM   10  N5  UNL     1     -10.014  -6.390  41.765  1.00  0.00    -0.272 N 
ATOM     11  H5  UNL     1      -9.298  -7.098  41.604  1.00  0.00     0.173 HD
ENDROOT
BRANCH   7  12
HETATM   12  C3  UNL     1     -13.487  -5.602  40.638  1.00  0.00     0.057 C 
HETATM   13  N3  UNL     1     -14.101  -6.719  40.340  1.00  0.00    -0.306 N 
HETATM   14  N4  UNL     1     -15.314  -6.446  39.703  1.00  0.00    -0.141 NA
ATOM     15  H3  UNL     1     -13.746  -7.653  40.543  1.00  0.00     0.182 HD
HETATM   16  C4  UNL     1     -15.690  -5.151  40.236  1.00  0.00     0.141 C 
HETATM   17  C5  UNL     1     -14.315  -4.485  40.184  1.00  0.00     0.078 C 
ENDBRANCH   7  12
TORSDOF 1
ENDMDL
MODEL 4
REMARK VINA RESULT: -5.229202592      1.350      1.799
REMARK  1 active torsions:
REMARK  status: ('A' for Active; 'I' for Inactive)
REMARK    1  A    between atoms: C2_7  and  C3_8 
ROOT
HETATM    1  O1  UNL     1      -9.844  -1.229  41.847  1.00  0.00    -0.245 OA
HETATM    2  C1  UNL     1     -10.409  -2.328  41.678  1.00  0.00     0.341 A 
HETATM    3  N1  UNL     1     -11.455  -2.399  40.831  1.00  0.00    -0.251 N 
ATOM      4  H1  UNL     1     -11.766  -1.560  40.344  1.00  0.00     0.191 HD
HETATM    5  N2  UNL     1     -12.072  -3.530  40.628  1.00  0.00    -0.290 N 
ATOM      6  H2  UNL     1     -12.859  -3.530  39.978  1.00  0.00     0.187 HD
HETATM    7  C2  UNL     1     -11.743  -4.705  41.221  1.00  0.00     0.140 A 
HETATM    8  C6  UNL     1     -10.682  -4.641  42.082  1.00  0.00     0.279 A 
HETATM    9  O2  UNL     1     -10.257  -5.622  42.702  1.00  0.00    -0.265 OA
HETATM   10  N5  UNL     1     -10.030  -3.460  42.299  1.00  0.00    -0.272 N 
ATOM     11  H5  UNL     1      -9.242  -3.435  42.946  1.00  0.00     0.173 HD
ENDROOT
BRANCH   7  12
HETATM   12  C3  UNL     1     -12.473  -5.939  40.942  1.00  0.00     0.057 C 
HETATM   13  N3  UNL     1     -13.765  -5.979  40.736  1.00  0.00    -0.306 N 
HETATM   14  N4  UNL     1     -14.173  -7.294  40.498  1.00  0.00    -0.141 NA
ATOM     15  H3  UNL     1     -14.384  -5.169  40.748  1.00  0.00     0.182 HD
HETATM   16  C4  UNL     1     -12.997  -7.911  39.917  1.00  0.00     0.141 C 
HETATM   17  C5  UNL     1     -11.947  -7.300  40.844  1.00  0.00     0.078 C 
ENDBRANCH   7  12
TORSDOF 1
ENDMDL
MODEL 5
REMARK VINA RESULT: -5.192372903      3.009      4.878
REMARK  1 active torsions:
REMARK  status: ('A' for Active; 'I' for Inactive)
REMARK    1  A    between atoms: C2_7  and  C3_8 
ROOT
HETATM    1  O1  UNL     1     -16.505  -6.139  38.783  1.00  0.00    -0.245 OA
HETATM    2  C1  UNL     1     -15.425  -6.098  39.407  1.00  0.00     0.341 A 
HETATM    3  N1  UNL     1     -14.989  -4.913  39.878  1.00  0.00    -0.251 N 
ATOM      4  H1  UNL     1     -15.545  -4.073  39.719  1.00  0.00     0.191 HD
HETATM    5  N2  UNL     1     -13.865  -4.828  40.534  1.00  0.00    -0.290 N 
ATOM      6  H2  UNL     1     -13.580  -3.908  40.869  1.00  0.00     0.187 HD
HETATM    7  C2  UNL     1     -13.049  -5.878  40.803  1.00  0.00     0.140 A 
HETATM    8  C6  UNL     1     -13.485  -7.085  40.329  1.00  0.00     0.279 A 
HETATM    9  O2  UNL     1     -12.857  -8.138  40.488  1.00  0.00    -0.265 OA
HETATM   10  N5  UNL     1     -14.661  -7.181  39.640  1.00  0.00    -0.272 N 
ATOM     11  H5  UNL     1     -14.966  -8.091  39.295  1.00  0.00     0.173 HD
ENDROOT
BRANCH   7  12
HETATM   12  C3  UNL     1     -11.806  -5.715  41.551  1.00  0.00     0.057 C 
HETATM   13  N3  UNL     1     -10.932  -6.677  41.712  1.00  0.00    -0.306 N 
HETATM   14  N4  UNL     1      -9.852  -6.222  42.471  1.00  0.00    -0.141 NA
ATOM     15  H3  UNL     1     -11.027  -7.620  41.338  1.00  0.00     0.182 HD
HETATM   16  C4  UNL     1      -9.809  -4.802  42.181  1.00  0.00     0.141 C 
HETATM   17  C5  UNL     1     -11.310  -4.522  42.237  1.00  0.00     0.078 C 
ENDBRANCH   7  12
TORSDOF 1
ENDMDL
