MODEL 1
REMARK VINA RESULT: -5.092935303      0.000      0.000
REMARK  2 active torsions:
REMARK  status: ('A' for Active; 'I' for Inactive)
REMARK    1  A    between atoms: N1_1  and  C1_4 
REMARK    2  A    between atoms: C2_7  and  N3_8 
ROOT
HETATM    1  C1  UNL     1     -10.232  -5.873  42.028  1.00  0.00     0.705 A 
HETATM    2  N2  UNL     1     -11.435  -5.299  41.871  1.00  0.00    -0.020 N 
ATOM      3  H2  UNL     1     -11.706  -4.391  42.247  1.00  0.00     0.203 HD
HETATM    4  C2  UNL     1     -12.241  -6.113  41.131  1.00  0.00     0.710 A 
HETATM    5  N5  UNL     1     -11.488  -7.183  40.852  1.00  0.00    -0.117 N 
ATOM      6  H5  UNL     1     -11.798  -7.986  40.307  1.00  0.00     0.206 HD
HETATM    7  N6  UNL     1     -10.270  -7.051  41.390  1.00  0.00    -0.118 N 
ATOM      8  H6  UNL     1      -9.509  -7.726  41.325  1.00  0.00     0.206 HD
ENDROOT
BRANCH   4   9
HETATM    9  N3  UNL     1     -13.588  -5.842  40.758  1.00  0.00    -0.206 N 
HETATM   10  C3  UNL     1     -14.086  -4.496  40.864  1.00  0.00     0.161 C 
HETATM   11  C4  UNL     1     -14.684  -4.021  39.534  1.00  0.00     0.143 C 
HETATM   12  N4  UNL     1     -15.476  -5.043  38.915  1.00  0.00    -0.358 N 
HETATM   13  C5  UNL     1     -15.268  -6.438  39.114  1.00  0.00     0.236 C 
ATOM     14  H4  UNL     1     -16.234  -4.754  38.296  1.00  0.00     0.162 HD
HETATM   15  O1  UNL     1     -15.770  -7.265  38.310  1.00  0.00    -0.272 OA
HETATM   16  C6  UNL     1     -14.451  -6.893  40.280  1.00  0.00     0.244 C 
ENDBRANCH   4   9
BRANCH   1  17
HETATM   17  N1  UNL     1      -9.223  -5.365  42.686  1.00  0.00    -0.233 N 
ATOM     18  H12 UNL     1      -9.098  -4.392  42.964  1.00  0.00     0.174 HD
ATOM     19  H11 UNL     1      -8.407  -5.880  43.016  1.00  0.00     0.174 HD
ENDBRANCH   1  17
TORSDOF 2
ENDMDL
MODEL 2
REMARK VINA RESULT: -5.038512927      4.222      5.522
REMARK  2 active torsions:
REMARK  status: ('A' for Active; 'I' for Inactive)
REMARK    1  A    between atoms: N1_1  and  C1_4 
REMARK    2  A    between atoms: C2_7  and  N3_8 
ROOT
HETATM    1  C1  UNL     1     -10.918  -6.499  41.620  1.00  0.00     0.705 A 
HETATM    2  N2  UNL     1     -11.573  -5.333  41.732  1.00  0.00    -0.020 N 
ATOM      3  H2  UNL     1     -12.557  -5.189  41.510  1.00  0.00     0.203 HD
HETATM    4  C2  UNL     1     -10.723  -4.368  42.188  1.00  0.00     0.710 A 
HETATM    5  N5  UNL     1      -9.549  -4.989  42.345  1.00  0.00    -0.117 N 
ATOM      6  H5  UNL     1      -8.695  -4.542  42.678  1.00  0.00     0.206 HD
HETATM    7  N6  UNL     1      -9.652  -6.278  42.005  1.00  0.00    -0.118 N 
ATOM      8  H6  UNL     1      -8.903  -6.969  42.032  1.00  0.00     0.206 HD
ENDROOT
BRANCH   4   9
HETATM    9  N3  UNL     1     -11.058  -3.006  42.432  1.00  0.00    -0.206 N 
HETATM   10  C3  UNL     1     -12.150  -2.701  43.318  1.00  0.00     0.161 C 
HETATM   11  C4  UNL     1     -11.709  -1.741  44.429  1.00  0.00     0.143 C 
HETATM   12  N4  UNL     1     -10.869  -0.695  43.923  1.00  0.00    -0.358 N 
HETATM   13  C5  UNL     1     -10.051  -0.826  42.765  1.00  0.00     0.236 C 
ATOM     14  H4  UNL     1     -10.858   0.195  44.421  1.00  0.00     0.162 HD
HETATM   15  O1  UNL     1      -9.115  -0.008  42.566  1.00  0.00    -0.272 OA
HETATM   16  C6  UNL     1     -10.321  -1.938  41.804  1.00  0.00     0.244 C 
ENDBRANCH   4   9
BRANCH   1  17
HETATM   17  N1  UNL     1     -11.431  -7.628  41.211  1.00  0.00    -0.233 N 
ATOM     18  H12 UNL     1     -11.027  -8.279  40.537  1.00  0.00     0.174 HD
ATOM     19  H11 UNL     1     -12.322  -8.022  41.511  1.00  0.00     0.174 HD
ENDBRANCH   1  17
TORSDOF 2
ENDMDL
MODEL 3
REMARK VINA RESULT: -4.964377132      1.658      2.208
REMARK  2 active torsions:
REMARK  status: ('A' for Active; 'I' for Inactive)
REMARK    1  A    between atoms: N1_1  and  C1_4 
REMARK    2  A    between atoms: C2_7  and  N3_8 
ROOT
HETATM    1  C1  UNL     1     -10.235  -5.884  42.079  1.00  0.00     0.705 A 
HETATM    2  N2  UNL     1     -11.405  -5.286  41.807  1.00  0.00    -0.020 N 
ATOM      3  H2  UNL     1     -11.651  -4.331  42.067  1.00  0.00     0.203 HD
HETATM    4  C2  UNL     1     -12.218  -6.149  41.131  1.00  0.00     0.710 A 
HETATM    5  N5  UNL     1     -11.502  -7.272  41.008  1.00  0.00    -0.117 N 
ATOM      6  H5  UNL     1     -11.826  -8.120  40.545  1.00  0.00     0.206 HD
HETATM    7  N6  UNL     1     -10.301  -7.126  41.577  1.00  0.00    -0.118 N 
ATOM      8  H6  UNL     1      -9.567  -7.833  41.622  1.00  0.00     0.206 HD
ENDROOT
BRANCH   4   9
HETATM    9  N3  UNL     1     -13.537  -5.870  40.674  1.00  0.00    -0.206 N 
HETATM   10  C3  UNL     1     -14.272  -6.900  39.988  1.00  0.00     0.161 C 
HETATM   11  C4  UNL     1     -15.635  -7.139  40.649  1.00  0.00     0.143 C 
HETATM   12  N4  UNL     1     -16.273  -5.907  41.007  1.00  0.00    -0.358 N 
HETATM   13  C5  UNL     1     -15.568  -4.707  41.307  1.00  0.00     0.236 C 
ATOM     14  H4  UNL     1     -17.292  -5.888  41.051  1.00  0.00     0.162 HD
HETATM   15  O1  UNL     1     -16.153  -3.774  41.918  1.00  0.00    -0.272 OA
HETATM   16  C6  UNL     1     -14.139  -4.578  40.889  1.00  0.00     0.244 C 
ENDBRANCH   4   9
BRANCH   1  17
HETATM   17  N1  UNL     1      -9.230  -5.344  42.716  1.00  0.00    -0.233 N 
ATOM     18  H12 UNL     1      -9.128  -4.366  42.987  1.00  0.00     0.174 HD
ATOM     19  H11 UNL     1      -8.394  -5.833  43.035  1.00  0.00     0.174 HD
ENDBRANCH   1  17
TORSDOF 2
ENDMDL
MODEL 4
REMARK VINA RESULT: -4.807821335      3.560      4.715
REMARK  2 active torsions:
REMARK  status: ('A' for Active; 'I' for Inactive)
REMARK    1  A    between atoms: N1_1  and  C1_4 
REMARK    2  A    between atoms: C2_7  and  N3_8 
ROOT
HETATM    1  C1  UNL     1     -11.583  -7.078  40.927  1.00  0.00     0.705 A 
HETATM    2  N2  UNL     1     -11.896  -5.817  41.266  1.00  0.00    -0.020 N 
ATOM      3  H2  UNL     1     -12.815  -5.390  41.154  1.00  0.00     0.203 HD
HETATM    4  C2  UNL     1     -10.799  -5.194  41.785  1.00  0.00     0.710 A 
HETATM    5  N5  UNL     1      -9.829  -6.113  41.746  1.00  0.00    -0.117 N 
ATOM      6  H5  UNL     1      -8.873  -5.963  42.066  1.00  0.00     0.206 HD
HETATM    7  N6  UNL     1     -10.289  -7.257  41.229  1.00  0.00    -0.118 N 
ATOM      8  H6  UNL     1      -9.752  -8.112  41.089  1.00  0.00     0.206 HD
ENDROOT
BRANCH   4   9
HETATM    9  N3  UNL     1     -10.745  -3.851  42.255  1.00  0.00    -0.206 N 
HETATM   10  C3  UNL     1     -10.395  -2.800  41.336  1.00  0.00     0.161 C 
HETATM   11  C4  UNL     1     -11.455  -1.692  41.333  1.00  0.00     0.143 C 
HETATM   12  N4  UNL     1     -11.897  -1.379  42.661  1.00  0.00    -0.358 N 
HETATM   13  C5  UNL     1     -11.876  -2.305  43.742  1.00  0.00     0.236 C 
ATOM     14  H4  UNL     1     -12.246  -0.438  42.841  1.00  0.00     0.162 HD
HETATM   15  O1  UNL     1     -12.563  -2.078  44.772  1.00  0.00    -0.272 OA
HETATM   16  C6  UNL     1     -11.034  -3.535  43.632  1.00  0.00     0.244 C 
ENDBRANCH   4   9
BRANCH   1  17
HETATM   17  N1  UNL     1     -12.398  -7.952  40.400  1.00  0.00    -0.233 N 
ATOM     18  H12 UNL     1     -12.322  -8.968  40.445  1.00  0.00     0.174 HD
ATOM     19  H11 UNL     1     -13.237  -7.737  39.862  1.00  0.00     0.174 HD
ENDBRANCH   1  17
TORSDOF 2
ENDMDL
MODEL 5
REMARK VINA RESULT: -4.778820039      3.786      4.811
REMARK  2 active torsions:
REMARK  status: ('A' for Active; 'I' for Inactive)
REMARK    1  A    between atoms: N1_1  and  C1_4 
REMARK    2  A    between atoms: C2_7  and  N3_8 
ROOT
HETATM    1  C1  UNL     1     -10.928  -6.434  41.624  1.00  0.00     0.705 A 
HETATM    2  N2  UNL     1     -11.544  -5.265  41.864  1.00  0.00    -0.020 N 
ATOM      3  H2  UNL     1     -12.526  -5.070  41.673  1.00  0.00     0.203 HD
HETATM    4  C2  UNL     1     -10.658  -4.379  42.402  1.00  0.00     0.710 A 
HETATM    5  N5  UNL     1      -9.502  -5.048  42.476  1.00  0.00    -0.117 N 
ATOM      6  H5  UNL     1      -8.630  -4.664  42.839  1.00  0.00     0.206 HD
HETATM    7  N6  UNL     1      -9.651  -6.292  42.008  1.00  0.00    -0.118 N 
ATOM      8  H6  UNL     1      -8.924  -7.005  41.953  1.00  0.00     0.206 HD
ENDROOT
BRANCH   4   9
HETATM    9  N3  UNL     1     -10.945  -3.039  42.788  1.00  0.00    -0.206 N 
HETATM   10  C3  UNL     1     -10.470  -1.957  41.966  1.00  0.00     0.161 C 
HETATM   11  C4  UNL     1     -11.617  -1.021  41.567  1.00  0.00     0.143 C 
HETATM   12  N4  UNL     1     -12.499  -0.765  42.668  1.00  0.00    -0.358 N 
HETATM   13  C5  UNL     1     -12.696  -1.667  43.752  1.00  0.00     0.236 C 
ATOM     14  H4  UNL     1     -13.016   0.114  42.674  1.00  0.00     0.162 HD
HETATM   15  O1  UNL     1     -13.701  -1.536  44.498  1.00  0.00    -0.272 OA
HETATM   16  C6  UNL     1     -11.700  -2.757  43.983  1.00  0.00     0.244 C 
ENDBRANCH   4   9
BRANCH   1  17
HETATM   17  N1  UNL     1     -11.482  -7.499  41.110  1.00  0.00    -0.233 N 
ATOM     18  H12 UNL     1     -12.360  -7.933  41.394  1.00  0.00     0.174 HD
ATOM     19  H11 UNL     1     -11.108  -8.053  40.340  1.00  0.00     0.174 HD
ENDBRANCH   1  17
TORSDOF 2
ENDMDL
