MODEL 1
REMARK VINA RESULT: -6.075273810      0.000      0.000
REMARK  3 active torsions:
REMARK  status: ('A' for Active; 'I' for Inactive)
REMARK    1  A    between atoms: O1_1  and  N1_3 
REMARK    2  A    between atoms: N1_3  and  N2_5 
REMARK    3  A    between atoms: N2_5  and  C1_7 
ROOT
HETATM    1  C1  UNL     1     -11.168  -6.146  41.369  1.00  0.00     0.125 C 
HETATM    2  C2  UNL     1     -11.601  -7.391  40.919  1.00  0.00     0.055 C 
HETATM    3  C3  UNL     1     -12.823  -7.648  40.298  1.00  0.00     0.078 C 
HETATM    4  C4  UNL     1     -13.838  -6.754  39.957  1.00  0.00     0.249 C 
HETATM    5  O2  UNL     1     -14.622  -7.113  39.042  1.00  0.00    -0.268 OA
HETATM    6  N3  UNL     1     -14.015  -5.560  40.544  1.00  0.00    -0.275 N 
ATOM      7  H3  UNL     1     -14.905  -5.115  40.326  1.00  0.00     0.173 HD
HETATM    8  C5  UNL     1     -13.226  -4.845  41.371  1.00  0.00     0.328 C 
HETATM    9  O3  UNL     1     -13.710  -3.809  41.907  1.00  0.00    -0.247 OA
HETATM   10  N4  UNL     1     -11.932  -5.097  41.718  1.00  0.00    -0.293 N 
ATOM     11  H4  UNL     1     -11.488  -4.403  42.319  1.00  0.00     0.172 HD
ENDROOT
BRANCH   1  12
HETATM   12  N2  UNL     1      -9.881  -6.007  41.453  1.00  0.00    -0.266 N 
ATOM     13  H2  UNL     1      -9.272  -6.658  40.960  1.00  0.00     0.190 HD
BRANCH  12  14
HETATM   14  N1  UNL     1      -9.320  -4.977  42.210  1.00  0.00    -0.209 N 
ATOM     15  H1  UNL     1      -9.499  -4.000  41.976  1.00  0.00     0.215 HD
BRANCH  14  16
HETATM   16  O1  UNL     1      -8.585  -5.281  43.192  1.00  0.00    -0.274 OA
ATOM     17  H1  UNL     1      -8.832  -4.974  44.057  1.00  0.00     0.246 HD
ENDBRANCH  14  16
ENDBRANCH  12  14
ENDBRANCH   1  12
TORSDOF 3
ENDMDL
MODEL 2
REMARK VINA RESULT: -5.589107520      1.426      4.257
REMARK  3 active torsions:
REMARK  status: ('A' for Active; 'I' for Inactive)
REMARK    1  A    between atoms: O1_1  and  N1_3 
REMARK    2  A    between atoms: N1_3  and  N2_5 
REMARK    3  A    between atoms: N2_5  and  C1_7 
ROOT
HETATM    1  C1  UNL     1     -12.389  -6.684  40.671  1.00  0.00     0.125 C 
HETATM    2  C2  UNL     1     -11.276  -7.383  41.133  1.00  0.00     0.055 C 
HETATM    3  C3  UNL     1     -10.242  -6.843  41.896  1.00  0.00     0.078 C 
HETATM    4  C4  UNL     1     -10.103  -5.546  42.393  1.00  0.00     0.249 C 
HETATM    5  O2  UNL     1      -9.349  -5.402  43.389  1.00  0.00    -0.268 OA
HETATM    6  N3  UNL     1     -10.717  -4.474  41.872  1.00  0.00    -0.275 N 
ATOM      7  H3  UNL     1     -10.365  -3.581  42.217  1.00  0.00     0.173 HD
HETATM    8  C5  UNL     1     -11.717  -4.364  40.975  1.00  0.00     0.328 C 
HETATM    9  O3  UNL     1     -12.003  -3.214  40.538  1.00  0.00    -0.247 OA
HETATM   10  N4  UNL     1     -12.489  -5.362  40.457  1.00  0.00    -0.293 N 
ATOM     11  H4  UNL     1     -13.235  -5.067  39.827  1.00  0.00     0.172 HD
ENDROOT
BRANCH   1  12
HETATM   12  N2  UNL     1     -13.435  -7.413  40.427  1.00  0.00    -0.266 N 
ATOM     13  H2  UNL     1     -13.391  -8.421  40.575  1.00  0.00     0.190 HD
BRANCH  12  14
HETATM   14  N1  UNL     1     -14.619  -6.836  39.965  1.00  0.00    -0.209 N 
ATOM     15  H1  UNL     1     -15.413  -6.702  40.591  1.00  0.00     0.215 HD
BRANCH  14  16
HETATM   16  O1  UNL     1     -14.686  -6.482  38.753  1.00  0.00    -0.274 OA
ATOM     17  H1  UNL     1     -15.395  -6.822  38.220  1.00  0.00     0.246 HD
ENDBRANCH  14  16
ENDBRANCH  12  14
ENDBRANCH   1  12
TORSDOF 3
ENDMDL
MODEL 3
REMARK VINA RESULT: -5.474452813      1.186      4.253
REMARK  3 active torsions:
REMARK  status: ('A' for Active; 'I' for Inactive)
REMARK    1  A    between atoms: O1_1  and  N1_3 
REMARK    2  A    between atoms: N1_3  and  N2_5 
REMARK    3  A    between atoms: N2_5  and  C1_7 
ROOT
HETATM    1  C1  UNL     1     -13.419  -6.642  40.508  1.00  0.00     0.125 C 
HETATM    2  C2  UNL     1     -12.301  -7.473  40.486  1.00  0.00     0.055 C 
HETATM    3  C3  UNL     1     -11.085  -7.209  41.114  1.00  0.00     0.078 C 
HETATM    4  C4  UNL     1     -10.727  -6.122  41.912  1.00  0.00     0.249 C 
HETATM    5  O2  UNL     1      -9.770  -6.298  42.709  1.00  0.00    -0.268 OA
HETATM    6  N3  UNL     1     -11.338  -4.928  41.871  1.00  0.00    -0.275 N 
ATOM      7  H3  UNL     1     -10.842  -4.187  42.365  1.00  0.00     0.173 HD
HETATM    8  C5  UNL     1     -12.491  -4.533  41.294  1.00  0.00     0.328 C 
HETATM    9  O3  UNL     1     -12.756  -3.298  41.279  1.00  0.00    -0.247 OA
HETATM   10  N4  UNL     1     -13.441  -5.313  40.706  1.00  0.00    -0.293 N 
ATOM     11  H4  UNL     1     -14.274  -4.826  40.372  1.00  0.00     0.172 HD
ENDROOT
BRANCH   1  12
HETATM   12  N2  UNL     1     -14.554  -7.239  40.313  1.00  0.00    -0.266 N 
ATOM     13  H2  UNL     1     -14.792  -8.060  40.869  1.00  0.00     0.190 HD
BRANCH  12  14
HETATM   14  N1  UNL     1     -15.454  -6.774  39.353  1.00  0.00    -0.209 N 
ATOM     15  H1  UNL     1     -16.460  -6.811  39.519  1.00  0.00     0.215 HD
BRANCH  14  16
HETATM   16  O1  UNL     1     -14.995  -6.305  38.272  1.00  0.00    -0.274 OA
ATOM     17  H1  UNL     1     -14.161  -5.852  38.291  1.00  0.00     0.246 HD
ENDBRANCH  14  16
ENDBRANCH  12  14
ENDBRANCH   1  12
TORSDOF 3
ENDMDL
MODEL 4
REMARK VINA RESULT: -5.460530857      2.167      4.719
REMARK  3 active torsions:
REMARK  status: ('A' for Active; 'I' for Inactive)
REMARK    1  A    between atoms: O1_1  and  N1_3 
REMARK    2  A    between atoms: N1_3  and  N2_5 
REMARK    3  A    between atoms: N2_5  and  C1_7 
ROOT
HETATM    1  C1  UNL     1     -12.386  -3.802  41.134  1.00  0.00     0.125 C 
HETATM    2  C2  UNL     1     -11.729  -3.290  42.251  1.00  0.00     0.055 C 
HETATM    3  C3  UNL     1     -10.729  -3.941  42.971  1.00  0.00     0.078 C 
HETATM    4  C4  UNL     1     -10.144  -5.185  42.732  1.00  0.00     0.249 C 
HETATM    5  O2  UNL     1      -9.001  -5.374  43.219  1.00  0.00    -0.268 OA
HETATM    6  N3  UNL     1     -10.728  -6.165  42.026  1.00  0.00    -0.275 N 
ATOM      7  H3  UNL     1     -10.267  -7.071  42.105  1.00  0.00     0.173 HD
HETATM    8  C5  UNL     1     -11.816  -6.168  41.230  1.00  0.00     0.328 C 
HETATM    9  O3  UNL     1     -12.242  -7.278  40.806  1.00  0.00    -0.247 OA
HETATM   10  N4  UNL     1     -12.545  -5.096  40.807  1.00  0.00    -0.293 N 
ATOM     11  H4  UNL     1     -13.306  -5.301  40.160  1.00  0.00     0.172 HD
ENDROOT
BRANCH   1  12
HETATM   12  N2  UNL     1     -12.893  -2.914  40.336  1.00  0.00    -0.266 N 
ATOM     13  H2  UNL     1     -12.415  -2.022  40.208  1.00  0.00     0.190 HD
BRANCH  12  14
HETATM   14  N1  UNL     1     -14.084  -3.161  39.652  1.00  0.00    -0.209 N 
ATOM     15  H1  UNL     1     -14.985  -2.943  40.077  1.00  0.00     0.215 HD
BRANCH  14  16
HETATM   16  O1  UNL     1     -14.022  -3.661  38.493  1.00  0.00    -0.274 OA
ATOM     17  H1  UNL     1     -14.830  -3.795  38.012  1.00  0.00     0.246 HD
ENDBRANCH  14  16
ENDBRANCH  12  14
ENDBRANCH   1  12
TORSDOF 3
ENDMDL
MODEL 5
REMARK VINA RESULT: -5.359611926      1.226      2.457
REMARK  3 active torsions:
REMARK  status: ('A' for Active; 'I' for Inactive)
REMARK    1  A    between atoms: O1_1  and  N1_3 
REMARK    2  A    between atoms: N1_3  and  N2_5 
REMARK    3  A    between atoms: N2_5  and  C1_7 
ROOT
HETATM    1  C1  UNL     1     -11.031  -5.880  41.057  1.00  0.00     0.125 C 
HETATM    2  C2  UNL     1     -11.526  -4.588  40.899  1.00  0.00     0.055 C 
HETATM    3  C3  UNL     1     -12.874  -4.244  40.807  1.00  0.00     0.078 C 
HETATM    4  C4  UNL     1     -13.998  -5.067  40.891  1.00  0.00     0.249 C 
HETATM    5  O2  UNL     1     -15.078  -4.514  41.216  1.00  0.00    -0.268 OA
HETATM    6  N3  UNL     1     -13.980  -6.386  40.645  1.00  0.00    -0.275 N 
ATOM      7  H3  UNL     1     -14.905  -6.807  40.556  1.00  0.00     0.173 HD
HETATM    8  C5  UNL     1     -12.961  -7.255  40.496  1.00  0.00     0.328 C 
HETATM    9  O3  UNL     1     -13.229  -8.428  40.112  1.00  0.00    -0.247 OA
HETATM   10  N4  UNL     1     -11.633  -7.030  40.711  1.00  0.00    -0.293 N 
ATOM     11  H4  UNL     1     -11.020  -7.837  40.593  1.00  0.00     0.172 HD
ENDROOT
BRANCH   1  12
HETATM   12  N2  UNL     1      -9.856  -5.958  41.601  1.00  0.00    -0.266 N 
ATOM     13  H2  UNL     1      -9.238  -6.731  41.355  1.00  0.00     0.190 HD
BRANCH  12  14
HETATM   14  N1  UNL     1      -9.425  -4.999  42.519  1.00  0.00    -0.209 N 
ATOM     15  H1  UNL     1      -9.876  -4.085  42.568  1.00  0.00     0.215 HD
BRANCH  14  16
HETATM   16  O1  UNL     1      -8.466  -5.287  43.289  1.00  0.00    -0.274 OA
ATOM     17  H1  UNL     1      -8.640  -5.829  44.049  1.00  0.00     0.246 HD
ENDBRANCH  14  16
ENDBRANCH  12  14
ENDBRANCH   1  12
TORSDOF 3
ENDMDL
