MODEL 1
REMARK VINA RESULT: -5.910908214      0.000      0.000
REMARK  0 active torsions:
REMARK  status: ('A' for Active; 'I' for Inactive)
REMARK       I    between atoms: C1_2  and  N2_4 
ROOT
HETATM    1  N1  UNL     1     -15.716  -5.846  40.084  1.00  0.00    -0.039 NA
HETATM    2  C1  UNL     1     -14.448  -6.333  40.461  1.00  0.00     0.341 C 
HETATM    3  O1  UNL     1     -14.252  -7.573  40.458  1.00  0.00    -0.250 OA
HETATM    4  N2  UNL     1     -13.405  -5.442  40.838  1.00  0.00    -0.246 N 
HETATM    5  C2  UNL     1     -13.515  -4.090  40.874  1.00  0.00     0.195 A 
HETATM    6  N3  UNL     1     -12.320  -3.641  41.276  1.00  0.00    -0.344 N 
ATOM      7  H3  UNL     1     -12.082  -2.657  41.403  1.00  0.00     0.167 HD
HETATM    8  C3  UNL     1     -11.486  -4.658  41.488  1.00  0.00     0.147 A 
HETATM    9  C4  UNL     1     -10.171  -4.769  41.899  1.00  0.00     0.277 A 
HETATM   10  O2  UNL     1      -9.557  -3.716  42.149  1.00  0.00    -0.266 OA
HETATM   11  N4  UNL     1      -9.545  -5.947  42.036  1.00  0.00    -0.318 N 
ATOM     12  H4  UNL     1      -8.574  -6.003  42.342  1.00  0.00     0.169 HD
HETATM   13  C5  UNL     1     -10.259  -7.052  41.752  1.00  0.00     0.185 A 
HETATM   14  N5  UNL     1     -11.541  -7.018  41.346  1.00  0.00    -0.336 N 
ATOM     15  H5  UNL     1     -12.039  -7.885  41.142  1.00  0.00     0.168 HD
HETATM   16  C6  UNL     1     -12.170  -5.820  41.210  1.00  0.00     0.150 A 
ENDROOT
TORSDOF 0
ENDMDL
MODEL 2
REMARK VINA RESULT: -5.538553257      1.556      2.443
REMARK  0 active torsions:
REMARK  status: ('A' for Active; 'I' for Inactive)
REMARK       I    between atoms: C1_2  and  N2_4 
ROOT
HETATM    1  N1  UNL     1     -15.258  -7.111  39.164  1.00  0.00    -0.039 NA
HETATM    2  C1  UNL     1     -14.582  -6.136  39.926  1.00  0.00     0.341 C 
HETATM    3  O1  UNL     1     -15.128  -5.019  40.099  1.00  0.00    -0.250 OA
HETATM    4  N2  UNL     1     -13.304  -6.406  40.490  1.00  0.00    -0.246 N 
HETATM    5  C2  UNL     1     -12.632  -7.577  40.361  1.00  0.00     0.195 A 
HETATM    6  N3  UNL     1     -11.487  -7.412  41.034  1.00  0.00    -0.344 N 
ATOM      7  H3  UNL     1     -10.759  -8.121  41.126  1.00  0.00     0.167 HD
HETATM    8  C3  UNL     1     -11.430  -6.193  41.568  1.00  0.00     0.147 A 
HETATM    9  C4  UNL     1     -10.510  -5.509  42.339  1.00  0.00     0.277 A 
HETATM   10  O2  UNL     1      -9.462  -6.106  42.645  1.00  0.00    -0.266 OA
HETATM   11  N4  UNL     1     -10.699  -4.249  42.759  1.00  0.00    -0.318 N 
ATOM     12  H4  UNL     1     -10.003  -3.765  43.327  1.00  0.00     0.169 HD
HETATM   13  C5  UNL     1     -11.851  -3.654  42.397  1.00  0.00     0.185 A 
HETATM   14  N5  UNL     1     -12.791  -4.260  41.650  1.00  0.00    -0.336 N 
ATOM     15  H5  UNL     1     -13.648  -3.765  41.402  1.00  0.00     0.168 HD
HETATM   16  C6  UNL     1     -12.592  -5.537  41.227  1.00  0.00     0.150 A 
ENDROOT
TORSDOF 0
ENDMDL
MODEL 3
REMARK VINA RESULT: -5.488925527      1.864      2.070
REMARK  0 active torsions:
REMARK  status: ('A' for Active; 'I' for Inactive)
REMARK       I    between atoms: C1_2  and  N2_4 
ROOT
HETATM    1  N1  UNL     1     -14.197  -2.315  39.841  1.00  0.00    -0.039 NA
HETATM    2  C1  UNL     1     -13.606  -3.575  40.064  1.00  0.00     0.341 C 
HETATM    3  O1  UNL     1     -14.111  -4.586  39.517  1.00  0.00    -0.250 OA
HETATM    4  N2  UNL     1     -12.457  -3.707  40.893  1.00  0.00    -0.246 N 
HETATM    5  C2  UNL     1     -11.837  -2.680  41.528  1.00  0.00     0.195 A 
HETATM    6  N3  UNL     1     -10.814  -3.231  42.192  1.00  0.00    -0.344 N 
ATOM      7  H3  UNL     1     -10.152  -2.715  42.771  1.00  0.00     0.167 HD
HETATM    8  C3  UNL     1     -10.782  -4.548  41.992  1.00  0.00     0.147 A 
HETATM    9  C4  UNL     1      -9.966  -5.578  42.420  1.00  0.00     0.277 A 
HETATM   10  O2  UNL     1      -9.020  -5.286  43.172  1.00  0.00    -0.266 OA
HETATM   11  N4  UNL     1     -10.155  -6.857  42.062  1.00  0.00    -0.318 N 
ATOM     12  H4  UNL     1      -9.539  -7.600  42.392  1.00  0.00     0.169 HD
HETATM   13  C5  UNL     1     -11.195  -7.113  41.247  1.00  0.00     0.185 A 
HETATM   14  N5  UNL     1     -12.028  -6.160  40.792  1.00  0.00    -0.336 N 
ATOM     15  H5  UNL     1     -12.802  -6.407  40.175  1.00  0.00     0.168 HD
HETATM   16  C6  UNL     1     -11.831  -4.866  41.159  1.00  0.00     0.150 A 
ENDROOT
TORSDOF 0
ENDMDL
MODEL 4
REMARK VINA RESULT: -5.468796961      0.941      4.714
REMARK  0 active torsions:
REMARK  status: ('A' for Active; 'I' for Inactive)
REMARK       I    between atoms: C1_2  and  N2_4 
ROOT
HETATM    1  N1  UNL     1      -8.785  -5.334  43.066  1.00  0.00    -0.039 NA
HETATM    2  C1  UNL     1     -10.063  -4.922  42.635  1.00  0.00     0.341 C 
HETATM    3  O1  UNL     1     -10.446  -3.757  42.906  1.00  0.00    -0.250 OA
HETATM    4  N2  UNL     1     -10.909  -5.804  41.907  1.00  0.00    -0.246 N 
HETATM    5  C2  UNL     1     -10.590  -7.078  41.565  1.00  0.00     0.195 A 
HETATM    6  N3  UNL     1     -11.650  -7.549  40.897  1.00  0.00    -0.344 N 
ATOM      7  H3  UNL     1     -11.719  -8.488  40.505  1.00  0.00     0.167 HD
HETATM    8  C3  UNL     1     -12.601  -6.620  40.815  1.00  0.00     0.147 A 
HETATM    9  C4  UNL     1     -13.863  -6.565  40.255  1.00  0.00     0.277 A 
HETATM   10  O2  UNL     1     -14.277  -7.584  39.674  1.00  0.00    -0.266 OA
HETATM   11  N4  UNL     1     -14.643  -5.475  40.314  1.00  0.00    -0.318 N 
ATOM     12  H4  UNL     1     -15.572  -5.460  39.893  1.00  0.00     0.169 HD
HETATM   13  C5  UNL     1     -14.142  -4.403  40.956  1.00  0.00     0.185 A 
HETATM   14  N5  UNL     1     -12.923  -4.386  41.523  1.00  0.00    -0.336 N 
ATOM     15  H5  UNL     1     -12.589  -3.547  41.998  1.00  0.00     0.168 HD
HETATM   16  C6  UNL     1     -12.138  -5.495  41.460  1.00  0.00     0.150 A 
ENDROOT
TORSDOF 0
ENDMDL
MODEL 5
REMARK VINA RESULT: -5.445881405      1.683      4.091
REMARK  0 active torsions:
REMARK  status: ('A' for Active; 'I' for Inactive)
REMARK       I    between atoms: C1_2  and  N2_4 
ROOT
HETATM    1  N1  UNL     1      -9.449  -4.792  43.156  1.00  0.00    -0.039 NA
HETATM    2  C1  UNL     1     -10.237  -5.678  42.394  1.00  0.00     0.341 C 
HETATM    3  O1  UNL     1      -9.800  -6.833  42.167  1.00  0.00    -0.250 OA
HETATM    4  N2  UNL     1     -11.505  -5.279  41.889  1.00  0.00    -0.246 N 
HETATM    5  C2  UNL     1     -12.065  -4.057  42.078  1.00  0.00     0.195 A 
HETATM    6  N3  UNL     1     -13.244  -4.099  41.445  1.00  0.00    -0.344 N 
ATOM      7  H3  UNL     1     -13.908  -3.325  41.403  1.00  0.00     0.167 HD
HETATM    8  C3  UNL     1     -13.429  -5.290  40.878  1.00  0.00     0.147 A 
HETATM    9  C4  UNL     1     -14.435  -5.865  40.125  1.00  0.00     0.277 A 
HETATM   10  O2  UNL     1     -15.435  -5.168  39.877  1.00  0.00    -0.266 OA
HETATM   11  N4  UNL     1     -14.374  -7.122  39.661  1.00  0.00    -0.318 N 
ATOM     12  H4  UNL     1     -15.129  -7.523  39.106  1.00  0.00     0.169 HD
HETATM   13  C5  UNL     1     -13.267  -7.828  39.960  1.00  0.00     0.185 A 
HETATM   14  N5  UNL     1     -12.251  -7.332  40.688  1.00  0.00    -0.336 N 
ATOM     15  H5  UNL     1     -11.434  -7.909  40.888  1.00  0.00     0.168 HD
HETATM   16  C6  UNL     1     -12.319  -6.057  41.156  1.00  0.00     0.150 A 
ENDROOT
TORSDOF 0
ENDMDL
