MODEL 1
REMARK VINA RESULT: -6.745838775      0.000      0.000
REMARK  9 active torsions:
REMARK  status: ('A' for Active; 'I' for Inactive)
REMARK    1  A    between atoms: C2_2  and  C3_3 
REMARK    2  A    between atoms: C3_3  and  C4_4 
REMARK    3  A    between atoms: C4_4  and  N1_5 
REMARK    4  A    between atoms: C6_10  and  N4_11 
REMARK    5  A    between atoms: C9_14  and  N5_15 
REMARK    6  A    between atoms: N5_15  and  C10_17 
REMARK    7  A    between atoms: C11_20  and  N7_21 
REMARK    8  A    between atoms: C12_26  and  N9_27 
REMARK    9  A    between atoms: N9_27  and  C13_29 
ROOT
HETATM    1  N4  UNL     1      -8.151  47.494 -12.213  1.00  0.00    -0.365 N 
HETATM    2  C7  UNL     1      -7.654  48.730 -12.847  1.00  0.00     0.126 C 
HETATM    3  C8  UNL     1      -6.733  49.473 -11.909  1.00  0.00     0.045 C 
HETATM    4  C9  UNL     1      -5.823  48.527 -11.156  1.00  0.00     0.102 C 
HETATM    5  C16 UNL     1      -5.735  47.256 -11.974  1.00  0.00     0.045 C 
HETATM    6  C17 UNL     1      -7.124  46.591 -11.824  1.00  0.00     0.126 C 
ENDROOT
BRANCH   4   7
HETATM    7  N5  UNL     1      -4.620  49.051 -10.687  1.00  0.00    -0.220 N 
ATOM      8  H5  UNL     1      -4.178  49.667 -11.370  1.00  0.00     0.178 HD
BRANCH   7   9
HETATM    9  C10 UNL     1      -3.942  48.955  -9.632  1.00  0.00     0.707 A 
HETATM   10  N6  UNL     1      -4.301  49.483  -8.462  1.00  0.00    -0.022 N 
HETATM   11  C11 UNL     1      -3.534  49.348  -7.366  1.00  0.00     0.705 A 
ATOM     12  H6  UNL     1      -5.176  50.002  -8.397  1.00  0.00     0.203 HD
HETATM   13  N8  UNL     1      -2.389  48.680  -7.409  1.00  0.00    -0.022 N 
HETATM   14  C12 UNL     1      -1.979  48.129  -8.556  1.00  0.00     0.707 A 
ATOM     15  H8  UNL     1      -1.821  48.587  -6.567  1.00  0.00     0.203 HD
HETATM   16  N10 UNL     1      -2.752  48.273  -9.631  1.00  0.00    -0.021 N 
ATOM     17  H10 UNL     1      -2.440  47.852 -10.507  1.00  0.00     0.203 HD
BRANCH  11  18
HETATM   18  N7  UNL     1      -3.906  49.874  -6.237  1.00  0.00    -0.234 N 
ATOM     19  H72 UNL     1      -4.645  50.576  -6.246  1.00  0.00     0.174 HD
ATOM     20  H71 UNL     1      -3.463  49.585  -5.365  1.00  0.00     0.174 HD
ENDBRANCH  11  18
BRANCH  14  21
HETATM   21  N9  UNL     1      -0.855  47.465  -8.625  1.00  0.00    -0.221 N 
ATOM     22  H9  UNL     1      -0.620  46.790  -7.898  1.00  0.00     0.178 HD
BRANCH  21  23
HETATM   23  C13 UNL     1       0.047  47.681  -9.716  1.00  0.00     0.091 C 
HETATM   24  C14 UNL     1       1.424  48.122  -9.205  1.00  0.00     0.032 C 
HETATM   25  C15 UNL     1       0.288  46.426 -10.543  1.00  0.00     0.032 C 
ENDBRANCH  21  23
ENDBRANCH  14  21
ENDBRANCH   7   9
ENDBRANCH   4   7
BRANCH   1  26
HETATM   26  C6  UNL     1      -9.546  47.366 -12.068  1.00  0.00     0.136 A 
HETATM   27  C5  UNL     1     -10.117  46.697 -11.015  1.00  0.00     0.135 A 
HETATM   28  N3  UNL     1      -9.604  46.008  -9.895  1.00  0.00    -0.277 N 
HETATM   29  C19 UNL     1     -11.495  46.624 -10.944  1.00  0.00     0.153 A 
HETATM   30  N2  UNL     1     -10.633  45.917  -8.942  1.00  0.00    -0.018 NA
ATOM     31  H3  UNL     1      -8.657  45.642  -9.795  1.00  0.00     0.184 HD
HETATM   32  N1  UNL     1     -11.786  45.871  -9.749  1.00  0.00    -0.258 N 
HETATM   33  N12 UNL     1     -12.293  47.184 -11.870  1.00  0.00    -0.336 N 
HETATM   34  C18 UNL     1     -11.730  47.837 -12.897  1.00  0.00     0.183 A 
ATOM     35  H12 UNL     1     -13.308  47.114 -11.793  1.00  0.00     0.168 HD
HETATM   36  N11 UNL     1     -10.404  47.912 -12.973  1.00  0.00    -0.337 N 
ATOM     37  H11 UNL     1     -10.001  48.415 -13.764  1.00  0.00     0.168 HD
BRANCH  32  38
HETATM   38  C4  UNL     1     -13.037  45.235  -9.517  1.00  0.00     0.148 C 
BRANCH  38  39
HETATM   39  C3  UNL     1     -13.466  45.138  -8.081  1.00  0.00     0.021 C 
BRANCH  39  40
HETATM   40  C2  UNL     1     -13.067  43.841  -7.434  1.00  0.00    -0.003 C 
HETATM   41  C1  UNL     1     -12.696  44.082  -5.989  1.00  0.00     0.005 C 
ENDBRANCH  39  40
ENDBRANCH  38  39
ENDBRANCH  32  38
ENDBRANCH   1  26
TORSDOF 9
ENDMDL
MODEL 2
REMARK VINA RESULT: -6.725295001      4.434      8.675
REMARK  9 active torsions:
REMARK  status: ('A' for Active; 'I' for Inactive)
REMARK    1  A    between atoms: C2_2  and  C3_3 
REMARK    2  A    between atoms: C3_3  and  C4_4 
REMARK    3  A    between atoms: C4_4  and  N1_5 
REMARK    4  A    between atoms: C6_10  and  N4_11 
REMARK    5  A    between atoms: C9_14  and  N5_15 
REMARK    6  A    between atoms: N5_15  and  C10_17 
REMARK    7  A    between atoms: C11_20  and  N7_21 
REMARK    8  A    between atoms: C12_26  and  N9_27 
REMARK    9  A    between atoms: N9_27  and  C13_29 
ROOT
HETATM    1  N4  UNL     1      -5.364  47.808 -12.100  1.00  0.00    -0.365 N 
HETATM    2  C7  UNL     1      -6.637  48.498 -11.822  1.00  0.00     0.126 C 
HETATM    3  C8  UNL     1      -6.541  49.958 -12.199  1.00  0.00     0.045 C 
HETATM    4  C9  UNL     1      -5.781  50.151 -13.493  1.00  0.00     0.102 C 
HETATM    5  C16 UNL     1      -5.864  48.843 -14.252  1.00  0.00     0.045 C 
HETATM    6  C17 UNL     1      -4.959  47.868 -13.462  1.00  0.00     0.126 C 
ENDROOT
BRANCH   4   7
HETATM    7  N5  UNL     1      -6.054  51.310 -14.217  1.00  0.00    -0.220 N 
ATOM      8  H5  UNL     1      -5.924  51.175 -15.220  1.00  0.00     0.178 HD
BRANCH   7   9
HETATM    9  C10 UNL     1      -6.420  52.482 -13.942  1.00  0.00     0.707 A 
HETATM   10  N6  UNL     1      -7.612  52.986 -14.260  1.00  0.00    -0.022 N 
HETATM   11  C11 UNL     1      -7.948  54.247 -13.940  1.00  0.00     0.705 A 
ATOM     12  H6  UNL     1      -8.284  52.402 -14.756  1.00  0.00     0.203 HD
HETATM   13  N8  UNL     1      -7.103  55.039 -13.294  1.00  0.00    -0.022 N 
HETATM   14  C12 UNL     1      -5.893  54.587 -12.950  1.00  0.00     0.707 A 
ATOM     15  H8  UNL     1      -7.376  55.994 -13.059  1.00  0.00     0.203 HD
HETATM   16  N10 UNL     1      -5.578  53.334 -13.275  1.00  0.00    -0.021 N 
ATOM     17  H10 UNL     1      -4.654  52.988 -13.012  1.00  0.00     0.203 HD
BRANCH  11  18
HETATM   18  N7  UNL     1      -9.117  54.716 -14.262  1.00  0.00    -0.234 N 
ATOM     19  H72 UNL     1      -9.174  55.647 -14.674  1.00  0.00     0.174 HD
ATOM     20  H71 UNL     1      -9.956  54.157 -14.103  1.00  0.00     0.174 HD
ENDBRANCH  11  18
BRANCH  14  21
HETATM   21  N9  UNL     1      -5.041  55.346 -12.313  1.00  0.00    -0.221 N 
ATOM     22  H9  UNL     1      -4.473  54.951 -11.564  1.00  0.00     0.178 HD
BRANCH  21  23
HETATM   23  C13 UNL     1      -4.903  56.728 -12.660  1.00  0.00     0.091 C 
HETATM   24  C14 UNL     1      -4.277  57.520 -11.505  1.00  0.00     0.032 C 
HETATM   25  C15 UNL     1      -3.994  56.949 -13.862  1.00  0.00     0.032 C 
ENDBRANCH  21  23
ENDBRANCH  14  21
ENDBRANCH   7   9
ENDBRANCH   4   7
BRANCH   1  26
HETATM   26  C6  UNL     1      -4.718  47.194 -11.010  1.00  0.00     0.136 A 
HETATM   27  C5  UNL     1      -3.935  47.896 -10.129  1.00  0.00     0.135 A 
HETATM   28  N3  UNL     1      -3.553  49.251 -10.020  1.00  0.00    -0.277 N 
HETATM   29  C19 UNL     1      -3.342  47.218  -9.081  1.00  0.00     0.153 A 
HETATM   30  N2  UNL     1      -3.122  49.467  -8.699  1.00  0.00    -0.018 NA
ATOM     31  H3  UNL     1      -3.584  49.947 -10.765  1.00  0.00     0.184 HD
HETATM   32  N1  UNL     1      -2.597  48.210  -8.345  1.00  0.00    -0.258 N 
HETATM   33  N12 UNL     1      -3.506  45.897  -8.896  1.00  0.00    -0.336 N 
HETATM   34  C18 UNL     1      -4.272  45.215  -9.760  1.00  0.00     0.183 A 
ATOM     35  H12 UNL     1      -3.056  45.421  -8.113  1.00  0.00     0.168 HD
HETATM   36  N11 UNL     1      -4.847  45.860 -10.772  1.00  0.00    -0.337 N 
ATOM     37  H11 UNL     1      -5.424  45.317 -11.414  1.00  0.00     0.168 HD
BRANCH  32  38
HETATM   38  C4  UNL     1      -1.542  47.881  -7.449  1.00  0.00     0.148 C 
BRANCH  38  39
HETATM   39  C3  UNL     1      -0.327  47.255  -8.073  1.00  0.00     0.021 C 
BRANCH  39  40
HETATM   40  C2  UNL     1       0.061  47.897  -9.377  1.00  0.00    -0.003 C 
HETATM   41  C1  UNL     1       1.530  48.251  -9.357  1.00  0.00     0.005 C 
ENDBRANCH  39  40
ENDBRANCH  38  39
ENDBRANCH  32  38
ENDBRANCH   1  26
TORSDOF 9
ENDMDL
MODEL 3
REMARK VINA RESULT: -6.720038757      4.665      8.275
REMARK  9 active torsions:
REMARK  status: ('A' for Active; 'I' for Inactive)
REMARK    1  A    between atoms: C2_2  and  C3_3 
REMARK    2  A    between atoms: C3_3  and  C4_4 
REMARK    3  A    between atoms: C4_4  and  N1_5 
REMARK    4  A    between atoms: C6_10  and  N4_11 
REMARK    5  A    between atoms: C9_14  and  N5_15 
REMARK    6  A    between atoms: N5_15  and  C10_17 
REMARK    7  A    between atoms: C11_20  and  N7_21 
REMARK    8  A    between atoms: C12_26  and  N9_27 
REMARK    9  A    between atoms: N9_27  and  C13_29 
ROOT
HETATM    1  N4  UNL     1      -5.009  48.415 -12.216  1.00  0.00    -0.365 N 
HETATM    2  C7  UNL     1      -6.389  48.902 -12.029  1.00  0.00     0.126 C 
HETATM    3  C8  UNL     1      -6.417  50.412 -11.988  1.00  0.00     0.045 C 
HETATM    4  C9  UNL     1      -5.477  51.014 -13.011  1.00  0.00     0.102 C 
HETATM    5  C16 UNL     1      -5.262  49.967 -14.082  1.00  0.00     0.045 C 
HETATM    6  C17 UNL     1      -4.388  48.883 -13.407  1.00  0.00     0.126 C 
ENDROOT
BRANCH   4   7
HETATM    7  N5  UNL     1      -5.768  52.305 -13.450  1.00  0.00    -0.220 N 
ATOM      8  H5  UNL     1      -6.724  52.384 -13.797  1.00  0.00     0.178 HD
BRANCH   7   9
HETATM    9  C10 UNL     1      -5.147  53.396 -13.524  1.00  0.00     0.707 A 
HETATM   10  N6  UNL     1      -5.602  54.550 -13.035  1.00  0.00    -0.022 N 
HETATM   11  C11 UNL     1      -4.892  55.686 -13.145  1.00  0.00     0.705 A 
ATOM     12  H6  UNL     1      -6.508  54.571 -12.568  1.00  0.00     0.203 HD
HETATM   13  N8  UNL     1      -3.709  55.701 -13.745  1.00  0.00    -0.022 N 
HETATM   14  C12 UNL     1      -3.204  54.573 -14.254  1.00  0.00     0.707 A 
ATOM     15  H8  UNL     1      -3.185  56.573 -13.818  1.00  0.00     0.203 HD
HETATM   16  N10 UNL     1      -3.921  53.456 -14.136  1.00  0.00    -0.021 N 
ATOM     17  H10 UNL     1      -3.535  52.595 -14.523  1.00  0.00     0.203 HD
BRANCH  11  18
HETATM   18  N7  UNL     1      -5.358  56.799 -12.661  1.00  0.00    -0.234 N 
ATOM     19  H72 UNL     1      -6.035  57.325 -13.212  1.00  0.00     0.174 HD
ATOM     20  H71 UNL     1      -5.049  57.131 -11.747  1.00  0.00     0.174 HD
ENDBRANCH  11  18
BRANCH  14  21
HETATM   21  N9  UNL     1      -2.041  54.559 -14.849  1.00  0.00    -0.221 N 
ATOM     22  H9  UNL     1      -1.860  55.199 -15.622  1.00  0.00     0.178 HD
BRANCH  21  23
HETATM   23  C13 UNL     1      -1.019  53.652 -14.422  1.00  0.00     0.091 C 
HETATM   24  C14 UNL     1      -0.365  52.961 -15.625  1.00  0.00     0.032 C 
HETATM   25  C15 UNL     1       0.110  54.342 -13.669  1.00  0.00     0.032 C 
ENDBRANCH  21  23
ENDBRANCH  14  21
ENDBRANCH   7   9
ENDBRANCH   4   7
BRANCH   1  26
HETATM   26  C6  UNL     1      -4.487  47.574 -11.215  1.00  0.00     0.136 A 
HETATM   27  C5  UNL     1      -3.712  48.048 -10.187  1.00  0.00     0.135 A 
HETATM   28  N3  UNL     1      -3.233  49.327  -9.827  1.00  0.00    -0.277 N 
HETATM   29  C19 UNL     1      -3.244  47.155  -9.242  1.00  0.00     0.153 A 
HETATM   30  N2  UNL     1      -2.875  49.281  -8.469  1.00  0.00    -0.018 NA
ATOM     31  H3  UNL     1      -3.161  50.138 -10.442  1.00  0.00     0.184 HD
HETATM   32  N1  UNL     1      -2.474  47.942  -8.309  1.00  0.00    -0.258 N 
HETATM   33  N12 UNL     1      -3.522  45.842  -9.295  1.00  0.00    -0.336 N 
HETATM   34  C18 UNL     1      -4.280  45.383 -10.302  1.00  0.00     0.183 A 
ATOM     35  H12 UNL     1      -3.163  45.205  -8.583  1.00  0.00     0.168 HD
HETATM   36  N11 UNL     1      -4.735  46.236 -11.216  1.00  0.00    -0.337 N 
ATOM     37  H11 UNL     1      -5.309  45.860 -11.971  1.00  0.00     0.168 HD
BRANCH  32  38
HETATM   38  C4  UNL     1      -1.509  47.376  -7.429  1.00  0.00     0.148 C 
BRANCH  38  39
HETATM   39  C3  UNL     1      -0.182  47.039  -8.046  1.00  0.00     0.021 C 
BRANCH  39  40
HETATM   40  C2  UNL     1       0.112  47.840  -9.284  1.00  0.00    -0.003 C 
HETATM   41  C1  UNL     1       1.558  48.281  -9.278  1.00  0.00     0.005 C 
ENDBRANCH  39  40
ENDBRANCH  38  39
ENDBRANCH  32  38
ENDBRANCH   1  26
TORSDOF 9
ENDMDL
MODEL 4
REMARK VINA RESULT: -6.621513175      4.466      9.090
REMARK  9 active torsions:
REMARK  status: ('A' for Active; 'I' for Inactive)
REMARK    1  A    between atoms: C2_2  and  C3_3 
REMARK    2  A    between atoms: C3_3  and  C4_4 
REMARK    3  A    between atoms: C4_4  and  N1_5 
REMARK    4  A    between atoms: C6_10  and  N4_11 
REMARK    5  A    between atoms: C9_14  and  N5_15 
REMARK    6  A    between atoms: N5_15  and  C10_17 
REMARK    7  A    between atoms: C11_20  and  N7_21 
REMARK    8  A    between atoms: C12_26  and  N9_27 
REMARK    9  A    between atoms: N9_27  and  C13_29 
ROOT
HETATM    1  N4  UNL     1      -5.333  47.985 -12.145  1.00  0.00    -0.365 N 
HETATM    2  C7  UNL     1      -6.603  48.680 -11.861  1.00  0.00     0.126 C 
HETATM    3  C8  UNL     1      -6.481  50.153 -12.172  1.00  0.00     0.045 C 
HETATM    4  C9  UNL     1      -5.693  50.392 -13.442  1.00  0.00     0.102 C 
HETATM    5  C16 UNL     1      -5.778  49.119 -14.259  1.00  0.00     0.045 C 
HETATM    6  C17 UNL     1      -4.900  48.099 -13.495  1.00  0.00     0.126 C 
ENDROOT
BRANCH   4   7
HETATM    7  N5  UNL     1      -5.938  51.585 -14.120  1.00  0.00    -0.220 N 
ATOM      8  H5  UNL     1      -5.856  51.474 -15.131  1.00  0.00     0.178 HD
BRANCH   7   9
HETATM    9  C10 UNL     1      -6.234  52.764 -13.796  1.00  0.00     0.707 A 
HETATM   10  N6  UNL     1      -5.383  53.620 -13.232  1.00  0.00    -0.022 N 
HETATM   11  C11 UNL     1      -5.757  54.870 -12.907  1.00  0.00     0.705 A 
ATOM     12  H6  UNL     1      -4.427  53.321 -13.041  1.00  0.00     0.203 HD
HETATM   13  N8  UNL     1      -6.991  55.298 -13.139  1.00  0.00    -0.022 N 
HETATM   14  C12 UNL     1      -7.887  54.482 -13.703  1.00  0.00     0.707 A 
ATOM     15  H8  UNL     1      -7.256  56.250 -12.886  1.00  0.00     0.203 HD
HETATM   16  N10 UNL     1      -7.498  53.247 -14.018  1.00  0.00    -0.021 N 
ATOM     17  H10 UNL     1      -8.181  52.624 -14.450  1.00  0.00     0.203 HD
BRANCH  11  18
HETATM   18  N7  UNL     1      -4.908  55.685 -12.356  1.00  0.00    -0.234 N 
ATOM     19  H72 UNL     1      -4.153  55.297 -11.792  1.00  0.00     0.174 HD
ATOM     20  H71 UNL     1      -5.002  56.692 -12.491  1.00  0.00     0.174 HD
ENDBRANCH  11  18
BRANCH  14  21
HETATM   21  N9  UNL     1      -9.108  54.879 -13.943  1.00  0.00    -0.221 N 
ATOM     22  H9  UNL     1      -9.289  55.857 -14.166  1.00  0.00     0.178 HD
BRANCH  21  23
HETATM   23  C13 UNL     1     -10.195  53.947 -13.893  1.00  0.00     0.091 C 
HETATM   24  C14 UNL     1     -11.318  54.468 -12.988  1.00  0.00     0.032 C 
HETATM   25  C15 UNL     1     -10.831  53.706 -15.255  1.00  0.00     0.032 C 
ENDBRANCH  21  23
ENDBRANCH  14  21
ENDBRANCH   7   9
ENDBRANCH   4   7
BRANCH   1  26
HETATM   26  C6  UNL     1      -4.716  47.316 -11.070  1.00  0.00     0.136 A 
HETATM   27  C5  UNL     1      -3.890  47.957 -10.182  1.00  0.00     0.135 A 
HETATM   28  N3  UNL     1      -3.431  49.286 -10.051  1.00  0.00    -0.277 N 
HETATM   29  C19 UNL     1      -3.330  47.228  -9.151  1.00  0.00     0.153 A 
HETATM   30  N2  UNL     1      -2.981  49.453  -8.730  1.00  0.00    -0.018 NA
ATOM     31  H3  UNL     1      -3.428  49.997 -10.784  1.00  0.00     0.184 HD
HETATM   32  N1  UNL     1      -2.526  48.163  -8.403  1.00  0.00    -0.258 N 
HETATM   33  N12 UNL     1      -3.567  45.915  -8.989  1.00  0.00    -0.336 N 
HETATM   34  C18 UNL     1      -4.375  45.293  -9.859  1.00  0.00     0.183 A 
ATOM     35  H12 UNL     1      -3.139  45.401  -8.217  1.00  0.00     0.168 HD
HETATM   36  N11 UNL     1      -4.918  45.987 -10.855  1.00  0.00    -0.337 N 
ATOM     37  H11 UNL     1      -5.530  45.490 -11.502  1.00  0.00     0.168 HD
BRANCH  32  38
HETATM   38  C4  UNL     1      -1.485  47.759  -7.520  1.00  0.00     0.148 C 
BRANCH  38  39
HETATM   39  C3  UNL     1      -0.286  47.128  -8.170  1.00  0.00     0.021 C 
BRANCH  39  40
HETATM   40  C2  UNL     1       0.167  47.859  -9.403  1.00  0.00    -0.003 C 
HETATM   41  C1  UNL     1       1.601  48.306  -9.234  1.00  0.00     0.005 C 
ENDBRANCH  39  40
ENDBRANCH  38  39
ENDBRANCH  32  38
ENDBRANCH   1  26
TORSDOF 9
ENDMDL
MODEL 5
REMARK VINA RESULT: -6.333634340      4.859      8.255
REMARK  9 active torsions:
REMARK  status: ('A' for Active; 'I' for Inactive)
REMARK    1  A    between atoms: C2_2  and  C3_3 
REMARK    2  A    between atoms: C3_3  and  C4_4 
REMARK    3  A    between atoms: C4_4  and  N1_5 
REMARK    4  A    between atoms: C6_10  and  N4_11 
REMARK    5  A    between atoms: C9_14  and  N5_15 
REMARK    6  A    between atoms: N5_15  and  C10_17 
REMARK    7  A    between atoms: C11_20  and  N7_21 
REMARK    8  A    between atoms: C12_26  and  N9_27 
REMARK    9  A    between atoms: N9_27  and  C13_29 
ROOT
HETATM    1  N4  UNL     1      -4.769  48.669 -12.937  1.00  0.00    -0.365 N 
HETATM    2  C7  UNL     1      -5.858  49.648 -12.761  1.00  0.00     0.126 C 
HETATM    3  C8  UNL     1      -5.330  51.057 -12.888  1.00  0.00     0.045 C 
HETATM    4  C9  UNL     1      -4.311  51.171 -14.002  1.00  0.00     0.102 C 
HETATM    5  C16 UNL     1      -4.571  50.025 -14.956  1.00  0.00     0.045 C 
HETATM    6  C17 UNL     1      -4.107  48.761 -14.192  1.00  0.00     0.126 C 
ENDROOT
BRANCH   4   7
HETATM    7  N5  UNL     1      -4.141  52.431 -14.572  1.00  0.00    -0.220 N 
ATOM      8  H5  UNL     1      -4.868  52.643 -15.257  1.00  0.00     0.178 HD
BRANCH   7   9
HETATM    9  C10 UNL     1      -3.316  53.374 -14.454  1.00  0.00     0.707 A 
HETATM   10  N6  UNL     1      -3.642  54.665 -14.518  1.00  0.00    -0.022 N 
HETATM   11  C11 UNL     1      -2.715  55.629 -14.384  1.00  0.00     0.705 A 
ATOM     12  H6  UNL     1      -4.615  54.926 -14.671  1.00  0.00     0.203 HD
HETATM   13  N8  UNL     1      -1.439  55.331 -14.183  1.00  0.00    -0.022 N 
HETATM   14  C12 UNL     1      -1.054  54.052 -14.112  1.00  0.00     0.707 A 
ATOM     15  H8  UNL     1      -0.750  56.076 -14.084  1.00  0.00     0.203 HD
HETATM   16  N10 UNL     1      -1.987  53.110 -14.246  1.00  0.00    -0.021 N 
ATOM     17  H10 UNL     1      -1.694  52.134 -14.190  1.00  0.00     0.203 HD
BRANCH  11  18
HETATM   18  N7  UNL     1      -3.059  56.881 -14.451  1.00  0.00    -0.234 N 
ATOM     19  H72 UNL     1      -3.572  57.204 -15.271  1.00  0.00     0.174 HD
ATOM     20  H71 UNL     1      -2.817  57.521 -13.694  1.00  0.00     0.174 HD
ENDBRANCH  11  18
BRANCH  14  21
HETATM   21  N9  UNL     1       0.196  53.731 -13.914  1.00  0.00    -0.221 N 
ATOM     22  H9  UNL     1       0.502  53.431 -12.989  1.00  0.00     0.178 HD
BRANCH  21  23
HETATM   23  C13 UNL     1       1.140  53.797 -14.990  1.00  0.00     0.091 C 
HETATM   24  C14 UNL     1       2.428  54.498 -14.542  1.00  0.00     0.032 C 
HETATM   25  C15 UNL     1       1.562  52.424 -15.494  1.00  0.00     0.032 C 
ENDBRANCH  21  23
ENDBRANCH  14  21
ENDBRANCH   7   9
ENDBRANCH   4   7
BRANCH   1  26
HETATM   26  C6  UNL     1      -4.520  47.790 -11.866  1.00  0.00     0.136 A 
HETATM   27  C5  UNL     1      -3.751  48.146 -10.786  1.00  0.00     0.135 A 
HETATM   28  N3  UNL     1      -3.048  49.316 -10.425  1.00  0.00    -0.277 N 
HETATM   29  C19 UNL     1      -3.561  47.225  -9.774  1.00  0.00     0.153 A 
HETATM   30  N2  UNL     1      -2.823  49.265  -9.038  1.00  0.00    -0.018 NA
ATOM     31  H3  UNL     1      -2.757  50.062 -11.056  1.00  0.00     0.184 HD
HETATM   32  N1  UNL     1      -2.725  47.882  -8.800  1.00  0.00    -0.258 N 
HETATM   33  N12 UNL     1      -4.102  45.995  -9.811  1.00  0.00    -0.336 N 
HETATM   34  C18 UNL     1      -4.852  45.652 -10.868  1.00  0.00     0.183 A 
ATOM     35  H12 UNL     1      -3.945  45.335  -9.049  1.00  0.00     0.168 HD
HETATM   36  N11 UNL     1      -5.040  46.533 -11.847  1.00  0.00    -0.337 N 
ATOM     37  H11 UNL     1      -5.615  46.246 -12.640  1.00  0.00     0.168 HD
BRANCH  32  38
HETATM   38  C4  UNL     1      -1.976  47.176  -7.817  1.00  0.00     0.148 C 
BRANCH  38  39
HETATM   39  C3  UNL     1      -0.492  47.407  -7.835  1.00  0.00     0.021 C 
BRANCH  39  40
HETATM   40  C2  UNL     1       0.085  47.412  -9.224  1.00  0.00    -0.003 C 
HETATM   41  C1  UNL     1       1.377  48.196  -9.238  1.00  0.00     0.005 C 
ENDBRANCH  39  40
ENDBRANCH  38  39
ENDBRANCH  32  38
ENDBRANCH   1  26
TORSDOF 9
ENDMDL
