MODEL 1
REMARK VINA RESULT: -6.513758357      0.000      0.000
REMARK  7 active torsions:
REMARK  status: ('A' for Active; 'I' for Inactive)
REMARK    1  A    between atoms: C2_2  and  N1_3 
REMARK    2  A    between atoms: N1_3  and  C3_5 
REMARK    3  A    between atoms: C4_8  and  C5_9 
REMARK    4  A    between atoms: C8_14  and  N4_15 
REMARK    5  A    between atoms: C11_18  and  C13_20 
REMARK    6  A    between atoms: C13_20  and  N5_21 
REMARK       I    between atoms: N5_21  and  C14_22 
REMARK    7  A    between atoms: C14_22  and  C15_24 
ROOT
HETATM    1  C15 UNL     1      -2.886  46.248 -10.146  1.00  0.00     0.190 A 
HETATM    2  N6  UNL     1      -2.731  46.891  -8.985  1.00  0.00    -0.322 N 
ATOM      3  H6  UNL     1      -3.511  46.947  -8.329  1.00  0.00     0.169 HD
HETATM    4  C16 UNL     1      -1.528  47.478  -8.667  1.00  0.00     0.123 A 
HETATM    5  N7  UNL     1      -1.370  48.063  -7.543  1.00  0.00    -0.384 N 
ATOM      6  H71 UNL     1      -0.477  48.498  -7.308  1.00  0.00     0.157 HD
ATOM      7  H72 UNL     1      -2.168  48.097  -6.909  1.00  0.00     0.157 HD
HETATM    8  C17 UNL     1      -0.439  47.431  -9.533  1.00  0.00     0.103 A 
HETATM    9  C18 UNL     1       0.813  48.063  -9.243  1.00  0.00     0.104 C 
HETATM   10  N8  UNL     1       1.844  48.562  -8.975  1.00  0.00    -0.191 NA
HETATM   11  C19 UNL     1      -0.656  46.756 -10.720  1.00  0.00     0.116 A 
HETATM   12  N9  UNL     1      -1.859  46.200 -10.963  1.00  0.00    -0.345 N 
ATOM     13  H9  UNL     1      -1.981  45.704 -11.846  1.00  0.00     0.167 HD
ENDROOT
BRANCH   1  14
HETATM   14  C14 UNL     1      -4.225  45.707 -10.486  1.00  0.00     0.355 C 
HETATM   15  N5  UNL     1      -5.008  46.161 -11.511  1.00  0.00    -0.408 NA
HETATM   16  O1  UNL     1      -4.600  44.801  -9.710  1.00  0.00    -0.248 OA
BRANCH  15  17
HETATM   17  C13 UNL     1      -5.818  46.605 -12.544  1.00  0.00     0.233 C 
BRANCH  17  18
HETATM   18  C11 UNL     1      -6.387  48.010 -12.262  1.00  0.00     0.002 C 
HETATM   19  C10 UNL     1      -6.976  48.597 -13.499  1.00  0.00     0.034 C 
HETATM   20  C9  UNL     1      -5.758  49.043 -14.250  1.00  0.00     0.142 C 
HETATM   21  N4  UNL     1      -5.194  49.850 -13.138  1.00  0.00    -0.216 N 
HETATM   22  C20 UNL     1      -5.200  48.960 -12.036  1.00  0.00     0.153 C 
HETATM   23  C12 UNL     1      -7.236  47.915 -11.071  1.00  0.00     0.020 C 
BRANCH  21  24
HETATM   24  C8  UNL     1      -4.885  51.208 -13.388  1.00  0.00     0.696 A 
HETATM   25  N3  UNL     1      -3.677  51.465 -14.003  1.00  0.00    -0.179 N 
HETATM   26  C4  UNL     1      -3.237  52.741 -14.218  1.00  0.00     0.117 A 
ATOM     27  H3  UNL     1      -3.097  50.682 -14.304  1.00  0.00     0.185 HD
HETATM   28  N2  UNL     1      -3.947  53.780 -13.842  1.00  0.00    -0.179 N 
HETATM   29  C3  UNL     1      -5.171  53.532 -13.224  1.00  0.00     0.694 A 
ATOM     30  H2  UNL     1      -3.616  54.732 -13.997  1.00  0.00     0.185 HD
HETATM   31  N10 UNL     1      -5.572  52.272 -13.036  1.00  0.00    -0.022 N 
ATOM     32  H10 UNL     1      -6.476  52.125 -12.586  1.00  0.00     0.203 HD
BRANCH  26  33
HETATM   33  C5  UNL     1      -1.919  52.901 -14.850  1.00  0.00     0.054 A 
HETATM   34  C6  UNL     1      -1.481  54.191 -15.481  1.00  0.00     0.013 A 
HETATM   35  C7  UNL     1      -0.921  53.778 -14.150  1.00  0.00     0.013 A 
ENDBRANCH  26  33
BRANCH  29  36
HETATM   36  N1  UNL     1      -5.847  54.534 -12.848  1.00  0.00    -0.226 N 
ATOM     37  H1  UNL     1      -6.852  54.430 -12.707  1.00  0.00     0.177 HD
BRANCH  36  38
HETATM   38  C2  UNL     1      -5.228  55.830 -12.611  1.00  0.00     0.133 C 
HETATM   39  C1  UNL     1      -5.963  56.954 -13.338  1.00  0.00     0.027 C 
ENDBRANCH  36  38
ENDBRANCH  29  36
ENDBRANCH  21  24
ENDBRANCH  17  18
ENDBRANCH  15  17
ENDBRANCH   1  14
TORSDOF 7
ENDMDL
MODEL 2
REMARK VINA RESULT: -6.428269534      1.674      3.237
REMARK  7 active torsions:
REMARK  status: ('A' for Active; 'I' for Inactive)
REMARK    1  A    between atoms: C2_2  and  N1_3 
REMARK    2  A    between atoms: N1_3  and  C3_5 
REMARK    3  A    between atoms: C4_8  and  C5_9 
REMARK    4  A    between atoms: C8_14  and  N4_15 
REMARK    5  A    between atoms: C11_18  and  C13_20 
REMARK    6  A    between atoms: C13_20  and  N5_21 
REMARK       I    between atoms: N5_21  and  C14_22 
REMARK    7  A    between atoms: C14_22  and  C15_24 
ROOT
HETATM    1  C15 UNL     1      -3.138  46.157 -10.035  1.00  0.00     0.190 A 
HETATM    2  N6  UNL     1      -2.909  46.776  -8.873  1.00  0.00    -0.322 N 
ATOM      3  H6  UNL     1      -3.643  46.813  -8.166  1.00  0.00     0.169 HD
HETATM    4  C16 UNL     1      -1.689  47.363  -8.624  1.00  0.00     0.123 A 
HETATM    5  N7  UNL     1      -1.459  47.924  -7.500  1.00  0.00    -0.384 N 
ATOM      6  H71 UNL     1      -0.555  48.359  -7.315  1.00  0.00     0.157 HD
ATOM      7  H72 UNL     1      -2.213  47.939  -6.813  1.00  0.00     0.157 HD
HETATM    8  C17 UNL     1      -0.660  47.341  -9.561  1.00  0.00     0.103 A 
HETATM    9  C18 UNL     1       0.605  47.974  -9.341  1.00  0.00     0.104 C 
HETATM   10  N8  UNL     1       1.650  48.472  -9.132  1.00  0.00    -0.191 NA
HETATM   11  C19 UNL     1      -0.953  46.691 -10.746  1.00  0.00     0.116 A 
HETATM   12  N9  UNL     1      -2.167  46.133 -10.920  1.00  0.00    -0.345 N 
ATOM     13  H9  UNL     1      -2.346  45.656 -11.803  1.00  0.00     0.167 HD
ENDROOT
BRANCH   1  14
HETATM   14  C14 UNL     1      -4.494  45.617 -10.297  1.00  0.00     0.355 C 
HETATM   15  N5  UNL     1      -5.557  46.361 -10.728  1.00  0.00    -0.408 NA
HETATM   16  O1  UNL     1      -4.592  44.396 -10.048  1.00  0.00    -0.248 OA
BRANCH  15  17
HETATM   17  C13 UNL     1      -6.648  47.097 -11.164  1.00  0.00     0.233 C 
BRANCH  17  18
HETATM   18  C11 UNL     1      -6.325  47.894 -12.444  1.00  0.00     0.002 C 
HETATM   19  C10 UNL     1      -4.984  48.537 -12.339  1.00  0.00     0.034 C 
HETATM   20  C9  UNL     1      -5.266  49.717 -11.458  1.00  0.00     0.142 C 
HETATM   21  N4  UNL     1      -6.377  50.249 -12.287  1.00  0.00    -0.216 N 
HETATM   22  C20 UNL     1      -7.232  49.134 -12.466  1.00  0.00     0.153 C 
HETATM   23  C12 UNL     1      -6.581  47.017 -13.590  1.00  0.00     0.020 C 
BRANCH  21  24
HETATM   24  C8  UNL     1      -6.296  51.591 -12.730  1.00  0.00     0.696 A 
HETATM   25  N3  UNL     1      -7.490  52.221 -13.013  1.00  0.00    -0.179 N 
HETATM   26  C4  UNL     1      -7.529  53.487 -13.527  1.00  0.00     0.117 A 
ATOM     27  H3  UNL     1      -8.366  51.730 -12.834  1.00  0.00     0.185 HD
HETATM   28  N2  UNL     1      -6.428  54.157 -13.778  1.00  0.00    -0.179 N 
HETATM   29  C3  UNL     1      -5.217  53.530 -13.492  1.00  0.00     0.694 A 
ATOM     30  H2  UNL     1      -6.457  55.099 -14.168  1.00  0.00     0.185 HD
HETATM   31  N10 UNL     1      -5.216  52.295 -12.985  1.00  0.00    -0.022 N 
ATOM     32  H10 UNL     1      -4.312  51.868 -12.781  1.00  0.00     0.203 HD
BRANCH  26  33
HETATM   33  C5  UNL     1      -8.855  54.052 -13.823  1.00  0.00     0.054 A 
HETATM   34  C6  UNL     1      -9.601  53.733 -15.086  1.00  0.00     0.013 A 
HETATM   35  C7  UNL     1     -10.027  53.114 -13.785  1.00  0.00     0.013 A 
ENDBRANCH  26  33
BRANCH  29  36
HETATM   36  N1  UNL     1      -4.155  54.170 -13.750  1.00  0.00    -0.226 N 
ATOM     37  H1  UNL     1      -3.892  54.956 -13.155  1.00  0.00     0.177 HD
BRANCH  36  38
HETATM   38  C2  UNL     1      -3.299  53.813 -14.873  1.00  0.00     0.133 C 
HETATM   39  C1  UNL     1      -1.908  53.386 -14.415  1.00  0.00     0.027 C 
ENDBRANCH  36  38
ENDBRANCH  29  36
ENDBRANCH  21  24
ENDBRANCH  17  18
ENDBRANCH  15  17
ENDBRANCH   1  14
TORSDOF 7
ENDMDL
MODEL 3
REMARK VINA RESULT: -6.380441794      1.375      1.900
REMARK  7 active torsions:
REMARK  status: ('A' for Active; 'I' for Inactive)
REMARK    1  A    between atoms: C2_2  and  N1_3 
REMARK    2  A    between atoms: N1_3  and  C3_5 
REMARK    3  A    between atoms: C4_8  and  C5_9 
REMARK    4  A    between atoms: C8_14  and  N4_15 
REMARK    5  A    between atoms: C11_18  and  C13_20 
REMARK    6  A    between atoms: C13_20  and  N5_21 
REMARK       I    between atoms: N5_21  and  C14_22 
REMARK    7  A    between atoms: C14_22  and  C15_24 
ROOT
HETATM    1  C15 UNL     1      -3.057  46.225  -9.918  1.00  0.00     0.190 A 
HETATM    2  N6  UNL     1      -2.824  46.879  -8.776  1.00  0.00    -0.322 N 
ATOM      3  H6  UNL     1      -3.562  46.951  -8.075  1.00  0.00     0.169 HD
HETATM    4  C16 UNL     1      -1.598  47.457  -8.541  1.00  0.00     0.123 A 
HETATM    5  N7  UNL     1      -1.365  48.053  -7.436  1.00  0.00    -0.384 N 
ATOM      6  H71 UNL     1      -0.455  48.481  -7.261  1.00  0.00     0.157 HD
ATOM      7  H72 UNL     1      -2.122  48.102  -6.754  1.00  0.00     0.157 HD
HETATM    8  C17 UNL     1      -0.564  47.388  -9.471  1.00  0.00     0.103 A 
HETATM    9  C18 UNL     1       0.709  48.010  -9.266  1.00  0.00     0.104 C 
HETATM   10  N8  UNL     1       1.759  48.501  -9.068  1.00  0.00    -0.191 NA
HETATM   11  C19 UNL     1      -0.861  46.703 -10.635  1.00  0.00     0.116 A 
HETATM   12  N9  UNL     1      -2.082  46.156 -10.796  1.00  0.00    -0.345 N 
ATOM     13  H9  UNL     1      -2.263  45.652 -11.664  1.00  0.00     0.167 HD
ENDROOT
BRANCH   1  14
HETATM   14  C14 UNL     1      -4.419  45.695 -10.169  1.00  0.00     0.355 C 
HETATM   15  N5  UNL     1      -5.493  46.457 -10.537  1.00  0.00    -0.408 NA
HETATM   16  O1  UNL     1      -4.510  44.463  -9.973  1.00  0.00    -0.248 OA
BRANCH  15  17
HETATM   17  C13 UNL     1      -6.595  47.210 -10.911  1.00  0.00     0.233 C 
BRANCH  17  18
HETATM   18  C11 UNL     1      -6.381  47.900 -12.273  1.00  0.00     0.002 C 
HETATM   19  C10 UNL     1      -5.078  48.625 -12.296  1.00  0.00     0.034 C 
HETATM   20  C9  UNL     1      -5.391  49.864 -11.514  1.00  0.00     0.142 C 
HETATM   21  N4  UNL     1      -6.569  50.253 -12.329  1.00  0.00    -0.216 N 
HETATM   22  C20 UNL     1      -7.362  49.079 -12.361  1.00  0.00     0.153 C 
HETATM   23  C12 UNL     1      -6.636  46.906 -13.319  1.00  0.00     0.020 C 
BRANCH  21  24
HETATM   24  C8  UNL     1      -6.591  51.549 -12.896  1.00  0.00     0.696 A 
HETATM   25  N3  UNL     1      -5.376  52.075 -13.283  1.00  0.00    -0.179 N 
HETATM   26  C4  UNL     1      -5.265  53.349 -13.766  1.00  0.00     0.117 A 
ATOM     27  H3  UNL     1      -4.538  51.498 -13.208  1.00  0.00     0.185 HD
HETATM   28  N2  UNL     1      -6.315  54.130 -13.877  1.00  0.00    -0.179 N 
HETATM   29  C3  UNL     1      -7.548  53.608 -13.492  1.00  0.00     0.694 A 
ATOM     30  H2  UNL     1      -6.232  55.084 -14.231  1.00  0.00     0.185 HD
HETATM   31  N10 UNL     1      -7.620  52.357 -13.031  1.00  0.00    -0.022 N 
ATOM     32  H10 UNL     1      -8.538  52.003 -12.764  1.00  0.00     0.203 HD
BRANCH  26  33
HETATM   33  C5  UNL     1      -3.917  53.821 -14.118  1.00  0.00     0.054 A 
HETATM   34  C6  UNL     1      -2.741  52.893 -14.218  1.00  0.00     0.013 A 
HETATM   35  C7  UNL     1      -3.382  53.431 -15.465  1.00  0.00     0.013 A 
ENDBRANCH  26  33
BRANCH  29  36
HETATM   36  N1  UNL     1      -8.557  54.367 -13.584  1.00  0.00    -0.226 N 
ATOM     37  H1  UNL     1      -9.490  53.958 -13.556  1.00  0.00     0.177 HD
BRANCH  36  38
HETATM   38  C2  UNL     1      -8.419  55.810 -13.728  1.00  0.00     0.133 C 
HETATM   39  C1  UNL     1      -9.702  56.545 -13.350  1.00  0.00     0.027 C 
ENDBRANCH  36  38
ENDBRANCH  29  36
ENDBRANCH  21  24
ENDBRANCH  17  18
ENDBRANCH  15  17
ENDBRANCH   1  14
TORSDOF 7
ENDMDL
MODEL 4
REMARK VINA RESULT: -6.326429728      5.444      9.164
REMARK  7 active torsions:
REMARK  status: ('A' for Active; 'I' for Inactive)
REMARK    1  A    between atoms: C2_2  and  N1_3 
REMARK    2  A    between atoms: N1_3  and  C3_5 
REMARK    3  A    between atoms: C4_8  and  C5_9 
REMARK    4  A    between atoms: C8_14  and  N4_15 
REMARK    5  A    between atoms: C11_18  and  C13_20 
REMARK    6  A    between atoms: C13_20  and  N5_21 
REMARK       I    between atoms: N5_21  and  C14_22 
REMARK    7  A    between atoms: C14_22  and  C15_24 
ROOT
HETATM    1  C15 UNL     1      -4.913  48.523 -10.398  1.00  0.00     0.190 A 
HETATM    2  N6  UNL     1      -4.671  49.407  -9.425  1.00  0.00    -0.322 N 
ATOM      3  H6  UNL     1      -5.176  50.293  -9.409  1.00  0.00     0.169 HD
HETATM    4  C16 UNL     1      -3.745  49.130  -8.446  1.00  0.00     0.123 A 
HETATM    5  N7  UNL     1      -3.539  49.959  -7.497  1.00  0.00    -0.384 N 
ATOM      6  H71 UNL     1      -2.853  49.754  -6.771  1.00  0.00     0.157 HD
ATOM      7  H72 UNL     1      -4.064  50.833  -7.508  1.00  0.00     0.157 HD
HETATM    8  C17 UNL     1      -3.029  47.936  -8.431  1.00  0.00     0.103 A 
HETATM    9  C18 UNL     1      -2.036  47.638  -7.443  1.00  0.00     0.104 C 
HETATM   10  N8  UNL     1      -1.245  47.395  -6.608  1.00  0.00    -0.191 NA
HETATM   11  C19 UNL     1      -3.317  47.060  -9.462  1.00  0.00     0.116 A 
HETATM   12  N9  UNL     1      -4.241  47.395 -10.384  1.00  0.00    -0.345 N 
ATOM     13  H9  UNL     1      -4.432  46.722 -11.127  1.00  0.00     0.167 HD
ENDROOT
BRANCH   1  14
HETATM   14  C14 UNL     1      -5.853  48.899 -11.483  1.00  0.00     0.355 C 
HETATM   15  N5  UNL     1      -6.737  48.042 -12.077  1.00  0.00    -0.408 NA
HETATM   16  O1  UNL     1      -5.737  50.091 -11.841  1.00  0.00    -0.248 OA
BRANCH  15  17
HETATM   17  C13 UNL     1      -7.640  47.189 -12.692  1.00  0.00     0.233 C 
BRANCH  17  18
HETATM   18  C11 UNL     1      -8.118  46.076 -11.738  1.00  0.00     0.002 C 
HETATM   19  C10 UNL     1      -9.173  45.246 -12.386  1.00  0.00     0.034 C 
HETATM   20  C9  UNL     1     -10.384  46.120 -12.265  1.00  0.00     0.142 C 
HETATM   21  N4  UNL     1     -10.271  46.317 -10.798  1.00  0.00    -0.216 N 
HETATM   22  C20 UNL     1      -8.931  46.739 -10.615  1.00  0.00     0.153 C 
HETATM   23  C12 UNL     1      -6.929  45.397 -11.216  1.00  0.00     0.020 C 
BRANCH  21  24
HETATM   24  C8  UNL     1     -11.388  45.994  -9.992  1.00  0.00     0.696 A 
HETATM   25  N3  UNL     1     -12.569  46.646 -10.283  1.00  0.00    -0.179 N 
HETATM   26  C4  UNL     1     -13.690  46.475  -9.520  1.00  0.00     0.117 A 
ATOM     27  H3  UNL     1     -12.606  47.270 -11.088  1.00  0.00     0.185 HD
HETATM   28  N2  UNL     1     -13.688  45.686  -8.470  1.00  0.00    -0.179 N 
HETATM   29  C3  UNL     1     -12.502  45.021  -8.170  1.00  0.00     0.694 A 
ATOM     30  H2  UNL     1     -14.523  45.564  -7.897  1.00  0.00     0.185 HD
HETATM   31  N10 UNL     1     -11.427  45.205  -8.941  1.00  0.00    -0.022 N 
ATOM     32  H10 UNL     1     -10.576  44.698  -8.697  1.00  0.00     0.203 HD
BRANCH  26  33
HETATM   33  C5  UNL     1     -14.885  47.244  -9.899  1.00  0.00     0.054 A 
HETATM   34  C6  UNL     1     -16.246  46.943  -9.339  1.00  0.00     0.013 A 
HETATM   35  C7  UNL     1     -15.484  48.145  -8.858  1.00  0.00     0.013 A 
ENDBRANCH  26  33
BRANCH  29  36
HETATM   36  N1  UNL     1     -12.496  44.272  -7.149  1.00  0.00    -0.226 N 
ATOM     37  H1  UNL     1     -11.767  43.564  -7.056  1.00  0.00     0.177 HD
BRANCH  36  38
HETATM   38  C2  UNL     1     -13.502  44.395  -6.103  1.00  0.00     0.133 C 
HETATM   39  C1  UNL     1     -12.947  44.020  -4.732  1.00  0.00     0.027 C 
ENDBRANCH  36  38
ENDBRANCH  29  36
ENDBRANCH  21  24
ENDBRANCH  17  18
ENDBRANCH  15  17
ENDBRANCH   1  14
TORSDOF 7
ENDMDL
MODEL 5
REMARK VINA RESULT: -6.215454289      1.970      3.198
REMARK  7 active torsions:
REMARK  status: ('A' for Active; 'I' for Inactive)
REMARK    1  A    between atoms: C2_2  and  N1_3 
REMARK    2  A    between atoms: N1_3  and  C3_5 
REMARK    3  A    between atoms: C4_8  and  C5_9 
REMARK    4  A    between atoms: C8_14  and  N4_15 
REMARK    5  A    between atoms: C11_18  and  C13_20 
REMARK    6  A    between atoms: C13_20  and  N5_21 
REMARK       I    between atoms: N5_21  and  C14_22 
REMARK    7  A    between atoms: C14_22  and  C15_24 
ROOT
HETATM    1  C15 UNL     1      -4.988  48.217 -10.619  1.00  0.00     0.190 A 
HETATM    2  N6  UNL     1      -4.352  47.043 -10.571  1.00  0.00    -0.322 N 
ATOM      3  H6  UNL     1      -4.616  46.297 -11.215  1.00  0.00     0.169 HD
HETATM    4  C16 UNL     1      -3.345  46.832  -9.657  1.00  0.00     0.123 A 
HETATM    5  N7  UNL     1      -2.714  45.722  -9.634  1.00  0.00    -0.384 N 
ATOM      6  H71 UNL     1      -1.967  45.565  -8.957  1.00  0.00     0.157 HD
ATOM      7  H72 UNL     1      -3.000  44.999 -10.295  1.00  0.00     0.157 HD
HETATM    8  C17 UNL     1      -2.955  47.819  -8.756  1.00  0.00     0.103 A 
HETATM    9  C18 UNL     1      -1.934  47.613  -7.773  1.00  0.00     0.104 C 
HETATM   10  N8  UNL     1      -1.072  47.439  -6.992  1.00  0.00    -0.191 NA
HETATM   11  C19 UNL     1      -3.648  49.011  -8.848  1.00  0.00     0.116 A 
HETATM   12  N9  UNL     1      -4.619  49.150  -9.771  1.00  0.00    -0.345 N 
ATOM     13  H9  UNL     1      -5.105  50.046  -9.815  1.00  0.00     0.167 HD
ENDROOT
BRANCH   1  14
HETATM   14  C14 UNL     1      -6.126  48.371 -11.557  1.00  0.00     0.355 C 
HETATM   15  N5  UNL     1      -6.037  48.928 -12.803  1.00  0.00    -0.408 NA
HETATM   16  O1  UNL     1      -7.211  47.969 -11.083  1.00  0.00    -0.248 OA
BRANCH  15  17
HETATM   17  C13 UNL     1      -5.968  49.490 -14.068  1.00  0.00     0.233 C 
BRANCH  17  18
HETATM   18  C11 UNL     1      -6.058  51.028 -14.018  1.00  0.00     0.002 C 
HETATM   19  C10 UNL     1      -5.797  51.615 -15.363  1.00  0.00     0.034 C 
HETATM   20  C9  UNL     1      -4.304  51.525 -15.464  1.00  0.00     0.142 C 
HETATM   21  N4  UNL     1      -4.033  52.231 -14.186  1.00  0.00    -0.216 N 
HETATM   22  C20 UNL     1      -4.836  51.544 -13.243  1.00  0.00     0.153 C 
HETATM   23  C12 UNL     1      -7.312  51.377 -13.345  1.00  0.00     0.020 C 
BRANCH  21  24
HETATM   24  C8  UNL     1      -3.184  53.363 -14.215  1.00  0.00     0.696 A 
HETATM   25  N3  UNL     1      -1.827  53.117 -14.203  1.00  0.00    -0.179 N 
HETATM   26  C4  UNL     1      -0.914  54.133 -14.144  1.00  0.00     0.117 A 
ATOM     27  H3  UNL     1      -1.496  52.153 -14.238  1.00  0.00     0.185 HD
HETATM   28  N2  UNL     1      -1.293  55.389 -14.093  1.00  0.00    -0.179 N 
HETATM   29  C3  UNL     1      -2.661  55.648 -14.109  1.00  0.00     0.694 A 
ATOM     30  H2  UNL     1      -0.611  56.147 -14.042  1.00  0.00     0.185 HD
HETATM   31  N10 UNL     1      -3.525  54.632 -14.173  1.00  0.00    -0.022 N 
ATOM     32  H10 UNL     1      -4.520  54.856 -14.189  1.00  0.00     0.203 HD
BRANCH  26  33
HETATM   33  C5  UNL     1       0.508  53.758 -14.102  1.00  0.00     0.054 A 
HETATM   34  C6  UNL     1       1.175  53.009 -15.219  1.00  0.00     0.013 A 
HETATM   35  C7  UNL     1       1.437  54.477 -15.037  1.00  0.00     0.013 A 
ENDBRANCH  26  33
BRANCH  29  36
HETATM   36  N1  UNL     1      -3.026  56.859 -14.042  1.00  0.00    -0.226 N 
ATOM     37  H1  UNL     1      -2.387  57.588 -14.359  1.00  0.00     0.177 HD
BRANCH  36  38
HETATM   38  C2  UNL     1      -4.334  57.237 -13.527  1.00  0.00     0.133 C 
HETATM   39  C1  UNL     1      -4.296  57.518 -12.027  1.00  0.00     0.027 C 
ENDBRANCH  36  38
ENDBRANCH  29  36
ENDBRANCH  21  24
ENDBRANCH  17  18
ENDBRANCH  15  17
ENDBRANCH   1  14
TORSDOF 7
ENDMDL
