MODEL 1
REMARK VINA RESULT: -6.188850090      0.000      0.000
REMARK  9 active torsions:
REMARK  status: ('A' for Active; 'I' for Inactive)
REMARK    1  A    between atoms: C3_3  and  N1_4 
REMARK    2  A    between atoms: C11_19  and  O3_20 
REMARK    3  A    between atoms: C12_24  and  N6_25 
REMARK    4  A    between atoms: N6_25  and  C13_27 
REMARK    5  A    between atoms: C13_27  and  C14_28 
REMARK    6  A    between atoms: C14_28  and  C15_29 
REMARK    7  A    between atoms: C15_29  and  C16_30 
REMARK    8  A    between atoms: C16_30  and  C17_31 
REMARK    9  A    between atoms: C17_31  and  N7_32 
ROOT
HETATM    1  C1  UNL     1      -9.260  48.631 -12.617  1.00  0.00     0.054 C 
HETATM    2  C2  UNL     1      -7.950  48.075 -12.141  1.00  0.00     0.010 A 
HETATM    3  C3  UNL     1      -7.920  46.834 -11.629  1.00  0.00     0.121 A 
HETATM    4  N4  UNL     1      -6.761  46.320 -11.197  1.00  0.00    -0.326 N 
ATOM      5  H4  UNL     1      -6.762  45.375 -10.813  1.00  0.00     0.169 HD
HETATM    6  C9  UNL     1      -5.598  46.990 -11.245  1.00  0.00     0.141 A 
HETATM    7  C10 UNL     1      -5.607  48.284 -11.775  1.00  0.00     0.087 A 
HETATM    8  C11 UNL     1      -4.433  48.994 -11.823  1.00  0.00     0.171 A 
HETATM    9  N5  UNL     1      -3.300  48.401 -11.345  1.00  0.00    -0.170 N 
ATOM     10  H5  UNL     1      -2.420  48.914 -11.370  1.00  0.00     0.186 HD
HETATM   11  C12 UNL     1      -3.322  47.154 -10.841  1.00  0.00     0.683 A 
HETATM   12  N8  UNL     1      -4.455  46.438 -10.784  1.00  0.00    -0.172 N 
HETATM   13  C18 UNL     1      -4.520  45.093 -10.260  1.00  0.00     0.177 C 
HETATM   14  C19 UNL     1      -6.794  48.858 -12.238  1.00  0.00     0.053 A 
HETATM   15  N9  UNL     1      -6.926  49.990 -12.730  1.00  0.00    -0.398 N 
ATOM     16  H91 UNL     1      -6.083  50.560 -12.801  1.00  0.00     0.156 HD
ATOM     17  H92 UNL     1      -7.792  50.409 -13.068  1.00  0.00     0.156 HD
ENDROOT
BRANCH   3  18
HETATM   18  N1  UNL     1      -9.095  46.006 -11.485  1.00  0.00    -0.283 N 
HETATM   19  C4  UNL     1      -9.375  45.308 -12.725  1.00  0.00     0.155 C 
HETATM   20  C5  UNL     1     -10.105  44.010 -12.528  1.00  0.00     0.147 C 
HETATM   21  N2  UNL     1     -11.479  44.221 -12.094  1.00  0.00    -0.337 N 
HETATM   22  C6  UNL     1     -12.542  43.889 -13.034  1.00  0.00     0.154 C 
HETATM   23  C7  UNL     1     -11.857  44.730 -10.814  1.00  0.00     0.326 C 
HETATM   24  O1  UNL     1     -13.027  44.470 -10.470  1.00  0.00    -0.247 OA
HETATM   25  N3  UNL     1     -11.031  45.492  -9.914  1.00  0.00    -0.260 N 
HETATM   26  C8  UNL     1      -9.724  46.032 -10.212  1.00  0.00     0.332 C 
ATOM     27  H3  UNL     1     -11.403  45.668  -8.981  1.00  0.00     0.175 HD
HETATM   28  O2  UNL     1      -9.119  46.553  -9.275  1.00  0.00    -0.246 OA
ENDBRANCH   3  18
BRANCH   8  29
HETATM   29  O3  UNL     1      -4.377  50.263 -12.328  1.00  0.00    -0.345 OA
ATOM     30  H3  UNL     1      -4.701  51.012 -11.842  1.00  0.00     0.219 HD
ENDBRANCH   8  29
BRANCH  11  31
HETATM   31  N6  UNL     1      -2.229  46.625 -10.380  1.00  0.00    -0.226 N 
ATOM     32  H6  UNL     1      -2.128  45.612 -10.316  1.00  0.00     0.177 HD
BRANCH  31  33
HETATM   33  C13 UNL     1      -1.178  47.484  -9.967  1.00  0.00     0.138 C 
BRANCH  33  34
HETATM   34  C14 UNL     1      -0.733  47.272  -8.570  1.00  0.00     0.020 C 
BRANCH  34  35
HETATM   35  C15 UNL     1      -1.390  48.091  -7.523  1.00  0.00     0.003 C 
BRANCH  35  36
HETATM   36  C16 UNL     1      -2.810  47.789  -7.221  1.00  0.00     0.027 C 
BRANCH  36  37
HETATM   37  C17 UNL     1      -3.623  49.031  -7.633  1.00  0.00     0.229 C 
BRANCH  37  38
HETATM   38  N7  UNL     1      -3.576  50.057  -6.638  1.00  0.00    -0.079 N 
ATOM     39  H73 UNL     1      -4.479  50.167  -6.177  1.00  0.00     0.274 HD
ATOM     40  H72 UNL     1      -3.019  49.766  -5.834  1.00  0.00     0.274 HD
ATOM     41  H71 UNL     1      -3.244  50.944  -7.017  1.00  0.00     0.274 HD
ENDBRANCH  37  38
ENDBRANCH  36  37
ENDBRANCH  35  36
ENDBRANCH  34  35
ENDBRANCH  33  34
ENDBRANCH  31  33
ENDBRANCH  11  31
TORSDOF 9
ENDMDL
MODEL 2
REMARK VINA RESULT: -5.987115569      2.322      3.409
REMARK  9 active torsions:
REMARK  status: ('A' for Active; 'I' for Inactive)
REMARK    1  A    between atoms: C3_3  and  N1_4 
REMARK    2  A    between atoms: C11_19  and  O3_20 
REMARK    3  A    between atoms: C12_24  and  N6_25 
REMARK    4  A    between atoms: N6_25  and  C13_27 
REMARK    5  A    between atoms: C13_27  and  C14_28 
REMARK    6  A    between atoms: C14_28  and  C15_29 
REMARK    7  A    between atoms: C15_29  and  C16_30 
REMARK    8  A    between atoms: C16_30  and  C17_31 
REMARK    9  A    between atoms: C17_31  and  N7_32 
ROOT
HETATM    1  C1  UNL     1      -7.238  43.200 -12.171  1.00  0.00     0.054 C 
HETATM    2  C2  UNL     1      -6.191  44.236 -11.885  1.00  0.00     0.010 A 
HETATM    3  C3  UNL     1      -6.536  45.532 -11.917  1.00  0.00     0.121 A 
HETATM    4  N4  UNL     1      -5.616  46.473 -11.667  1.00  0.00    -0.326 N 
ATOM      5  H4  UNL     1      -5.902  47.452 -11.695  1.00  0.00     0.169 HD
HETATM    6  C9  UNL     1      -4.335  46.188 -11.380  1.00  0.00     0.141 A 
HETATM    7  C10 UNL     1      -3.954  44.843 -11.342  1.00  0.00     0.087 A 
HETATM    8  C11 UNL     1      -2.648  44.527 -11.064  1.00  0.00     0.171 A 
HETATM    9  N5  UNL     1      -1.771  45.548 -10.838  1.00  0.00    -0.170 N 
ATOM     10  H5  UNL     1      -0.795  45.333 -10.633  1.00  0.00     0.186 HD
HETATM   11  C12 UNL     1      -2.166  46.833 -10.882  1.00  0.00     0.683 A 
HETATM   12  N8  UNL     1      -3.436  47.169 -11.148  1.00  0.00    -0.172 N 
HETATM   13  C18 UNL     1      -3.905  48.536 -11.195  1.00  0.00     0.177 C 
HETATM   14  C19 UNL     1      -4.883  43.830 -11.595  1.00  0.00     0.053 A 
HETATM   15  N9  UNL     1      -4.666  42.608 -11.586  1.00  0.00    -0.398 N 
ATOM     16  H91 UNL     1      -3.713  42.313 -11.375  1.00  0.00     0.156 HD
ATOM     17  H92 UNL     1      -5.343  41.869 -11.772  1.00  0.00     0.156 HD
ENDROOT
BRANCH   3  18
HETATM   18  N1  UNL     1      -7.868  45.992 -12.240  1.00  0.00    -0.283 N 
HETATM   19  C4  UNL     1      -8.042  46.062 -13.679  1.00  0.00     0.155 C 
HETATM   20  C5  UNL     1      -9.468  45.890 -14.116  1.00  0.00     0.147 C 
HETATM   21  N2  UNL     1     -10.289  47.036 -13.752  1.00  0.00    -0.337 N 
HETATM   22  C6  UNL     1     -10.777  47.887 -14.830  1.00  0.00     0.154 C 
HETATM   23  C7  UNL     1     -10.649  47.385 -12.414  1.00  0.00     0.326 C 
HETATM   24  O1  UNL     1     -11.651  48.120 -12.315  1.00  0.00    -0.247 OA
HETATM   25  N3  UNL     1      -9.977  46.974 -11.209  1.00  0.00    -0.260 N 
HETATM   26  C8  UNL     1      -8.714  46.275 -11.137  1.00  0.00     0.332 C 
ATOM     27  H3  UNL     1     -10.435  47.196 -10.325  1.00  0.00     0.175 HD
HETATM   28  O2  UNL     1      -8.357  45.900 -10.019  1.00  0.00    -0.246 OA
ENDBRANCH   3  18
BRANCH   8  29
HETATM   29  O3  UNL     1      -2.214  43.232 -11.013  1.00  0.00    -0.345 OA
ATOM     30  H3  UNL     1      -1.460  42.975 -10.493  1.00  0.00     0.219 HD
ENDBRANCH   8  29
BRANCH  11  31
HETATM   31  N6  UNL     1      -1.302  47.782 -10.677  1.00  0.00    -0.226 N 
ATOM     32  H6  UNL     1      -1.345  48.649 -11.212  1.00  0.00     0.177 HD
BRANCH  31  33
HETATM   33  C13 UNL     1      -0.298  47.587  -9.694  1.00  0.00     0.138 C 
BRANCH  33  34
HETATM   34  C14 UNL     1      -0.628  48.156  -8.366  1.00  0.00     0.020 C 
BRANCH  34  35
HETATM   35  C15 UNL     1      -1.404  47.296  -7.440  1.00  0.00     0.003 C 
BRANCH  35  36
HETATM   36  C16 UNL     1      -2.853  47.583  -7.306  1.00  0.00     0.027 C 
BRANCH  36  37
HETATM   37  C17 UNL     1      -3.045  49.068  -7.670  1.00  0.00     0.229 C 
BRANCH  37  38
HETATM   38  N7  UNL     1      -3.605  49.817  -6.589  1.00  0.00    -0.079 N 
ATOM     39  H73 UNL     1      -4.522  49.457  -6.325  1.00  0.00     0.274 HD
ATOM     40  H72 UNL     1      -3.106  49.638  -5.718  1.00  0.00     0.274 HD
ATOM     41  H71 UNL     1      -3.645  50.815  -6.795  1.00  0.00     0.274 HD
ENDBRANCH  37  38
ENDBRANCH  36  37
ENDBRANCH  35  36
ENDBRANCH  34  35
ENDBRANCH  33  34
ENDBRANCH  31  33
ENDBRANCH  11  31
TORSDOF 9
ENDMDL
MODEL 3
REMARK VINA RESULT: -5.833987072      2.394      3.638
REMARK  9 active torsions:
REMARK  status: ('A' for Active; 'I' for Inactive)
REMARK    1  A    between atoms: C3_3  and  N1_4 
REMARK    2  A    between atoms: C11_19  and  O3_20 
REMARK    3  A    between atoms: C12_24  and  N6_25 
REMARK    4  A    between atoms: N6_25  and  C13_27 
REMARK    5  A    between atoms: C13_27  and  C14_28 
REMARK    6  A    between atoms: C14_28  and  C15_29 
REMARK    7  A    between atoms: C15_29  and  C16_30 
REMARK    8  A    between atoms: C16_30  and  C17_31 
REMARK    9  A    between atoms: C17_31  and  N7_32 
ROOT
HETATM    1  C1  UNL     1      -6.880  43.190 -12.147  1.00  0.00     0.054 C 
HETATM    2  C2  UNL     1      -5.862  44.244 -11.826  1.00  0.00     0.010 A 
HETATM    3  C3  UNL     1      -6.252  45.528 -11.773  1.00  0.00     0.121 A 
HETATM    4  N4  UNL     1      -5.359  46.485 -11.490  1.00  0.00    -0.326 N 
ATOM      5  H4  UNL     1      -5.679  47.452 -11.453  1.00  0.00     0.169 HD
HETATM    6  C9  UNL     1      -4.061  46.229 -11.252  1.00  0.00     0.141 A 
HETATM    7  C10 UNL     1      -3.634  44.899 -11.302  1.00  0.00     0.087 A 
HETATM    8  C11 UNL     1      -2.310  44.615 -11.075  1.00  0.00     0.171 A 
HETATM    9  N5  UNL     1      -1.463  45.652 -10.811  1.00  0.00    -0.170 N 
ATOM     10  H5  UNL     1      -0.476  45.460 -10.643  1.00  0.00     0.186 HD
HETATM   11  C12 UNL     1      -1.904  46.922 -10.769  1.00  0.00     0.683 A 
HETATM   12  N8  UNL     1      -3.191  47.228 -10.985  1.00  0.00    -0.172 N 
HETATM   13  C18 UNL     1      -3.708  48.577 -10.939  1.00  0.00     0.177 C 
HETATM   14  C19 UNL     1      -4.534  43.870 -11.592  1.00  0.00     0.053 A 
HETATM   15  N9  UNL     1      -4.274  42.658 -11.661  1.00  0.00    -0.398 N 
ATOM     16  H91 UNL     1      -3.306  42.386 -11.490  1.00  0.00     0.156 HD
ATOM     17  H92 UNL     1      -4.931  41.907 -11.873  1.00  0.00     0.156 HD
ENDROOT
BRANCH   3  18
HETATM   18  N1  UNL     1      -7.607  45.957 -12.036  1.00  0.00    -0.283 N 
HETATM   19  C4  UNL     1      -8.403  45.883 -10.826  1.00  0.00     0.155 C 
HETATM   20  C5  UNL     1      -9.547  46.856 -10.804  1.00  0.00     0.147 C 
HETATM   21  N2  UNL     1     -10.585  46.495 -11.758  1.00  0.00    -0.337 N 
HETATM   22  C6  UNL     1     -11.861  46.032 -11.225  1.00  0.00     0.154 C 
HETATM   23  C7  UNL     1     -10.442  46.561 -13.178  1.00  0.00     0.326 C 
HETATM   24  O1  UNL     1     -11.514  46.609 -13.813  1.00  0.00    -0.247 OA
HETATM   25  N3  UNL     1      -9.206  46.576 -13.917  1.00  0.00    -0.260 N 
HETATM   26  C8  UNL     1      -7.887  46.354 -13.370  1.00  0.00     0.332 C 
ATOM     27  H3  UNL     1      -9.268  46.761 -14.918  1.00  0.00     0.175 HD
HETATM   28  O2  UNL     1      -6.939  46.527 -14.137  1.00  0.00    -0.246 OA
ENDBRANCH   3  18
BRANCH   8  29
HETATM   29  O3  UNL     1      -1.831  43.335 -11.111  1.00  0.00    -0.345 OA
ATOM     30  H3  UNL     1      -2.142  42.666 -10.512  1.00  0.00     0.219 HD
ENDBRANCH   8  29
BRANCH  11  31
HETATM   31  N6  UNL     1      -1.068  47.888 -10.530  1.00  0.00    -0.226 N 
ATOM     32  H6  UNL     1      -1.155  48.782 -11.011  1.00  0.00     0.177 HD
BRANCH  31  33
HETATM   33  C13 UNL     1      -0.031  47.672  -9.585  1.00  0.00     0.138 C 
BRANCH  33  34
HETATM   34  C14 UNL     1      -0.508  47.277  -8.239  1.00  0.00     0.020 C 
BRANCH  34  35
HETATM   35  C15 UNL     1      -1.386  48.238  -7.527  1.00  0.00     0.003 C 
BRANCH  35  36
HETATM   36  C16 UNL     1      -2.769  47.796  -7.228  1.00  0.00     0.027 C 
BRANCH  36  37
HETATM   37  C17 UNL     1      -3.692  48.987  -7.549  1.00  0.00     0.229 C 
BRANCH  37  38
HETATM   38  N7  UNL     1      -3.550  50.046  -6.599  1.00  0.00    -0.079 N 
ATOM     39  H73 UNL     1      -3.068  50.847  -7.007  1.00  0.00     0.274 HD
ATOM     40  H72 UNL     1      -4.449  50.484  -6.397  1.00  0.00     0.274 HD
ATOM     41  H71 UNL     1      -3.090  49.734  -5.744  1.00  0.00     0.274 HD
ENDBRANCH  37  38
ENDBRANCH  36  37
ENDBRANCH  35  36
ENDBRANCH  34  35
ENDBRANCH  33  34
ENDBRANCH  31  33
ENDBRANCH  11  31
TORSDOF 9
ENDMDL
MODEL 4
REMARK VINA RESULT: -5.709983204      1.218      1.696
REMARK  9 active torsions:
REMARK  status: ('A' for Active; 'I' for Inactive)
REMARK    1  A    between atoms: C3_3  and  N1_4 
REMARK    2  A    between atoms: C11_19  and  O3_20 
REMARK    3  A    between atoms: C12_24  and  N6_25 
REMARK    4  A    between atoms: N6_25  and  C13_27 
REMARK    5  A    between atoms: C13_27  and  C14_28 
REMARK    6  A    between atoms: C14_28  and  C15_29 
REMARK    7  A    between atoms: C15_29  and  C16_30 
REMARK    8  A    between atoms: C16_30  and  C17_31 
REMARK    9  A    between atoms: C17_31  and  N7_32 
ROOT
HETATM    1  C1  UNL     1      -9.805  48.531 -12.631  1.00  0.00     0.054 C 
HETATM    2  C2  UNL     1      -8.494  47.976 -12.157  1.00  0.00     0.010 A 
HETATM    3  C3  UNL     1      -8.452  46.718 -11.693  1.00  0.00     0.121 A 
HETATM    4  N4  UNL     1      -7.291  46.205 -11.264  1.00  0.00    -0.326 N 
ATOM      5  H4  UNL     1      -7.283  45.246 -10.917  1.00  0.00     0.169 HD
HETATM    6  C9  UNL     1      -6.138  46.894 -11.270  1.00  0.00     0.141 A 
HETATM    7  C10 UNL     1      -6.160  48.207 -11.749  1.00  0.00     0.087 A 
HETATM    8  C11 UNL     1      -4.996  48.936 -11.752  1.00  0.00     0.171 A 
HETATM    9  N5  UNL     1      -3.861  48.342 -11.281  1.00  0.00    -0.170 N 
ATOM     10  H5  UNL     1      -2.988  48.869 -11.273  1.00  0.00     0.186 HD
HETATM   11  C12 UNL     1      -3.871  47.076 -10.826  1.00  0.00     0.683 A 
HETATM   12  N8  UNL     1      -4.992  46.342 -10.813  1.00  0.00    -0.172 N 
HETATM   13  C18 UNL     1      -5.044  44.977 -10.342  1.00  0.00     0.177 C 
HETATM   14  C19 UNL     1      -7.349  48.780 -12.208  1.00  0.00     0.053 A 
HETATM   15  N9  UNL     1      -7.491  49.928 -12.658  1.00  0.00    -0.398 N 
ATOM     16  H91 UNL     1      -6.657  50.513 -12.694  1.00  0.00     0.156 HD
ATOM     17  H92 UNL     1      -8.359  50.347 -12.992  1.00  0.00     0.156 HD
ENDROOT
BRANCH   3  18
HETATM   18  N1  UNL     1      -9.616  45.867 -11.598  1.00  0.00    -0.283 N 
HETATM   19  C4  UNL     1     -10.420  46.238 -10.449  1.00  0.00     0.155 C 
HETATM   20  C5  UNL     1     -11.876  45.908 -10.608  1.00  0.00     0.147 C 
HETATM   21  N2  UNL     1     -12.114  44.472 -10.572  1.00  0.00    -0.337 N 
HETATM   22  C6  UNL     1     -12.819  43.933  -9.416  1.00  0.00     0.154 C 
HETATM   23  C7  UNL     1     -11.705  43.555 -11.589  1.00  0.00     0.326 C 
HETATM   24  O1  UNL     1     -12.323  42.472 -11.599  1.00  0.00    -0.247 OA
HETATM   25  N3  UNL     1     -10.674  43.767 -12.572  1.00  0.00    -0.260 N 
HETATM   26  C8  UNL     1      -9.745  44.874 -12.604  1.00  0.00     0.332 C 
ATOM     27  H3  UNL     1     -10.592  43.071 -13.313  1.00  0.00     0.175 HD
HETATM   28  O2  UNL     1      -9.013  44.948 -13.592  1.00  0.00    -0.246 OA
ENDBRANCH   3  18
BRANCH   8  29
HETATM   29  O3  UNL     1      -4.953  50.224 -12.208  1.00  0.00    -0.345 OA
ATOM     30  H3  UNL     1      -4.234  50.544 -12.741  1.00  0.00     0.219 HD
ENDBRANCH   8  29
BRANCH  11  31
HETATM   31  N6  UNL     1      -2.776  46.546 -10.369  1.00  0.00    -0.226 N 
ATOM     32  H6  UNL     1      -2.801  45.675  -9.840  1.00  0.00     0.177 HD
BRANCH  31  33
HETATM   33  C13 UNL     1      -1.544  47.204 -10.622  1.00  0.00     0.138 C 
BRANCH  33  34
HETATM   34  C14 UNL     1      -0.732  47.461  -9.410  1.00  0.00     0.020 C 
BRANCH  34  35
HETATM   35  C15 UNL     1      -1.382  47.212  -8.100  1.00  0.00     0.003 C 
BRANCH  35  36
HETATM   36  C16 UNL     1      -1.677  48.395  -7.256  1.00  0.00     0.027 C 
BRANCH  36  37
HETATM   37  C17 UNL     1      -3.162  48.739  -7.482  1.00  0.00     0.229 C 
BRANCH  37  38
HETATM   38  N7  UNL     1      -3.583  49.844  -6.678  1.00  0.00    -0.079 N 
ATOM     39  H73 UNL     1      -3.821  50.652  -7.255  1.00  0.00     0.274 HD
ATOM     40  H72 UNL     1      -4.497  49.670  -6.261  1.00  0.00     0.274 HD
ATOM     41  H71 UNL     1      -2.892  50.087  -5.969  1.00  0.00     0.274 HD
ENDBRANCH  37  38
ENDBRANCH  36  37
ENDBRANCH  35  36
ENDBRANCH  34  35
ENDBRANCH  33  34
ENDBRANCH  31  33
ENDBRANCH  11  31
TORSDOF 9
ENDMDL
MODEL 5
REMARK VINA RESULT: -5.652035952      4.711      6.759
REMARK  9 active torsions:
REMARK  status: ('A' for Active; 'I' for Inactive)
REMARK    1  A    between atoms: C3_3  and  N1_4 
REMARK    2  A    between atoms: C11_19  and  O3_20 
REMARK    3  A    between atoms: C12_24  and  N6_25 
REMARK    4  A    between atoms: N6_25  and  C13_27 
REMARK    5  A    between atoms: C13_27  and  C14_28 
REMARK    6  A    between atoms: C14_28  and  C15_29 
REMARK    7  A    between atoms: C15_29  and  C16_30 
REMARK    8  A    between atoms: C16_30  and  C17_31 
REMARK    9  A    between atoms: C17_31  and  N7_32 
ROOT
HETATM    1  C1  UNL     1      -3.959  50.735 -15.869  1.00  0.00     0.054 C 
HETATM    2  C2  UNL     1      -4.031  50.010 -14.557  1.00  0.00     0.010 A 
HETATM    3  C3  UNL     1      -4.633  50.609 -13.517  1.00  0.00     0.121 A 
HETATM    4  N4  UNL     1      -4.706  49.980 -12.337  1.00  0.00    -0.326 N 
ATOM      5  H4  UNL     1      -5.170  50.453 -11.562  1.00  0.00     0.169 HD
HETATM    6  C9  UNL     1      -4.198  48.754 -12.127  1.00  0.00     0.141 A 
HETATM    7  C10 UNL     1      -3.566  48.113 -13.197  1.00  0.00     0.087 A 
HETATM    8  C11 UNL     1      -3.027  46.865 -13.003  1.00  0.00     0.171 A 
HETATM    9  N5  UNL     1      -3.131  46.303 -11.763  1.00  0.00    -0.170 N 
ATOM     10  H5  UNL     1      -2.734  45.378 -11.600  1.00  0.00     0.186 HD
HETATM   11  C12 UNL     1      -3.745  46.944 -10.753  1.00  0.00     0.683 A 
HETATM   12  N8  UNL     1      -4.281  48.162 -10.915  1.00  0.00    -0.172 N 
HETATM   13  C18 UNL     1      -4.957  48.882  -9.860  1.00  0.00     0.177 C 
HETATM   14  C19 UNL     1      -3.470  48.733 -14.445  1.00  0.00     0.053 A 
HETATM   15  N9  UNL     1      -2.939  48.264 -15.465  1.00  0.00    -0.398 N 
ATOM     16  H91 UNL     1      -2.530  47.334 -15.383  1.00  0.00     0.156 HD
ATOM     17  H92 UNL     1      -2.868  48.717 -16.376  1.00  0.00     0.156 HD
ENDROOT
BRANCH   3  18
HETATM   18  N1  UNL     1      -5.198  51.937 -13.584  1.00  0.00    -0.283 N 
HETATM   19  C4  UNL     1      -4.146  52.928 -13.714  1.00  0.00     0.155 C 
HETATM   20  C5  UNL     1      -4.589  54.180 -14.414  1.00  0.00     0.147 C 
HETATM   21  N2  UNL     1      -5.509  54.961 -13.599  1.00  0.00    -0.337 N 
HETATM   22  C6  UNL     1      -5.033  56.236 -13.076  1.00  0.00     0.154 C 
HETATM   23  C7  UNL     1      -6.843  54.565 -13.275  1.00  0.00     0.326 C 
HETATM   24  O1  UNL     1      -7.598  55.496 -12.930  1.00  0.00    -0.247 OA
HETATM   25  N3  UNL     1      -7.375  53.228 -13.311  1.00  0.00    -0.260 N 
HETATM   26  C8  UNL     1      -6.614  52.016 -13.514  1.00  0.00     0.332 C 
ATOM     27  H3  UNL     1      -8.382  53.126 -13.181  1.00  0.00     0.175 HD
HETATM   28  O2  UNL     1      -7.261  50.975 -13.635  1.00  0.00    -0.246 OA
ENDBRANCH   3  18
BRANCH   8  29
HETATM   29  O3  UNL     1      -2.398  46.187 -14.008  1.00  0.00    -0.345 OA
ATOM     30  H3  UNL     1      -2.801  45.443 -14.442  1.00  0.00     0.219 HD
ENDBRANCH   8  29
BRANCH  11  31
HETATM   31  N6  UNL     1      -3.812  46.387  -9.581  1.00  0.00    -0.226 N 
ATOM     32  H6  UNL     1      -4.708  46.081  -9.202  1.00  0.00     0.177 HD
BRANCH  31  33
HETATM   33  C13 UNL     1      -2.615  46.215  -8.840  1.00  0.00     0.138 C 
BRANCH  33  34
HETATM   34  C14 UNL     1      -2.407  47.225  -7.776  1.00  0.00     0.020 C 
BRANCH  34  35
HETATM   35  C15 UNL     1      -1.136  47.988  -7.811  1.00  0.00     0.003 C 
BRANCH  35  36
HETATM   36  C16 UNL     1       0.069  47.271  -8.290  1.00  0.00     0.027 C 
BRANCH  36  37
HETATM   37  C17 UNL     1       0.706  48.156  -9.379  1.00  0.00     0.229 C 
BRANCH  37  38
HETATM   38  N7  UNL     1       2.033  48.561  -9.032  1.00  0.00    -0.079 N 
ATOM     39  H73 UNL     1       2.184  49.548  -9.238  1.00  0.00     0.274 HD
ATOM     40  H72 UNL     1       2.158  48.587  -8.020  1.00  0.00     0.274 HD
ATOM     41  H71 UNL     1       2.740  47.978  -9.478  1.00  0.00     0.274 HD
ENDBRANCH  37  38
ENDBRANCH  36  37
ENDBRANCH  35  36
ENDBRANCH  34  35
ENDBRANCH  33  34
ENDBRANCH  31  33
ENDBRANCH  11  31
TORSDOF 9
ENDMDL
