MODEL 1
REMARK VINA RESULT: -5.732252148      0.000      0.000
REMARK  10 active torsions:
REMARK  status: ('A' for Active; 'I' for Inactive)
REMARK    1  A    between atoms: C6_12  and  O2_13 
REMARK    2  A    between atoms: C7_15  and  S1_16 
REMARK    3  A    between atoms: S1_16  and  C8_17 
REMARK    4  A    between atoms: C8_17  and  N4_18 
REMARK    5  A    between atoms: N4_18  and  C9_20 
REMARK    6  A    between atoms: C9_20  and  O3_21 
REMARK    7  A    between atoms: C9_20  and  C10_23 
REMARK    8  A    between atoms: C10_23  and  C11_24 
REMARK    9  A    between atoms: C11_24  and  C12_25 
REMARK   10  A    between atoms: C13_28  and  N6_29 
ROOT
HETATM    1  C1  UNL     1      -7.307   4.446  13.003  1.00  0.00     0.310 C 
HETATM    2  N1  UNL     1      -7.364   5.475  14.053  1.00  0.00     0.094 N 
HETATM    3  C2  UNL     1      -8.203   6.580  13.642  1.00  0.00     0.330 C 
HETATM    4  C3  UNL     1      -7.238   7.459  12.898  1.00  0.00     0.051 A 
HETATM    5  N2  UNL     1      -7.411   8.472  12.027  1.00  0.00    -0.339 N 
ATOM      6  H2  UNL     1      -8.356   8.759  11.772  1.00  0.00     0.167 HD
HETATM    7  C4  UNL     1      -6.358   9.112  11.488  1.00  0.00     0.184 A 
HETATM    8  C5  UNL     1      -6.572  10.155  10.592  1.00  0.00     0.292 A 
HETATM    9  O1  UNL     1      -7.773  10.449  10.328  1.00  0.00    -0.264 OA
HETATM   10  N3  UNL     1      -5.532  10.806  10.044  1.00  0.00    -0.299 N 
ATOM     11  H3  UNL     1      -5.719  11.567   9.391  1.00  0.00     0.171 HD
HETATM   12  C6  UNL     1      -4.242  10.489  10.329  1.00  0.00     0.178 A 
HETATM   13  C7  UNL     1      -4.031   9.457  11.216  1.00  0.00     0.133 A 
HETATM   14  N5  UNL     1      -5.084   8.801  11.769  1.00  0.00    -0.268 N 
HETATM   15  C13 UNL     1      -4.873   7.787  12.640  1.00  0.00     0.118 A 
HETATM   16  C14 UNL     1      -5.940   7.114  13.207  1.00  0.00     0.038 A 
HETATM   17  C15 UNL     1      -6.018   6.000  14.163  1.00  0.00     0.317 C 
ENDROOT
BRANCH  13  18
HETATM   18  S1  UNL     1      -2.370   8.972  11.641  1.00  0.00    -0.088 SA
BRANCH  18  19
HETATM   19  C8  UNL     1      -1.535   8.144  10.283  1.00  0.00     0.203 C 
BRANCH  19  20
HETATM   20  N4  UNL     1      -1.019   9.171   9.319  1.00  0.00    -0.362 N 
ATOM     21  H4  UNL     1      -0.427   9.949   9.610  1.00  0.00     0.162 HD
BRANCH  20  22
HETATM   22  C9  UNL     1      -1.415   8.976   7.987  1.00  0.00     0.135 C 
BRANCH  22  23
HETATM   23  O3  UNL     1      -0.591   9.432   7.064  1.00  0.00    -0.346 OA
ATOM     24  H3  UNL     1       0.019   8.802   6.700  1.00  0.00     0.219 HD
ENDBRANCH  22  23
BRANCH  22  25
HETATM   25  C10 UNL     1      -2.609   8.340   7.522  1.00  0.00     0.052 C 
BRANCH  25  26
HETATM   26  C11 UNL     1      -2.887   7.201   7.034  1.00  0.00    -0.008 C 
BRANCH  26  27
HETATM   27  C12 UNL     1      -3.943   6.256   7.358  1.00  0.00     0.142 C 
HETATM   28 CL1  UNL     1      -4.474   6.638   9.037  1.00  0.00    -0.126 Cl
ENDBRANCH  26  27
ENDBRANCH  25  26
ENDBRANCH  22  25
ENDBRANCH  20  22
ENDBRANCH  19  20
ENDBRANCH  18  19
ENDBRANCH  13  18
BRANCH  12  29
HETATM   29  O2  UNL     1      -3.215  11.205   9.726  1.00  0.00    -0.344 OA
ATOM     30  H2  UNL     1      -2.917  10.952   8.860  1.00  0.00     0.219 HD
ENDBRANCH  12  29
BRANCH  15  31
HETATM   31  N6  UNL     1      -3.644   7.488  12.908  1.00  0.00    -0.384 N 
ATOM     32  H62 UNL     1      -3.390   6.846  13.659  1.00  0.00     0.157 HD
ATOM     33  H61 UNL     1      -2.923   7.921  12.332  1.00  0.00     0.157 HD
ENDBRANCH  15  31
TORSDOF 10
ENDMDL
MODEL 2
REMARK VINA RESULT: -5.467300848      1.831      2.452
REMARK  10 active torsions:
REMARK  status: ('A' for Active; 'I' for Inactive)
REMARK    1  A    between atoms: C6_12  and  O2_13 
REMARK    2  A    between atoms: C7_15  and  S1_16 
REMARK    3  A    between atoms: S1_16  and  C8_17 
REMARK    4  A    between atoms: C8_17  and  N4_18 
REMARK    5  A    between atoms: N4_18  and  C9_20 
REMARK    6  A    between atoms: C9_20  and  O3_21 
REMARK    7  A    between atoms: C9_20  and  C10_23 
REMARK    8  A    between atoms: C10_23  and  C11_24 
REMARK    9  A    between atoms: C11_24  and  C12_25 
REMARK   10  A    between atoms: C13_28  and  N6_29 
ROOT
HETATM    1  C1  UNL     1      -9.333   6.006  12.275  1.00  0.00     0.310 C 
HETATM    2  N1  UNL     1      -8.291   6.211  13.293  1.00  0.00     0.094 N 
HETATM    3  C2  UNL     1      -8.208   7.607  13.668  1.00  0.00     0.330 C 
HETATM    4  C3  UNL     1      -7.254   8.159  12.646  1.00  0.00     0.051 A 
HETATM    5  N2  UNL     1      -6.974   9.414  12.243  1.00  0.00    -0.339 N 
ATOM      6  H2  UNL     1      -7.466  10.199  12.669  1.00  0.00     0.167 HD
HETATM    7  C4  UNL     1      -6.055   9.647  11.289  1.00  0.00     0.184 A 
HETATM    8  C5  UNL     1      -5.791  10.956  10.896  1.00  0.00     0.292 A 
HETATM    9  O1  UNL     1      -6.443  11.873  11.471  1.00  0.00    -0.264 OA
HETATM   10  N3  UNL     1      -4.876  11.209   9.944  1.00  0.00    -0.299 N 
ATOM     11  H3  UNL     1      -4.702  12.177   9.676  1.00  0.00     0.171 HD
HETATM   12  C6  UNL     1      -4.175  10.221   9.326  1.00  0.00     0.178 A 
HETATM   13  C7  UNL     1      -4.439   8.927   9.716  1.00  0.00     0.133 A 
HETATM   14  N5  UNL     1      -5.363   8.675  10.678  1.00  0.00    -0.268 N 
HETATM   15  C13 UNL     1      -5.618   7.402  11.059  1.00  0.00     0.118 A 
HETATM   16  C14 UNL     1      -6.559   7.136  12.038  1.00  0.00     0.038 A 
HETATM   17  C15 UNL     1      -7.038   5.885  12.644  1.00  0.00     0.317 C 
ENDROOT
BRANCH  13  18
HETATM   18  S1  UNL     1      -3.568   7.572   8.953  1.00  0.00    -0.088 SA
BRANCH  18  19
HETATM   19  C8  UNL     1      -3.163   7.906   7.235  1.00  0.00     0.203 C 
BRANCH  19  20
HETATM   20  N4  UNL     1      -1.710   7.617   7.004  1.00  0.00    -0.362 N 
ATOM     21  H4  UNL     1      -1.388   6.814   6.465  1.00  0.00     0.162 HD
BRANCH  20  22
HETATM   22  C9  UNL     1      -0.829   8.540   7.589  1.00  0.00     0.135 C 
BRANCH  22  23
HETATM   23  O3  UNL     1      -0.745   9.716   7.001  1.00  0.00    -0.346 OA
ATOM     24  H3  UNL     1       0.132  10.033   6.821  1.00  0.00     0.219 HD
ENDBRANCH  22  23
BRANCH  22  25
HETATM   25  C10 UNL     1      -0.016   8.345   8.750  1.00  0.00     0.052 C 
BRANCH  25  26
HETATM   26  C11 UNL     1      -0.143   8.598   9.988  1.00  0.00    -0.008 C 
BRANCH  26  27
HETATM   27  C12 UNL     1      -0.774   9.713  10.674  1.00  0.00     0.142 C 
HETATM   28 CL1  UNL     1      -1.780   9.000  11.989  1.00  0.00    -0.126 Cl
ENDBRANCH  26  27
ENDBRANCH  25  26
ENDBRANCH  22  25
ENDBRANCH  20  22
ENDBRANCH  19  20
ENDBRANCH  18  19
ENDBRANCH  13  18
BRANCH  12  29
HETATM   29  O2  UNL     1      -3.244  10.555   8.350  1.00  0.00    -0.344 OA
ATOM     30  H2  UNL     1      -2.505   9.979   8.196  1.00  0.00     0.219 HD
ENDBRANCH  12  29
BRANCH  15  31
HETATM   31  N6  UNL     1      -4.950   6.465  10.469  1.00  0.00    -0.384 N 
ATOM     32  H62 UNL     1      -5.384   5.816   9.813  1.00  0.00     0.157 HD
ATOM     33  H61 UNL     1      -3.956   6.396  10.685  1.00  0.00     0.157 HD
ENDBRANCH  15  31
TORSDOF 10
ENDMDL
MODEL 3
REMARK VINA RESULT: -5.359116673      3.146      5.286
REMARK  10 active torsions:
REMARK  status: ('A' for Active; 'I' for Inactive)
REMARK    1  A    between atoms: C6_12  and  O2_13 
REMARK    2  A    between atoms: C7_15  and  S1_16 
REMARK    3  A    between atoms: S1_16  and  C8_17 
REMARK    4  A    between atoms: C8_17  and  N4_18 
REMARK    5  A    between atoms: N4_18  and  C9_20 
REMARK    6  A    between atoms: C9_20  and  O3_21 
REMARK    7  A    between atoms: C9_20  and  C10_23 
REMARK    8  A    between atoms: C10_23  and  C11_24 
REMARK    9  A    between atoms: C11_24  and  C12_25 
REMARK   10  A    between atoms: C13_28  and  N6_29 
ROOT
HETATM    1  C1  UNL     1      -0.100  12.672  14.540  1.00  0.00     0.310 C 
HETATM    2  N1  UNL     1       0.347  12.576  13.142  1.00  0.00     0.094 N 
HETATM    3  C2  UNL     1      -0.485  13.390  12.281  1.00  0.00     0.330 C 
HETATM    4  C3  UNL     1      -1.609  12.454  11.938  1.00  0.00     0.051 A 
HETATM    5  N2  UNL     1      -2.841  12.655  11.431  1.00  0.00    -0.339 N 
ATOM      6  H2  UNL     1      -3.145  13.603  11.210  1.00  0.00     0.167 HD
HETATM    7  C4  UNL     1      -3.677  11.624  11.212  1.00  0.00     0.184 A 
HETATM    8  C5  UNL     1      -4.943  11.866  10.688  1.00  0.00     0.292 A 
HETATM    9  O1  UNL     1      -5.244  13.069  10.441  1.00  0.00    -0.264 OA
HETATM   10  N3  UNL     1      -5.792  10.849  10.461  1.00  0.00    -0.299 N 
ATOM     11  H3  UNL     1      -6.714  11.056  10.076  1.00  0.00     0.171 HD
HETATM   12  C6  UNL     1      -5.468   9.556  10.727  1.00  0.00     0.178 A 
HETATM   13  C7  UNL     1      -4.215   9.318  11.246  1.00  0.00     0.133 A 
HETATM   14  N5  UNL     1      -3.359  10.348  11.473  1.00  0.00    -0.268 N 
HETATM   15  C13 UNL     1      -2.128  10.110  11.983  1.00  0.00     0.118 A 
HETATM   16  C14 UNL     1      -1.250  11.153  12.217  1.00  0.00     0.038 A 
HETATM   17  C15 UNL     1       0.119  11.200  12.750  1.00  0.00     0.317 C 
ENDROOT
BRANCH  13  18
HETATM   18  S1  UNL     1      -3.710   7.653  11.628  1.00  0.00    -0.088 SA
BRANCH  18  19
HETATM   19  C8  UNL     1      -3.151   6.761  10.171  1.00  0.00     0.203 C 
BRANCH  19  20
HETATM   20  N4  UNL     1      -4.244   6.757   9.144  1.00  0.00    -0.362 N 
ATOM     21  H4  UNL     1      -5.231   6.830   9.391  1.00  0.00     0.162 HD
BRANCH  20  22
HETATM   22  C9  UNL     1      -3.801   6.646   7.817  1.00  0.00     0.135 C 
BRANCH  22  23
HETATM   23  O3  UNL     1      -4.097   5.520   7.199  1.00  0.00    -0.346 OA
ATOM     24  H3  UNL     1      -4.517   5.606   6.351  1.00  0.00     0.219 HD
ENDBRANCH  22  23
BRANCH  22  25
HETATM   25  C10 UNL     1      -3.068   7.616   7.064  1.00  0.00     0.052 C 
BRANCH  25  26
HETATM   26  C11 UNL     1      -1.894   8.097   7.122  1.00  0.00    -0.008 C 
BRANCH  26  27
HETATM   27  C12 UNL     1      -1.255   8.940   8.119  1.00  0.00     0.142 C 
HETATM   28 CL1  UNL     1       0.306   8.143   8.536  1.00  0.00    -0.126 Cl
ENDBRANCH  26  27
ENDBRANCH  25  26
ENDBRANCH  22  25
ENDBRANCH  20  22
ENDBRANCH  19  20
ENDBRANCH  18  19
ENDBRANCH  13  18
BRANCH  12  29
HETATM   29  O2  UNL     1      -6.395   8.554  10.468  1.00  0.00    -0.344 OA
ATOM     30  H2  UNL     1      -7.021   8.315  11.140  1.00  0.00     0.219 HD
ENDBRANCH  12  29
BRANCH  15  31
HETATM   31  N6  UNL     1      -1.823   8.879  12.234  1.00  0.00    -0.384 N 
ATOM     32  H62 UNL     1      -2.437   8.262  12.764  1.00  0.00     0.157 HD
ATOM     33  H61 UNL     1      -0.930   8.539  11.877  1.00  0.00     0.157 HD
ENDBRANCH  15  31
TORSDOF 10
ENDMDL
MODEL 4
REMARK VINA RESULT: -5.336635844      2.160      2.614
REMARK  10 active torsions:
REMARK  status: ('A' for Active; 'I' for Inactive)
REMARK    1  A    between atoms: C6_12  and  O2_13 
REMARK    2  A    between atoms: C7_15  and  S1_16 
REMARK    3  A    between atoms: S1_16  and  C8_17 
REMARK    4  A    between atoms: C8_17  and  N4_18 
REMARK    5  A    between atoms: N4_18  and  C9_20 
REMARK    6  A    between atoms: C9_20  and  O3_21 
REMARK    7  A    between atoms: C9_20  and  C10_23 
REMARK    8  A    between atoms: C10_23  and  C11_24 
REMARK    9  A    between atoms: C11_24  and  C12_25 
REMARK   10  A    between atoms: C13_28  and  N6_29 
ROOT
HETATM    1  C1  UNL     1     -10.458   5.152  12.283  1.00  0.00     0.310 C 
HETATM    2  N1  UNL     1      -9.905   5.771  13.498  1.00  0.00     0.094 N 
HETATM    3  C2  UNL     1     -10.157   7.196  13.507  1.00  0.00     0.330 C 
HETATM    4  C3  UNL     1      -8.979   7.738  12.749  1.00  0.00     0.051 A 
HETATM    5  N2  UNL     1      -8.744   8.923  12.153  1.00  0.00    -0.339 N 
ATOM      6  H2  UNL     1      -9.461   9.648  12.177  1.00  0.00     0.167 HD
HETATM    7  C4  UNL     1      -7.579   9.165  11.525  1.00  0.00     0.184 A 
HETATM    8  C5  UNL     1      -7.370  10.400  10.919  1.00  0.00     0.292 A 
HETATM    9  O1  UNL     1      -8.307  11.245  10.994  1.00  0.00    -0.264 OA
HETATM   10  N3  UNL     1      -6.213  10.661  10.287  1.00  0.00    -0.299 N 
ATOM     11  H3  UNL     1      -6.086  11.575   9.852  1.00  0.00     0.171 HD
HETATM   12  C6  UNL     1      -5.205   9.752  10.208  1.00  0.00     0.178 A 
HETATM   13  C7  UNL     1      -5.414   8.530  10.808  1.00  0.00     0.133 A 
HETATM   14  N5  UNL     1      -6.584   8.270  11.446  1.00  0.00    -0.268 N 
HETATM   15  C13 UNL     1      -6.786   7.069  12.035  1.00  0.00     0.118 A 
HETATM   16  C14 UNL     1      -7.975   6.795  12.686  1.00  0.00     0.038 A 
HETATM   17  C15 UNL     1      -8.468   5.610  13.401  1.00  0.00     0.317 C 
ENDROOT
BRANCH  13  18
HETATM   18  S1  UNL     1      -4.147   7.279  10.746  1.00  0.00    -0.088 SA
BRANCH  18  19
HETATM   19  C8  UNL     1      -4.117   6.419   9.169  1.00  0.00     0.203 C 
BRANCH  19  20
HETATM   20  N4  UNL     1      -3.937   7.417   8.065  1.00  0.00    -0.362 N 
ATOM     21  H4  UNL     1      -4.642   8.117   7.835  1.00  0.00     0.162 HD
BRANCH  20  22
HETATM   22  C9  UNL     1      -2.721   7.312   7.372  1.00  0.00     0.135 C 
BRANCH  22  23
HETATM   23  O3  UNL     1      -2.468   6.144   6.816  1.00  0.00    -0.346 OA
ATOM     24  H3  UNL     1      -2.252   5.435   7.411  1.00  0.00     0.219 HD
ENDBRANCH  22  23
BRANCH  22  25
HETATM   25  C10 UNL     1      -1.730   8.330   7.202  1.00  0.00     0.052 C 
BRANCH  25  26
HETATM   26  C11 UNL     1      -0.822   8.831   7.934  1.00  0.00    -0.008 C 
BRANCH  26  27
HETATM   27  C12 UNL     1      -0.383   8.490   9.278  1.00  0.00     0.142 C 
HETATM   28 CL1  UNL     1       1.255   7.759   9.110  1.00  0.00    -0.126 Cl
ENDBRANCH  26  27
ENDBRANCH  25  26
ENDBRANCH  22  25
ENDBRANCH  20  22
ENDBRANCH  19  20
ENDBRANCH  18  19
ENDBRANCH  13  18
BRANCH  12  29
HETATM   29  O2  UNL     1      -4.034  10.089   9.539  1.00  0.00    -0.344 OA
ATOM     30  H2  UNL     1      -3.624   9.450   8.968  1.00  0.00     0.219 HD
ENDBRANCH  12  29
BRANCH  15  31
HETATM   31  N6  UNL     1      -5.826   6.206  11.956  1.00  0.00    -0.384 N 
ATOM     32  H62 UNL     1      -5.557   5.617  12.743  1.00  0.00     0.157 HD
ATOM     33  H61 UNL     1      -5.338   6.132  11.064  1.00  0.00     0.157 HD
ENDBRANCH  15  31
TORSDOF 10
ENDMDL
MODEL 5
REMARK VINA RESULT: -5.320286182      2.468      3.602
REMARK  10 active torsions:
REMARK  status: ('A' for Active; 'I' for Inactive)
REMARK    1  A    between atoms: C6_12  and  O2_13 
REMARK    2  A    between atoms: C7_15  and  S1_16 
REMARK    3  A    between atoms: S1_16  and  C8_17 
REMARK    4  A    between atoms: C8_17  and  N4_18 
REMARK    5  A    between atoms: N4_18  and  C9_20 
REMARK    6  A    between atoms: C9_20  and  O3_21 
REMARK    7  A    between atoms: C9_20  and  C10_23 
REMARK    8  A    between atoms: C10_23  and  C11_24 
REMARK    9  A    between atoms: C11_24  and  C12_25 
REMARK   10  A    between atoms: C13_28  and  N6_29 
ROOT
HETATM    1  C1  UNL     1      -5.253   5.806  14.387  1.00  0.00     0.310 C 
HETATM    2  N1  UNL     1      -6.444   5.859  13.526  1.00  0.00     0.094 N 
HETATM    3  C2  UNL     1      -6.204   5.168  12.277  1.00  0.00     0.330 C 
HETATM    4  C3  UNL     1      -5.595   6.244  11.423  1.00  0.00     0.051 A 
HETATM    5  N2  UNL     1      -4.885   6.209  10.279  1.00  0.00    -0.339 N 
ATOM      6  H2  UNL     1      -4.679   5.310   9.844  1.00  0.00     0.167 HD
HETATM    7  C4  UNL     1      -4.442   7.341   9.702  1.00  0.00     0.184 A 
HETATM    8  C5  UNL     1      -3.712   7.268   8.520  1.00  0.00     0.292 A 
HETATM    9  O1  UNL     1      -3.499   6.117   8.044  1.00  0.00    -0.264 OA
HETATM   10  N3  UNL     1      -3.262   8.388   7.928  1.00  0.00    -0.299 N 
ATOM     11  H3  UNL     1      -2.729   8.306   7.062  1.00  0.00     0.171 HD
HETATM   12  C6  UNL     1      -3.492   9.626   8.441  1.00  0.00     0.178 A 
HETATM   13  C7  UNL     1      -4.215   9.696   9.610  1.00  0.00     0.133 A 
HETATM   14  N5  UNL     1      -4.668   8.563  10.206  1.00  0.00    -0.268 N 
HETATM   15  C13 UNL     1      -5.379   8.635  11.355  1.00  0.00     0.118 A 
HETATM   16  C14 UNL     1      -5.844   7.486  11.968  1.00  0.00     0.038 A 
HETATM   17  C15 UNL     1      -6.625   7.258  13.192  1.00  0.00     0.317 C 
ENDROOT
BRANCH  13  18
HETATM   18  S1  UNL     1      -4.557  11.279  10.353  1.00  0.00    -0.088 SA
BRANCH  18  19
HETATM   19  C8  UNL     1      -3.192  11.864  11.364  1.00  0.00     0.203 C 
BRANCH  19  20
HETATM   20  N4  UNL     1      -1.899  11.384  10.776  1.00  0.00    -0.362 N 
ATOM     21  H4  UNL     1      -1.514  11.762   9.910  1.00  0.00     0.162 HD
BRANCH  20  22
HETATM   22  C9  UNL     1      -1.261  10.372  11.510  1.00  0.00     0.135 C 
BRANCH  22  23
HETATM   23  O3  UNL     1      -0.706  10.742  12.647  1.00  0.00    -0.346 OA
ATOM     24  H3  UNL     1      -0.713  10.097  13.345  1.00  0.00     0.219 HD
ENDBRANCH  22  23
BRANCH  22  25
HETATM   25  C10 UNL     1      -1.147   8.989  11.161  1.00  0.00     0.052 C 
BRANCH  25  26
HETATM   26  C11 UNL     1      -0.680   8.348  10.170  1.00  0.00    -0.008 C 
BRANCH  26  27
HETATM   27  C12 UNL     1       0.072   8.799   9.010  1.00  0.00     0.142 C 
HETATM   28 CL1  UNL     1       1.526   7.741   8.901  1.00  0.00    -0.126 Cl
ENDBRANCH  26  27
ENDBRANCH  25  26
ENDBRANCH  22  25
ENDBRANCH  20  22
ENDBRANCH  19  20
ENDBRANCH  18  19
ENDBRANCH  13  18
BRANCH  12  29
HETATM   29  O2  UNL     1      -2.997  10.741   7.776  1.00  0.00    -0.344 OA
ATOM     30  H2  UNL     1      -3.303  10.932   6.896  1.00  0.00     0.219 HD
ENDBRANCH  12  29
BRANCH  15  31
HETATM   31  N6  UNL     1      -5.596   9.814  11.840  1.00  0.00    -0.384 N 
ATOM     32  H62 UNL     1      -5.125  10.645  11.484  1.00  0.00     0.157 HD
ATOM     33  H61 UNL     1      -6.267   9.886  12.605  1.00  0.00     0.157 HD
ENDBRANCH  15  31
TORSDOF 10
ENDMDL
