MODEL 1
REMARK VINA RESULT: -5.864366329      0.000      0.000
REMARK  8 active torsions:
REMARK  status: ('A' for Active; 'I' for Inactive)
REMARK    1  A    between atoms: C2_2  and  O1_5 
REMARK    2  A    between atoms: O1_5  and  C4_6 
REMARK    3  A    between atoms: C4_6  and  N1_7 
REMARK    4  A    between atoms: C4_6  and  C5_10 
REMARK    5  A    between atoms: C6_11  and  N2_12 
REMARK    6  A    between atoms: C10_16  and  C11_17 
REMARK    7  A    between atoms: C11_17  and  N3_18 
REMARK    8  A    between atoms: C19_33  and  N7_34 
ROOT
HETATM    1  C5  UNL     1      -2.857   8.431   9.130  1.00  0.00     0.102 A 
HETATM    2  C6  UNL     1      -3.805   7.525   9.485  1.00  0.00     0.122 A 
HETATM    3  N5  UNL     1      -4.260   6.593   8.567  1.00  0.00    -0.338 N 
ATOM      4  H5  UNL     1      -4.972   5.922   8.855  1.00  0.00     0.168 HD
HETATM    5  C18 UNL     1      -3.795   6.547   7.321  1.00  0.00     0.183 A 
HETATM    6  N6  UNL     1      -2.857   7.446   6.979  1.00  0.00    -0.338 N 
ATOM      7  H6  UNL     1      -2.491   7.422   6.027  1.00  0.00     0.168 HD
HETATM    8  C19 UNL     1      -2.381   8.363   7.812  1.00  0.00     0.118 A 
ENDROOT
BRANCH   2   9
HETATM    9  N2  UNL     1      -4.355   7.504  10.783  1.00  0.00    -0.366 N 
HETATM   10  C7  UNL     1      -5.534   8.343  11.047  1.00  0.00     0.124 C 
HETATM   11  C8  UNL     1      -6.671   7.344  11.222  1.00  0.00     0.020 C 
HETATM   12  C9  UNL     1      -6.389   6.380  12.321  1.00  0.00     0.009 C 
HETATM   13  C10 UNL     1      -5.059   5.695  12.256  1.00  0.00     0.032 C 
HETATM   14  C17 UNL     1      -3.927   6.695  11.893  1.00  0.00     0.130 C 
BRANCH  13  15
HETATM   15  C11 UNL     1      -4.671   5.138  13.595  1.00  0.00     0.278 C 
BRANCH  15  16
HETATM   16  N3  UNL     1      -4.073   3.839  13.560  1.00  0.00     0.090 N 
HETATM   17  C12 UNL     1      -3.197   3.588  14.684  1.00  0.00     0.274 C 
HETATM   18  C13 UNL     1      -2.161   2.579  14.246  1.00  0.00     0.057 C 
HETATM   19  C14 UNL     1      -2.574   1.183  14.687  1.00  0.00     0.234 C 
HETATM   20  N4  UNL     1      -3.992   1.008  14.730  1.00  0.00    -0.073 N 
HETATM   21  C15 UNL     1      -4.683   1.457  13.556  1.00  0.00     0.262 C 
ATOM     22  H42 UNL     1      -4.223   0.034  14.927  1.00  0.00     0.277 HD
ATOM     23  H41 UNL     1      -4.379   1.453  15.562  1.00  0.00     0.277 HD
HETATM   24  C16 UNL     1      -5.166   2.873  13.663  1.00  0.00     0.299 C 
ENDBRANCH  15  16
ENDBRANCH  13  15
ENDBRANCH   2   9
BRANCH   1  25
HETATM   25  C4  UNL     1      -2.310   9.454  10.019  1.00  0.00     0.157 C 
BRANCH  25  26
HETATM   26  O1  UNL     1      -2.852  10.741  10.030  1.00  0.00    -0.294 OA
BRANCH  26  27
HETATM   27  C2  UNL     1      -3.483  11.383  11.082  1.00  0.00     0.204 C 
HETATM   28  C1  UNL     1      -4.849  11.928  10.785  1.00  0.00     0.084 C 
HETATM   29  C3  UNL     1      -2.543  12.537  11.495  1.00  0.00     0.084 C 
HETATM   30  F1  UNL     1      -3.582  10.611  12.246  1.00  0.00    -0.212 F 
ENDBRANCH  26  27
ENDBRANCH  25  26
BRANCH  25  31
HETATM   31  N1  UNL     1      -1.343   9.244  10.806  1.00  0.00    -0.379 N 
ATOM     32  H12 UNL     1      -1.423   8.679  11.652  1.00  0.00     0.158 HD
ATOM     33  H11 UNL     1      -0.453   9.675  10.555  1.00  0.00     0.158 HD
ENDBRANCH  25  31
ENDBRANCH   1  25
BRANCH   8  34
HETATM   34  N7  UNL     1      -1.476   9.227   7.470  1.00  0.00    -0.385 N 
ATOM     35  H72 UNL     1      -1.111   9.933   8.110  1.00  0.00     0.157 HD
ATOM     36  H71 UNL     1      -1.128   9.176   6.512  1.00  0.00     0.157 HD
ENDBRANCH   8  34
TORSDOF 8
ENDMDL
MODEL 2
REMARK VINA RESULT: -5.747437436      0.479      1.186
REMARK  8 active torsions:
REMARK  status: ('A' for Active; 'I' for Inactive)
REMARK    1  A    between atoms: C2_2  and  O1_5 
REMARK    2  A    between atoms: O1_5  and  C4_6 
REMARK    3  A    between atoms: C4_6  and  N1_7 
REMARK    4  A    between atoms: C4_6  and  C5_10 
REMARK    5  A    between atoms: C6_11  and  N2_12 
REMARK    6  A    between atoms: C10_16  and  C11_17 
REMARK    7  A    between atoms: C11_17  and  N3_18 
REMARK    8  A    between atoms: C19_33  and  N7_34 
ROOT
HETATM    1  C5  UNL     1      -2.852   8.431   9.148  1.00  0.00     0.102 A 
HETATM    2  C6  UNL     1      -3.790   7.530   9.538  1.00  0.00     0.122 A 
HETATM    3  N5  UNL     1      -4.230   6.555   8.658  1.00  0.00    -0.338 N 
ATOM      4  H5  UNL     1      -4.936   5.888   8.972  1.00  0.00     0.168 HD
HETATM    5  C18 UNL     1      -3.761   6.462   7.416  1.00  0.00     0.183 A 
HETATM    6  N6  UNL     1      -2.832   7.358   7.040  1.00  0.00    -0.338 N 
ATOM      7  H6  UNL     1      -2.463   7.299   6.091  1.00  0.00     0.168 HD
HETATM    8  C19 UNL     1      -2.370   8.315   7.835  1.00  0.00     0.118 A 
ENDROOT
BRANCH   2   9
HETATM    9  N2  UNL     1      -4.344   7.555  10.835  1.00  0.00    -0.366 N 
HETATM   10  C7  UNL     1      -5.631   8.243  11.021  1.00  0.00     0.124 C 
HETATM   11  C8  UNL     1      -6.619   7.117  11.295  1.00  0.00     0.020 C 
HETATM   12  C9  UNL     1      -6.216   6.311  12.481  1.00  0.00     0.009 C 
HETATM   13  C10 UNL     1      -4.804   5.815  12.476  1.00  0.00     0.032 C 
HETATM   14  C17 UNL     1      -3.818   6.924  12.015  1.00  0.00     0.130 C 
BRANCH  13  15
HETATM   15  C11 UNL     1      -4.354   5.447  13.861  1.00  0.00     0.278 C 
BRANCH  15  16
HETATM   16  N3  UNL     1      -4.499   4.065  14.197  1.00  0.00     0.090 N 
HETATM   17  C12 UNL     1      -5.270   3.323  13.223  1.00  0.00     0.274 C 
HETATM   18  C13 UNL     1      -5.916   2.157  13.934  1.00  0.00     0.057 C 
HETATM   19  C14 UNL     1      -5.082   0.900  13.735  1.00  0.00     0.234 C 
HETATM   20  N4  UNL     1      -3.685   1.171  13.604  1.00  0.00    -0.073 N 
HETATM   21  C15 UNL     1      -3.153   2.049  14.605  1.00  0.00     0.262 C 
ATOM     22  H42 UNL     1      -3.156   0.299  13.578  1.00  0.00     0.277 HD
ATOM     23  H41 UNL     1      -3.480   1.529  12.672  1.00  0.00     0.277 HD
HETATM   24  C16 UNL     1      -3.155   3.489  14.187  1.00  0.00     0.299 C 
ENDBRANCH  15  16
ENDBRANCH  13  15
ENDBRANCH   2   9
BRANCH   1  25
HETATM   25  C4  UNL     1      -2.320   9.497   9.995  1.00  0.00     0.157 C 
BRANCH  25  26
HETATM   26  O1  UNL     1      -2.939  10.749  10.025  1.00  0.00    -0.294 OA
BRANCH  26  27
HETATM   27  C2  UNL     1      -3.574  11.352  11.098  1.00  0.00     0.204 C 
HETATM   28  C1  UNL     1      -4.936  11.914  10.814  1.00  0.00     0.084 C 
HETATM   29  C3  UNL     1      -2.632  12.485  11.562  1.00  0.00     0.084 C 
HETATM   30  F1  UNL     1      -3.684  10.535  12.231  1.00  0.00    -0.212 F 
ENDBRANCH  26  27
ENDBRANCH  25  26
BRANCH  25  31
HETATM   31  N1  UNL     1      -1.300   9.357  10.729  1.00  0.00    -0.379 N 
ATOM     32  H12 UNL     1      -1.271   9.642  11.708  1.00  0.00     0.158 HD
ATOM     33  H11 UNL     1      -0.481   8.934  10.291  1.00  0.00     0.158 HD
ENDBRANCH  25  31
ENDBRANCH   1  25
BRANCH   8  34
HETATM   34  N7  UNL     1      -1.474   9.174   7.461  1.00  0.00    -0.385 N 
ATOM     35  H72 UNL     1      -0.706   8.939   6.833  1.00  0.00     0.157 HD
ATOM     36  H71 UNL     1      -1.565  10.123   7.825  1.00  0.00     0.157 HD
ENDBRANCH   8  34
TORSDOF 8
ENDMDL
MODEL 3
REMARK VINA RESULT: -5.697453461      3.519      6.791
REMARK  8 active torsions:
REMARK  status: ('A' for Active; 'I' for Inactive)
REMARK    1  A    between atoms: C2_2  and  O1_5 
REMARK    2  A    between atoms: O1_5  and  C4_6 
REMARK    3  A    between atoms: C4_6  and  N1_7 
REMARK    4  A    between atoms: C4_6  and  C5_10 
REMARK    5  A    between atoms: C6_11  and  N2_12 
REMARK    6  A    between atoms: C10_16  and  C11_17 
REMARK    7  A    between atoms: C11_17  and  N3_18 
REMARK    8  A    between atoms: C19_33  and  N7_34 
ROOT
HETATM    1  C5  UNL     1      -3.449   7.932   9.212  1.00  0.00     0.102 A 
HETATM    2  C6  UNL     1      -2.656   9.016   9.411  1.00  0.00     0.122 A 
HETATM    3  N5  UNL     1      -1.795   9.445   8.414  1.00  0.00    -0.338 N 
ATOM      4  H5  UNL     1      -1.209  10.262   8.585  1.00  0.00     0.168 HD
HETATM    5  C18 UNL     1      -1.710   8.822   7.241  1.00  0.00     0.183 A 
HETATM    6  N6  UNL     1      -2.498   7.750   7.054  1.00  0.00    -0.338 N 
ATOM      7  H6  UNL     1      -2.443   7.263   6.159  1.00  0.00     0.168 HD
HETATM    8  C19 UNL     1      -3.343   7.291   7.968  1.00  0.00     0.118 A 
ENDROOT
BRANCH   2   9
HETATM    9  N2  UNL     1      -2.681   9.735  10.624  1.00  0.00    -0.366 N 
HETATM   10  C7  UNL     1      -1.746   9.328  11.685  1.00  0.00     0.124 C 
HETATM   11  C8  UNL     1      -0.737  10.468  11.750  1.00  0.00     0.020 C 
HETATM   12  C9  UNL     1      -1.401  11.772  12.031  1.00  0.00     0.009 C 
HETATM   13  C10 UNL     1      -2.560  12.111  11.146  1.00  0.00     0.032 C 
HETATM   14  C17 UNL     1      -3.488  10.884  10.935  1.00  0.00     0.130 C 
BRANCH  13  15
HETATM   15  C11 UNL     1      -3.434  13.157  11.777  1.00  0.00     0.278 C 
BRANCH  15  16
HETATM   16  N3  UNL     1      -4.764  12.729  12.082  1.00  0.00     0.090 N 
HETATM   17  C12 UNL     1      -5.063  12.774  13.497  1.00  0.00     0.274 C 
HETATM   18  C13 UNL     1      -6.128  11.740  13.779  1.00  0.00     0.057 C 
HETATM   19  C14 UNL     1      -7.499  12.399  13.810  1.00  0.00     0.234 C 
HETATM   20  N4  UNL     1      -7.595  13.529  12.940  1.00  0.00    -0.073 N 
HETATM   21  C15 UNL     1      -7.109  13.300  11.610  1.00  0.00     0.262 C 
ATOM     22  H42 UNL     1      -8.554  13.874  12.913  1.00  0.00     0.277 HD
ATOM     23  H41 UNL     1      -7.129  14.336  13.354  1.00  0.00     0.277 HD
HETATM   24  C16 UNL     1      -5.668  13.679  11.437  1.00  0.00     0.299 C 
ENDBRANCH  15  16
ENDBRANCH  13  15
ENDBRANCH   2   9
BRANCH   1  25
HETATM   25  C4  UNL     1      -4.390   7.397  10.195  1.00  0.00     0.157 C 
BRANCH  25  26
HETATM   26  O1  UNL     1      -5.717   7.832  10.209  1.00  0.00    -0.294 OA
BRANCH  26  27
HETATM   27  C2  UNL     1      -6.400   8.425  11.257  1.00  0.00     0.204 C 
HETATM   28  C1  UNL     1      -7.493   7.599  11.871  1.00  0.00     0.084 C 
HETATM   29  C3  UNL     1      -6.995   9.730  10.686  1.00  0.00     0.084 C 
HETATM   30  F1  UNL     1      -5.576   8.872  12.298  1.00  0.00    -0.212 F 
ENDBRANCH  26  27
ENDBRANCH  25  26
BRANCH  25  31
HETATM   31  N1  UNL     1      -4.070   6.537  11.065  1.00  0.00    -0.379 N 
ATOM     32  H12 UNL     1      -4.441   6.537  12.015  1.00  0.00     0.158 HD
ATOM     33  H11 UNL     1      -3.406   5.820  10.771  1.00  0.00     0.158 HD
ENDBRANCH  25  31
ENDBRANCH   1  25
BRANCH   8  34
HETATM   34  N7  UNL     1      -4.098   6.254   7.776  1.00  0.00    -0.385 N 
ATOM     35  H72 UNL     1      -4.025   5.402   8.331  1.00  0.00     0.157 HD
ATOM     36  H71 UNL     1      -4.791   6.320   7.029  1.00  0.00     0.157 HD
ENDBRANCH   8  34
TORSDOF 8
ENDMDL
MODEL 4
REMARK VINA RESULT: -5.682150664      3.491      8.009
REMARK  8 active torsions:
REMARK  status: ('A' for Active; 'I' for Inactive)
REMARK    1  A    between atoms: C2_2  and  O1_5 
REMARK    2  A    between atoms: O1_5  and  C4_6 
REMARK    3  A    between atoms: C4_6  and  N1_7 
REMARK    4  A    between atoms: C4_6  and  C5_10 
REMARK    5  A    between atoms: C6_11  and  N2_12 
REMARK    6  A    between atoms: C10_16  and  C11_17 
REMARK    7  A    between atoms: C11_17  and  N3_18 
REMARK    8  A    between atoms: C19_33  and  N7_34 
ROOT
HETATM    1  C5  UNL     1      -3.409   7.897   9.193  1.00  0.00     0.102 A 
HETATM    2  C6  UNL     1      -2.618   8.979   9.410  1.00  0.00     0.122 A 
HETATM    3  N5  UNL     1      -1.782   9.446   8.408  1.00  0.00    -0.338 N 
ATOM      4  H5  UNL     1      -1.197  10.261   8.593  1.00  0.00     0.168 HD
HETATM    5  C18 UNL     1      -1.722   8.864   7.213  1.00  0.00     0.183 A 
HETATM    6  N6  UNL     1      -2.509   7.795   7.008  1.00  0.00    -0.338 N 
ATOM      7  H6  UNL     1      -2.473   7.338   6.096  1.00  0.00     0.168 HD
HETATM    8  C19 UNL     1      -3.330   7.300   7.926  1.00  0.00     0.118 A 
ENDROOT
BRANCH   2   9
HETATM    9  N2  UNL     1      -2.617   9.656  10.647  1.00  0.00    -0.366 N 
HETATM   10  C7  UNL     1      -1.599   9.278  11.639  1.00  0.00     0.124 C 
HETATM   11  C8  UNL     1      -0.661  10.478  11.687  1.00  0.00     0.020 C 
HETATM   12  C9  UNL     1      -1.388  11.726  12.051  1.00  0.00     0.009 C 
HETATM   13  C10 UNL     1      -2.616  12.018  11.244  1.00  0.00     0.032 C 
HETATM   14  C17 UNL     1      -3.475  10.740  11.043  1.00  0.00     0.130 C 
BRANCH  13  15
HETATM   15  C11 UNL     1      -3.516  12.984  11.960  1.00  0.00     0.278 C 
BRANCH  15  16
HETATM   16  N3  UNL     1      -3.928  14.113  11.186  1.00  0.00     0.090 N 
HETATM   17  C12 UNL     1      -5.278  14.541  11.482  1.00  0.00     0.274 C 
HETATM   18  C13 UNL     1      -5.831  15.216  10.249  1.00  0.00     0.057 C 
HETATM   19  C14 UNL     1      -5.685  16.726  10.371  1.00  0.00     0.234 C 
HETATM   20  N4  UNL     1      -4.542  17.115  11.136  1.00  0.00    -0.073 N 
HETATM   21  C15 UNL     1      -3.323  16.459  10.762  1.00  0.00     0.262 C 
ATOM     22  H42 UNL     1      -4.424  18.128  11.105  1.00  0.00     0.277 HD
ATOM     23  H41 UNL     1      -4.722  16.990  12.132  1.00  0.00     0.277 HD
HETATM   24  C16 UNL     1      -3.051  15.221  11.564  1.00  0.00     0.299 C 
ENDBRANCH  15  16
ENDBRANCH  13  15
ENDBRANCH   2   9
BRANCH   1  25
HETATM   25  C4  UNL     1      -4.324   7.325  10.179  1.00  0.00     0.157 C 
BRANCH  25  26
HETATM   26  O1  UNL     1      -5.664   7.715  10.208  1.00  0.00    -0.294 OA
BRANCH  26  27
HETATM   27  C2  UNL     1      -6.356   8.283  11.264  1.00  0.00     0.204 C 
HETATM   28  C1  UNL     1      -7.447   7.439  11.856  1.00  0.00     0.084 C 
HETATM   29  C3  UNL     1      -6.956   9.597  10.717  1.00  0.00     0.084 C 
HETATM   30  F1  UNL     1      -5.539   8.713  12.318  1.00  0.00    -0.212 F 
ENDBRANCH  26  27
ENDBRANCH  25  26
BRANCH  25  31
HETATM   31  N1  UNL     1      -3.969   6.468  11.039  1.00  0.00    -0.379 N 
ATOM     32  H12 UNL     1      -3.038   6.052  11.063  1.00  0.00     0.158 HD
ATOM     33  H11 UNL     1      -4.672   6.200  11.729  1.00  0.00     0.158 HD
ENDBRANCH  25  31
ENDBRANCH   1  25
BRANCH   8  34
HETATM   34  N7  UNL     1      -4.084   6.266   7.716  1.00  0.00    -0.385 N 
ATOM     35  H72 UNL     1      -3.907   5.354   8.137  1.00  0.00     0.157 HD
ATOM     36  H71 UNL     1      -4.886   6.397   7.099  1.00  0.00     0.157 HD
ENDBRANCH   8  34
TORSDOF 8
ENDMDL
MODEL 5
REMARK VINA RESULT: -5.673117746      1.110      1.440
REMARK  8 active torsions:
REMARK  status: ('A' for Active; 'I' for Inactive)
REMARK    1  A    between atoms: C2_2  and  O1_5 
REMARK    2  A    between atoms: O1_5  and  C4_6 
REMARK    3  A    between atoms: C4_6  and  N1_7 
REMARK    4  A    between atoms: C4_6  and  C5_10 
REMARK    5  A    between atoms: C6_11  and  N2_12 
REMARK    6  A    between atoms: C10_16  and  C11_17 
REMARK    7  A    between atoms: C11_17  and  N3_18 
REMARK    8  A    between atoms: C19_33  and  N7_34 
ROOT
HETATM    1  C5  UNL     1      -2.833   8.293   9.225  1.00  0.00     0.102 A 
HETATM    2  C6  UNL     1      -3.819   7.406   9.516  1.00  0.00     0.122 A 
HETATM    3  N5  UNL     1      -4.287   6.537   8.544  1.00  0.00    -0.338 N 
ATOM      4  H5  UNL     1      -5.028   5.879   8.785  1.00  0.00     0.168 HD
HETATM    5  C18 UNL     1      -3.798   6.536   7.306  1.00  0.00     0.183 A 
HETATM    6  N6  UNL     1      -2.822   7.416   7.028  1.00  0.00    -0.338 N 
ATOM      7  H6  UNL     1      -2.437   7.426   6.083  1.00  0.00     0.168 HD
HETATM    8  C19 UNL     1      -2.331   8.273   7.915  1.00  0.00     0.118 A 
ENDROOT
BRANCH   2   9
HETATM    9  N2  UNL     1      -4.396   7.340  10.801  1.00  0.00    -0.366 N 
HETATM   10  C7  UNL     1      -5.407   8.349  11.156  1.00  0.00     0.124 C 
HETATM   11  C8  UNL     1      -6.713   7.565  11.209  1.00  0.00     0.020 C 
HETATM   12  C9  UNL     1      -6.641   6.447  12.191  1.00  0.00     0.009 C 
HETATM   13  C10 UNL     1      -5.458   5.540  12.052  1.00  0.00     0.032 C 
HETATM   14  C17 UNL     1      -4.153   6.347  11.811  1.00  0.00     0.130 C 
BRANCH  13  15
HETATM   15  C11 UNL     1      -5.213   4.772  13.319  1.00  0.00     0.278 C 
BRANCH  15  16
HETATM   16  N3  UNL     1      -5.816   3.477  13.368  1.00  0.00     0.090 N 
HETATM   17  C12 UNL     1      -4.851   2.407  13.501  1.00  0.00     0.274 C 
HETATM   18  C13 UNL     1      -5.451   1.163  12.890  1.00  0.00     0.057 C 
HETATM   19  C14 UNL     1      -6.064   0.292  13.976  1.00  0.00     0.234 C 
HETATM   20  N4  UNL     1      -6.569   1.048  15.079  1.00  0.00    -0.073 N 
HETATM   21  C15 UNL     1      -7.399   2.158  14.710  1.00  0.00     0.262 C 
ATOM     22  H42 UNL     1      -7.061   0.438  15.731  1.00  0.00     0.277 HD
ATOM     23  H41 UNL     1      -5.803   1.361  15.675  1.00  0.00     0.277 HD
HETATM   24  C16 UNL     1      -6.639   3.444  14.576  1.00  0.00     0.299 C 
ENDBRANCH  15  16
ENDBRANCH  13  15
ENDBRANCH   2   9
BRANCH   1  25
HETATM   25  C4  UNL     1      -2.269   9.251  10.174  1.00  0.00     0.157 C 
BRANCH  25  26
HETATM   26  O1  UNL     1      -2.687  10.583  10.164  1.00  0.00    -0.294 OA
BRANCH  26  27
HETATM   27  C2  UNL     1      -3.255  11.298  11.205  1.00  0.00     0.204 C 
HETATM   28  C1  UNL     1      -4.605  11.891  10.926  1.00  0.00     0.084 C 
HETATM   29  C3  UNL     1      -2.253  12.425  11.538  1.00  0.00     0.084 C 
HETATM   30  F1  UNL     1      -3.350  10.583  12.406  1.00  0.00    -0.212 F 
ENDBRANCH  26  27
ENDBRANCH  25  26
BRANCH  25  31
HETATM   31  N1  UNL     1      -1.395   8.943  11.035  1.00  0.00    -0.379 N 
ATOM     32  H12 UNL     1      -0.965   9.621  11.664  1.00  0.00     0.158 HD
ATOM     33  H11 UNL     1      -1.127   7.959  11.076  1.00  0.00     0.158 HD
ENDBRANCH  25  31
ENDBRANCH   1  25
BRANCH   8  34
HETATM   34  N7  UNL     1      -1.389   9.119   7.634  1.00  0.00    -0.385 N 
ATOM     35  H72 UNL     1      -0.535   9.203   8.184  1.00  0.00     0.157 HD
ATOM     36  H71 UNL     1      -1.533   9.717   6.820  1.00  0.00     0.157 HD
ENDBRANCH   8  34
TORSDOF 8
ENDMDL
