MODEL 1
REMARK VINA RESULT: -6.860661330      0.000      0.000
REMARK  5 active torsions:
REMARK  status: ('A' for Active; 'I' for Inactive)
REMARK    1  A    between atoms: C4_5  and  C5_6 
REMARK    2  A    between atoms: C8_11  and  C9_12 
REMARK    3  A    between atoms: N3_17  and  C12_18 
REMARK    4  A    between atoms: C14_20  and  N4_21 
REMARK    5  A    between atoms: C18_30  and  N7_31 
ROOT
HETATM    1  C1  UNL     1      -4.840   6.929   9.258  1.00  0.00     0.054 C 
HETATM    2  C2  UNL     1      -3.602   7.553   9.756  1.00  0.00     0.007 A 
HETATM    3  C3  UNL     1      -2.473   7.673   8.932  1.00  0.00     0.140 A 
HETATM    4  F1  UNL     1      -2.584   7.192   7.677  1.00  0.00    -0.204 F 
HETATM    5  C4  UNL     1      -1.331   8.261   9.422  1.00  0.00     0.069 A 
HETATM    6  C6  UNL     1      -1.305   8.725  10.720  1.00  0.00     0.035 A 
HETATM    7  C7  UNL     1      -2.390   8.621  11.546  1.00  0.00     0.019 A 
HETATM    8  C8  UNL     1      -2.579   9.011  12.857  1.00  0.00     0.042 A 
HETATM    9  N2  UNL     1      -3.833   8.662  13.161  1.00  0.00    -0.295 N 
ATOM     10  H2  UNL     1      -4.287   8.813  14.063  1.00  0.00     0.187 HD
HETATM   11  N3  UNL     1      -4.401   8.083  12.096  1.00  0.00    -0.238 N 
HETATM   12  C19 UNL     1      -3.558   8.026  11.057  1.00  0.00     0.079 A 
ENDROOT
BRANCH  11  13
HETATM   13  C12 UNL     1      -5.723   7.616  12.136  1.00  0.00     0.146 A 
HETATM   14  C13 UNL     1      -6.759   8.504  12.218  1.00  0.00     0.100 A 
HETATM   15  C14 UNL     1      -8.064   8.082  12.229  1.00  0.00     0.124 A 
HETATM   16  N6  UNL     1      -8.279   6.734  12.155  1.00  0.00    -0.177 N 
HETATM   17  C18 UNL     1      -7.276   5.846  12.074  1.00  0.00     0.679 A 
ATOM     18  H6  UNL     1      -9.239   6.390  12.163  1.00  0.00     0.185 HD
HETATM   19  N8  UNL     1      -5.994   6.285  12.064  1.00  0.00    -0.175 N 
ATOM     20  H8  UNL     1      -5.229   5.613  12.004  1.00  0.00     0.186 HD
BRANCH  15  21
HETATM   21  N4  UNL     1      -9.166   8.954  12.313  1.00  0.00    -0.342 N 
HETATM   22  C15 UNL     1      -9.153  10.381  12.062  1.00  0.00     0.153 C 
HETATM   23  C16 UNL     1     -10.544  10.666  11.555  1.00  0.00     0.254 C 
HETATM   24  N5  UNL     1     -11.371   9.603  12.042  1.00  0.00    -0.058 N 
HETATM   25  C17 UNL     1     -10.521   8.616  12.660  1.00  0.00     0.358 C 
ATOM     26  H52 UNL     1     -12.108   9.932  12.666  1.00  0.00     0.279 HD
ATOM     27  H51 UNL     1     -11.970   9.207  11.318  1.00  0.00     0.279 HD
ENDBRANCH  15  21
BRANCH  17  28
HETATM   28  N7  UNL     1      -7.572   4.599  12.007  1.00  0.00    -0.234 N 
ATOM     29  H72 UNL     1      -7.505   3.982  12.817  1.00  0.00     0.174 HD
ATOM     30  H71 UNL     1      -7.884   4.223  11.112  1.00  0.00     0.174 HD
ENDBRANCH  17  28
ENDBRANCH  11  13
BRANCH   8  31
HETATM   31  C9  UNL     1      -1.586   9.671  13.704  1.00  0.00     0.030 C 
HETATM   32  C10 UNL     1      -1.348   8.930  15.008  1.00  0.00     0.016 C 
HETATM   33  C11 UNL     1      -1.918  11.104  14.024  1.00  0.00     0.016 C 
ENDBRANCH   8  31
BRANCH   5  34
HETATM   34  C5  UNL     1      -0.165   8.382   8.564  1.00  0.00     0.268 C 
HETATM   35  N1  UNL     1       1.038   7.706   8.867  1.00  0.00    -0.057 NA
HETATM   36  O1  UNL     1      -0.181   9.096   7.514  1.00  0.00    -0.271 OA
ENDBRANCH   5  34
TORSDOF 5
ENDMDL
MODEL 2
REMARK VINA RESULT: -6.856208299      1.475      3.485
REMARK  5 active torsions:
REMARK  status: ('A' for Active; 'I' for Inactive)
REMARK    1  A    between atoms: C4_5  and  C5_6 
REMARK    2  A    between atoms: C8_11  and  C9_12 
REMARK    3  A    between atoms: N3_17  and  C12_18 
REMARK    4  A    between atoms: C14_20  and  N4_21 
REMARK    5  A    between atoms: C18_30  and  N7_31 
ROOT
HETATM    1  C1  UNL     1      -4.881   6.622   9.340  1.00  0.00     0.054 C 
HETATM    2  C2  UNL     1      -3.668   7.373   9.707  1.00  0.00     0.007 A 
HETATM    3  C3  UNL     1      -2.647   7.597   8.772  1.00  0.00     0.140 A 
HETATM    4  F1  UNL     1      -2.837   7.093   7.535  1.00  0.00    -0.204 F 
HETATM    5  C4  UNL     1      -1.526   8.301   9.142  1.00  0.00     0.069 A 
HETATM    6  C6  UNL     1      -1.414   8.780  10.430  1.00  0.00     0.035 A 
HETATM    7  C7  UNL     1      -2.393   8.576  11.363  1.00  0.00     0.019 A 
HETATM    8  C8  UNL     1      -2.485   8.960  12.686  1.00  0.00     0.042 A 
HETATM    9  N2  UNL     1      -3.660   8.490  13.118  1.00  0.00    -0.295 N 
ATOM     10  H2  UNL     1      -4.032   8.605  14.061  1.00  0.00     0.187 HD
HETATM   11  N3  UNL     1      -4.272   7.845  12.117  1.00  0.00    -0.238 N 
HETATM   12  C19 UNL     1      -3.539   7.862  10.997  1.00  0.00     0.079 A 
ENDROOT
BRANCH  11  13
HETATM   13  C12 UNL     1      -5.529   7.249  12.293  1.00  0.00     0.146 A 
HETATM   14  C13 UNL     1      -5.619   5.923  12.614  1.00  0.00     0.100 A 
HETATM   15  C14 UNL     1      -6.832   5.318  12.822  1.00  0.00     0.124 A 
HETATM   16  N6  UNL     1      -7.944   6.100  12.692  1.00  0.00    -0.177 N 
HETATM   17  C18 UNL     1      -7.878   7.403  12.378  1.00  0.00     0.679 A 
ATOM     18  H6  UNL     1      -8.861   5.677  12.839  1.00  0.00     0.185 HD
HETATM   19  N8  UNL     1      -6.670   7.982  12.177  1.00  0.00    -0.175 N 
ATOM     20  H8  UNL     1      -6.615   8.972  11.937  1.00  0.00     0.186 HD
BRANCH  15  21
HETATM   21  N4  UNL     1      -6.978   3.958  13.153  1.00  0.00    -0.342 N 
HETATM   22  C15 UNL     1      -8.226   3.257  13.378  1.00  0.00     0.153 C 
HETATM   23  C16 UNL     1      -7.923   1.842  12.953  1.00  0.00     0.254 C 
HETATM   24  N5  UNL     1      -6.501   1.695  13.047  1.00  0.00    -0.058 N 
HETATM   25  C17 UNL     1      -5.931   2.987  13.335  1.00  0.00     0.358 C 
ATOM     26  H52 UNL     1      -6.224   0.984  13.723  1.00  0.00     0.279 HD
ATOM     27  H51 UNL     1      -6.095   1.262  12.217  1.00  0.00     0.279 HD
ENDBRANCH  15  21
BRANCH  17  28
HETATM   28  N7  UNL     1      -8.976   8.061  12.278  1.00  0.00    -0.234 N 
ATOM     29  H72 UNL     1      -9.876   7.658  12.537  1.00  0.00     0.174 HD
ATOM     30  H71 UNL     1      -8.936   9.018  11.928  1.00  0.00     0.174 HD
ENDBRANCH  17  28
ENDBRANCH  11  13
BRANCH   8  31
HETATM   31  C9  UNL     1      -1.482   9.725  13.426  1.00  0.00     0.030 C 
HETATM   32  C10 UNL     1      -1.338   9.259  14.864  1.00  0.00     0.016 C 
HETATM   33  C11 UNL     1      -1.733  11.209  13.428  1.00  0.00     0.016 C 
ENDBRANCH   8  31
BRANCH   5  34
HETATM   34  C5  UNL     1      -0.472   8.529   8.167  1.00  0.00     0.268 C 
HETATM   35  N1  UNL     1       0.811   7.963   8.334  1.00  0.00    -0.057 NA
HETATM   36  O1  UNL     1      -0.662   9.242   7.134  1.00  0.00    -0.271 OA
ENDBRANCH   5  34
TORSDOF 5
ENDMDL
MODEL 3
REMARK VINA RESULT: -6.763681668      3.713      8.229
REMARK  5 active torsions:
REMARK  status: ('A' for Active; 'I' for Inactive)
REMARK    1  A    between atoms: C4_5  and  C5_6 
REMARK    2  A    between atoms: C8_11  and  C9_12 
REMARK    3  A    between atoms: N3_17  and  C12_18 
REMARK    4  A    between atoms: C14_20  and  N4_21 
REMARK    5  A    between atoms: C18_30  and  N7_31 
ROOT
HETATM    1  C1  UNL     1      -7.430   9.501  12.029  1.00  0.00     0.054 C 
HETATM    2  C2  UNL     1      -8.442   8.461  12.274  1.00  0.00     0.007 A 
HETATM    3  C3  UNL     1      -9.764   8.802  12.599  1.00  0.00     0.140 A 
HETATM    4  F1  UNL     1     -10.050  10.118  12.672  1.00  0.00    -0.204 F 
HETATM    5  C4  UNL     1     -10.689   7.810  12.823  1.00  0.00     0.069 A 
HETATM    6  C6  UNL     1     -10.309   6.488  12.727  1.00  0.00     0.035 A 
HETATM    7  C7  UNL     1      -9.028   6.126  12.413  1.00  0.00     0.019 A 
HETATM    8  C8  UNL     1      -8.442   4.884  12.269  1.00  0.00     0.042 A 
HETATM    9  N2  UNL     1      -7.164   5.123  11.957  1.00  0.00    -0.295 N 
ATOM     10  H2  UNL     1      -6.455   4.409  11.782  1.00  0.00     0.187 HD
HETATM   11  N3  UNL     1      -6.960   6.445  11.909  1.00  0.00    -0.238 N 
HETATM   12  C19 UNL     1      -8.079   7.127  12.183  1.00  0.00     0.079 A 
ENDROOT
BRANCH  11  13
HETATM   13  C12 UNL     1      -5.700   6.979  11.602  1.00  0.00     0.146 A 
HETATM   14  C13 UNL     1      -5.280   7.037  10.302  1.00  0.00     0.100 A 
HETATM   15  C14 UNL     1      -4.066   7.581   9.967  1.00  0.00     0.124 A 
HETATM   16  N6  UNL     1      -3.298   8.060  10.990  1.00  0.00    -0.177 N 
HETATM   17  C18 UNL     1      -3.692   8.013  12.272  1.00  0.00     0.679 A 
ATOM     18  H6  UNL     1      -2.390   8.469  10.771  1.00  0.00     0.185 HD
HETATM   19  N8  UNL     1      -4.895   7.472  12.582  1.00  0.00    -0.175 N 
ATOM     20  H8  UNL     1      -5.198   7.433  13.555  1.00  0.00     0.186 HD
BRANCH  15  21
HETATM   21  N4  UNL     1      -3.588   7.664   8.646  1.00  0.00    -0.342 N 
HETATM   22  C15 UNL     1      -2.860   8.773   8.063  1.00  0.00     0.153 C 
HETATM   23  C16 UNL     1      -1.986   8.119   7.023  1.00  0.00     0.254 C 
HETATM   24  N5  UNL     1      -2.617   6.875   6.698  1.00  0.00    -0.058 N 
HETATM   25  C17 UNL     1      -3.717   6.675   7.608  1.00  0.00     0.358 C 
ATOM     26  H52 UNL     1      -2.903   6.823   5.720  1.00  0.00     0.279 HD
ATOM     27  H51 UNL     1      -1.964   6.092   6.693  1.00  0.00     0.279 HD
ENDBRANCH  15  21
BRANCH  17  28
HETATM   28  N7  UNL     1      -2.905   8.488  13.168  1.00  0.00    -0.234 N 
ATOM     29  H72 UNL     1      -3.239   8.767  14.091  1.00  0.00     0.174 HD
ATOM     30  H71 UNL     1      -1.916   8.584  12.941  1.00  0.00     0.174 HD
ENDBRANCH  17  28
ENDBRANCH  11  13
BRANCH   8  31
HETATM   31  C9  UNL     1      -9.116   3.596  12.429  1.00  0.00     0.030 C 
HETATM   32  C10 UNL     1     -10.540   3.615  11.902  1.00  0.00     0.016 C 
HETATM   33  C11 UNL     1      -9.139   3.097  13.848  1.00  0.00     0.016 C 
ENDBRANCH   8  31
BRANCH   5  34
HETATM   34  C5  UNL     1     -12.056   8.171  13.159  1.00  0.00     0.268 C 
HETATM   35  N1  UNL     1     -12.525   8.094  14.489  1.00  0.00    -0.057 NA
HETATM   36  O1  UNL     1     -12.877   8.566  12.275  1.00  0.00    -0.271 OA
ENDBRANCH   5  34
TORSDOF 5
ENDMDL
MODEL 4
REMARK VINA RESULT: -6.761339338      1.238      2.844
REMARK  5 active torsions:
REMARK  status: ('A' for Active; 'I' for Inactive)
REMARK    1  A    between atoms: C4_5  and  C5_6 
REMARK    2  A    between atoms: C8_11  and  C9_12 
REMARK    3  A    between atoms: N3_17  and  C12_18 
REMARK    4  A    between atoms: C14_20  and  N4_21 
REMARK    5  A    between atoms: C18_30  and  N7_31 
ROOT
HETATM    1  C1  UNL     1      -4.778   7.620   9.250  1.00  0.00     0.054 C 
HETATM    2  C2  UNL     1      -3.479   8.066   9.784  1.00  0.00     0.007 A 
HETATM    3  C3  UNL     1      -2.322   8.022   8.993  1.00  0.00     0.140 A 
HETATM    4  F1  UNL     1      -2.463   7.555   7.735  1.00  0.00    -0.204 F 
HETATM    5  C4  UNL     1      -1.122   8.445   9.516  1.00  0.00     0.069 A 
HETATM    6  C6  UNL     1      -1.069   8.908  10.814  1.00  0.00     0.035 A 
HETATM    7  C7  UNL     1      -2.181   8.961  11.607  1.00  0.00     0.019 A 
HETATM    8  C8  UNL     1      -2.350   9.381  12.912  1.00  0.00     0.042 A 
HETATM    9  N2  UNL     1      -3.650   9.213  13.180  1.00  0.00    -0.295 N 
ATOM     10  H2  UNL     1      -4.103   9.431  14.068  1.00  0.00     0.187 HD
HETATM   11  N3  UNL     1      -4.262   8.715  12.099  1.00  0.00    -0.238 N 
HETATM   12  C19 UNL     1      -3.407   8.534  11.085  1.00  0.00     0.079 A 
ENDROOT
BRANCH  11  13
HETATM   13  C12 UNL     1      -5.638   8.440  12.101  1.00  0.00     0.146 A 
HETATM   14  C13 UNL     1      -6.081   7.171  12.354  1.00  0.00     0.100 A 
HETATM   15  C14 UNL     1      -7.420   6.877  12.392  1.00  0.00     0.124 A 
HETATM   16  N6  UNL     1      -8.288   7.907  12.164  1.00  0.00    -0.177 N 
HETATM   17  C18 UNL     1      -7.873   9.158  11.914  1.00  0.00     0.679 A 
ATOM     18  H6  UNL     1      -9.290   7.718  12.184  1.00  0.00     0.185 HD
HETATM   19  N8  UNL     1      -6.546   9.429  11.881  1.00  0.00    -0.175 N 
ATOM     20  H8  UNL     1      -6.226  10.378  11.690  1.00  0.00     0.186 HD
BRANCH  15  21
HETATM   21  N4  UNL     1      -7.928   5.589  12.648  1.00  0.00    -0.342 N 
HETATM   22  C15 UNL     1      -9.310   5.171  12.532  1.00  0.00     0.153 C 
HETATM   23  C16 UNL     1      -9.213   3.711  12.170  1.00  0.00     0.254 C 
HETATM   24  N5  UNL     1      -7.926   3.274  12.622  1.00  0.00    -0.058 N 
HETATM   25  C17 UNL     1      -7.190   4.429  13.072  1.00  0.00     0.358 C 
ATOM     26  H52 UNL     1      -7.985   2.545  13.333  1.00  0.00     0.279 HD
ATOM     27  H51 UNL     1      -7.422   2.738  11.916  1.00  0.00     0.279 HD
ENDBRANCH  15  21
BRANCH  17  28
HETATM   28  N7  UNL     1      -8.760  10.064  11.711  1.00  0.00    -0.234 N 
ATOM     29  H72 UNL     1      -9.752   9.843  11.622  1.00  0.00     0.174 HD
ATOM     30  H71 UNL     1      -8.453  11.034  11.640  1.00  0.00     0.174 HD
ENDBRANCH  17  28
ENDBRANCH  11  13
BRANCH   8  31
HETATM   31  C9  UNL     1      -1.299   9.898  13.787  1.00  0.00     0.030 C 
HETATM   32  C10 UNL     1      -1.171   9.105  15.076  1.00  0.00     0.016 C 
HETATM   33  C11 UNL     1      -1.463  11.353  14.137  1.00  0.00     0.016 C 
ENDBRANCH   8  31
BRANCH   5  34
HETATM   34  C5  UNL     1       0.074   8.396   8.691  1.00  0.00     0.268 C 
HETATM   35  N1  UNL     1       1.167   7.573   9.040  1.00  0.00    -0.057 NA
HETATM   36  O1  UNL     1       0.181   9.088   7.632  1.00  0.00    -0.271 OA
ENDBRANCH   5  34
TORSDOF 5
ENDMDL
MODEL 5
REMARK VINA RESULT: -6.731941665      3.820      8.219
REMARK  5 active torsions:
REMARK  status: ('A' for Active; 'I' for Inactive)
REMARK    1  A    between atoms: C4_5  and  C5_6 
REMARK    2  A    between atoms: C8_11  and  C9_12 
REMARK    3  A    between atoms: N3_17  and  C12_18 
REMARK    4  A    between atoms: C14_20  and  N4_21 
REMARK    5  A    between atoms: C18_30  and  N7_31 
ROOT
HETATM    1  C1  UNL     1      -7.729   8.797  11.901  1.00  0.00     0.054 C 
HETATM    2  C2  UNL     1      -8.596   7.667  12.277  1.00  0.00     0.007 A 
HETATM    3  C3  UNL     1      -9.964   7.858  12.522  1.00  0.00     0.140 A 
HETATM    4  F1  UNL     1     -10.433   9.117  12.396  1.00  0.00    -0.204 F 
HETATM    5  C4  UNL     1     -10.750   6.786  12.871  1.00  0.00     0.069 A 
HETATM    6  C6  UNL     1     -10.186   5.532  12.977  1.00  0.00     0.035 A 
HETATM    7  C7  UNL     1      -8.857   5.316  12.745  1.00  0.00     0.019 A 
HETATM    8  C8  UNL     1      -8.097   4.163  12.794  1.00  0.00     0.042 A 
HETATM    9  N2  UNL     1      -6.854   4.536  12.475  1.00  0.00    -0.295 N 
ATOM     10  H2  UNL     1      -6.046   3.915  12.421  1.00  0.00     0.187 HD
HETATM   11  N3  UNL     1      -6.834   5.854  12.239  1.00  0.00    -0.238 N 
HETATM   12  C19 UNL     1      -8.047   6.400  12.388  1.00  0.00     0.079 A 
ENDROOT
BRANCH  11  13
HETATM   13  C12 UNL     1      -5.650   6.514  11.881  1.00  0.00     0.146 A 
HETATM   14  C13 UNL     1      -5.271   6.577  10.569  1.00  0.00     0.100 A 
HETATM   15  C14 UNL     1      -4.134   7.241  10.184  1.00  0.00     0.124 A 
HETATM   16  N6  UNL     1      -3.399   7.834  11.171  1.00  0.00    -0.177 N 
HETATM   17  C18 UNL     1      -3.754   7.785  12.464  1.00  0.00     0.679 A 
ATOM     18  H6  UNL     1      -2.548   8.334  10.915  1.00  0.00     0.185 HD
HETATM   19  N8  UNL     1      -4.880   7.124  12.824  1.00  0.00    -0.175 N 
ATOM     20  H8  UNL     1      -5.153   7.083  13.806  1.00  0.00     0.186 HD
BRANCH  15  21
HETATM   21  N4  UNL     1      -3.700   7.334   8.848  1.00  0.00    -0.342 N 
HETATM   22  C15 UNL     1      -2.838   8.357   8.294  1.00  0.00     0.153 C 
HETATM   23  C16 UNL     1      -2.113   7.647   7.178  1.00  0.00     0.254 C 
HETATM   24  N5  UNL     1      -2.937   6.533   6.815  1.00  0.00    -0.058 N 
HETATM   25  C17 UNL     1      -4.018   6.442   7.764  1.00  0.00     0.358 C 
ATOM     26  H52 UNL     1      -3.265   6.584   5.850  1.00  0.00     0.279 HD
ATOM     27  H51 UNL     1      -2.410   5.664   6.735  1.00  0.00     0.279 HD
ENDBRANCH  15  21
BRANCH  17  28
HETATM   28  N7  UNL     1      -3.003   8.372  13.324  1.00  0.00    -0.234 N 
ATOM     29  H72 UNL     1      -2.127   8.824  13.060  1.00  0.00     0.174 HD
ATOM     30  H71 UNL     1      -3.300   8.383  14.299  1.00  0.00     0.174 HD
ENDBRANCH  17  28
ENDBRANCH  11  13
BRANCH   8  31
HETATM   31  C9  UNL     1      -8.591   2.829  13.128  1.00  0.00     0.030 C 
HETATM   32  C10 UNL     1      -9.042   2.719  14.575  1.00  0.00     0.016 C 
HETATM   33  C11 UNL     1      -7.601   1.729  12.853  1.00  0.00     0.016 C 
ENDBRANCH   8  31
BRANCH   5  34
HETATM   34  C5  UNL     1     -12.167   6.991  13.124  1.00  0.00     0.268 C 
HETATM   35  N1  UNL     1     -12.651   7.198  14.435  1.00  0.00    -0.057 NA
HETATM   36  O1  UNL     1     -13.018   6.992  12.183  1.00  0.00    -0.271 OA
ENDBRANCH   5  34
TORSDOF 5
ENDMDL
