MODEL 1
REMARK VINA RESULT: -5.463677226      0.000      0.000
REMARK  6 active torsions:
REMARK  status: ('A' for Active; 'I' for Inactive)
REMARK    1  A    between atoms: C3_3  and  C4_4 
REMARK    2  A    between atoms: C4_4  and  O1_5 
REMARK    3  A    between atoms: N1_7  and  O2_9 
REMARK    4  A    between atoms: C5_11  and  C6_12 
REMARK    5  A    between atoms: C8_20  and  N5_22 
REMARK       I    between atoms: N5_22  and  C10_24 
REMARK    6  A    between atoms: C10_24  and  C11_26 
ROOT
HETATM    1  C1  UNL     1      -3.190   9.366   7.531  1.00  0.00     0.056 C 
HETATM    2  C2  UNL     1      -3.191   9.712   8.964  1.00  0.00    -0.014 C 
HETATM    3  C3  UNL     1      -2.315   9.299   9.839  1.00  0.00     0.019 C 
HETATM    4  C5  UNL     1      -2.397   9.722  11.251  1.00  0.00     0.105 C 
HETATM    5  C8  UNL     1      -3.694   9.684  11.950  1.00  0.00     0.051 C 
HETATM    6  C9  UNL     1      -3.781  10.805  13.008  1.00  0.00     0.040 C 
HETATM    7  C12 UNL     1      -4.949   9.823  11.129  1.00  0.00     0.111 C 
HETATM    8  S1  UNL     1      -4.491  10.778   9.651  1.00  0.00    -0.132 SA
ENDROOT
BRANCH   4   9
HETATM    9  C6  UNL     1      -1.649  11.029  11.396  1.00  0.00     0.055 A 
HETATM   10  C7  UNL     1      -0.344  11.194  11.846  1.00  0.00     0.136 A 
HETATM   11  N2  UNL     1      -0.070  12.495  11.823  1.00  0.00    -0.296 N 
HETATM   12  N3  UNL     1      -1.128  13.121  11.389  1.00  0.00    -0.243 N 
ATOM     13  H2  UNL     1       0.812  12.927  12.098  1.00  0.00     0.187 HD
HETATM   14  N4  UNL     1      -2.078  12.265  11.130  1.00  0.00    -0.288 N 
ATOM     15  H3  UNL     1      -1.203  14.130  11.270  1.00  0.00     0.208 HD
ATOM     16  H4  UNL     1      -3.006  12.503  10.779  1.00  0.00     0.188 HD
ENDBRANCH   4   9
BRANCH   3  17
HETATM   17  C4  UNL     1      -1.209   8.406   9.409  1.00  0.00     0.168 C 
HETATM   18  N1  UNL     1      -0.264   8.953   8.704  1.00  0.00    -0.247 N 
ATOM     19  H1  UNL     1      -0.318   9.946   8.479  1.00  0.00     0.196 HD
BRANCH  17  20
HETATM   20  O1  UNL     1      -1.211   7.082   9.752  1.00  0.00    -0.344 OA
ATOM     21  H1  UNL     1      -1.449   6.419   9.115  1.00  0.00     0.219 HD
ENDBRANCH  17  20
BRANCH  18  22
HETATM   22  O2  UNL     1       0.796   8.225   8.259  1.00  0.00    -0.288 OA
ATOM     23  H2  UNL     1       1.649   8.624   8.129  1.00  0.00     0.244 HD
ENDBRANCH  18  22
ENDBRANCH   3  17
BRANCH   5  24
HETATM   24  N5  UNL     1      -3.747   8.429  12.727  1.00  0.00    -0.350 N 
HETATM   25  C10 UNL     1      -4.013   7.177  12.157  1.00  0.00     0.228 C 
HETATM   26  O3  UNL     1      -4.216   7.069  10.934  1.00  0.00    -0.273 OA
ATOM     27  H5  UNL     1      -3.581   8.477  13.732  1.00  0.00     0.163 HD
BRANCH  25  28
HETATM   28  C11 UNL     1      -4.054   5.972  13.002  1.00  0.00     0.187 C 
HETATM   29 BR1  UNL     1      -5.798   5.117  12.887  1.00  0.00    -0.087 Br
ENDBRANCH  25  28
ENDBRANCH   5  24
TORSDOF 6
ENDMDL
MODEL 2
REMARK VINA RESULT: -5.455935533      3.310      4.277
REMARK  6 active torsions:
REMARK  status: ('A' for Active; 'I' for Inactive)
REMARK    1  A    between atoms: C3_3  and  C4_4 
REMARK    2  A    between atoms: C4_4  and  O1_5 
REMARK    3  A    between atoms: N1_7  and  O2_9 
REMARK    4  A    between atoms: C5_11  and  C6_12 
REMARK    5  A    between atoms: C8_20  and  N5_22 
REMARK       I    between atoms: N5_22  and  C10_24 
REMARK    6  A    between atoms: C10_24  and  C11_26 
ROOT
HETATM    1  C1  UNL     1      -3.742   6.768   7.889  1.00  0.00     0.056 C 
HETATM    2  C2  UNL     1      -3.932   7.497   9.157  1.00  0.00    -0.014 C 
HETATM    3  C3  UNL     1      -3.530   8.716   9.391  1.00  0.00     0.019 C 
HETATM    4  C5  UNL     1      -3.790   9.361  10.693  1.00  0.00     0.105 C 
HETATM    5  C8  UNL     1      -3.532   8.619  11.940  1.00  0.00     0.051 C 
HETATM    6  C9  UNL     1      -4.518   9.047  13.049  1.00  0.00     0.040 C 
HETATM    7  C12 UNL     1      -3.615   7.116  11.903  1.00  0.00     0.111 C 
HETATM    8  S1  UNL     1      -4.766   6.699  10.559  1.00  0.00    -0.132 SA
ENDROOT
BRANCH   4   9
HETATM    9  C6  UNL     1      -5.150  10.020  10.630  1.00  0.00     0.055 A 
HETATM   10  C7  UNL     1      -5.416  11.384  10.680  1.00  0.00     0.136 A 
HETATM   11  N2  UNL     1      -6.734  11.542  10.596  1.00  0.00    -0.296 N 
HETATM   12  N3  UNL     1      -7.275  10.360  10.500  1.00  0.00    -0.243 N 
ATOM     13  H2  UNL     1      -7.233  12.432  10.606  1.00  0.00     0.187 HD
HETATM   14  N4  UNL     1      -6.348   9.442  10.519  1.00  0.00    -0.288 N 
ATOM     15  H3  UNL     1      -8.275  10.179  10.421  1.00  0.00     0.208 HD
ATOM     16  H4  UNL     1      -6.513   8.437  10.458  1.00  0.00     0.188 HD
ENDBRANCH   4   9
BRANCH   3  17
HETATM   17  C4  UNL     1      -2.819   9.475   8.331  1.00  0.00     0.168 C 
HETATM   18  N1  UNL     1      -1.583   9.141   8.110  1.00  0.00    -0.247 N 
ATOM     19  H1  UNL     1      -1.161   8.392   8.658  1.00  0.00     0.196 HD
BRANCH  17  20
HETATM   20  O1  UNL     1      -3.458  10.468   7.640  1.00  0.00    -0.344 OA
ATOM     21  H1  UNL     1      -2.992  10.978   6.988  1.00  0.00     0.219 HD
ENDBRANCH  17  20
BRANCH  18  22
HETATM   22  O2  UNL     1      -0.840   9.772   7.160  1.00  0.00    -0.288 OA
ATOM     23  H2  UNL     1      -0.711   9.390   6.300  1.00  0.00     0.244 HD
ENDBRANCH  18  22
ENDBRANCH   3  17
BRANCH   5  24
HETATM   24  N5  UNL     1      -2.205   9.030  12.439  1.00  0.00    -0.350 N 
HETATM   25  C10 UNL     1      -1.914  10.327  12.885  1.00  0.00     0.228 C 
HETATM   26  O3  UNL     1      -2.793  11.209  12.883  1.00  0.00    -0.273 OA
ATOM     27  H5  UNL     1      -1.460   8.334  12.461  1.00  0.00     0.163 HD
BRANCH  25  28
HETATM   28  C11 UNL     1      -0.562  10.660  13.363  1.00  0.00     0.187 C 
HETATM   29 BR1  UNL     1       0.333  11.846  12.106  1.00  0.00    -0.087 Br
ENDBRANCH  25  28
ENDBRANCH   5  24
TORSDOF 6
ENDMDL
MODEL 3
REMARK VINA RESULT: -5.246459725      1.083      1.083
REMARK  6 active torsions:
REMARK  status: ('A' for Active; 'I' for Inactive)
REMARK    1  A    between atoms: C3_3  and  C4_4 
REMARK    2  A    between atoms: C4_4  and  O1_5 
REMARK    3  A    between atoms: N1_7  and  O2_9 
REMARK    4  A    between atoms: C5_11  and  C6_12 
REMARK    5  A    between atoms: C8_20  and  N5_22 
REMARK       I    between atoms: N5_22  and  C10_24 
REMARK    6  A    between atoms: C10_24  and  C11_26 
ROOT
HETATM    1  C1  UNL     1      -3.288   9.339   7.879  1.00  0.00     0.056 C 
HETATM    2  C2  UNL     1      -3.126   9.713   9.297  1.00  0.00    -0.014 C 
HETATM    3  C3  UNL     1      -2.118   9.374  10.054  1.00  0.00     0.019 C 
HETATM    4  C5  UNL     1      -2.045   9.820  11.459  1.00  0.00     0.105 C 
HETATM    5  C8  UNL     1      -3.234   9.712  12.323  1.00  0.00     0.051 C 
HETATM    6  C9  UNL     1      -3.258  10.846  13.370  1.00  0.00     0.040 C 
HETATM    7  C12 UNL     1      -4.592   9.753  11.671  1.00  0.00     0.111 C 
HETATM    8  S1  UNL     1      -4.394  10.705  10.135  1.00  0.00    -0.132 SA
ENDROOT
BRANCH   4   9
HETATM    9  C6  UNL     1      -1.373  11.175  11.490  1.00  0.00     0.055 A 
HETATM   10  C7  UNL     1      -0.044  11.437  11.807  1.00  0.00     0.136 A 
HETATM   11  N2  UNL     1       0.140  12.751  11.717  1.00  0.00    -0.296 N 
HETATM   12  N3  UNL     1      -0.992  13.293  11.367  1.00  0.00    -0.243 N 
ATOM     13  H2  UNL     1       1.014  13.247  11.892  1.00  0.00     0.187 HD
HETATM   14  N4  UNL     1      -1.905  12.371  11.228  1.00  0.00    -0.288 N 
ATOM     15  H3  UNL     1      -1.143  14.291  11.223  1.00  0.00     0.208 HD
ATOM     16  H4  UNL     1      -2.875  12.538  10.960  1.00  0.00     0.188 HD
ENDBRANCH   4   9
BRANCH   3  17
HETATM   17  C4  UNL     1      -1.020   8.547   9.493  1.00  0.00     0.168 C 
HETATM   18  N1  UNL     1      -0.194   9.147   8.689  1.00  0.00    -0.247 N 
ATOM     19  H1  UNL     1      -0.329  10.137   8.481  1.00  0.00     0.196 HD
BRANCH  17  20
HETATM   20  O1  UNL     1      -0.909   7.224   9.824  1.00  0.00    -0.344 OA
ATOM     21  H1  UNL     1      -0.054   6.820   9.914  1.00  0.00     0.219 HD
ENDBRANCH  17  20
BRANCH  18  22
HETATM   22  O2  UNL     1       0.847   8.482   8.121  1.00  0.00    -0.288 OA
ATOM     23  H2  UNL     1       1.129   7.635   8.447  1.00  0.00     0.244 HD
ENDBRANCH  18  22
ENDBRANCH   3  17
BRANCH   5  24
HETATM   24  N5  UNL     1      -3.102   8.473  13.114  1.00  0.00    -0.350 N 
HETATM   25  C10 UNL     1      -4.126   7.956  13.919  1.00  0.00     0.228 C 
HETATM   26  O3  UNL     1      -5.225   8.537  13.996  1.00  0.00    -0.273 OA
ATOM     27  H5  UNL     1      -2.218   7.966  13.074  1.00  0.00     0.163 HD
BRANCH  25  28
HETATM   28  C11 UNL     1      -3.914   6.716  14.684  1.00  0.00     0.187 C 
HETATM   29 BR1  UNL     1      -4.269   5.159  13.571  1.00  0.00    -0.087 Br
ENDBRANCH  25  28
ENDBRANCH   5  24
TORSDOF 6
ENDMDL
MODEL 4
REMARK VINA RESULT: -5.147079153      3.430      4.379
REMARK  6 active torsions:
REMARK  status: ('A' for Active; 'I' for Inactive)
REMARK    1  A    between atoms: C3_3  and  C4_4 
REMARK    2  A    between atoms: C4_4  and  O1_5 
REMARK    3  A    between atoms: N1_7  and  O2_9 
REMARK    4  A    between atoms: C5_11  and  C6_12 
REMARK    5  A    between atoms: C8_20  and  N5_22 
REMARK       I    between atoms: N5_22  and  C10_24 
REMARK    6  A    between atoms: C10_24  and  C11_26 
ROOT
HETATM    1  C1  UNL     1      -3.891   7.040   8.679  1.00  0.00     0.056 C 
HETATM    2  C2  UNL     1      -3.820   8.017   9.781  1.00  0.00    -0.014 C 
HETATM    3  C3  UNL     1      -3.296   9.209   9.697  1.00  0.00     0.019 C 
HETATM    4  C5  UNL     1      -3.294  10.119  10.860  1.00  0.00     0.105 C 
HETATM    5  C8  UNL     1      -2.895   9.609  12.184  1.00  0.00     0.051 C 
HETATM    6  C9  UNL     1      -3.654  10.346  13.309  1.00  0.00     0.040 C 
HETATM    7  C12 UNL     1      -3.093   8.145  12.473  1.00  0.00     0.111 C 
HETATM    8  S1  UNL     1      -4.473   7.599  11.423  1.00  0.00    -0.132 SA
ENDROOT
BRANCH   4   9
HETATM    9  C6  UNL     1      -4.594  10.892  10.856  1.00  0.00     0.055 A 
HETATM   10  C7  UNL     1      -5.870  10.373  10.662  1.00  0.00     0.136 A 
HETATM   11  N2  UNL     1      -6.731  11.383  10.731  1.00  0.00    -0.296 N 
HETATM   12  N3  UNL     1      -6.054  12.475  10.953  1.00  0.00    -0.243 N 
ATOM     13  H2  UNL     1      -7.744  11.315  10.628  1.00  0.00     0.187 HD
HETATM   14  N4  UNL     1      -4.781  12.202  11.030  1.00  0.00    -0.288 N 
ATOM     15  H3  UNL     1      -6.460  13.405  11.053  1.00  0.00     0.208 HD
ATOM     16  H4  UNL     1      -4.041  12.885  11.196  1.00  0.00     0.188 HD
ENDBRANCH   4   9
BRANCH   3  17
HETATM   17  C4  UNL     1      -2.710   9.668   8.412  1.00  0.00     0.168 C 
HETATM   18  N1  UNL     1      -1.511   9.250   8.139  1.00  0.00    -0.247 N 
ATOM     19  H1  UNL     1      -1.031   8.639   8.801  1.00  0.00     0.196 HD
BRANCH  17  20
HETATM   20  O1  UNL     1      -3.421  10.489   7.579  1.00  0.00    -0.344 OA
ATOM     21  H1  UNL     1      -4.157  10.991   7.909  1.00  0.00     0.219 HD
ENDBRANCH  17  20
BRANCH  18  22
HETATM   22  O2  UNL     1      -0.882   9.610   6.988  1.00  0.00    -0.288 OA
ATOM     23  H2  UNL     1      -0.720   8.980   6.296  1.00  0.00     0.244 HD
ENDBRANCH  18  22
ENDBRANCH   3  17
BRANCH   5  24
HETATM   24  N5  UNL     1      -1.477   9.968  12.392  1.00  0.00    -0.350 N 
HETATM   25  C10 UNL     1      -0.960  11.247  12.149  1.00  0.00     0.228 C 
HETATM   26  O3  UNL     1      -1.699  12.162  11.741  1.00  0.00    -0.273 OA
ATOM     27  H5  UNL     1      -0.841   9.246  12.731  1.00  0.00     0.163 HD
BRANCH  25  28
HETATM   28  C11 UNL     1       0.468  11.524  12.376  1.00  0.00     0.187 C 
HETATM   29 BR1  UNL     1       0.810  13.439  12.320  1.00  0.00    -0.087 Br
ENDBRANCH  25  28
ENDBRANCH   5  24
TORSDOF 6
ENDMDL
MODEL 5
REMARK VINA RESULT: -5.043803329      2.810      3.922
REMARK  6 active torsions:
REMARK  status: ('A' for Active; 'I' for Inactive)
REMARK    1  A    between atoms: C3_3  and  C4_4 
REMARK    2  A    between atoms: C4_4  and  O1_5 
REMARK    3  A    between atoms: N1_7  and  O2_9 
REMARK    4  A    between atoms: C5_11  and  C6_12 
REMARK    5  A    between atoms: C8_20  and  N5_22 
REMARK       I    between atoms: N5_22  and  C10_24 
REMARK    6  A    between atoms: C10_24  and  C11_26 
ROOT
HETATM    1  C1  UNL     1      -6.356   9.471  10.405  1.00  0.00     0.056 C 
HETATM    2  C2  UNL     1      -4.918   9.578  10.712  1.00  0.00    -0.014 C 
HETATM    3  C3  UNL     1      -4.100   8.570  10.846  1.00  0.00     0.019 C 
HETATM    4  C5  UNL     1      -2.669   8.790  11.135  1.00  0.00     0.105 C 
HETATM    5  C8  UNL     1      -2.274   9.754  12.177  1.00  0.00     0.051 C 
HETATM    6  C9  UNL     1      -0.925  10.419  11.828  1.00  0.00     0.040 C 
HETATM    7  C12 UNL     1      -3.207  10.897  12.479  1.00  0.00     0.111 C 
HETATM    8  S1  UNL     1      -4.149  11.205  10.955  1.00  0.00    -0.132 SA
ENDROOT
BRANCH   4   9
HETATM    9  C6  UNL     1      -1.943   8.963   9.818  1.00  0.00     0.055 A 
HETATM   10  C7  UNL     1      -0.710   8.422   9.471  1.00  0.00     0.136 A 
HETATM   11  N2  UNL     1      -0.431   8.815   8.232  1.00  0.00    -0.296 N 
HETATM   12  N3  UNL     1      -1.418   9.557   7.814  1.00  0.00    -0.243 N 
ATOM     13  H2  UNL     1       0.408   8.577   7.703  1.00  0.00     0.187 HD
HETATM   14  N4  UNL     1      -2.327   9.657   8.745  1.00  0.00    -0.288 N 
ATOM     15  H3  UNL     1      -1.472   9.995   6.895  1.00  0.00     0.208 HD
ATOM     16  H4  UNL     1      -3.197  10.184   8.664  1.00  0.00     0.188 HD
ENDBRANCH   4   9
BRANCH   3  17
HETATM   17  C4  UNL     1      -4.607   7.184  10.688  1.00  0.00     0.168 C 
HETATM   18  N1  UNL     1      -5.090   6.618  11.754  1.00  0.00    -0.247 N 
ATOM     19  H1  UNL     1      -5.101   7.135  12.634  1.00  0.00     0.196 HD
BRANCH  17  20
HETATM   20  O1  UNL     1      -4.556   6.560   9.472  1.00  0.00    -0.344 OA
ATOM     21  H1  UNL     1      -4.096   5.733   9.373  1.00  0.00     0.219 HD
ENDBRANCH  17  20
BRANCH  18  22
HETATM   22  O2  UNL     1      -5.581   5.350  11.720  1.00  0.00    -0.288 OA
ATOM     23  H2  UNL     1      -6.109   5.005  12.431  1.00  0.00     0.244 HD
ENDBRANCH  18  22
ENDBRANCH   3  17
BRANCH   5  24
HETATM   24  N5  UNL     1      -2.008   8.991  13.414  1.00  0.00    -0.350 N 
HETATM   25  C10 UNL     1      -3.017   8.534  14.272  1.00  0.00     0.228 C 
HETATM   26  O3  UNL     1      -4.215   8.754  14.015  1.00  0.00    -0.273 OA
ATOM     27  H5  UNL     1      -1.038   8.787  13.656  1.00  0.00     0.163 HD
BRANCH  25  28
HETATM   28  C11 UNL     1      -2.669   7.784  15.490  1.00  0.00     0.187 C 
HETATM   29 BR1  UNL     1      -0.824   8.133  16.003  1.00  0.00    -0.087 Br
ENDBRANCH  25  28
ENDBRANCH   5  24
TORSDOF 6
ENDMDL
