MODEL 1
REMARK VINA RESULT: -6.324547136      0.000      0.000
REMARK  6 active torsions:
REMARK  status: ('A' for Active; 'I' for Inactive)
REMARK    1  A    between atoms: O1_1  and  C1_3 
REMARK    2  A    between atoms: C2_5  and  O3_6 
REMARK    3  A    between atoms: C3_8  and  O4_9 
REMARK    4  A    between atoms: C4_11  and  N1_12 
REMARK    5  A    between atoms: N1_12  and  C5_14 
REMARK    6  A    between atoms: C9_19  and  O5_20 
ROOT
HETATM    1  C1  UNL     1      -1.616   0.939  55.205  1.00  0.00     0.294 C 
HETATM    2  O2  UNL     1      -1.379   1.711  56.345  1.00  0.00    -0.326 OA
HETATM    3  C2  UNL     1      -0.060   1.976  56.590  1.00  0.00     0.294 C 
HETATM    4  C3  UNL     1       0.673   2.671  55.464  1.00  0.00     0.221 C 
HETATM    5  C4  UNL     1       0.307   1.987  54.185  1.00  0.00     0.054 C 
HETATM    6  C9  UNL     1      -1.198   1.869  54.039  1.00  0.00     0.221 C 
ENDROOT
BRANCH   5   7
HETATM    7  N1  UNL     1       1.026   2.330  53.027  1.00  0.00    -0.358 N 
ATOM      8  H1  UNL     1       0.526   2.201  52.147  1.00  0.00     0.165 HD
BRANCH   7   9
HETATM    9  C5  UNL     1       2.372   2.838  52.908  1.00  0.00     0.039 A 
HETATM   10  C6  UNL     1       2.730   4.123  53.052  1.00  0.00     0.037 A 
HETATM   11  C7  UNL     1       4.043   4.452  52.941  1.00  0.00     0.052 A 
HETATM   12  S1  UNL     1       4.796   2.955  52.629  1.00  0.00    -0.111 SA
HETATM   13  C8  UNL     1       3.417   1.956  52.650  1.00  0.00     0.079 A 
ENDBRANCH   7   9
ENDBRANCH   5   7
BRANCH   4  14
HETATM   14  O4  UNL     1       0.464   4.003  55.563  1.00  0.00    -0.385 OA
ATOM     15  H4  UNL     1       1.276   4.424  55.820  1.00  0.00     0.210 HD
ENDBRANCH   4  14
BRANCH   6  16
HETATM   16  O5  UNL     1      -1.533   1.320  52.821  1.00  0.00    -0.385 OA
ATOM     17  H5  UNL     1      -0.995   1.678  52.124  1.00  0.00     0.210 HD
ENDBRANCH   6  16
BRANCH   3  18
HETATM   18  O3  UNL     1       0.678   0.847  56.934  1.00  0.00    -0.368 OA
ATOM     19  H3  UNL     1       1.617   0.972  56.860  1.00  0.00     0.212 HD
ENDBRANCH   3  18
BRANCH   1  20
HETATM   20  O1  UNL     1      -2.952   0.650  55.109  1.00  0.00    -0.368 OA
ATOM     21  H1  UNL     1      -3.320   1.077  54.344  1.00  0.00     0.212 HD
ENDBRANCH   1  20
TORSDOF 6
ENDMDL
MODEL 2
REMARK VINA RESULT: -6.262580052      3.137      5.328
REMARK  6 active torsions:
REMARK  status: ('A' for Active; 'I' for Inactive)
REMARK    1  A    between atoms: O1_1  and  C1_3 
REMARK    2  A    between atoms: C2_5  and  O3_6 
REMARK    3  A    between atoms: C3_8  and  O4_9 
REMARK    4  A    between atoms: C4_11  and  N1_12 
REMARK    5  A    between atoms: N1_12  and  C5_14 
REMARK    6  A    between atoms: C9_19  and  O5_20 
ROOT
HETATM    1  C1  UNL     1       3.036   4.183  54.123  1.00  0.00     0.294 C 
HETATM    2  O2  UNL     1       3.995   3.999  53.125  1.00  0.00    -0.326 OA
HETATM    3  C2  UNL     1       4.306   2.693  52.866  1.00  0.00     0.294 C 
HETATM    4  C3  UNL     1       3.133   1.822  52.474  1.00  0.00     0.221 C 
HETATM    5  C4  UNL     1       2.006   2.116  53.414  1.00  0.00     0.054 C 
HETATM    6  C9  UNL     1       1.741   3.607  53.499  1.00  0.00     0.221 C 
ENDROOT
BRANCH   5   7
HETATM    7  N1  UNL     1       0.879   1.278  53.372  1.00  0.00    -0.358 N 
ATOM      8  H1  UNL     1       0.651   0.897  52.454  1.00  0.00     0.165 HD
BRANCH   7   9
HETATM    9  C5  UNL     1      -0.002   0.882  54.445  1.00  0.00     0.039 A 
HETATM   10  C6  UNL     1       0.391   0.360  55.616  1.00  0.00     0.037 A 
HETATM   11  C7  UNL     1      -0.552   0.061  56.547  1.00  0.00     0.052 A 
HETATM   12  S1  UNL     1      -2.010   0.509  55.786  1.00  0.00    -0.111 SA
HETATM   13  C8  UNL     1      -1.375   1.064  54.306  1.00  0.00     0.079 A 
ENDBRANCH   7   9
ENDBRANCH   5   7
BRANCH   4  14
HETATM   14  O4  UNL     1       2.914   1.954  51.147  1.00  0.00    -0.385 OA
ATOM     15  H4  UNL     1       2.037   1.647  50.948  1.00  0.00     0.210 HD
ENDBRANCH   4  14
BRANCH   6  16
HETATM   16  O5  UNL     1       0.648   3.868  54.295  1.00  0.00    -0.385 OA
ATOM     17  H5  UNL     1       0.680   3.361  55.098  1.00  0.00     0.210 HD
ENDBRANCH   6  16
BRANCH   3  18
HETATM   18  O3  UNL     1       4.962   2.059  53.917  1.00  0.00    -0.368 OA
ATOM     19  H3  UNL     1       5.819   1.723  53.682  1.00  0.00     0.212 HD
ENDBRANCH   3  18
BRANCH   1  20
HETATM   20  O1  UNL     1       2.874   5.521  54.371  1.00  0.00    -0.368 OA
ATOM     21  H1  UNL     1       3.711   5.913  54.590  1.00  0.00     0.212 HD
ENDBRANCH   1  20
TORSDOF 6
ENDMDL
MODEL 3
REMARK VINA RESULT: -6.134749770      3.376      4.753
REMARK  6 active torsions:
REMARK  status: ('A' for Active; 'I' for Inactive)
REMARK    1  A    between atoms: O1_1  and  C1_3 
REMARK    2  A    between atoms: C2_5  and  O3_6 
REMARK    3  A    between atoms: C3_8  and  O4_9 
REMARK    4  A    between atoms: C4_11  and  N1_12 
REMARK    5  A    between atoms: N1_12  and  C5_14 
REMARK    6  A    between atoms: C9_19  and  O5_20 
ROOT
HETATM    1  C1  UNL     1      -3.932   3.870  58.387  1.00  0.00     0.294 C 
HETATM    2  O2  UNL     1      -4.542   2.652  58.690  1.00  0.00    -0.326 OA
HETATM    3  C2  UNL     1      -4.157   1.608  57.894  1.00  0.00     0.294 C 
HETATM    4  C3  UNL     1      -2.670   1.330  57.877  1.00  0.00     0.221 C 
HETATM    5  C4  UNL     1      -1.958   2.638  57.734  1.00  0.00     0.054 C 
HETATM    6  C9  UNL     1      -2.446   3.641  58.762  1.00  0.00     0.221 C 
ENDROOT
BRANCH   5   7
HETATM    7  N1  UNL     1      -0.575   2.611  57.489  1.00  0.00    -0.358 N 
ATOM      8  H1  UNL     1       0.011   2.455  58.309  1.00  0.00     0.165 HD
BRANCH   7   9
HETATM    9  C5  UNL     1       0.133   2.772  56.241  1.00  0.00     0.039 A 
HETATM   10  C6  UNL     1       1.029   3.735  55.978  1.00  0.00     0.037 A 
HETATM   11  C7  UNL     1       1.640   3.745  54.766  1.00  0.00     0.052 A 
HETATM   12  S1  UNL     1       0.961   2.396  53.974  1.00  0.00    -0.111 SA
HETATM   13  C8  UNL     1      -0.080   1.861  55.210  1.00  0.00     0.079 A 
ENDBRANCH   7   9
ENDBRANCH   5   7
BRANCH   4  14
HETATM   14  O4  UNL     1      -2.360   0.542  58.932  1.00  0.00    -0.385 OA
ATOM     15  H4  UNL     1      -1.712   0.985  59.467  1.00  0.00     0.210 HD
ENDBRANCH   4  14
BRANCH   6  16
HETATM   16  O5  UNL     1      -1.728   4.814  58.685  1.00  0.00    -0.385 OA
ATOM     17  H5  UNL     1      -0.797   4.653  58.793  1.00  0.00     0.210 HD
ENDBRANCH   6  16
BRANCH   3  18
HETATM   18  O3  UNL     1      -4.572   1.735  56.572  1.00  0.00    -0.368 OA
ATOM     19  H3  UNL     1      -4.268   1.033  56.009  1.00  0.00     0.212 HD
ENDBRANCH   3  18
BRANCH   1  20
HETATM   20  O1  UNL     1      -4.458   4.862  59.172  1.00  0.00    -0.368 OA
ATOM     21  H1  UNL     1      -3.763   5.429  59.485  1.00  0.00     0.212 HD
ENDBRANCH   1  20
TORSDOF 6
ENDMDL
MODEL 4
REMARK VINA RESULT: -6.108219637      3.038      5.384
REMARK  6 active torsions:
REMARK  status: ('A' for Active; 'I' for Inactive)
REMARK    1  A    between atoms: O1_1  and  C1_3 
REMARK    2  A    between atoms: C2_5  and  O3_6 
REMARK    3  A    between atoms: C3_8  and  O4_9 
REMARK    4  A    between atoms: C4_11  and  N1_12 
REMARK    5  A    between atoms: N1_12  and  C5_14 
REMARK    6  A    between atoms: C9_19  and  O5_20 
ROOT
HETATM    1  C1  UNL     1       2.804   4.159  54.073  1.00  0.00     0.294 C 
HETATM    2  O2  UNL     1       3.000   3.645  52.790  1.00  0.00    -0.326 OA
HETATM    3  C2  UNL     1       2.841   2.290  52.687  1.00  0.00     0.294 C 
HETATM    4  C3  UNL     1       1.493   1.769  53.137  1.00  0.00     0.221 C 
HETATM    5  C4  UNL     1       1.151   2.433  54.434  1.00  0.00     0.054 C 
HETATM    6  C9  UNL     1       1.292   3.940  54.329  1.00  0.00     0.221 C 
ENDROOT
BRANCH   5   7
HETATM    7  N1  UNL     1       0.039   1.953  55.145  1.00  0.00    -0.358 N 
ATOM      8  H1  UNL     1      -0.869   2.166  54.732  1.00  0.00     0.165 HD
BRANCH   7   9
HETATM    9  C5  UNL     1       0.001   1.202  56.377  1.00  0.00     0.039 A 
HETATM   10  C6  UNL     1      -0.149  -0.128  56.469  1.00  0.00     0.037 A 
HETATM   11  C7  UNL     1      -0.136  -0.703  57.699  1.00  0.00     0.052 A 
HETATM   12  S1  UNL     1       0.086   0.621  58.749  1.00  0.00    -0.111 SA
HETATM   13  C8  UNL     1       0.156   1.867  57.590  1.00  0.00     0.079 A 
ENDBRANCH   7   9
ENDBRANCH   5   7
BRANCH   4  14
HETATM   14  O4  UNL     1       0.619   1.874  52.111  1.00  0.00    -0.385 OA
ATOM     15  H4  UNL     1       0.903   2.574  51.535  1.00  0.00     0.210 HD
ENDBRANCH   4  14
BRANCH   6  16
HETATM   16  O5  UNL     1       0.892   4.554  55.495  1.00  0.00    -0.385 OA
ATOM     17  H5  UNL     1       0.113   5.080  55.356  1.00  0.00     0.210 HD
ENDBRANCH   6  16
BRANCH   3  18
HETATM   18  O3  UNL     1       3.815   1.563  53.364  1.00  0.00    -0.368 OA
ATOM     19  H3  UNL     1       4.448   1.150  52.789  1.00  0.00     0.212 HD
ENDBRANCH   3  18
BRANCH   1  20
HETATM   20  O1  UNL     1       3.085   5.499  54.085  1.00  0.00    -0.368 OA
ATOM     21  H1  UNL     1       2.281   5.997  54.183  1.00  0.00     0.212 HD
ENDBRANCH   1  20
TORSDOF 6
ENDMDL
MODEL 5
REMARK VINA RESULT: -6.107489872      1.482      1.988
REMARK  6 active torsions:
REMARK  status: ('A' for Active; 'I' for Inactive)
REMARK    1  A    between atoms: O1_1  and  C1_3 
REMARK    2  A    between atoms: C2_5  and  O3_6 
REMARK    3  A    between atoms: C3_8  and  O4_9 
REMARK    4  A    between atoms: C4_11  and  N1_12 
REMARK    5  A    between atoms: N1_12  and  C5_14 
REMARK    6  A    between atoms: C9_19  and  O5_20 
ROOT
HETATM    1  C1  UNL     1      -2.507   0.108  55.909  1.00  0.00     0.294 C 
HETATM    2  O2  UNL     1      -1.945   0.646  57.068  1.00  0.00    -0.326 OA
HETATM    3  C2  UNL     1      -0.584   0.779  57.033  1.00  0.00     0.294 C 
HETATM    4  C3  UNL     1      -0.053   1.618  55.892  1.00  0.00     0.221 C 
HETATM    5  C4  UNL     1      -0.762   1.199  54.643  1.00  0.00     0.054 C 
HETATM    6  C9  UNL     1      -2.266   1.204  54.841  1.00  0.00     0.221 C 
ENDROOT
BRANCH   5   7
HETATM    7  N1  UNL     1      -0.288   1.698  53.418  1.00  0.00    -0.358 N 
ATOM      8  H1  UNL     1      -0.986   2.157  52.832  1.00  0.00     0.165 HD
BRANCH   7   9
HETATM    9  C5  UNL     1       1.048   1.654  52.872  1.00  0.00     0.039 A 
HETATM   10  C6  UNL     1       1.553   0.649  52.141  1.00  0.00     0.037 A 
HETATM   11  C7  UNL     1       2.821   0.760  51.667  1.00  0.00     0.052 A 
HETATM   12  S1  UNL     1       3.325   2.282  52.245  1.00  0.00    -0.111 SA
HETATM   13  C8  UNL     1       1.906   2.732  53.073  1.00  0.00     0.079 A 
ENDBRANCH   7   9
ENDBRANCH   5   7
BRANCH   4  14
HETATM   14  O4  UNL     1      -0.097   2.922  56.249  1.00  0.00    -0.385 OA
ATOM     15  H4  UNL     1      -0.543   2.997  57.084  1.00  0.00     0.210 HD
ENDBRANCH   4  14
BRANCH   6  16
HETATM   16  O5  UNL     1      -2.918   0.904  53.666  1.00  0.00    -0.385 OA
ATOM     17  H5  UNL     1      -3.386   1.661  53.330  1.00  0.00     0.210 HD
ENDBRANCH   6  16
BRANCH   3  18
HETATM   18  O3  UNL     1       0.093  -0.436  57.007  1.00  0.00    -0.368 OA
ATOM     19  H3  UNL     1       0.918  -0.401  56.538  1.00  0.00     0.212 HD
ENDBRANCH   3  18
BRANCH   1  20
HETATM   20  O1  UNL     1      -3.853  -0.075  56.086  1.00  0.00    -0.368 OA
ATOM     21  H1  UNL     1      -4.130  -0.873  55.651  1.00  0.00     0.212 HD
ENDBRANCH   1  20
TORSDOF 6
ENDMDL
