MODEL 1
REMARK VINA RESULT: -5.530288023      0.000      0.000
REMARK  7 active torsions:
REMARK  status: ('A' for Active; 'I' for Inactive)
REMARK    1  A    between atoms: C2_2  and  N1_3 
REMARK    2  A    between atoms: C3_5  and  C4_6 
REMARK    3  A    between atoms: C5_7  and  O1_8 
REMARK    4  A    between atoms: C6_10  and  O2_11 
REMARK    5  A    between atoms: C7_13  and  O3_14 
REMARK    6  A    between atoms: C8_16  and  O4_17 
REMARK    7  A    between atoms: C9_19  and  O5_21 
ROOT
HETATM    1  C4  UNL     1       0.435   1.617  54.998  1.00  0.00     0.091 C 
HETATM    2  C5  UNL     1       0.630   2.863  55.828  1.00  0.00     0.161 C 
HETATM    3  C6  UNL     1       1.170   4.020  55.056  1.00  0.00     0.178 C 
HETATM    4  C7  UNL     1       2.031   3.567  53.903  1.00  0.00     0.181 C 
HETATM    5  C8  UNL     1       1.341   2.620  52.977  1.00  0.00     0.184 C 
HETATM    6  C9  UNL     1       0.067   2.050  53.579  1.00  0.00     0.093 C 
HETATM    7  C10 UNL     1      -0.374   0.842  52.793  1.00  0.00     0.049 C 
ENDROOT
BRANCH   1   8
HETATM    8  C3  UNL     1      -0.614   0.733  55.519  1.00  0.00     0.066 C 
HETATM    9  N1  UNL     1      -0.583   0.099  56.617  1.00  0.00    -0.402 N 
ATOM     10  H1  UNL     1      -1.391  -0.479  56.847  1.00  0.00     0.158 HD
BRANCH   9  11
HETATM   11  C2  UNL     1       0.485   0.130  57.551  1.00  0.00     0.114 C 
HETATM   12  C1  UNL     1      -0.079   0.678  58.863  1.00  0.00     0.026 C 
ENDBRANCH   9  11
ENDBRANCH   1   8
BRANCH   2  13
HETATM   13  O1  UNL     1      -0.591   3.200  56.419  1.00  0.00    -0.392 OA
ATOM     14  H1  UNL     1      -1.091   2.403  56.556  1.00  0.00     0.210 HD
ENDBRANCH   2  13
BRANCH   6  15
HETATM   15  O5  UNL     1      -0.954   2.964  53.652  1.00  0.00    -0.387 OA
ATOM     16  H5  UNL     1      -1.313   2.948  54.531  1.00  0.00     0.210 HD
ENDBRANCH   6  15
BRANCH   3  17
HETATM   17  O2  UNL     1       2.002   4.752  55.921  1.00  0.00    -0.390 OA
ATOM     18  H2  UNL     1       1.440   5.222  56.526  1.00  0.00     0.210 HD
ENDBRANCH   3  17
BRANCH   5  19
HETATM   19  O4  UNL     1       2.202   1.519  52.765  1.00  0.00    -0.390 OA
ATOM     20  H4  UNL     1       2.088   1.231  51.867  1.00  0.00     0.210 HD
ENDBRANCH   5  19
BRANCH   4  21
HETATM   21  O3  UNL     1       3.201   3.024  54.461  1.00  0.00    -0.390 OA
ATOM     22  H3  UNL     1       3.013   2.848  55.375  1.00  0.00     0.210 HD
ENDBRANCH   4  21
TORSDOF 7
ENDMDL
MODEL 2
REMARK VINA RESULT: -5.477452562      1.377      1.536
REMARK  7 active torsions:
REMARK  status: ('A' for Active; 'I' for Inactive)
REMARK    1  A    between atoms: C2_2  and  N1_3 
REMARK    2  A    between atoms: C3_5  and  C4_6 
REMARK    3  A    between atoms: C5_7  and  O1_8 
REMARK    4  A    between atoms: C6_10  and  O2_11 
REMARK    5  A    between atoms: C7_13  and  O3_14 
REMARK    6  A    between atoms: C8_16  and  O4_17 
REMARK    7  A    between atoms: C9_19  and  O5_21 
ROOT
HETATM    1  C4  UNL     1       1.450   1.848  54.276  1.00  0.00     0.091 C 
HETATM    2  C5  UNL     1       1.591   3.297  54.674  1.00  0.00     0.161 C 
HETATM    3  C6  UNL     1       2.363   4.116  53.696  1.00  0.00     0.178 C 
HETATM    4  C7  UNL     1       3.384   3.287  52.958  1.00  0.00     0.181 C 
HETATM    5  C8  UNL     1       2.802   2.095  52.271  1.00  0.00     0.184 C 
HETATM    6  C9  UNL     1       1.394   1.783  52.750  1.00  0.00     0.093 C 
HETATM    7  C10 UNL     1       1.008   0.388  52.329  1.00  0.00     0.049 C 
ENDROOT
BRANCH   1   8
HETATM    8  C3  UNL     1       0.250   1.210  54.829  1.00  0.00     0.066 C 
HETATM    9  N1  UNL     1       0.030   0.962  56.053  1.00  0.00    -0.402 N 
ATOM     10  H1  UNL     1      -0.855   0.512  56.288  1.00  0.00     0.158 HD
BRANCH   9  11
HETATM   11  C2  UNL     1       0.914   1.259  57.122  1.00  0.00     0.114 C 
HETATM   12  C1  UNL     1       0.200   0.875  58.419  1.00  0.00     0.026 C 
ENDBRANCH   9  11
ENDBRANCH   1   8
BRANCH   2  13
HETATM   13  O1  UNL     1       0.313   3.835  54.858  1.00  0.00    -0.392 OA
ATOM     14  H1  UNL     1       0.284   4.261  55.707  1.00  0.00     0.210 HD
ENDBRANCH   2  13
BRANCH   6  15
HETATM   15  O5  UNL     1       0.460   2.685  52.308  1.00  0.00    -0.387 OA
ATOM     16  H5  UNL     1       0.829   3.172  51.580  1.00  0.00     0.210 HD
ENDBRANCH   6  15
BRANCH   3  17
HETATM   17  O2  UNL     1       3.076   5.083  54.426  1.00  0.00    -0.390 OA
ATOM     18  H2  UNL     1       2.727   5.934  54.189  1.00  0.00     0.210 HD
ENDBRANCH   3  17
BRANCH   5  19
HETATM   19  O4  UNL     1       3.591   0.972  52.613  1.00  0.00    -0.390 OA
ATOM     20  H4  UNL     1       3.119   0.194  52.342  1.00  0.00     0.210 HD
ENDBRANCH   5  19
BRANCH   4  21
HETATM   21  O3  UNL     1       4.377   2.943  53.891  1.00  0.00    -0.390 OA
ATOM     22  H3  UNL     1       4.025   3.140  54.751  1.00  0.00     0.210 HD
ENDBRANCH   4  21
TORSDOF 7
ENDMDL
MODEL 3
REMARK VINA RESULT: -5.417410221      3.086      5.243
REMARK  7 active torsions:
REMARK  status: ('A' for Active; 'I' for Inactive)
REMARK    1  A    between atoms: C2_2  and  N1_3 
REMARK    2  A    between atoms: C3_5  and  C4_6 
REMARK    3  A    between atoms: C5_7  and  O1_8 
REMARK    4  A    between atoms: C6_10  and  O2_11 
REMARK    5  A    between atoms: C7_13  and  O3_14 
REMARK    6  A    between atoms: C8_16  and  O4_17 
REMARK    7  A    between atoms: C9_19  and  O5_21 
ROOT
HETATM    1  C4  UNL     1      -1.722   1.185  56.783  1.00  0.00     0.091 C 
HETATM    2  C5  UNL     1      -1.081   1.953  57.913  1.00  0.00     0.161 C 
HETATM    3  C6  UNL     1      -2.019   2.278  59.026  1.00  0.00     0.178 C 
HETATM    4  C7  UNL     1      -3.437   2.425  58.535  1.00  0.00     0.181 C 
HETATM    5  C8  UNL     1      -3.936   1.234  57.785  1.00  0.00     0.184 C 
HETATM    6  C9  UNL     1      -2.812   0.295  57.379  1.00  0.00     0.093 C 
HETATM    7  C10 UNL     1      -3.302  -0.662  56.322  1.00  0.00     0.049 C 
ENDROOT
BRANCH   1   8
HETATM    8  C3  UNL     1      -0.773   0.349  56.039  1.00  0.00     0.066 C 
HETATM    9  N1  UNL     1      -0.064   0.716  55.054  1.00  0.00    -0.402 N 
ATOM     10  H1  UNL     1       0.554   0.021  54.636  1.00  0.00     0.158 HD
BRANCH   9  11
HETATM   11  C2  UNL     1      -0.060   2.017  54.486  1.00  0.00     0.114 C 
HETATM   12  C1  UNL     1      -0.485   1.873  53.024  1.00  0.00     0.026 C 
ENDBRANCH   9  11
ENDBRANCH   1   8
BRANCH   2  13
HETATM   13  O1  UNL     1       0.007   1.216  58.391  1.00  0.00    -0.392 OA
ATOM     14  H1  UNL     1       0.805   1.697  58.203  1.00  0.00     0.210 HD
ENDBRANCH   2  13
BRANCH   6  15
HETATM   15  O5  UNL     1      -2.280  -0.401  58.435  1.00  0.00    -0.387 OA
ATOM     16  H5  UNL     1      -2.297   0.156  59.204  1.00  0.00     0.210 HD
ENDBRANCH   6  15
BRANCH   3  17
HETATM   17  O2  UNL     1      -1.638   3.527  59.546  1.00  0.00    -0.390 OA
ATOM     18  H2  UNL     1      -2.290   4.161  59.272  1.00  0.00     0.210 HD
ENDBRANCH   3  17
BRANCH   5  19
HETATM   19  O4  UNL     1      -4.518   1.693  56.582  1.00  0.00    -0.390 OA
ATOM     20  H4  UNL     1      -5.393   2.003  56.782  1.00  0.00     0.210 HD
ENDBRANCH   5  19
BRANCH   4  21
HETATM   21  O3  UNL     1      -3.481   3.603  57.770  1.00  0.00    -0.390 OA
ATOM     22  H3  UNL     1      -3.695   3.346  56.881  1.00  0.00     0.210 HD
ENDBRANCH   4  21
TORSDOF 7
ENDMDL
MODEL 4
REMARK VINA RESULT: -5.373982878      5.803      7.658
REMARK  7 active torsions:
REMARK  status: ('A' for Active; 'I' for Inactive)
REMARK    1  A    between atoms: C2_2  and  N1_3 
REMARK    2  A    between atoms: C3_5  and  C4_6 
REMARK    3  A    between atoms: C5_7  and  O1_8 
REMARK    4  A    between atoms: C6_10  and  O2_11 
REMARK    5  A    between atoms: C7_13  and  O3_14 
REMARK    6  A    between atoms: C8_16  and  O4_17 
REMARK    7  A    between atoms: C9_19  and  O5_21 
ROOT
HETATM    1  C4  UNL     1      -3.721   3.506  61.159  1.00  0.00     0.091 C 
HETATM    2  C5  UNL     1      -3.345   4.446  60.039  1.00  0.00     0.161 C 
HETATM    3  C6  UNL     1      -2.522   3.808  58.971  1.00  0.00     0.178 C 
HETATM    4  C7  UNL     1      -1.681   2.680  59.514  1.00  0.00     0.181 C 
HETATM    5  C8  UNL     1      -2.473   1.637  60.232  1.00  0.00     0.184 C 
HETATM    6  C9  UNL     1      -3.880   2.107  60.564  1.00  0.00     0.093 C 
HETATM    7  C10 UNL     1      -4.492   1.197  61.598  1.00  0.00     0.049 C 
ENDROOT
BRANCH   1   8
HETATM    8  C3  UNL     1      -4.966   3.883  61.838  1.00  0.00     0.066 C 
HETATM    9  N1  UNL     1      -5.112   4.841  62.656  1.00  0.00    -0.402 N 
ATOM     10  H1  UNL     1      -6.042   4.984  63.050  1.00  0.00     0.158 HD
BRANCH   9  11
HETATM   11  C2  UNL     1      -4.086   5.731  63.068  1.00  0.00     0.114 C 
HETATM   12  C1  UNL     1      -4.383   7.089  62.430  1.00  0.00     0.026 C 
ENDBRANCH   9  11
ENDBRANCH   1   8
BRANCH   2  13
HETATM   13  O1  UNL     1      -4.515   4.984  59.497  1.00  0.00    -0.392 OA
ATOM     14  H1  UNL     1      -4.287   5.752  58.985  1.00  0.00     0.210 HD
ENDBRANCH   2  13
BRANCH   6  15
HETATM   15  O5  UNL     1      -4.697   2.189  59.465  1.00  0.00    -0.387 OA
ATOM     16  H5  UNL     1      -5.271   2.939  59.569  1.00  0.00     0.210 HD
ENDBRANCH   6  15
BRANCH   3  17
HETATM   17  O2  UNL     1      -1.631   4.783  58.488  1.00  0.00    -0.390 OA
ATOM     18  H2  UNL     1      -2.057   5.627  58.575  1.00  0.00     0.210 HD
ENDBRANCH   3  17
BRANCH   5  19
HETATM   19  O4  UNL     1      -1.839   1.390  61.471  1.00  0.00    -0.390 OA
ATOM     20  H4  UNL     1      -2.322   0.701  61.912  1.00  0.00     0.210 HD
ENDBRANCH   5  19
BRANCH   4  21
HETATM   21  O3  UNL     1      -0.694   3.264  60.325  1.00  0.00    -0.390 OA
ATOM     22  H3  UNL     1      -0.135   3.776  59.752  1.00  0.00     0.210 HD
ENDBRANCH   4  21
TORSDOF 7
ENDMDL
MODEL 5
REMARK VINA RESULT: -5.359615867      3.574      5.767
REMARK  7 active torsions:
REMARK  status: ('A' for Active; 'I' for Inactive)
REMARK    1  A    between atoms: C2_2  and  N1_3 
REMARK    2  A    between atoms: C3_5  and  C4_6 
REMARK    3  A    between atoms: C5_7  and  O1_8 
REMARK    4  A    between atoms: C6_10  and  O2_11 
REMARK    5  A    between atoms: C7_13  and  O3_14 
REMARK    6  A    between atoms: C8_16  and  O4_17 
REMARK    7  A    between atoms: C9_19  and  O5_21 
ROOT
HETATM    1  C4  UNL     1      -2.072   1.241  57.661  1.00  0.00     0.091 C 
HETATM    2  C5  UNL     1      -2.673   2.594  57.956  1.00  0.00     0.161 C 
HETATM    3  C6  UNL     1      -4.135   2.550  58.248  1.00  0.00     0.178 C 
HETATM    4  C7  UNL     1      -4.812   1.405  57.537  1.00  0.00     0.181 C 
HETATM    5  C8  UNL     1      -4.199   0.075  57.828  1.00  0.00     0.184 C 
HETATM    6  C9  UNL     1      -2.832   0.200  58.483  1.00  0.00     0.093 C 
HETATM    7  C10 UNL     1      -2.105  -1.118  58.404  1.00  0.00     0.049 C 
ENDROOT
BRANCH   1   8
HETATM    8  C3  UNL     1      -0.643   1.160  57.986  1.00  0.00     0.066 C 
HETATM    9  N1  UNL     1       0.319   1.423  57.203  1.00  0.00    -0.402 N 
ATOM     10  H1  UNL     1       1.264   1.321  57.572  1.00  0.00     0.158 HD
BRANCH   9  11
HETATM   11  C2  UNL     1       0.187   1.850  55.856  1.00  0.00     0.114 C 
HETATM   12  C1  UNL     1       0.892   3.202  55.739  1.00  0.00     0.026 C 
ENDBRANCH   9  11
ENDBRANCH   1   8
BRANCH   2  13
HETATM   13  O1  UNL     1      -1.980   3.166  59.026  1.00  0.00    -0.392 OA
ATOM     14  H1  UNL     1      -1.049   3.122  58.842  1.00  0.00     0.210 HD
ENDBRANCH   2  13
BRANCH   6  15
HETATM   15  O5  UNL     1      -2.893   0.629  59.784  1.00  0.00    -0.387 OA
ATOM     16  H5  UNL     1      -3.751   0.418  60.133  1.00  0.00     0.210 HD
ENDBRANCH   6  15
BRANCH   3  17
HETATM   17  O2  UNL     1      -4.702   3.733  57.742  1.00  0.00    -0.390 OA
ATOM     18  H2  UNL     1      -4.592   3.720  56.798  1.00  0.00     0.210 HD
ENDBRANCH   3  17
BRANCH   5  19
HETATM   19  O4  UNL     1      -3.984  -0.582  56.595  1.00  0.00    -0.390 OA
ATOM     20  H4  UNL     1      -3.535   0.024  56.018  1.00  0.00     0.210 HD
ENDBRANCH   5  19
BRANCH   4  21
HETATM   21  O3  UNL     1      -4.803   1.717  56.167  1.00  0.00    -0.390 OA
ATOM     22  H3  UNL     1      -5.687   1.981  55.939  1.00  0.00     0.210 HD
ENDBRANCH   4  21
TORSDOF 7
ENDMDL
