MODEL 1
REMARK VINA RESULT: -7.053998113      0.000      0.000
REMARK  8 active torsions:
REMARK  status: ('A' for Active; 'I' for Inactive)
REMARK    1  A    between atoms: O1_1  and  N1_3 
REMARK    2  A    between atoms: C1_5  and  O2_6 
REMARK    3  A    between atoms: C1_5  and  C2_8 
REMARK    4  A    between atoms: C3_9  and  C4_10 
REMARK    5  A    between atoms: C5_12  and  O4_13 
REMARK    6  A    between atoms: C6_15  and  O5_16 
REMARK    7  A    between atoms: C7_18  and  O6_19 
REMARK    8  A    between atoms: C8_21  and  O7_22 
ROOT
HETATM    1  C4  UNL     1       1.987   3.668  54.987  1.00  0.00     0.179 C 
HETATM    2  O3  UNL     1       3.214   3.771  54.389  1.00  0.00    -0.347 OA
HETATM    3  C5  UNL     1       3.210   3.668  53.022  1.00  0.00     0.289 C 
HETATM    4  C6  UNL     1       2.517   2.426  52.512  1.00  0.00     0.204 C 
HETATM    5  C7  UNL     1       1.246   2.126  53.244  1.00  0.00     0.183 C 
HETATM    6  C8  UNL     1       0.866   3.334  54.056  1.00  0.00     0.182 C 
ENDROOT
BRANCH   1   7
HETATM    7  C3  UNL     1       1.665   5.003  55.590  1.00  0.00     0.012 C 
HETATM    8  C2  UNL     1       2.417   6.059  55.408  1.00  0.00     0.056 C 
BRANCH   8   9
HETATM    9  C1  UNL     1       2.042   7.312  56.021  1.00  0.00     0.159 C 
HETATM   10  N1  UNL     1       1.991   8.430  55.365  1.00  0.00    -0.248 N 
ATOM     11  H1  UNL     1       1.718   9.278  55.862  1.00  0.00     0.196 HD
BRANCH  10  12
HETATM   12  O1  UNL     1       2.286   8.515  54.040  1.00  0.00    -0.288 OA
ATOM     13  H1  UNL     1       2.604   9.315  53.637  1.00  0.00     0.244 HD
ENDBRANCH  10  12
BRANCH   9  14
HETATM   14  O2  UNL     1       1.710   7.388  57.373  1.00  0.00    -0.345 OA
ATOM     15  H2  UNL     1       0.783   7.349  57.573  1.00  0.00     0.219 HD
ENDBRANCH   9  14
ENDBRANCH   8   9
ENDBRANCH   1   7
BRANCH   6  16
HETATM   16  O7  UNL     1      -0.268   3.064  54.834  1.00  0.00    -0.390 OA
ATOM     17  H7  UNL     1      -0.802   2.439  54.359  1.00  0.00     0.210 HD
ENDBRANCH   6  16
BRANCH   3  18
HETATM   18  O4  UNL     1       2.754   4.822  52.379  1.00  0.00    -0.368 OA
ATOM     19  H4  UNL     1       3.329   5.121  51.685  1.00  0.00     0.212 HD
ENDBRANCH   3  18
BRANCH   5  20
HETATM   20  O6  UNL     1       0.198   1.781  52.408  1.00  0.00    -0.390 OA
ATOM     21  H6  UNL     1      -0.645   1.764  52.846  1.00  0.00     0.210 HD
ENDBRANCH   5  20
BRANCH   4  22
HETATM   22  O5  UNL     1       3.422   1.359  52.645  1.00  0.00    -0.388 OA
ATOM     23  H5  UNL     1       3.157   0.858  53.407  1.00  0.00     0.210 HD
ENDBRANCH   4  22
TORSDOF 8
ENDMDL
MODEL 2
REMARK VINA RESULT: -6.534836075      1.131      1.637
REMARK  8 active torsions:
REMARK  status: ('A' for Active; 'I' for Inactive)
REMARK    1  A    between atoms: O1_1  and  N1_3 
REMARK    2  A    between atoms: C1_5  and  O2_6 
REMARK    3  A    between atoms: C1_5  and  C2_8 
REMARK    4  A    between atoms: C3_9  and  C4_10 
REMARK    5  A    between atoms: C5_12  and  O4_13 
REMARK    6  A    between atoms: C6_15  and  O5_16 
REMARK    7  A    between atoms: C7_18  and  O6_19 
REMARK    8  A    between atoms: C8_21  and  O7_22 
ROOT
HETATM    1  C4  UNL     1       2.047   2.983  54.668  1.00  0.00     0.179 C 
HETATM    2  O3  UNL     1       3.168   3.173  53.906  1.00  0.00    -0.347 OA
HETATM    3  C5  UNL     1       3.006   2.962  52.561  1.00  0.00     0.289 C 
HETATM    4  C6  UNL     1       2.409   1.615  52.229  1.00  0.00     0.204 C 
HETATM    5  C7  UNL     1       1.284   1.235  53.141  1.00  0.00     0.183 C 
HETATM    6  C8  UNL     1       0.867   2.454  53.918  1.00  0.00     0.182 C 
ENDROOT
BRANCH   1   7
HETATM    7  C3  UNL     1       1.645   4.317  55.222  1.00  0.00     0.012 C 
HETATM    8  C2  UNL     1       2.385   5.389  55.085  1.00  0.00     0.056 C 
BRANCH   8   9
HETATM    9  C1  UNL     1       1.932   6.640  55.646  1.00  0.00     0.159 C 
HETATM   10  N1  UNL     1       1.174   6.708  56.696  1.00  0.00    -0.248 N 
ATOM     11  H1  UNL     1       0.891   7.627  57.038  1.00  0.00     0.196 HD
BRANCH  10  12
HETATM   12  O1  UNL     1       0.742   5.603  57.360  1.00  0.00    -0.288 OA
ATOM     13  H1  UNL     1       0.090   5.642  58.049  1.00  0.00     0.244 HD
ENDBRANCH  10  12
BRANCH   9  14
HETATM   14  O2  UNL     1       2.290   7.862  55.078  1.00  0.00    -0.345 OA
ATOM     15  H2  UNL     1       2.079   7.967  54.158  1.00  0.00     0.219 HD
ENDBRANCH   9  14
ENDBRANCH   8   9
ENDBRANCH   1   7
BRANCH   6  16
HETATM   16  O7  UNL     1      -0.120   2.123  54.857  1.00  0.00    -0.390 OA
ATOM     17  H7  UNL     1       0.130   1.301  55.261  1.00  0.00     0.210 HD
ENDBRANCH   6  16
BRANCH   3  18
HETATM   18  O4  UNL     1       2.338   4.004  51.912  1.00  0.00    -0.368 OA
ATOM     19  H4  UNL     1       1.393   3.903  51.907  1.00  0.00     0.212 HD
ENDBRANCH   3  18
BRANCH   5  20
HETATM   20  O6  UNL     1       0.189   0.711  52.477  1.00  0.00    -0.390 OA
ATOM     21  H6  UNL     1       0.399   0.354  51.623  1.00  0.00     0.210 HD
ENDBRANCH   5  20
BRANCH   4  22
HETATM   22  O5  UNL     1       3.444   0.668  52.308  1.00  0.00    -0.388 OA
ATOM     23  H5  UNL     1       3.706   0.613  53.220  1.00  0.00     0.210 HD
ENDBRANCH   4  22
TORSDOF 8
ENDMDL
MODEL 3
REMARK VINA RESULT: -6.528392529      3.183      4.279
REMARK  8 active torsions:
REMARK  status: ('A' for Active; 'I' for Inactive)
REMARK    1  A    between atoms: O1_1  and  N1_3 
REMARK    2  A    between atoms: C1_5  and  O2_6 
REMARK    3  A    between atoms: C1_5  and  C2_8 
REMARK    4  A    between atoms: C3_9  and  C4_10 
REMARK    5  A    between atoms: C5_12  and  O4_13 
REMARK    6  A    between atoms: C6_15  and  O5_16 
REMARK    7  A    between atoms: C7_18  and  O6_19 
REMARK    8  A    between atoms: C8_21  and  O7_22 
ROOT
HETATM    1  C4  UNL     1       2.327   2.067  54.173  1.00  0.00     0.179 C 
HETATM    2  O3  UNL     1       3.196   3.090  54.445  1.00  0.00    -0.347 OA
HETATM    3  C5  UNL     1       3.561   3.851  53.365  1.00  0.00     0.289 C 
HETATM    4  C6  UNL     1       4.102   3.041  52.210  1.00  0.00     0.204 C 
HETATM    5  C7  UNL     1       3.317   1.791  51.956  1.00  0.00     0.183 C 
HETATM    6  C8  UNL     1       2.024   1.876  52.721  1.00  0.00     0.182 C 
ENDROOT
BRANCH   1   7
HETATM    7  C3  UNL     1       1.027   2.386  54.848  1.00  0.00     0.012 C 
HETATM    8  C2  UNL     1       0.618   1.759  55.922  1.00  0.00     0.056 C 
BRANCH   8   9
HETATM    9  C1  UNL     1      -0.647   2.123  56.517  1.00  0.00     0.159 C 
HETATM   10  N1  UNL     1      -1.653   1.306  56.588  1.00  0.00    -0.248 N 
ATOM     11  H1  UNL     1      -2.517   1.630  57.022  1.00  0.00     0.196 HD
BRANCH  10  12
HETATM   12  O1  UNL     1      -1.599   0.035  56.108  1.00  0.00    -0.288 OA
ATOM     13  H1  UNL     1      -2.016  -0.223  55.294  1.00  0.00     0.244 HD
ENDBRANCH  10  12
BRANCH   9  14
HETATM   14  O2  UNL     1      -0.859   3.391  57.055  1.00  0.00    -0.345 OA
ATOM     15  H2  UNL     1      -1.121   3.414  57.967  1.00  0.00     0.219 HD
ENDBRANCH   9  14
ENDBRANCH   8   9
ENDBRANCH   1   7
BRANCH   6  16
HETATM   16  O7  UNL     1       1.298   0.684  52.591  1.00  0.00    -0.390 OA
ATOM     17  H7  UNL     1       1.601   0.247  51.804  1.00  0.00     0.210 HD
ENDBRANCH   6  16
BRANCH   3  18
HETATM   18  O4  UNL     1       2.569   4.746  52.955  1.00  0.00    -0.368 OA
ATOM     19  H4  UNL     1       1.789   4.320  52.621  1.00  0.00     0.212 HD
ENDBRANCH   3  18
BRANCH   5  20
HETATM   20  O6  UNL     1       3.049   1.571  50.617  1.00  0.00    -0.390 OA
ATOM     21  H6  UNL     1       3.786   1.759  50.047  1.00  0.00     0.210 HD
ENDBRANCH   5  20
BRANCH   4  22
HETATM   22  O5  UNL     1       5.438   2.727  52.510  1.00  0.00    -0.388 OA
ATOM     23  H5  UNL     1       5.969   3.029  51.783  1.00  0.00     0.210 HD
ENDBRANCH   4  22
TORSDOF 8
ENDMDL
MODEL 4
REMARK VINA RESULT: -6.523329510      2.695      3.624
REMARK  8 active torsions:
REMARK  status: ('A' for Active; 'I' for Inactive)
REMARK    1  A    between atoms: O1_1  and  N1_3 
REMARK    2  A    between atoms: C1_5  and  O2_6 
REMARK    3  A    between atoms: C1_5  and  C2_8 
REMARK    4  A    between atoms: C3_9  and  C4_10 
REMARK    5  A    between atoms: C5_12  and  O4_13 
REMARK    6  A    between atoms: C6_15  and  O5_16 
REMARK    7  A    between atoms: C7_18  and  O6_19 
REMARK    8  A    between atoms: C8_21  and  O7_22 
ROOT
HETATM    1  C4  UNL     1       2.314   2.154  54.230  1.00  0.00     0.179 C 
HETATM    2  O3  UNL     1       3.210   3.161  54.469  1.00  0.00    -0.347 OA
HETATM    3  C5  UNL     1       3.582   3.889  53.369  1.00  0.00     0.289 C 
HETATM    4  C6  UNL     1       4.090   3.040  52.227  1.00  0.00     0.204 C 
HETATM    5  C7  UNL     1       3.273   1.805  52.010  1.00  0.00     0.183 C 
HETATM    6  C8  UNL     1       1.990   1.939  52.786  1.00  0.00     0.182 C 
ENDROOT
BRANCH   1   7
HETATM    7  C3  UNL     1       1.030   2.520  54.911  1.00  0.00     0.012 C 
HETATM    8  C2  UNL     1       0.776   2.201  56.155  1.00  0.00     0.056 C 
BRANCH   8   9
HETATM    9  C1  UNL     1      -0.485   2.588  56.744  1.00  0.00     0.159 C 
HETATM   10  N1  UNL     1      -0.633   3.671  57.443  1.00  0.00    -0.248 N 
ATOM     11  H1  UNL     1      -1.553   3.883  57.830  1.00  0.00     0.196 HD
BRANCH  10  12
HETATM   12  O1  UNL     1       0.390   4.535  57.680  1.00  0.00    -0.288 OA
ATOM     13  H1  UNL     1       0.269   5.477  57.710  1.00  0.00     0.244 HD
ENDBRANCH  10  12
BRANCH   9  14
HETATM   14  O2  UNL     1      -1.629   1.807  56.591  1.00  0.00    -0.345 OA
ATOM     15  H2  UNL     1      -2.222   1.792  57.332  1.00  0.00     0.219 HD
ENDBRANCH   9  14
ENDBRANCH   8   9
ENDBRANCH   1   7
BRANCH   6  16
HETATM   16  O7  UNL     1       1.235   0.762  52.691  1.00  0.00    -0.390 OA
ATOM     17  H7  UNL     1       0.941   0.680  51.791  1.00  0.00     0.210 HD
ENDBRANCH   6  16
BRANCH   3  18
HETATM   18  O4  UNL     1       2.608   4.799  52.950  1.00  0.00    -0.368 OA
ATOM     19  H4  UNL     1       2.839   5.260  52.152  1.00  0.00     0.212 HD
ENDBRANCH   3  18
BRANCH   5  20
HETATM   20  O6  UNL     1       2.985   1.561  50.679  1.00  0.00    -0.390 OA
ATOM     21  H6  UNL     1       2.259   0.962  50.551  1.00  0.00     0.210 HD
ENDBRANCH   5  20
BRANCH   4  22
HETATM   22  O5  UNL     1       5.422   2.700  52.520  1.00  0.00    -0.388 OA
ATOM     23  H5  UNL     1       5.845   2.482  51.698  1.00  0.00     0.210 HD
ENDBRANCH   4  22
TORSDOF 8
ENDMDL
MODEL 5
REMARK VINA RESULT: -6.417878618      2.885      5.538
REMARK  8 active torsions:
REMARK  status: ('A' for Active; 'I' for Inactive)
REMARK    1  A    between atoms: O1_1  and  N1_3 
REMARK    2  A    between atoms: C1_5  and  O2_6 
REMARK    3  A    between atoms: C1_5  and  C2_8 
REMARK    4  A    between atoms: C3_9  and  C4_10 
REMARK    5  A    between atoms: C5_12  and  O4_13 
REMARK    6  A    between atoms: C6_15  and  O5_16 
REMARK    7  A    between atoms: C7_18  and  O6_19 
REMARK    8  A    between atoms: C8_21  and  O7_22 
ROOT
HETATM    1  C4  UNL     1       2.384   3.087  54.764  1.00  0.00     0.179 C 
HETATM    2  O3  UNL     1       1.472   2.110  55.060  1.00  0.00    -0.347 OA
HETATM    3  C5  UNL     1       0.197   2.551  55.301  1.00  0.00     0.289 C 
HETATM    4  C6  UNL     1       0.120   3.629  56.356  1.00  0.00     0.204 C 
HETATM    5  C7  UNL     1       1.205   4.652  56.223  1.00  0.00     0.183 C 
HETATM    6  C8  UNL     1       1.860   4.483  54.879  1.00  0.00     0.182 C 
ENDROOT
BRANCH   1   7
HETATM    7  C3  UNL     1       2.802   2.899  53.337  1.00  0.00     0.012 C 
HETATM    8  C2  UNL     1       3.270   1.763  52.884  1.00  0.00     0.056 C 
BRANCH   8   9
HETATM    9  C1  UNL     1       3.652   1.657  51.495  1.00  0.00     0.159 C 
HETATM   10  N1  UNL     1       2.983   0.958  50.631  1.00  0.00    -0.248 N 
ATOM     11  H1  UNL     1       3.312   0.927  49.665  1.00  0.00     0.196 HD
BRANCH  10  12
HETATM   12  O1  UNL     1       1.861   0.265  50.962  1.00  0.00    -0.288 OA
ATOM     13  H1  UNL     1       1.015   0.682  51.073  1.00  0.00     0.244 HD
ENDBRANCH  10  12
BRANCH   9  14
HETATM   14  O2  UNL     1       4.780   2.310  51.000  1.00  0.00    -0.345 OA
ATOM     15  H2  UNL     1       5.172   2.953  51.579  1.00  0.00     0.219 HD
ENDBRANCH   9  14
ENDBRANCH   8   9
ENDBRANCH   1   7
BRANCH   6  16
HETATM   16  O7  UNL     1       2.947   5.358  54.750  1.00  0.00    -0.390 OA
ATOM     17  H7  UNL     1       3.230   5.335  53.843  1.00  0.00     0.210 HD
ENDBRANCH   6  16
BRANCH   3  18
HETATM   18  O4  UNL     1      -0.497   2.905  54.141  1.00  0.00    -0.368 OA
ATOM     19  H4  UNL     1       0.046   3.339  53.493  1.00  0.00     0.212 HD
ENDBRANCH   3  18
BRANCH   5  20
HETATM   20  O6  UNL     1       0.755   5.954  56.358  1.00  0.00    -0.390 OA
ATOM     21  H6  UNL     1       1.330   6.502  56.880  1.00  0.00     0.210 HD
ENDBRANCH   5  20
BRANCH   4  22
HETATM   22  O5  UNL     1       0.197   2.995  57.608  1.00  0.00    -0.388 OA
ATOM     23  H5  UNL     1      -0.462   3.392  58.166  1.00  0.00     0.210 HD
ENDBRANCH   4  22
TORSDOF 8
ENDMDL
