MODEL 1
REMARK VINA RESULT: -7.329321390      0.000      0.000
REMARK  6 active torsions:
REMARK  status: ('A' for Active; 'I' for Inactive)
REMARK    1  A    between atoms: O1_1  and  C1_3 
REMARK    2  A    between atoms: C2_5  and  N1_6 
REMARK    3  A    between atoms: N1_6  and  C3_8 
REMARK    4  A    between atoms: C9_14  and  O3_15 
REMARK    5  A    between atoms: C10_17  and  O4_18 
REMARK    6  A    between atoms: C11_20  and  O5_21 
ROOT
HETATM    1  C1  UNL     1       1.723   9.422  57.583  1.00  0.00     0.290 C 
HETATM    2  O2  UNL     1       1.996   8.075  57.580  1.00  0.00    -0.332 OA
HETATM    3  C2  UNL     1       1.862   7.567  56.285  1.00  0.00     0.256 C 
HETATM    4  C9  UNL     1       0.647   8.149  55.599  1.00  0.00     0.198 C 
HETATM    5  C10 UNL     1      -0.368   8.690  56.566  1.00  0.00     0.184 C 
HETATM    6  C11 UNL     1       0.220   9.584  57.618  1.00  0.00     0.204 C 
ENDROOT
BRANCH   3   7
HETATM    7  N1  UNL     1       1.813   6.126  56.399  1.00  0.00    -0.361 N 
ATOM      8  H1  UNL     1       1.616   5.739  57.323  1.00  0.00     0.162 HD
BRANCH   7   9
HETATM    9  C3  UNL     1       2.012   5.217  55.357  1.00  0.00     0.029 A 
HETATM   10  C4  UNL     1       2.815   5.490  54.270  1.00  0.00     0.029 A 
HETATM   11  C5  UNL     1       3.005   4.580  53.232  1.00  0.00     0.002 A 
HETATM   12  C6  UNL     1       2.367   3.351  53.288  1.00  0.00     0.000 A 
HETATM   13  C7  UNL     1       1.574   3.099  54.375  1.00  0.00     0.002 A 
HETATM   14  C8  UNL     1       1.384   3.994  55.400  1.00  0.00     0.029 A 
ENDBRANCH   7   9
ENDBRANCH   3   7
BRANCH   4  15
HETATM   15  O3  UNL     1       0.967   9.153  54.696  1.00  0.00    -0.389 OA
ATOM     16  H3  UNL     1       1.775   9.602  54.915  1.00  0.00     0.210 HD
ENDBRANCH   4  15
BRANCH   1  17
HETATM   17  O1  UNL     1       2.336   9.986  58.705  1.00  0.00    -0.368 OA
ATOM     18  H1  UNL     1       1.678  10.474  59.186  1.00  0.00     0.212 HD
ENDBRANCH   1  17
BRANCH   5  19
HETATM   19  O4  UNL     1      -1.051   7.643  57.168  1.00  0.00    -0.390 OA
ATOM     20  H4  UNL     1      -1.974   7.857  57.238  1.00  0.00     0.210 HD
ENDBRANCH   5  19
BRANCH   6  21
HETATM   21  O5  UNL     1      -0.164  10.898  57.492  1.00  0.00    -0.388 OA
ATOM     22  H5  UNL     1       0.374  11.482  58.013  1.00  0.00     0.210 HD
ENDBRANCH   6  21
TORSDOF 6
ENDMDL
MODEL 2
REMARK VINA RESULT: -7.187662076      4.919      7.038
REMARK  6 active torsions:
REMARK  status: ('A' for Active; 'I' for Inactive)
REMARK    1  A    between atoms: O1_1  and  C1_3 
REMARK    2  A    between atoms: C2_5  and  N1_6 
REMARK    3  A    between atoms: N1_6  and  C3_8 
REMARK    4  A    between atoms: C9_14  and  O3_15 
REMARK    5  A    between atoms: C10_17  and  O4_18 
REMARK    6  A    between atoms: C11_20  and  O5_21 
ROOT
HETATM    1  C1  UNL     1      -2.135   0.767  54.793  1.00  0.00     0.290 C 
HETATM    2  O2  UNL     1      -1.320   1.873  54.791  1.00  0.00    -0.332 OA
HETATM    3  C2  UNL     1      -0.190   1.631  55.577  1.00  0.00     0.256 C 
HETATM    4  C9  UNL     1      -0.562   0.902  56.848  1.00  0.00     0.198 C 
HETATM    5  C10 UNL     1      -2.011   1.060  57.210  1.00  0.00     0.184 C 
HETATM    6  C11 UNL     1      -2.949   0.801  56.067  1.00  0.00     0.204 C 
ENDROOT
BRANCH   3   7
HETATM    7  N1  UNL     1       0.437   2.913  55.821  1.00  0.00    -0.361 N 
ATOM      8  H1  UNL     1       0.208   3.384  56.696  1.00  0.00     0.162 HD
BRANCH   7   9
HETATM    9  C3  UNL     1       1.330   3.560  54.962  1.00  0.00     0.029 A 
HETATM   10  C4  UNL     1       1.758   3.009  53.774  1.00  0.00     0.029 A 
HETATM   11  C5  UNL     1       2.651   3.660  52.925  1.00  0.00     0.002 A 
HETATM   12  C6  UNL     1       3.131   4.910  53.283  1.00  0.00     0.000 A 
HETATM   13  C7  UNL     1       2.694   5.440  54.466  1.00  0.00     0.002 A 
HETATM   14  C8  UNL     1       1.814   4.802  55.306  1.00  0.00     0.029 A 
ENDBRANCH   7   9
ENDBRANCH   3   7
BRANCH   4  15
HETATM   15  O3  UNL     1      -0.269  -0.454  56.796  1.00  0.00    -0.389 OA
ATOM     16  H3  UNL     1       0.458  -0.696  57.357  1.00  0.00     0.210 HD
ENDBRANCH   4  15
BRANCH   1  17
HETATM   17  O1  UNL     1      -2.943   0.822  53.656  1.00  0.00    -0.368 OA
ATOM     18  H1  UNL     1      -3.850   0.848  53.939  1.00  0.00     0.212 HD
ENDBRANCH   1  17
BRANCH   5  19
HETATM   19  O4  UNL     1      -2.234   2.329  57.723  1.00  0.00    -0.390 OA
ATOM     20  H4  UNL     1      -2.992   2.318  58.295  1.00  0.00     0.210 HD
ENDBRANCH   5  19
BRANCH   6  21
HETATM   21  O5  UNL     1      -3.706  -0.334  56.232  1.00  0.00    -0.388 OA
ATOM     22  H5  UNL     1      -4.615  -0.135  56.420  1.00  0.00     0.210 HD
ENDBRANCH   6  21
TORSDOF 6
ENDMDL
MODEL 3
REMARK VINA RESULT: -7.156579885      4.927      7.024
REMARK  6 active torsions:
REMARK  status: ('A' for Active; 'I' for Inactive)
REMARK    1  A    between atoms: O1_1  and  C1_3 
REMARK    2  A    between atoms: C2_5  and  N1_6 
REMARK    3  A    between atoms: N1_6  and  C3_8 
REMARK    4  A    between atoms: C9_14  and  O3_15 
REMARK    5  A    between atoms: C10_17  and  O4_18 
REMARK    6  A    between atoms: C11_20  and  O5_21 
ROOT
HETATM    1  C1  UNL     1      -2.124   0.765  54.796  1.00  0.00     0.290 C 
HETATM    2  O2  UNL     1      -1.318   1.878  54.806  1.00  0.00    -0.332 OA
HETATM    3  C2  UNL     1      -0.186   1.636  55.589  1.00  0.00     0.256 C 
HETATM    4  C9  UNL     1      -0.552   0.889  56.851  1.00  0.00     0.198 C 
HETATM    5  C10 UNL     1      -2.002   1.031  57.216  1.00  0.00     0.184 C 
HETATM    6  C11 UNL     1      -2.938   0.778  56.070  1.00  0.00     0.204 C 
ENDROOT
BRANCH   3   7
HETATM    7  N1  UNL     1       0.431   2.919  55.847  1.00  0.00    -0.361 N 
ATOM      8  H1  UNL     1       0.193   3.382  56.725  1.00  0.00     0.162 HD
BRANCH   7   9
HETATM    9  C3  UNL     1       1.325   3.580  55.000  1.00  0.00     0.029 A 
HETATM   10  C4  UNL     1       1.846   4.823  55.286  1.00  0.00     0.029 A 
HETATM   11  C5  UNL     1       2.734   5.477  54.433  1.00  0.00     0.002 A 
HETATM   12  C6  UNL     1       3.112   4.859  53.251  1.00  0.00     0.000 A 
HETATM   13  C7  UNL     1       2.583   3.625  52.986  1.00  0.00     0.002 A 
HETATM   14  C8  UNL     1       1.708   2.977  53.824  1.00  0.00     0.029 A 
ENDBRANCH   7   9
ENDBRANCH   3   7
BRANCH   4  15
HETATM   15  O3  UNL     1      -0.249  -0.464  56.783  1.00  0.00    -0.389 OA
ATOM     16  H3  UNL     1      -0.995  -1.019  56.977  1.00  0.00     0.210 HD
ENDBRANCH   4  15
BRANCH   1  17
HETATM   17  O1  UNL     1      -2.934   0.827  53.659  1.00  0.00    -0.368 OA
ATOM     18  H1  UNL     1      -3.308   1.699  53.611  1.00  0.00     0.212 HD
ENDBRANCH   1  17
BRANCH   5  19
HETATM   19  O4  UNL     1      -2.235   2.293  57.743  1.00  0.00    -0.390 OA
ATOM     20  H4  UNL     1      -3.079   2.310  58.179  1.00  0.00     0.210 HD
ENDBRANCH   5  19
BRANCH   6  21
HETATM   21  O5  UNL     1      -3.686  -0.365  56.221  1.00  0.00    -0.388 OA
ATOM     22  H5  UNL     1      -4.549  -0.185  56.574  1.00  0.00     0.210 HD
ENDBRANCH   6  21
TORSDOF 6
ENDMDL
MODEL 4
REMARK VINA RESULT: -7.129290026      5.842      7.869
REMARK  6 active torsions:
REMARK  status: ('A' for Active; 'I' for Inactive)
REMARK    1  A    between atoms: O1_1  and  C1_3 
REMARK    2  A    between atoms: C2_5  and  N1_6 
REMARK    3  A    between atoms: N1_6  and  C3_8 
REMARK    4  A    between atoms: C9_14  and  O3_15 
REMARK    5  A    between atoms: C10_17  and  O4_18 
REMARK    6  A    between atoms: C11_20  and  O5_21 
ROOT
HETATM    1  C1  UNL     1       2.211   0.978  51.768  1.00  0.00     0.290 C 
HETATM    2  O2  UNL     1       1.622   0.886  53.006  1.00  0.00    -0.332 OA
HETATM    3  C2  UNL     1       1.254   2.158  53.451  1.00  0.00     0.256 C 
HETATM    4  C9  UNL     1       2.331   3.172  53.141  1.00  0.00     0.198 C 
HETATM    5  C10 UNL     1       3.678   2.546  52.922  1.00  0.00     0.184 C 
HETATM    6  C11 UNL     1       3.654   1.380  51.977  1.00  0.00     0.204 C 
ENDROOT
BRANCH   3   7
HETATM    7  N1  UNL     1       0.972   2.045  54.866  1.00  0.00    -0.361 N 
ATOM      8  H1  UNL     1       1.555   2.589  55.502  1.00  0.00     0.162 HD
BRANCH   7   9
HETATM    9  C3  UNL     1      -0.029   1.254  55.438  1.00  0.00     0.029 A 
HETATM   10  C4  UNL     1      -1.295   1.149  54.903  1.00  0.00     0.029 A 
HETATM   11  C5  UNL     1      -2.289   0.361  55.482  1.00  0.00     0.002 A 
HETATM   12  C6  UNL     1      -2.000  -0.347  56.638  1.00  0.00     0.000 A 
HETATM   13  C7  UNL     1      -0.737  -0.229  57.152  1.00  0.00     0.002 A 
HETATM   14  C8  UNL     1       0.245   0.546  56.585  1.00  0.00     0.029 A 
ENDBRANCH   7   9
ENDBRANCH   3   7
BRANCH   4  15
HETATM   15  O3  UNL     1       2.029   3.957  52.036  1.00  0.00    -0.389 OA
ATOM     16  H3  UNL     1       1.900   4.871  52.258  1.00  0.00     0.210 HD
ENDBRANCH   4  15
BRANCH   1  17
HETATM   17  O1  UNL     1       2.101  -0.266  51.142  1.00  0.00    -0.368 OA
ATOM     18  H1  UNL     1       2.218  -0.138  50.208  1.00  0.00     0.212 HD
ENDBRANCH   1  17
BRANCH   5  19
HETATM   19  O4  UNL     1       4.220   2.153  54.138  1.00  0.00    -0.390 OA
ATOM     20  H4  UNL     1       5.156   2.017  54.046  1.00  0.00     0.210 HD
ENDBRANCH   5  19
BRANCH   6  21
HETATM   21  O5  UNL     1       4.302   1.627  50.791  1.00  0.00    -0.388 OA
ATOM     22  H5  UNL     1       5.107   1.130  50.710  1.00  0.00     0.210 HD
ENDBRANCH   6  21
TORSDOF 6
ENDMDL
MODEL 5
REMARK VINA RESULT: -6.921804331      5.497      7.110
REMARK  6 active torsions:
REMARK  status: ('A' for Active; 'I' for Inactive)
REMARK    1  A    between atoms: O1_1  and  C1_3 
REMARK    2  A    between atoms: C2_5  and  N1_6 
REMARK    3  A    between atoms: N1_6  and  C3_8 
REMARK    4  A    between atoms: C9_14  and  O3_15 
REMARK    5  A    between atoms: C10_17  and  O4_18 
REMARK    6  A    between atoms: C11_20  and  O5_21 
ROOT
HETATM    1  C1  UNL     1      -2.761   0.600  56.338  1.00  0.00     0.290 C 
HETATM    2  O2  UNL     1      -2.420   1.123  55.114  1.00  0.00    -0.332 OA
HETATM    3  C2  UNL     1      -1.100   0.783  54.804  1.00  0.00     0.256 C 
HETATM    4  C9  UNL     1      -0.209   0.917  56.017  1.00  0.00     0.198 C 
HETATM    5  C10 UNL     1      -0.782   1.824  57.068  1.00  0.00     0.184 C 
HETATM    6  C11 UNL     1      -2.216   1.530  57.399  1.00  0.00     0.204 C 
ENDROOT
BRANCH   3   7
HETATM    7  N1  UNL     1      -0.693   1.632  53.705  1.00  0.00    -0.361 N 
ATOM      8  H1  UNL     1      -1.413   2.211  53.272  1.00  0.00     0.162 HD
BRANCH   7   9
HETATM    9  C3  UNL     1       0.600   1.727  53.183  1.00  0.00     0.029 A 
HETATM   10  C4  UNL     1       1.413   2.821  53.392  1.00  0.00     0.029 A 
HETATM   11  C5  UNL     1       2.700   2.908  52.865  1.00  0.00     0.002 A 
HETATM   12  C6  UNL     1       3.188   1.861  52.100  1.00  0.00     0.000 A 
HETATM   13  C7  UNL     1       2.366   0.785  51.904  1.00  0.00     0.002 A 
HETATM   14  C8  UNL     1       1.097   0.693  52.422  1.00  0.00     0.029 A 
ENDBRANCH   7   9
ENDBRANCH   3   7
BRANCH   4  15
HETATM   15  O3  UNL     1       0.083  -0.305  56.608  1.00  0.00    -0.389 OA
ATOM     16  H3  UNL     1       1.015  -0.487  56.637  1.00  0.00     0.210 HD
ENDBRANCH   4  15
BRANCH   1  17
HETATM   17  O1  UNL     1      -4.153   0.501  56.395  1.00  0.00    -0.368 OA
ATOM     18  H1  UNL     1      -4.472   1.167  56.993  1.00  0.00     0.212 HD
ENDBRANCH   1  17
BRANCH   5  19
HETATM   19  O4  UNL     1      -0.654   3.147  56.671  1.00  0.00    -0.390 OA
ATOM     20  H4  UNL     1      -1.309   3.681  57.105  1.00  0.00     0.210 HD
ENDBRANCH   5  19
BRANCH   6  21
HETATM   21  O5  UNL     1      -2.390   1.030  58.668  1.00  0.00    -0.388 OA
ATOM     22  H5  UNL     1      -1.600   1.095  59.191  1.00  0.00     0.210 HD
ENDBRANCH   6  21
TORSDOF 6
ENDMDL
