MODEL 1
REMARK VINA RESULT: -5.251672144      0.000      0.000
REMARK  6 active torsions:
REMARK  status: ('A' for Active; 'I' for Inactive)
REMARK    1  A    between atoms: O1_1  and  C1_3 
REMARK    2  A    between atoms: C2_4  and  C3_5 
REMARK    3  A    between atoms: C4_8  and  O3_9 
REMARK    4  A    between atoms: C5_11  and  O4_12 
REMARK    5  A    between atoms: C5_11  and  C6_14 
REMARK    6  A    between atoms: C7_16  and  O5_17 
ROOT
HETATM    1  C1  UNL     1       1.659   5.029  55.890  1.00  0.00     0.179 C 
HETATM    2  C2  UNL     1       0.854   3.847  56.388  1.00  0.00     0.166 C 
HETATM    3  O2  UNL     1       0.066   3.424  55.341  1.00  0.00    -0.350 OA
HETATM    4  C4  UNL     1       0.876   2.630  54.511  1.00  0.00     0.295 C 
HETATM    5  C5  UNL     1       2.095   3.373  54.050  1.00  0.00     0.144 C 
HETATM    6  C7  UNL     1       2.119   4.806  54.488  1.00  0.00     0.189 C 
ENDROOT
BRANCH   5   7
HETATM    7  O4  UNL     1       3.239   2.711  54.517  1.00  0.00    -0.381 OA
ATOM      8  H4  UNL     1       3.865   3.354  54.827  1.00  0.00     0.211 HD
ENDBRANCH   5   7
BRANCH   5   9
HETATM    9  C6  UNL     1       2.194   3.332  52.522  1.00  0.00     0.131 C 
HETATM   10  S2  UNL     1       3.497   2.241  51.961  1.00  0.00    -0.094 SA
ENDBRANCH   5   9
BRANCH   4  11
HETATM   11  O3  UNL     1       0.112   2.156  53.439  1.00  0.00    -0.368 OA
ATOM     12  H3  UNL     1       0.176   2.767  52.715  1.00  0.00     0.212 HD
ENDBRANCH   4  11
BRANCH   6  13
HETATM   13  O5  UNL     1       3.447   5.245  54.381  1.00  0.00    -0.390 OA
ATOM     14  H5  UNL     1       3.450   6.088  53.942  1.00  0.00     0.210 HD
ENDBRANCH   6  13
BRANCH   1  15
HETATM   15  O1  UNL     1       0.798   6.146  55.979  1.00  0.00    -0.390 OA
ATOM     16  H1  UNL     1       0.458   6.141  56.866  1.00  0.00     0.210 HD
ENDBRANCH   1  15
BRANCH   2  17
HETATM   17  C3  UNL     1       0.046   4.204  57.617  1.00  0.00     0.120 C 
HETATM   18  S1  UNL     1      -1.021   2.784  57.985  1.00  0.00    -0.095 SA
ENDBRANCH   2  17
TORSDOF 6
ENDMDL
MODEL 2
REMARK VINA RESULT: -5.160957119      1.873      2.577
REMARK  6 active torsions:
REMARK  status: ('A' for Active; 'I' for Inactive)
REMARK    1  A    between atoms: O1_1  and  C1_3 
REMARK    2  A    between atoms: C2_4  and  C3_5 
REMARK    3  A    between atoms: C4_8  and  O3_9 
REMARK    4  A    between atoms: C5_11  and  O4_12 
REMARK    5  A    between atoms: C5_11  and  C6_14 
REMARK    6  A    between atoms: C7_16  and  O5_17 
ROOT
HETATM    1  C1  UNL     1       0.258   2.378  55.999  1.00  0.00     0.179 C 
HETATM    2  C2  UNL     1       0.222   0.993  55.388  1.00  0.00     0.166 C 
HETATM    3  O2  UNL     1      -0.010   1.150  54.040  1.00  0.00    -0.350 OA
HETATM    4  C4  UNL     1       1.222   1.473  53.446  1.00  0.00     0.295 C 
HETATM    5  C5  UNL     1       1.838   2.690  54.070  1.00  0.00     0.144 C 
HETATM    6  C7  UNL     1       0.964   3.337  55.100  1.00  0.00     0.189 C 
ENDROOT
BRANCH   5   7
HETATM    7  O4  UNL     1       3.070   2.339  54.641  1.00  0.00    -0.381 OA
ATOM      8  H4  UNL     1       3.772   2.664  54.090  1.00  0.00     0.211 HD
ENDBRANCH   5   7
BRANCH   5   9
HETATM    9  C6  UNL     1       2.168   3.729  52.994  1.00  0.00     0.131 C 
HETATM   10  S2  UNL     1       3.915   4.119  52.948  1.00  0.00    -0.094 SA
ENDBRANCH   5   9
BRANCH   4  11
HETATM   11  O3  UNL     1       1.043   1.623  52.066  1.00  0.00    -0.368 OA
ATOM     12  H3  UNL     1       1.033   0.766  51.657  1.00  0.00     0.212 HD
ENDBRANCH   4  11
BRANCH   6  13
HETATM   13  O5  UNL     1       1.791   4.155  55.885  1.00  0.00    -0.390 OA
ATOM     14  H5  UNL     1       1.757   5.039  55.538  1.00  0.00     0.210 HD
ENDBRANCH   6  13
BRANCH   1  15
HETATM   15  O1  UNL     1      -1.093   2.749  56.191  1.00  0.00    -0.390 OA
ATOM     16  H1  UNL     1      -1.069   3.578  56.655  1.00  0.00     0.210 HD
ENDBRANCH   1  15
BRANCH   2  17
HETATM   17  C3  UNL     1      -0.815   0.117  56.058  1.00  0.00     0.120 C 
HETATM   18  S1  UNL     1      -0.126  -0.403  57.653  1.00  0.00    -0.095 SA
ENDBRANCH   2  17
TORSDOF 6
ENDMDL
MODEL 3
REMARK VINA RESULT: -5.158151730      1.909      2.645
REMARK  6 active torsions:
REMARK  status: ('A' for Active; 'I' for Inactive)
REMARK    1  A    between atoms: O1_1  and  C1_3 
REMARK    2  A    between atoms: C2_4  and  C3_5 
REMARK    3  A    between atoms: C4_8  and  O3_9 
REMARK    4  A    between atoms: C5_11  and  O4_12 
REMARK    5  A    between atoms: C5_11  and  C6_14 
REMARK    6  A    between atoms: C7_16  and  O5_17 
ROOT
HETATM    1  C1  UNL     1       0.783   2.647  54.919  1.00  0.00     0.179 C 
HETATM    2  C2  UNL     1       0.664   1.187  54.535  1.00  0.00     0.166 C 
HETATM    3  O2  UNL     1       0.688   1.126  53.160  1.00  0.00    -0.350 OA
HETATM    4  C4  UNL     1       2.035   1.208  52.767  1.00  0.00     0.295 C 
HETATM    5  C5  UNL     1       2.695   2.445  53.300  1.00  0.00     0.144 C 
HETATM    6  C7  UNL     1       1.754   3.353  54.032  1.00  0.00     0.189 C 
ENDROOT
BRANCH   5   7
HETATM    7  O4  UNL     1       3.753   2.074  54.142  1.00  0.00    -0.381 OA
ATOM      8  H4  UNL     1       4.477   2.675  54.015  1.00  0.00     0.211 HD
ENDBRANCH   5   7
BRANCH   5   9
HETATM    9  C6  UNL     1       3.340   3.236  52.158  1.00  0.00     0.131 C 
HETATM   10  S2  UNL     1       5.126   3.118  52.182  1.00  0.00    -0.094 SA
ENDBRANCH   5   9
BRANCH   4  11
HETATM   11  O3  UNL     1       2.114   1.128  51.373  1.00  0.00    -0.368 OA
ATOM     12  H3  UNL     1       2.721   0.437  51.133  1.00  0.00     0.212 HD
ENDBRANCH   4  11
BRANCH   6  13
HETATM   13  O5  UNL     1       2.538   4.206  54.823  1.00  0.00    -0.390 OA
ATOM     14  H5  UNL     1       2.945   4.851  54.257  1.00  0.00     0.210 HD
ENDBRANCH   6  13
BRANCH   1  15
HETATM   15  O1  UNL     1      -0.518   3.186  54.791  1.00  0.00    -0.390 OA
ATOM     16  H1  UNL     1      -0.491   4.032  55.222  1.00  0.00     0.210 HD
ENDBRANCH   1  15
BRANCH   2  17
HETATM   17  C3  UNL     1      -0.580   0.558  55.123  1.00  0.00     0.120 C 
HETATM   18  S1  UNL     1      -0.153  -0.012  56.792  1.00  0.00    -0.095 SA
ENDBRANCH   2  17
TORSDOF 6
ENDMDL
MODEL 4
REMARK VINA RESULT: -5.149082235      2.124      3.193
REMARK  6 active torsions:
REMARK  status: ('A' for Active; 'I' for Inactive)
REMARK    1  A    between atoms: O1_1  and  C1_3 
REMARK    2  A    between atoms: C2_4  and  C3_5 
REMARK    3  A    between atoms: C4_8  and  O3_9 
REMARK    4  A    between atoms: C5_11  and  O4_12 
REMARK    5  A    between atoms: C5_11  and  C6_14 
REMARK    6  A    between atoms: C7_16  and  O5_17 
ROOT
HETATM    1  C1  UNL     1       0.429   3.296  54.405  1.00  0.00     0.179 C 
HETATM    2  C2  UNL     1       1.643   4.089  54.842  1.00  0.00     0.166 C 
HETATM    3  O2  UNL     1       2.640   3.182  55.124  1.00  0.00    -0.350 OA
HETATM    4  C4  UNL     1       3.218   2.810  53.898  1.00  0.00     0.295 C 
HETATM    5  C5  UNL     1       2.196   2.265  52.945  1.00  0.00     0.144 C 
HETATM    6  C7  UNL     1       0.828   2.143  53.545  1.00  0.00     0.189 C 
ENDROOT
BRANCH   5   7
HETATM    7  O4  UNL     1       2.147   3.082  51.807  1.00  0.00    -0.381 OA
ATOM      8  H4  UNL     1       1.292   3.001  51.403  1.00  0.00     0.211 HD
ENDBRANCH   5   7
BRANCH   5   9
HETATM    9  C6  UNL     1       2.626   0.884  52.440  1.00  0.00     0.131 C 
HETATM   10  S2  UNL     1       3.315   0.956  50.789  1.00  0.00    -0.094 SA
ENDBRANCH   5   9
BRANCH   4  11
HETATM   11  O3  UNL     1       4.255   1.902  54.134  1.00  0.00    -0.368 OA
ATOM     12  H3  UNL     1       5.089   2.351  54.049  1.00  0.00     0.212 HD
ENDBRANCH   4  11
BRANCH   6  13
HETATM   13  O5  UNL     1      -0.081   2.049  52.481  1.00  0.00    -0.390 OA
ATOM     14  H5  UNL     1      -0.135   1.139  52.211  1.00  0.00     0.210 HD
ENDBRANCH   6  13
BRANCH   1  15
HETATM   15  O1  UNL     1      -0.193   2.858  55.598  1.00  0.00    -0.390 OA
ATOM     16  H1  UNL     1      -0.101   3.574  56.215  1.00  0.00     0.210 HD
ENDBRANCH   1  15
BRANCH   2  17
HETATM   17  C3  UNL     1       1.326   4.989  56.016  1.00  0.00     0.120 C 
HETATM   18  S1  UNL     1       2.060   6.609  55.662  1.00  0.00    -0.095 SA
ENDBRANCH   2  17
TORSDOF 6
ENDMDL
MODEL 5
REMARK VINA RESULT: -5.071617579      4.454      7.157
REMARK  6 active torsions:
REMARK  status: ('A' for Active; 'I' for Inactive)
REMARK    1  A    between atoms: O1_1  and  C1_3 
REMARK    2  A    between atoms: C2_4  and  C3_5 
REMARK    3  A    between atoms: C4_8  and  O3_9 
REMARK    4  A    between atoms: C5_11  and  O4_12 
REMARK    5  A    between atoms: C5_11  and  C6_14 
REMARK    6  A    between atoms: C7_16  and  O5_17 
ROOT
HETATM    1  C1  UNL     1      -3.322   1.290  57.520  1.00  0.00     0.179 C 
HETATM    2  C2  UNL     1      -1.835   1.549  57.404  1.00  0.00     0.166 C 
HETATM    3  O2  UNL     1      -1.670   2.910  57.271  1.00  0.00    -0.350 OA
HETATM    4  C4  UNL     1      -1.752   3.463  58.560  1.00  0.00     0.295 C 
HETATM    5  C5  UNL     1      -3.041   3.103  59.238  1.00  0.00     0.144 C 
HETATM    6  C7  UNL     1      -3.980   2.334  58.359  1.00  0.00     0.189 C 
ENDROOT
BRANCH   5   7
HETATM    7  O4  UNL     1      -2.760   2.367  60.397  1.00  0.00    -0.381 OA
ATOM      8  H4  UNL     1      -2.140   2.851  60.930  1.00  0.00     0.211 HD
ENDBRANCH   5   7
BRANCH   5   9
HETATM    9  C6  UNL     1      -3.758   4.368  59.721  1.00  0.00     0.131 C 
HETATM   10  S2  UNL     1      -3.943   4.399  61.501  1.00  0.00    -0.094 SA
ENDBRANCH   5   9
BRANCH   4  11
HETATM   11  O3  UNL     1      -1.568   4.847  58.480  1.00  0.00    -0.368 OA
ATOM     12  H3  UNL     1      -1.063   5.051  57.702  1.00  0.00     0.212 HD
ENDBRANCH   4  11
BRANCH   6  13
HETATM   13  O5  UNL     1      -4.909   1.706  59.202  1.00  0.00    -0.390 OA
ATOM     14  H5  UNL     1      -5.752   2.131  59.091  1.00  0.00     0.210 HD
ENDBRANCH   6  13
BRANCH   1  15
HETATM   15  O1  UNL     1      -3.819   1.303  56.196  1.00  0.00    -0.390 OA
ATOM     16  H1  UNL     1      -4.022   2.211  56.005  1.00  0.00     0.210 HD
ENDBRANCH   1  15
BRANCH   2  17
HETATM   17  C3  UNL     1      -1.224   0.774  56.257  1.00  0.00     0.120 C 
HETATM   18  S1  UNL     1      -0.111   1.907  55.380  1.00  0.00    -0.095 SA
ENDBRANCH   2  17
TORSDOF 6
ENDMDL
