MODEL 1
REMARK VINA RESULT: -6.138170299      0.000      0.000
REMARK  3 active torsions:
REMARK  status: ('A' for Active; 'I' for Inactive)
REMARK       I    between atoms: C1_4  and  N3_6 
REMARK       I    between atoms: C2_8  and  N5_10 
REMARK    1  A    between atoms: C3_12  and  O1_13 
REMARK    2  A    between atoms: C3_12  and  N6_15 
REMARK    3  A    between atoms: N6_15  and  N7_17 
ROOT
HETATM    1  N1  UNL     1      97.871  11.706   6.017  1.00  0.00    -0.373 N 
ATOM      2  H11 UNL     1      97.702  10.711   5.868  1.00  0.00     0.158 HD
ATOM      3  H12 UNL     1      97.577  12.444   5.377  1.00  0.00     0.158 HD
HETATM    4  C1  UNL     1      98.511  12.018   7.115  1.00  0.00     0.188 C 
HETATM    5  N2  UNL     1      98.746  13.402   7.322  1.00  0.00    -0.064 NA
HETATM    6  N3  UNL     1      98.915  11.002   7.995  1.00  0.00    -0.305 N 
ATOM      7  H3  UNL     1      98.275  10.711   8.733  1.00  0.00     0.171 HD
HETATM    8  C2  UNL     1     100.052  10.428   7.908  1.00  0.00     0.197 C 
HETATM    9  N4  UNL     1     100.961  10.815   6.890  1.00  0.00    -0.063 NA
HETATM   10  N5  UNL     1     100.469   9.405   8.791  1.00  0.00    -0.295 N 
ATOM     11  H5  UNL     1      99.815   8.658   9.025  1.00  0.00     0.172 HD
HETATM   12  C3  UNL     1     101.641   9.387   9.305  1.00  0.00     0.238 C 
ENDROOT
BRANCH  12  13
HETATM   13  O1  UNL     1     102.058   8.388  10.169  1.00  0.00    -0.331 OA
ATOM     14  H1  UNL     1     102.708   8.539  10.845  1.00  0.00     0.221 HD
ENDBRANCH  12  13
BRANCH  12  15
HETATM   15  N6  UNL     1     102.534  10.431   8.970  1.00  0.00    -0.272 N 
ATOM     16  H6  UNL     1     102.916  10.488   8.026  1.00  0.00     0.190 HD
BRANCH  15  17
HETATM   17  N7  UNL     1     102.900  11.399   9.939  1.00  0.00    -0.342 N 
ATOM     18  H72 UNL     1     102.172  11.807  10.526  1.00  0.00     0.176 HD
ATOM     19  H71 UNL     1     103.875  11.680  10.045  1.00  0.00     0.176 HD
ENDBRANCH  15  17
ENDBRANCH  12  15
TORSDOF 3
ENDMDL
MODEL 2
REMARK VINA RESULT: -5.964145621      1.246      1.246
REMARK  3 active torsions:
REMARK  status: ('A' for Active; 'I' for Inactive)
REMARK       I    between atoms: C1_4  and  N3_6 
REMARK       I    between atoms: C2_8  and  N5_10 
REMARK    1  A    between atoms: C3_12  and  O1_13 
REMARK    2  A    between atoms: C3_12  and  N6_15 
REMARK    3  A    between atoms: N6_15  and  N7_17 
ROOT
HETATM    1  N1  UNL     1      97.199  12.954   6.563  1.00  0.00    -0.373 N 
ATOM      2  H11 UNL     1      97.239  12.162   5.922  1.00  0.00     0.158 HD
ATOM      3  H12 UNL     1      96.723  13.834   6.367  1.00  0.00     0.158 HD
HETATM    4  C1  UNL     1      97.813  12.793   7.708  1.00  0.00     0.188 C 
HETATM    5  N2  UNL     1      97.758  13.895   8.600  1.00  0.00    -0.064 NA
HETATM    6  N3  UNL     1      98.469  11.582   7.979  1.00  0.00    -0.305 N 
ATOM      7  H3  UNL     1      97.944  10.831   8.426  1.00  0.00     0.171 HD
HETATM    8  C2  UNL     1      99.696  11.383   7.688  1.00  0.00     0.197 C 
HETATM    9  N4  UNL     1     100.449  12.413   7.067  1.00  0.00    -0.063 NA
HETATM   10  N5  UNL     1     100.366  10.167   7.958  1.00  0.00    -0.295 N 
ATOM     11  H5  UNL     1      99.899   9.287   7.740  1.00  0.00     0.172 HD
HETATM   12  C3  UNL     1     101.540  10.137   8.468  1.00  0.00     0.238 C 
ENDROOT
BRANCH  12  13
HETATM   13  O1  UNL     1     102.203   8.951   8.735  1.00  0.00    -0.331 OA
ATOM     14  H1  UNL     1     101.997   8.412   9.489  1.00  0.00     0.221 HD
ENDBRANCH  12  13
BRANCH  12  15
HETATM   15  N6  UNL     1     102.171  11.367   8.766  1.00  0.00    -0.272 N 
ATOM     16  H6  UNL     1     102.111  12.140   8.104  1.00  0.00     0.190 HD
BRANCH  15  17
HETATM   17  N7  UNL     1     102.887  11.530   9.978  1.00  0.00    -0.342 N 
ATOM     18  H72 UNL     1     103.263  12.450  10.207  1.00  0.00     0.176 HD
ATOM     19  H71 UNL     1     103.022  10.739  10.608  1.00  0.00     0.176 HD
ENDBRANCH  15  17
ENDBRANCH  12  15
TORSDOF 3
ENDMDL
MODEL 3
REMARK VINA RESULT: -5.673443049      2.460      4.694
REMARK  3 active torsions:
REMARK  status: ('A' for Active; 'I' for Inactive)
REMARK       I    between atoms: C1_4  and  N3_6 
REMARK       I    between atoms: C2_8  and  N5_10 
REMARK    1  A    between atoms: C3_12  and  O1_13 
REMARK    2  A    between atoms: C3_12  and  N6_15 
REMARK    3  A    between atoms: N6_15  and  N7_17 
ROOT
HETATM    1  N1  UNL     1     102.659  10.956   9.918  1.00  0.00    -0.373 N 
ATOM      2  H11 UNL     1     101.953  11.612  10.249  1.00  0.00     0.158 HD
ATOM      3  H12 UNL     1     103.646  10.989  10.175  1.00  0.00     0.158 HD
HETATM    4  C1  UNL     1     102.234  10.019   9.108  1.00  0.00     0.188 C 
HETATM    5  N2  UNL     1     103.217   9.106   8.647  1.00  0.00    -0.064 NA
HETATM    6  N3  UNL     1     100.877   9.973   8.754  1.00  0.00    -0.305 N 
ATOM      7  H3  UNL     1     100.238   9.430   9.335  1.00  0.00     0.171 HD
HETATM    8  C2  UNL     1     100.409  10.583   7.734  1.00  0.00     0.197 C 
HETATM    9  N4  UNL     1     101.277  11.344   6.910  1.00  0.00    -0.063 NA
HETATM   10  N5  UNL     1      99.044  10.541   7.369  1.00  0.00    -0.295 N 
ATOM     11  H5  UNL     1      98.335  10.659   8.092  1.00  0.00     0.172 HD
HETATM   12  C3  UNL     1      98.671  10.359   6.158  1.00  0.00     0.238 C 
ENDROOT
BRANCH  12  13
HETATM   13  O1  UNL     1      97.336  10.317   5.791  1.00  0.00    -0.331 OA
ATOM     14  H1  UNL     1      96.948  10.960   5.209  1.00  0.00     0.221 HD
ENDBRANCH  12  13
BRANCH  12  15
HETATM   15  N6  UNL     1      99.667  10.196   5.168  1.00  0.00    -0.272 N 
ATOM     16  H6  UNL     1     100.254   9.362   5.174  1.00  0.00     0.190 HD
BRANCH  15  17
HETATM   17  N7  UNL     1      99.853  11.183   4.169  1.00  0.00    -0.342 N 
ATOM     18  H72 UNL     1     100.274  12.075   4.431  1.00  0.00     0.176 HD
ATOM     19  H71 UNL     1      99.571  11.002   3.205  1.00  0.00     0.176 HD
ENDBRANCH  15  17
ENDBRANCH  12  15
TORSDOF 3
ENDMDL
MODEL 4
REMARK VINA RESULT: -5.623046626      3.070      4.310
REMARK  3 active torsions:
REMARK  status: ('A' for Active; 'I' for Inactive)
REMARK       I    between atoms: C1_4  and  N3_6 
REMARK       I    between atoms: C2_8  and  N5_10 
REMARK    1  A    between atoms: C3_12  and  O1_13 
REMARK    2  A    between atoms: C3_12  and  N6_15 
REMARK    3  A    between atoms: N6_15  and  N7_17 
ROOT
HETATM    1  N1  UNL     1     103.806  13.037   6.241  1.00  0.00    -0.373 N 
ATOM      2  H11 UNL     1     103.929  12.262   5.589  1.00  0.00     0.158 HD
ATOM      3  H12 UNL     1     104.569  13.527   6.707  1.00  0.00     0.158 HD
HETATM    4  C1  UNL     1     102.569  13.397   6.472  1.00  0.00     0.188 C 
HETATM    5  N2  UNL     1     102.397  14.474   7.380  1.00  0.00    -0.064 NA
HETATM    6  N3  UNL     1     101.518  12.723   5.830  1.00  0.00    -0.305 N 
ATOM      7  H3  UNL     1     101.199  13.064   4.925  1.00  0.00     0.171 HD
HETATM    8  C2  UNL     1     100.947  11.699   6.335  1.00  0.00     0.197 C 
HETATM    9  N4  UNL     1     101.373  11.204   7.595  1.00  0.00    -0.063 NA
HETATM   10  N5  UNL     1      99.887  11.013   5.698  1.00  0.00    -0.295 N 
ATOM     11  H5  UNL     1      99.961  10.807   4.701  1.00  0.00     0.172 HD
HETATM   12  C3  UNL     1      98.839  10.643   6.332  1.00  0.00     0.238 C 
ENDROOT
BRANCH  12  13
HETATM   13  O1  UNL     1      97.797   9.970   5.715  1.00  0.00    -0.331 OA
ATOM     14  H1  UNL     1      97.884   9.080   5.396  1.00  0.00     0.221 HD
ENDBRANCH  12  13
BRANCH  12  15
HETATM   15  N6  UNL     1      98.754  10.937   7.712  1.00  0.00    -0.272 N 
ATOM     16  H6  UNL     1      99.150  10.291   8.394  1.00  0.00     0.190 HD
BRANCH  15  17
HETATM   17  N7  UNL     1      98.120  12.126   8.153  1.00  0.00    -0.342 N 
ATOM     18  H72 UNL     1      98.043  12.299   9.156  1.00  0.00     0.176 HD
ATOM     19  H71 UNL     1      97.749  12.794   7.478  1.00  0.00     0.176 HD
ENDBRANCH  15  17
ENDBRANCH  12  15
TORSDOF 3
ENDMDL
MODEL 5
REMARK VINA RESULT: -5.587856206      1.800      2.553
REMARK  3 active torsions:
REMARK  status: ('A' for Active; 'I' for Inactive)
REMARK       I    between atoms: C1_4  and  N3_6 
REMARK       I    between atoms: C2_8  and  N5_10 
REMARK    1  A    between atoms: C3_12  and  O1_13 
REMARK    2  A    between atoms: C3_12  and  N6_15 
REMARK    3  A    between atoms: N6_15  and  N7_17 
ROOT
HETATM    1  N1  UNL     1      98.450  11.818   4.681  1.00  0.00    -0.373 N 
ATOM      2  H11 UNL     1      98.640  12.734   5.088  1.00  0.00     0.158 HD
ATOM      3  H12 UNL     1      97.657  11.608   4.075  1.00  0.00     0.158 HD
HETATM    4  C1  UNL     1      99.305  10.873   4.978  1.00  0.00     0.188 C 
HETATM    5  N2  UNL     1      99.041   9.599   4.411  1.00  0.00    -0.064 NA
HETATM    6  N3  UNL     1     100.396  11.161   5.812  1.00  0.00    -0.305 N 
ATOM      7  H3  UNL     1     101.265  11.485   5.387  1.00  0.00     0.171 HD
HETATM    8  C2  UNL     1     100.346  11.035   7.081  1.00  0.00     0.197 C 
HETATM    9  N4  UNL     1      99.149  10.586   7.698  1.00  0.00    -0.063 NA
HETATM   10  N5  UNL     1     101.440  11.322   7.930  1.00  0.00    -0.295 N 
ATOM     11  H5  UNL     1     101.977  12.175   7.772  1.00  0.00     0.172 HD
HETATM   12  C3  UNL     1     101.778  10.545   8.889  1.00  0.00     0.238 C 
ENDROOT
BRANCH  12  13
HETATM   13  O1  UNL     1     102.848  10.819   9.725  1.00  0.00    -0.331 OA
ATOM     14  H1  UNL     1     103.226  10.163  10.299  1.00  0.00     0.221 HD
ENDBRANCH  12  13
BRANCH  12  15
HETATM   15  N6  UNL     1     101.024   9.366   9.092  1.00  0.00    -0.272 N 
ATOM     16  H6  UNL     1     100.338   9.077   8.394  1.00  0.00     0.190 HD
BRANCH  15  17
HETATM   17  N7  UNL     1     101.216   8.584  10.258  1.00  0.00    -0.342 N 
ATOM     18  H72 UNL     1     101.946   8.856  10.917  1.00  0.00     0.176 HD
ATOM     19  H71 UNL     1     100.634   7.765  10.432  1.00  0.00     0.176 HD
ENDBRANCH  15  17
ENDBRANCH  12  15
TORSDOF 3
ENDMDL
