MODEL 1
REMARK VINA RESULT: -6.532967247      0.000      0.000
REMARK  1 active torsions:
REMARK  status: ('A' for Active; 'I' for Inactive)
REMARK       I    between atoms: C1_4  and  N3_6 
REMARK    1  A    between atoms: N3_6  and  C2_8 
ROOT
HETATM    1  C2  UNL     1      99.994  11.327   7.184  1.00  0.00     0.181 A 
HETATM    2  N4  UNL     1      99.694  12.525   7.584  1.00  0.00    -0.290 N 
ATOM      3  H4  UNL     1     100.333  13.151   8.076  1.00  0.00     0.172 HD
HETATM    4  C3  UNL     1      98.356  12.842   7.243  1.00  0.00     0.328 A 
HETATM    5  O1  UNL     1      97.739  13.905   7.473  1.00  0.00    -0.247 OA
HETATM    6  N5  UNL     1      97.815  11.714   6.575  1.00  0.00    -0.272 N 
ATOM      7  H5  UNL     1      96.869  11.624   6.201  1.00  0.00     0.174 HD
HETATM    8  C4  UNL     1      98.847  10.733   6.526  1.00  0.00     0.293 A 
HETATM    9  O2  UNL     1      98.743   9.579   6.002  1.00  0.00    -0.264 OA
ENDROOT
BRANCH   1  10
HETATM   10  N3  UNL     1     101.258  10.662   7.353  1.00  0.00    -0.312 N 
HETATM   11  C1  UNL     1     101.536  10.136   8.629  1.00  0.00     0.187 C 
HETATM   12  N1  UNL     1     102.261  10.793   9.446  1.00  0.00    -0.373 N 
HETATM   13  N2  UNL     1     101.013   8.882   9.000  1.00  0.00    -0.064 NA
ATOM     14  H12 UNL     1     102.462  10.411  10.371  1.00  0.00     0.158 HD
ATOM     15  H11 UNL     1     102.640  11.701   9.178  1.00  0.00     0.158 HD
ATOM     16  H3  UNL     1     101.923  10.577   6.583  1.00  0.00     0.170 HD
ENDBRANCH   1  10
TORSDOF 1
ENDMDL
MODEL 2
REMARK VINA RESULT: -6.454249541      2.268      4.015
REMARK  1 active torsions:
REMARK  status: ('A' for Active; 'I' for Inactive)
REMARK       I    between atoms: C1_4  and  N3_6 
REMARK    1  A    between atoms: N3_6  and  C2_8 
ROOT
HETATM    1  C2  UNL     1      99.604  11.834   6.866  1.00  0.00     0.181 A 
HETATM    2  N4  UNL     1     100.298  12.725   6.224  1.00  0.00    -0.290 N 
ATOM      3  H4  UNL     1      99.909  13.563   5.791  1.00  0.00     0.172 HD
HETATM    4  C3  UNL     1     101.669  12.370   6.210  1.00  0.00     0.328 A 
HETATM    5  O1  UNL     1     102.616  12.996   5.684  1.00  0.00    -0.247 OA
HETATM    6  N5  UNL     1     101.793  11.146   6.914  1.00  0.00    -0.272 N 
ATOM      7  H5  UNL     1     102.654  10.624   7.081  1.00  0.00     0.174 HD
HETATM    8  C4  UNL     1     100.482  10.785   7.342  1.00  0.00     0.293 A 
HETATM    9  O2  UNL     1     100.185   9.743   8.008  1.00  0.00    -0.264 OA
ENDROOT
BRANCH   1  10
HETATM   10  N3  UNL     1      98.182  11.856   7.085  1.00  0.00    -0.312 N 
HETATM   11  C1  UNL     1      97.653  12.998   7.716  1.00  0.00     0.187 C 
HETATM   12  N1  UNL     1      97.411  12.981   8.968  1.00  0.00    -0.373 N 
HETATM   13  N2  UNL     1      97.390  14.158   6.962  1.00  0.00    -0.064 NA
ATOM     14  H12 UNL     1      97.027  13.809   9.425  1.00  0.00     0.158 HD
ATOM     15  H11 UNL     1      97.601  12.141   9.514  1.00  0.00     0.158 HD
ATOM     16  H3  UNL     1      97.586  11.080   6.797  1.00  0.00     0.170 HD
ENDBRANCH   1  10
TORSDOF 1
ENDMDL
MODEL 3
REMARK VINA RESULT: -6.321320353      2.287      2.607
REMARK  1 active torsions:
REMARK  status: ('A' for Active; 'I' for Inactive)
REMARK       I    between atoms: C1_4  and  N3_6 
REMARK    1  A    between atoms: N3_6  and  C2_8 
ROOT
HETATM    1  C2  UNL     1      99.596  12.387   6.469  1.00  0.00     0.181 A 
HETATM    2  N4  UNL     1      99.378  13.010   7.587  1.00  0.00    -0.290 N 
ATOM      3  H4  UNL     1     100.107  13.337   8.221  1.00  0.00     0.172 HD
HETATM    4  C3  UNL     1      97.987  13.171   7.803  1.00  0.00     0.328 A 
HETATM    5  O1  UNL     1      97.422  13.723   8.772  1.00  0.00    -0.247 OA
HETATM    6  N5  UNL     1      97.320  12.582   6.699  1.00  0.00    -0.272 N 
ATOM      7  H5  UNL     1      96.311  12.532   6.553  1.00  0.00     0.174 HD
HETATM    8  C4  UNL     1      98.332  12.074   5.833  1.00  0.00     0.293 A 
HETATM    9  O2  UNL     1      98.125  11.472   4.732  1.00  0.00    -0.264 OA
ENDROOT
BRANCH   1  10
HETATM   10  N3  UNL     1     100.880  12.044   5.919  1.00  0.00    -0.312 N 
HETATM   11  C1  UNL     1     101.966  12.867   6.275  1.00  0.00     0.187 C 
HETATM   12  N1  UNL     1     102.354  13.788   5.484  1.00  0.00    -0.373 N 
HETATM   13  N2  UNL     1     102.621  12.671   7.506  1.00  0.00    -0.064 NA
ATOM     14  H12 UNL     1     103.141  14.385   5.743  1.00  0.00     0.158 HD
ATOM     15  H11 UNL     1     101.880  13.931   4.593  1.00  0.00     0.158 HD
ATOM     16  H3  UNL     1     100.999  11.242   5.300  1.00  0.00     0.170 HD
ENDBRANCH   1  10
TORSDOF 1
ENDMDL
MODEL 4
REMARK VINA RESULT: -6.298918076      2.924      4.086
REMARK  1 active torsions:
REMARK  status: ('A' for Active; 'I' for Inactive)
REMARK       I    between atoms: C1_4  and  N3_6 
REMARK    1  A    between atoms: N3_6  and  C2_8 
ROOT
HETATM    1  C2  UNL     1      98.846  11.810   5.942  1.00  0.00     0.181 A 
HETATM    2  N4  UNL     1      99.951  12.410   6.269  1.00  0.00    -0.290 N 
ATOM      3  H4  UNL     1     100.028  13.140   6.977  1.00  0.00     0.172 HD
HETATM    4  C3  UNL     1     101.034  11.906   5.506  1.00  0.00     0.328 A 
HETATM    5  O1  UNL     1     102.234  12.253   5.560  1.00  0.00    -0.247 OA
HETATM    6  N5  UNL     1     100.511  10.911   4.642  1.00  0.00    -0.272 N 
ATOM      7  H5  UNL     1     101.035  10.358   3.963  1.00  0.00     0.174 HD
HETATM    8  C4  UNL     1      99.112  10.834   4.905  1.00  0.00     0.293 A 
HETATM    9  O2  UNL     1      98.295  10.051   4.324  1.00  0.00    -0.264 OA
ENDROOT
BRANCH   1  10
HETATM   10  N3  UNL     1      97.544  12.056   6.502  1.00  0.00    -0.312 N 
HETATM   11  C1  UNL     1      97.413  13.178   7.342  1.00  0.00     0.187 C 
HETATM   12  N1  UNL     1      97.457  13.035   8.608  1.00  0.00    -0.373 N 
HETATM   13  N2  UNL     1      97.235  14.458   6.782  1.00  0.00    -0.064 NA
ATOM     14  H12 UNL     1      97.362  13.849   9.217  1.00  0.00     0.158 HD
ATOM     15  H11 UNL     1      97.586  12.109   9.014  1.00  0.00     0.158 HD
ATOM     16  H3  UNL     1      96.753  11.445   6.299  1.00  0.00     0.170 HD
ENDBRANCH   1  10
TORSDOF 1
ENDMDL
MODEL 5
REMARK VINA RESULT: -6.292619770      2.866      3.541
REMARK  1 active torsions:
REMARK  status: ('A' for Active; 'I' for Inactive)
REMARK       I    between atoms: C1_4  and  N3_6 
REMARK    1  A    between atoms: N3_6  and  C2_8 
ROOT
HETATM    1  C2  UNL     1      98.463  12.387   5.977  1.00  0.00     0.181 A 
HETATM    2  N4  UNL     1      97.441  12.629   6.741  1.00  0.00    -0.290 N 
ATOM      3  H4  UNL     1      96.470  12.449   6.486  1.00  0.00     0.172 HD
HETATM    4  C3  UNL     1      97.865  13.176   7.977  1.00  0.00     0.328 A 
HETATM    5  O1  UNL     1      97.152  13.525   8.943  1.00  0.00    -0.247 OA
HETATM    6  N5  UNL     1      99.279  13.266   7.934  1.00  0.00    -0.272 N 
ATOM      7  H5  UNL     1      99.890  13.620   8.671  1.00  0.00     0.174 HD
HETATM    8  C4  UNL     1      99.682  12.766   6.661  1.00  0.00     0.293 A 
HETATM    9  O2  UNL     1     100.883  12.685   6.248  1.00  0.00    -0.264 OA
ENDROOT
BRANCH   1  10
HETATM   10  N3  UNL     1      98.424  11.831   4.650  1.00  0.00    -0.312 N 
HETATM   11  C1  UNL     1      99.300  10.763   4.381  1.00  0.00     0.187 C 
HETATM   12  N1  UNL     1     100.409  10.981   3.791  1.00  0.00    -0.373 N 
HETATM   13  N2  UNL     1      98.951   9.454   4.764  1.00  0.00    -0.064 NA
ATOM     14  H12 UNL     1     101.045  10.207   3.596  1.00  0.00     0.158 HD
ATOM     15  H11 UNL     1     100.663  11.929   3.513  1.00  0.00     0.158 HD
ATOM     16  H3  UNL     1      97.790  12.195   3.938  1.00  0.00     0.170 HD
ENDBRANCH   1  10
TORSDOF 1
ENDMDL
