MODEL 1
REMARK VINA RESULT: -6.165218504      0.000      0.000
REMARK  1 active torsions:
REMARK  status: ('A' for Active; 'I' for Inactive)
REMARK       I    between atoms: C1_4  and  N3_6 
REMARK    1  A    between atoms: N3_6  and  N4_8 
ROOT
HETATM    1  N1  UNL     1      96.969  13.024   7.411  1.00  0.00    -0.373 N 
ATOM      2  H11 UNL     1      97.233  12.055   7.585  1.00  0.00     0.158 HD
ATOM      3  H12 UNL     1      96.295  13.484   8.024  1.00  0.00     0.158 HD
HETATM    4  C1  UNL     1      97.499  13.644   6.413  1.00  0.00     0.198 C 
HETATM    5  N2  UNL     1      97.133  14.985   6.173  1.00  0.00    -0.063 NA
HETATM    6  N3  UNL     1      98.434  13.006   5.563  1.00  0.00    -0.259 N 
ATOM      7  H3  UNL     1      99.268  13.496   5.239  1.00  0.00     0.186 HD
ENDROOT
BRANCH   6   8
HETATM    8  N4  UNL     1      98.182  11.696   5.182  1.00  0.00     0.009 NA
HETATM    9  N5  UNL     1      99.264  11.232   4.245  1.00  0.00    -0.197 N 
HETATM   10  S1  UNL     1      99.261  10.442   5.699  1.00  0.00     0.350 S 
ATOM     11  H5  UNL     1      99.703  11.335   3.330  1.00  0.00     0.198 HD
HETATM   12  O1  UNL     1     100.139  10.826   6.842  1.00  0.00    -0.184 OA
HETATM   13  O2  UNL     1      98.627   9.066   5.725  1.00  0.00    -0.184 OA
ENDBRANCH   6   8
TORSDOF 1
ENDMDL
MODEL 2
REMARK VINA RESULT: -5.867545490      3.606      4.410
REMARK  1 active torsions:
REMARK  status: ('A' for Active; 'I' for Inactive)
REMARK       I    between atoms: C1_4  and  N3_6 
REMARK    1  A    between atoms: N3_6  and  N4_8 
ROOT
HETATM    1  N1  UNL     1     101.581  11.326   6.540  1.00  0.00    -0.373 N 
ATOM      2  H11 UNL     1     101.502  12.231   6.078  1.00  0.00     0.158 HD
ATOM      3  H12 UNL     1     102.327  10.683   6.275  1.00  0.00     0.158 HD
HETATM    4  C1  UNL     1     100.725  11.018   7.454  1.00  0.00     0.198 C 
HETATM    5  N2  UNL     1     100.834   9.766   8.094  1.00  0.00    -0.063 NA
HETATM    6  N3  UNL     1      99.689  11.909   7.823  1.00  0.00    -0.259 N 
ATOM      7  H3  UNL     1      99.437  12.045   8.802  1.00  0.00     0.186 HD
ENDROOT
BRANCH   6   8
HETATM    8  N4  UNL     1      99.026  12.593   6.814  1.00  0.00     0.009 NA
HETATM    9  N5  UNL     1      97.679  11.964   6.586  1.00  0.00    -0.197 N 
HETATM   10  S1  UNL     1      97.600  13.499   7.200  1.00  0.00     0.350 S 
ATOM     11  H5  UNL     1      97.162  11.144   6.268  1.00  0.00     0.198 HD
HETATM   12  O1  UNL     1      97.440  13.793   8.653  1.00  0.00    -0.184 OA
HETATM   13  O2  UNL     1      97.300  14.611   6.215  1.00  0.00    -0.184 OA
ENDBRANCH   6   8
TORSDOF 1
ENDMDL
MODEL 3
REMARK VINA RESULT: -5.419661937      1.825      2.093
REMARK  1 active torsions:
REMARK  status: ('A' for Active; 'I' for Inactive)
REMARK       I    between atoms: C1_4  and  N3_6 
REMARK    1  A    between atoms: N3_6  and  N4_8 
ROOT
HETATM    1  N1  UNL     1      97.025  12.678   6.844  1.00  0.00    -0.373 N 
ATOM      2  H11 UNL     1      97.221  11.990   6.118  1.00  0.00     0.158 HD
ATOM      3  H12 UNL     1      96.108  13.125   6.886  1.00  0.00     0.158 HD
HETATM    4  C1  UNL     1      97.950  12.966   7.694  1.00  0.00     0.198 C 
HETATM    5  N2  UNL     1      97.678  13.918   8.699  1.00  0.00    -0.063 NA
HETATM    6  N3  UNL     1      99.222  12.347   7.636  1.00  0.00    -0.259 N 
ATOM      7  H3  UNL     1      99.693  12.035   8.486  1.00  0.00     0.186 HD
ENDROOT
BRANCH   6   8
HETATM    8  N4  UNL     1      99.808  12.175   6.391  1.00  0.00     0.009 NA
HETATM    9  N5  UNL     1     100.907  11.153   6.493  1.00  0.00    -0.197 N 
HETATM   10  S1  UNL     1      99.625  10.661   5.570  1.00  0.00     0.350 S 
ATOM     11  H5  UNL     1     101.824  10.920   6.875  1.00  0.00     0.198 HD
HETATM   12  O1  UNL     1      98.515   9.813   6.094  1.00  0.00    -0.184 OA
HETATM   13  O2  UNL     1      99.791  10.760   4.066  1.00  0.00    -0.184 OA
ENDBRANCH   6   8
TORSDOF 1
ENDMDL
MODEL 4
REMARK VINA RESULT: -5.409643499      2.310      2.388
REMARK  1 active torsions:
REMARK  status: ('A' for Active; 'I' for Inactive)
REMARK       I    between atoms: C1_4  and  N3_6 
REMARK    1  A    between atoms: N3_6  and  N4_8 
ROOT
HETATM    1  N1  UNL     1      97.456  12.812   8.785  1.00  0.00    -0.373 N 
ATOM      2  H11 UNL     1      97.944  12.141   9.377  1.00  0.00     0.158 HD
ATOM      3  H12 UNL     1      96.528  13.141   9.050  1.00  0.00     0.158 HD
HETATM    4  C1  UNL     1      98.033  13.226   7.709  1.00  0.00     0.198 C 
HETATM    5  N2  UNL     1      97.357  14.154   6.889  1.00  0.00    -0.063 NA
HETATM    6  N3  UNL     1      99.321  12.768   7.341  1.00  0.00    -0.259 N 
ATOM      7  H3  UNL     1     100.020  13.412   6.970  1.00  0.00     0.186 HD
ENDROOT
BRANCH   6   8
HETATM    8  N4  UNL     1      99.604  11.419   7.499  1.00  0.00     0.009 NA
HETATM    9  N5  UNL     1     100.251  10.895   6.246  1.00  0.00    -0.197 N 
HETATM   10  S1  UNL     1     101.257  10.903   7.560  1.00  0.00     0.350 S 
ATOM     11  H5  UNL     1     100.143  10.679   5.255  1.00  0.00     0.198 HD
HETATM   12  O1  UNL     1     102.229  12.000   7.841  1.00  0.00    -0.184 OA
HETATM   13  O2  UNL     1     101.456   9.581   8.274  1.00  0.00    -0.184 OA
ENDBRANCH   6   8
TORSDOF 1
ENDMDL
MODEL 5
REMARK VINA RESULT: -5.405527718      3.289      4.070
REMARK  1 active torsions:
REMARK  status: ('A' for Active; 'I' for Inactive)
REMARK       I    between atoms: C1_4  and  N3_6 
REMARK    1  A    between atoms: N3_6  and  N4_8 
ROOT
HETATM    1  N1  UNL     1      97.990   9.797   5.502  1.00  0.00    -0.373 N 
ATOM      2  H11 UNL     1      97.280  10.068   6.182  1.00  0.00     0.158 HD
ATOM      3  H12 UNL     1      97.966   8.865   5.087  1.00  0.00     0.158 HD
HETATM    4  C1  UNL     1      98.904  10.649   5.184  1.00  0.00     0.198 C 
HETATM    5  N2  UNL     1      99.885  10.274   4.243  1.00  0.00    -0.063 NA
HETATM    6  N3  UNL     1      98.937  11.942   5.759  1.00  0.00    -0.259 N 
ATOM      7  H3  UNL     1      99.143  12.764   5.190  1.00  0.00     0.186 HD
ENDROOT
BRANCH   6   8
HETATM    8  N4  UNL     1      98.682  12.059   7.117  1.00  0.00     0.009 NA
HETATM    9  N5  UNL     1      99.578  13.116   7.704  1.00  0.00    -0.197 N 
HETATM   10  S1  UNL     1      97.972  13.520   7.722  1.00  0.00     0.350 S 
ATOM     11  H5  UNL     1     100.531  13.396   7.935  1.00  0.00     0.198 HD
HETATM   12  O1  UNL     1      97.328  14.364   6.675  1.00  0.00    -0.184 OA
HETATM   13  O2  UNL     1      97.240  13.342   9.038  1.00  0.00    -0.184 OA
ENDBRANCH   6   8
TORSDOF 1
ENDMDL
