MODEL 1
REMARK VINA RESULT: -6.684664962      0.000      0.000
REMARK  1 active torsions:
REMARK  status: ('A' for Active; 'I' for Inactive)
REMARK    1  A    between atoms: N2_4  and  N3_6 
ROOT
HETATM    1  N3  UNL     1     100.559  10.298   7.757  1.00  0.00    -0.267 N 
ATOM      2  H3  UNL     1     100.677   9.350   7.398  1.00  0.00     0.190 HD
HETATM    3  C1  UNL     1      99.589  11.052   7.316  1.00  0.00     0.194 A 
HETATM    4  N4  UNL     1      99.292  12.387   7.713  1.00  0.00    -0.289 N 
ATOM      5  H4  UNL     1      99.806  12.933   8.404  1.00  0.00     0.172 HD
HETATM    6  C2  UNL     1      98.140  12.833   6.973  1.00  0.00     0.328 A 
HETATM    7  O1  UNL     1      97.608  13.975   7.082  1.00  0.00    -0.247 OA
HETATM    8  N5  UNL     1      97.698  11.792   6.104  1.00  0.00    -0.272 N 
ATOM      9  H5  UNL     1      96.905  11.823   5.462  1.00  0.00     0.174 HD
HETATM   10  C3  UNL     1      98.591  10.694   6.315  1.00  0.00     0.295 A 
HETATM   11  O2  UNL     1      98.570   9.559   5.749  1.00  0.00    -0.264 OA
ENDROOT
BRANCH   1  12
HETATM   12  N2  UNL     1     101.434  10.800   8.724  1.00  0.00    -0.248 N 
HETATM   13  N1  UNL     1     101.772  10.057   9.672  1.00  0.00    -0.331 N 
ATOM     14  H12 UNL     1     101.408   9.106   9.724  1.00  0.00     0.178 HD
ATOM     15  H11 UNL     1     102.410  10.424  10.378  1.00  0.00     0.178 HD
ATOM     16  H2  UNL     1     101.790  11.754   8.658  1.00  0.00     0.207 HD
ENDBRANCH   1  12
TORSDOF 1
ENDMDL
MODEL 2
REMARK VINA RESULT: -6.003234674      2.230      2.564
REMARK  1 active torsions:
REMARK  status: ('A' for Active; 'I' for Inactive)
REMARK    1  A    between atoms: N2_4  and  N3_6 
ROOT
HETATM    1  N3  UNL     1     100.738  11.332   5.259  1.00  0.00    -0.267 N 
ATOM      2  H3  UNL     1     100.826  10.353   4.984  1.00  0.00     0.190 HD
HETATM    3  C1  UNL     1      99.600  11.790   5.705  1.00  0.00     0.194 A 
HETATM    4  N4  UNL     1      99.317  13.121   6.128  1.00  0.00    -0.289 N 
ATOM      5  H4  UNL     1      99.978  13.898   6.136  1.00  0.00     0.172 HD
HETATM    6  C2  UNL     1      97.940  13.180   6.541  1.00  0.00     0.328 A 
HETATM    7  O1  UNL     1      97.358  14.217   6.975  1.00  0.00    -0.247 OA
HETATM    8  N5  UNL     1      97.338  11.896   6.387  1.00  0.00    -0.272 N 
ATOM      9  H5  UNL     1      96.374  11.640   6.601  1.00  0.00     0.174 HD
HETATM   10  C3  UNL     1      98.362  11.039   5.871  1.00  0.00     0.295 A 
HETATM   11  O2  UNL     1      98.268   9.807   5.582  1.00  0.00    -0.264 OA
ENDROOT
BRANCH   1  12
HETATM   12  N2  UNL     1     101.835  12.194   5.162  1.00  0.00    -0.248 N 
HETATM   13  N1  UNL     1     102.499  12.204   4.101  1.00  0.00    -0.331 N 
ATOM     14  H12 UNL     1     102.232  11.589   3.332  1.00  0.00     0.178 HD
ATOM     15  H11 UNL     1     103.299  12.832   4.030  1.00  0.00     0.178 HD
ATOM     16  H2  UNL     1     102.089  12.803   5.940  1.00  0.00     0.207 HD
ENDBRANCH   1  12
TORSDOF 1
ENDMDL
MODEL 3
REMARK VINA RESULT: -5.837344937      1.936      2.052
REMARK  1 active torsions:
REMARK  status: ('A' for Active; 'I' for Inactive)
REMARK    1  A    between atoms: N2_4  and  N3_6 
ROOT
HETATM    1  N3  UNL     1     100.591   9.693   8.670  1.00  0.00    -0.267 N 
ATOM      2  H3  UNL     1      99.968   8.890   8.583  1.00  0.00     0.190 HD
HETATM    3  C1  UNL     1     100.555  10.653   7.785  1.00  0.00     0.194 A 
HETATM    4  N4  UNL     1     101.352  11.833   7.766  1.00  0.00    -0.289 N 
ATOM      5  H4  UNL     1     102.064  12.084   8.453  1.00  0.00     0.172 HD
HETATM    6  C2  UNL     1     100.980  12.611   6.614  1.00  0.00     0.328 A 
HETATM    7  O1  UNL     1     101.493  13.722   6.294  1.00  0.00    -0.247 OA
HETATM    8  N5  UNL     1      99.949  11.937   5.894  1.00  0.00    -0.272 N 
ATOM      9  H5  UNL     1      99.491  12.252   5.038  1.00  0.00     0.174 HD
HETATM   10  C3  UNL     1      99.687  10.729   6.616  1.00  0.00     0.295 A 
HETATM   11  O2  UNL     1      98.844   9.825   6.333  1.00  0.00    -0.264 OA
ENDROOT
BRANCH   1  12
HETATM   12  N2  UNL     1     101.490   9.777   9.737  1.00  0.00    -0.248 N 
HETATM   13  N1  UNL     1     102.065   8.734  10.121  1.00  0.00    -0.331 N 
ATOM     14  H12 UNL     1     101.872   7.849   9.653  1.00  0.00     0.178 HD
ATOM     15  H11 UNL     1     102.721   8.795  10.900  1.00  0.00     0.178 HD
ATOM     16  H2  UNL     1     101.672  10.671  10.195  1.00  0.00     0.207 HD
ENDBRANCH   1  12
TORSDOF 1
ENDMDL
MODEL 4
REMARK VINA RESULT: -5.811962341      2.572      3.755
REMARK  1 active torsions:
REMARK  status: ('A' for Active; 'I' for Inactive)
REMARK    1  A    between atoms: N2_4  and  N3_6 
ROOT
HETATM    1  N3  UNL     1      98.675  13.200   7.691  1.00  0.00    -0.267 N 
ATOM      2  H3  UNL     1      99.271  13.965   8.009  1.00  0.00     0.190 HD
HETATM    3  C1  UNL     1      99.110  12.355   6.797  1.00  0.00     0.194 A 
HETATM    4  N4  UNL     1      98.406  11.242   6.254  1.00  0.00    -0.289 N 
ATOM      5  H4  UNL     1      97.457  10.958   6.499  1.00  0.00     0.172 HD
HETATM    6  C2  UNL     1      99.264  10.586   5.302  1.00  0.00     0.328 A 
HETATM    7  O1  UNL     1      98.950   9.559   4.634  1.00  0.00    -0.247 OA
HETATM    8  N5  UNL     1     100.513  11.271   5.231  1.00  0.00    -0.272 N 
ATOM      9  H5  UNL     1     101.312  11.032   4.643  1.00  0.00     0.174 HD
HETATM   10  C3  UNL     1     100.418  12.362   6.153  1.00  0.00     0.295 A 
HETATM   11  O2  UNL     1     101.301  13.235   6.413  1.00  0.00    -0.264 OA
ENDROOT
BRANCH   1  12
HETATM   12  N2  UNL     1      97.385  13.049   8.210  1.00  0.00    -0.248 N 
HETATM   13  N1  UNL     1      97.254  12.794   9.428  1.00  0.00    -0.331 N 
ATOM     14  H12 UNL     1      98.081  12.702  10.017  1.00  0.00     0.178 HD
ATOM     15  H11 UNL     1      96.313  12.683   9.805  1.00  0.00     0.178 HD
ATOM     16  H2  UNL     1      96.568  13.144   7.606  1.00  0.00     0.207 HD
ENDBRANCH   1  12
TORSDOF 1
ENDMDL
MODEL 5
REMARK VINA RESULT: -5.791022535      1.619      2.500
REMARK  1 active torsions:
REMARK  status: ('A' for Active; 'I' for Inactive)
REMARK    1  A    between atoms: N2_4  and  N3_6 
ROOT
HETATM    1  N3  UNL     1     100.895  10.625   8.449  1.00  0.00    -0.267 N 
ATOM      2  H3  UNL     1     101.521  11.350   8.802  1.00  0.00     0.190 HD
HETATM    3  C1  UNL     1     100.129  10.862   7.420  1.00  0.00     0.194 A 
HETATM    4  N4  UNL     1      99.208   9.962   6.810  1.00  0.00    -0.289 N 
ATOM      5  H4  UNL     1      99.027   9.002   7.105  1.00  0.00     0.172 HD
HETATM    6  C2  UNL     1      98.578  10.639   5.707  1.00  0.00     0.328 A 
HETATM    7  O1  UNL     1      97.705  10.127   4.948  1.00  0.00    -0.247 OA
HETATM    8  N5  UNL     1      99.089  11.967   5.605  1.00  0.00    -0.272 N 
ATOM      9  H5  UNL     1      98.827  12.675   4.919  1.00  0.00     0.174 HD
HETATM   10  C3  UNL     1     100.045  12.104   6.662  1.00  0.00     0.295 A 
HETATM   11  O2  UNL     1     100.744  13.124   6.945  1.00  0.00    -0.264 OA
ENDROOT
BRANCH   1  12
HETATM   12  N2  UNL     1     100.851   9.370   9.064  1.00  0.00    -0.248 N 
HETATM   13  N1  UNL     1     101.568   9.169  10.071  1.00  0.00    -0.331 N 
ATOM     14  H12 UNL     1     102.166   9.916  10.422  1.00  0.00     0.178 HD
ATOM     15  H11 UNL     1     101.535   8.253  10.519  1.00  0.00     0.178 HD
ATOM     16  H2  UNL     1     100.247   8.633   8.700  1.00  0.00     0.207 HD
ENDBRANCH   1  12
TORSDOF 1
ENDMDL
