MODEL 1
REMARK VINA RESULT: -7.226900691      0.000      0.000
REMARK  2 active torsions:
REMARK  status: ('A' for Active; 'I' for Inactive)
REMARK    1  A    between atoms: C1_2  and  N1_3 
REMARK    2  A    between atoms: N1_3  and  C2_5 
ROOT
HETATM    1  C2  UNL     1      98.903  11.891   5.745  1.00  0.00     0.702 A 
HETATM    2  N2  UNL     1      98.915  11.421   7.026  1.00  0.00    -0.129 N 
ATOM      3  H2  UNL     1      99.375  10.529   7.209  1.00  0.00     0.205 HD
HETATM    4  N3  UNL     1      98.369  12.053   8.030  1.00  0.00    -0.247 N 
ATOM      5  H3  UNL     1      98.410  11.650   8.966  1.00  0.00     0.191 HD
HETATM    6  C3  UNL     1      97.760  13.216   7.837  1.00  0.00     0.329 A 
HETATM    7  O2  UNL     1      97.222  13.858   8.767  1.00  0.00    -0.261 OA
HETATM    8  C4  UNL     1      97.710  13.749   6.564  1.00  0.00     0.329 A 
HETATM    9  O3  UNL     1      97.140  14.859   6.327  1.00  0.00    -0.261 OA
HETATM   10  N4  UNL     1      98.285  13.071   5.545  1.00  0.00    -0.150 N 
ATOM     11  H4  UNL     1      98.251  13.463   4.604  1.00  0.00     0.188 HD
ENDROOT
BRANCH   1  12
HETATM   12  N1  UNL     1      99.457  11.230   4.787  1.00  0.00    -0.166 N 
ATOM     13  H1  UNL     1     100.256  11.608   4.277  1.00  0.00     0.186 HD
BRANCH  12  14
HETATM   14  C1  UNL     1      98.914   9.960   4.468  1.00  0.00     0.368 C 
HETATM   15  O1  UNL     1      98.743   9.154   5.437  1.00  0.00    -0.283 OA
ENDBRANCH  12  14
ENDBRANCH   1  12
TORSDOF 2
ENDMDL
MODEL 2
REMARK VINA RESULT: -6.885335486      1.079      1.079
REMARK  2 active torsions:
REMARK  status: ('A' for Active; 'I' for Inactive)
REMARK    1  A    between atoms: C1_2  and  N1_3 
REMARK    2  A    between atoms: N1_3  and  C2_5 
ROOT
HETATM    1  C2  UNL     1      98.343  11.485   5.744  1.00  0.00     0.702 A 
HETATM    2  N2  UNL     1      98.430  11.112   7.054  1.00  0.00    -0.129 N 
ATOM      3  H2  UNL     1      98.716  10.156   7.266  1.00  0.00     0.205 HD
HETATM    4  N3  UNL     1      98.166  11.914   8.050  1.00  0.00    -0.247 N 
ATOM      5  H3  UNL     1      98.248  11.577   9.009  1.00  0.00     0.191 HD
HETATM    6  C3  UNL     1      97.790  13.166   7.819  1.00  0.00     0.329 A 
HETATM    7  O2  UNL     1      97.526  13.971   8.741  1.00  0.00    -0.261 OA
HETATM    8  C4  UNL     1      97.681  13.609   6.515  1.00  0.00     0.329 A 
HETATM    9  O3  UNL     1      97.325  14.797   6.242  1.00  0.00    -0.261 OA
HETATM   10  N4  UNL     1      97.961  12.754   5.506  1.00  0.00    -0.150 N 
ATOM     11  H4  UNL     1      97.882  13.079   4.542  1.00  0.00     0.188 HD
ENDROOT
BRANCH   1  12
HETATM   12  N1  UNL     1      98.615  10.656   4.795  1.00  0.00    -0.166 N 
ATOM     13  H1  UNL     1      97.890  10.067   4.383  1.00  0.00     0.186 HD
BRANCH  12  14
HETATM   14  C1  UNL     1      99.958  10.592   4.346  1.00  0.00     0.368 C 
HETATM   15  O1  UNL     1     100.808  11.283   4.991  1.00  0.00    -0.283 OA
ENDBRANCH  12  14
ENDBRANCH   1  12
TORSDOF 2
ENDMDL
MODEL 3
REMARK VINA RESULT: -6.815742093      1.783      2.646
REMARK  2 active torsions:
REMARK  status: ('A' for Active; 'I' for Inactive)
REMARK    1  A    between atoms: C1_2  and  N1_3 
REMARK    2  A    between atoms: N1_3  and  C2_5 
ROOT
HETATM    1  C2  UNL     1      98.954  11.269   7.102  1.00  0.00     0.702 A 
HETATM    2  N2  UNL     1      98.849  11.721   5.819  1.00  0.00    -0.129 N 
ATOM      3  H2  UNL     1      99.231  11.143   5.070  1.00  0.00     0.205 HD
HETATM    4  N3  UNL     1      98.288  12.856   5.498  1.00  0.00    -0.247 N 
ATOM      5  H3  UNL     1      98.241  13.141   4.520  1.00  0.00     0.191 HD
HETATM    6  C3  UNL     1      97.778  13.640   6.441  1.00  0.00     0.329 A 
HETATM    7  O2  UNL     1      97.231  14.736   6.183  1.00  0.00    -0.261 OA
HETATM    8  C4  UNL     1      97.851  13.242   7.762  1.00  0.00     0.329 A 
HETATM    9  O3  UNL     1      97.378  13.956   8.700  1.00  0.00    -0.261 OA
HETATM   10  N4  UNL     1      98.438  12.062   8.061  1.00  0.00    -0.150 N 
ATOM     11  H4  UNL     1      98.492  11.766   9.035  1.00  0.00     0.188 HD
ENDROOT
BRANCH   1  12
HETATM   12  N1  UNL     1      99.517  10.141   7.368  1.00  0.00    -0.166 N 
ATOM     13  H1  UNL     1      99.043   9.256   7.182  1.00  0.00     0.186 HD
BRANCH  12  14
HETATM   14  C1  UNL     1     100.819  10.175   7.927  1.00  0.00     0.368 C 
HETATM   15  O1  UNL     1     101.460  11.268   7.815  1.00  0.00    -0.283 OA
ENDBRANCH  12  14
ENDBRANCH   1  12
TORSDOF 2
ENDMDL
MODEL 4
REMARK VINA RESULT: -6.137808540      2.348      4.035
REMARK  2 active torsions:
REMARK  status: ('A' for Active; 'I' for Inactive)
REMARK    1  A    between atoms: C1_2  and  N1_3 
REMARK    2  A    between atoms: N1_3  and  C2_5 
ROOT
HETATM    1  C2  UNL     1      98.645  11.793   6.872  1.00  0.00     0.702 A 
HETATM    2  N2  UNL     1      98.841  10.897   7.883  1.00  0.00    -0.129 N 
ATOM      3  H2  UNL     1      98.040  10.638   8.460  1.00  0.00     0.205 HD
HETATM    4  N3  UNL     1      99.998  10.355   8.152  1.00  0.00    -0.247 N 
ATOM      5  H3  UNL     1     100.082   9.692   8.922  1.00  0.00     0.191 HD
HETATM    6  C3  UNL     1     101.066  10.665   7.427  1.00  0.00     0.329 A 
HETATM    7  O2  UNL     1     102.196  10.172   7.646  1.00  0.00    -0.261 OA
HETATM    8  C4  UNL     1     100.939  11.566   6.387  1.00  0.00     0.329 A 
HETATM    9  O3  UNL     1     101.930  11.894   5.664  1.00  0.00    -0.261 OA
HETATM   10  N4  UNL     1      99.727  12.109   6.134  1.00  0.00    -0.150 N 
ATOM     11  H4  UNL     1      99.630  12.774   5.367  1.00  0.00     0.188 HD
ENDROOT
BRANCH   1  12
HETATM   12  N1  UNL     1      97.482  12.300   6.646  1.00  0.00    -0.166 N 
ATOM     13  H1  UNL     1      96.787  11.802   6.089  1.00  0.00     0.186 HD
BRANCH  12  14
HETATM   14  C1  UNL     1      97.206  13.575   7.199  1.00  0.00     0.368 C 
HETATM   15  O1  UNL     1      97.685  13.813   8.352  1.00  0.00    -0.283 OA
ENDBRANCH  12  14
ENDBRANCH   1  12
TORSDOF 2
ENDMDL
MODEL 5
REMARK VINA RESULT: -5.988234877      2.334      4.354
REMARK  2 active torsions:
REMARK  status: ('A' for Active; 'I' for Inactive)
REMARK    1  A    between atoms: C1_2  and  N1_3 
REMARK    2  A    between atoms: N1_3  and  C2_5 
ROOT
HETATM    1  C2  UNL     1      98.652  11.914   6.789  1.00  0.00     0.702 A 
HETATM    2  N2  UNL     1      99.625  12.544   6.070  1.00  0.00    -0.129 N 
ATOM      3  H2  UNL     1      99.352  13.315   5.460  1.00  0.00     0.205 HD
HETATM    4  N3  UNL     1     100.887  12.211   6.119  1.00  0.00    -0.247 N 
ATOM      5  H3  UNL     1     101.569  12.720   5.556  1.00  0.00     0.191 HD
HETATM    6  C3  UNL     1     101.286  11.214   6.899  1.00  0.00     0.329 A 
HETATM    7  O2  UNL     1     102.483  10.858   6.979  1.00  0.00    -0.261 OA
HETATM    8  C4  UNL     1     100.351  10.532   7.654  1.00  0.00     0.329 A 
HETATM    9  O3  UNL     1     100.682   9.571   8.415  1.00  0.00    -0.261 OA
HETATM   10  N4  UNL     1      99.053  10.900   7.581  1.00  0.00    -0.150 N 
ATOM     11  H4  UNL     1      98.361  10.399   8.138  1.00  0.00     0.188 HD
ENDROOT
BRANCH   1  12
HETATM   12  N1  UNL     1      97.418  12.279   6.706  1.00  0.00    -0.166 N 
ATOM     13  H1  UNL     1      96.731  11.712   6.210  1.00  0.00     0.186 HD
BRANCH  12  14
HETATM   14  C1  UNL     1      97.054  13.499   7.330  1.00  0.00     0.368 C 
HETATM   15  O1  UNL     1      97.673  13.800   8.400  1.00  0.00    -0.283 OA
ENDBRANCH  12  14
ENDBRANCH   1  12
TORSDOF 2
ENDMDL
