MODEL 1
REMARK VINA RESULT: -6.496669793      0.000      0.000
REMARK  1 active torsions:
REMARK  status: ('A' for Active; 'I' for Inactive)
REMARK    1  A    between atoms: N3_4  and  N4_6 
ROOT
HETATM    1  N4  UNL     1      40.859 -47.424   7.746  1.00  0.00    -0.136 N 
HETATM    2  N5  UNL     1      40.517 -46.190   8.078  1.00  0.00    -0.225 N 
ATOM      3  H5  UNL     1      40.847 -45.705   8.913  1.00  0.00     0.194 HD
HETATM    4  C2  UNL     1      39.679 -45.660   7.173  1.00  0.00     0.344 A 
HETATM    5  O1  UNL     1      39.157 -44.507   7.177  1.00  0.00    -0.245 OA
HETATM    6  N6  UNL     1      39.482 -46.596   6.230  1.00  0.00    -0.257 N 
ATOM      7  H6  UNL     1      38.894 -46.511   5.400  1.00  0.00     0.175 HD
HETATM    8  C3  UNL     1      40.207 -47.662   6.594  1.00  0.00     0.365 A 
HETATM    9  O2  UNL     1      40.264 -48.731   5.944  1.00  0.00    -0.243 OA
ENDROOT
BRANCH   1  10
HETATM   10  N3  UNL     1      41.711 -48.251   8.467  1.00  0.00    -0.250 N 
HETATM   11  C1  UNL     1      42.971 -48.279   8.329  1.00  0.00     0.217 C 
HETATM   12  N1  UNL     1      43.604 -47.430   7.393  1.00  0.00    -0.065 NA
HETATM   13  N2  UNL     1      43.777 -49.152   9.102  1.00  0.00    -0.065 NA
ATOM     14  H3  UNL     1      41.294 -48.879   9.154  1.00  0.00     0.191 HD
ENDBRANCH   1  10
TORSDOF 1
ENDMDL
MODEL 2
REMARK VINA RESULT: -6.482375344      2.399      4.303
REMARK  1 active torsions:
REMARK  status: ('A' for Active; 'I' for Inactive)
REMARK    1  A    between atoms: N3_4  and  N4_6 
ROOT
HETATM    1  N4  UNL     1      40.216 -46.558   6.090  1.00  0.00    -0.136 N 
HETATM    2  N5  UNL     1      40.883 -46.791   7.208  1.00  0.00    -0.225 N 
ATOM      3  H5  UNL     1      41.143 -46.072   7.884  1.00  0.00     0.194 HD
HETATM    4  C2  UNL     1      41.172 -48.095   7.338  1.00  0.00     0.344 A 
HETATM    5  O1  UNL     1      41.796 -48.665   8.281  1.00  0.00    -0.245 OA
HETATM    6  N6  UNL     1      40.668 -48.714   6.258  1.00  0.00    -0.257 N 
ATOM      7  H6  UNL     1      40.717 -49.712   6.048  1.00  0.00     0.175 HD
HETATM    8  C3  UNL     1      40.090 -47.765   5.509  1.00  0.00     0.365 A 
HETATM    9  O2  UNL     1      39.513 -47.981   4.419  1.00  0.00    -0.243 OA
ENDROOT
BRANCH   1  10
HETATM   10  N3  UNL     1      39.766 -45.318   5.656  1.00  0.00    -0.250 N 
HETATM   11  C1  UNL     1      39.122 -44.495   6.375  1.00  0.00     0.217 C 
HETATM   12  N1  UNL     1      38.815 -44.813   7.718  1.00  0.00    -0.065 NA
HETATM   13  N2  UNL     1      38.696 -43.245   5.862  1.00  0.00    -0.065 NA
ATOM     14  H3  UNL     1      39.968 -45.050   4.693  1.00  0.00     0.191 HD
ENDBRANCH   1  10
TORSDOF 1
ENDMDL
MODEL 3
REMARK VINA RESULT: -6.057338890      1.735      1.865
REMARK  1 active torsions:
REMARK  status: ('A' for Active; 'I' for Inactive)
REMARK    1  A    between atoms: N3_4  and  N4_6 
ROOT
HETATM    1  N4  UNL     1      41.873 -47.910   7.861  1.00  0.00    -0.136 N 
HETATM    2  N5  UNL     1      42.426 -46.711   7.929  1.00  0.00    -0.225 N 
ATOM      3  H5  UNL     1      43.002 -46.384   8.706  1.00  0.00     0.194 HD
HETATM    4  C2  UNL     1      42.130 -45.978   6.844  1.00  0.00     0.344 A 
HETATM    5  O1  UNL     1      42.490 -44.793   6.582  1.00  0.00    -0.245 OA
HETATM    6  N6  UNL     1      41.358 -46.744   6.057  1.00  0.00    -0.257 N 
ATOM      7  H6  UNL     1      40.960 -46.485   5.154  1.00  0.00     0.175 HD
HETATM    8  C3  UNL     1      41.212 -47.917   6.689  1.00  0.00     0.365 A 
HETATM    9  O2  UNL     1      40.548 -48.881   6.245  1.00  0.00    -0.243 OA
ENDROOT
BRANCH   1  10
HETATM   10  N3  UNL     1      41.983 -48.910   8.819  1.00  0.00    -0.250 N 
HETATM   11  C1  UNL     1      43.079 -49.421   9.202  1.00  0.00     0.217 C 
HETATM   12  N1  UNL     1      44.302 -48.978   8.648  1.00  0.00    -0.065 NA
HETATM   13  N2  UNL     1      43.113 -50.440  10.186  1.00  0.00    -0.065 NA
ATOM     14  H3  UNL     1      41.123 -49.257   9.244  1.00  0.00     0.191 HD
ENDBRANCH   1  10
TORSDOF 1
ENDMDL
MODEL 4
REMARK VINA RESULT: -6.016810440      2.379      3.135
REMARK  1 active torsions:
REMARK  status: ('A' for Active; 'I' for Inactive)
REMARK    1  A    between atoms: N3_4  and  N4_6 
ROOT
HETATM    1  N4  UNL     1      40.996 -45.604   7.404  1.00  0.00    -0.136 N 
HETATM    2  N5  UNL     1      41.094 -46.308   6.289  1.00  0.00    -0.225 N 
ATOM      3  H5  UNL     1      41.967 -46.684   5.918  1.00  0.00     0.194 HD
HETATM    4  C2  UNL     1      39.894 -46.463   5.707  1.00  0.00     0.344 A 
HETATM    5  O1  UNL     1      39.621 -47.077   4.635  1.00  0.00    -0.245 OA
HETATM    6  N6  UNL     1      39.000 -45.830   6.485  1.00  0.00    -0.257 N 
ATOM      7  H6  UNL     1      37.995 -45.757   6.325  1.00  0.00     0.175 HD
HETATM    8  C3  UNL     1      39.687 -45.314   7.514  1.00  0.00     0.365 A 
HETATM    9  O2  UNL     1      39.173 -44.653   8.444  1.00  0.00    -0.243 OA
ENDROOT
BRANCH   1  10
HETATM   10  N3  UNL     1      42.049 -45.265   8.244  1.00  0.00    -0.250 N 
HETATM   11  C1  UNL     1      43.149 -44.768   7.853  1.00  0.00     0.217 C 
HETATM   12  N1  UNL     1      43.370 -44.522   6.478  1.00  0.00    -0.065 NA
HETATM   13  N2  UNL     1      44.180 -44.447   8.771  1.00  0.00    -0.065 NA
ATOM     14  H3  UNL     1      41.930 -45.426   9.244  1.00  0.00     0.191 HD
ENDBRANCH   1  10
TORSDOF 1
ENDMDL
MODEL 5
REMARK VINA RESULT: -5.921359221      2.144      2.292
REMARK  1 active torsions:
REMARK  status: ('A' for Active; 'I' for Inactive)
REMARK    1  A    between atoms: N3_4  and  N4_6 
ROOT
HETATM    1  N4  UNL     1      41.114 -46.276   6.631  1.00  0.00    -0.136 N 
HETATM    2  N5  UNL     1      40.853 -45.604   7.740  1.00  0.00    -0.225 N 
ATOM      3  H5  UNL     1      41.550 -45.363   8.446  1.00  0.00     0.194 HD
HETATM    4  C2  UNL     1      39.553 -45.279   7.815  1.00  0.00     0.344 A 
HETATM    5  O1  UNL     1      38.961 -44.641   8.734  1.00  0.00    -0.245 OA
HETATM    6  N6  UNL     1      38.966 -45.766   6.709  1.00  0.00    -0.257 N 
ATOM      7  H6  UNL     1      37.980 -45.692   6.459  1.00  0.00     0.175 HD
HETATM    8  C3  UNL     1      39.930 -46.369   5.999  1.00  0.00     0.365 A 
HETATM    9  O2  UNL     1      39.745 -46.939   4.900  1.00  0.00    -0.243 OA
ENDROOT
BRANCH   1  10
HETATM   10  N3  UNL     1      42.359 -46.758   6.249  1.00  0.00    -0.250 N 
HETATM   11  C1  UNL     1      43.416 -46.059   6.195  1.00  0.00     0.217 C 
HETATM   12  N1  UNL     1      43.379 -44.687   6.538  1.00  0.00    -0.065 NA
HETATM   13  N2  UNL     1      44.653 -46.622   5.795  1.00  0.00    -0.065 NA
ATOM     14  H3  UNL     1      42.429 -47.744   5.994  1.00  0.00     0.191 HD
ENDBRANCH   1  10
TORSDOF 1
ENDMDL
