MODEL 1
REMARK VINA RESULT: -6.692744455      0.000      0.000
REMARK  4 active torsions:
REMARK  status: ('A' for Active; 'I' for Inactive)
REMARK    1  A    between atoms: N1_1  and  N2_4 
REMARK    2  A    between atoms: C1_6  and  N3_7 
REMARK    3  A    between atoms: C1_6  and  C3_16 
REMARK       I    between atoms: C2_9  and  N5_11 
REMARK    4  A    between atoms: N5_11  and  N6_13 
ROOT
HETATM    1  N2  UNL     1      39.127 -47.047   6.061  1.00  0.00    -0.288 N 
ATOM      2  H2  UNL     1      38.123 -46.969   6.223  1.00  0.00     0.188 HD
HETATM    3  C1  UNL     1      39.871 -46.094   6.452  1.00  0.00     0.188 C 
ENDROOT
BRANCH   3   4
HETATM    4  N3  UNL     1      41.259 -46.164   6.246  1.00  0.00    -0.310 N 
HETATM    5  C2  UNL     1      42.107 -46.714   7.012  1.00  0.00     0.208 C 
HETATM    6  N4  UNL     1      43.476 -46.708   6.676  1.00  0.00    -0.062 NA
HETATM    7  N5  UNL     1      41.679 -47.336   8.202  1.00  0.00    -0.280 N 
ATOM      8  H5  UNL     1      40.813 -47.010   8.631  1.00  0.00     0.189 HD
ATOM      9  H3  UNL     1      41.620 -45.728   5.398  1.00  0.00     0.170 HD
BRANCH   7  10
HETATM   10  N6  UNL     1      42.377 -48.374   8.826  1.00  0.00    -0.343 N 
ATOM     11  H62 UNL     1      42.874 -48.149   9.687  1.00  0.00     0.176 HD
ATOM     12  H61 UNL     1      42.411 -49.327   8.466  1.00  0.00     0.176 HD
ENDBRANCH   7  10
ENDBRANCH   3   4
BRANCH   3  13
HETATM   13  C3  UNL     1      39.305 -44.943   7.105  1.00  0.00     0.300 C 
HETATM   14  N7  UNL     1      39.272 -44.883   8.540  1.00  0.00    -0.054 NA
HETATM   15  O1  UNL     1      38.826 -43.965   6.475  1.00  0.00    -0.268 OA
ENDBRANCH   3  13
BRANCH   1  16
HETATM   16  N1  UNL     1      39.601 -48.189   5.425  1.00  0.00    -0.343 N 
ATOM     17  H12 UNL     1      39.801 -48.115   4.428  1.00  0.00     0.176 HD
ATOM     18  H11 UNL     1      39.754 -49.079   5.898  1.00  0.00     0.176 HD
ENDBRANCH   1  16
TORSDOF 4
ENDMDL
MODEL 2
REMARK VINA RESULT: -6.495572243      2.237      3.744
REMARK  4 active torsions:
REMARK  status: ('A' for Active; 'I' for Inactive)
REMARK    1  A    between atoms: N1_1  and  N2_4 
REMARK    2  A    between atoms: C1_6  and  N3_7 
REMARK    3  A    between atoms: C1_6  and  C3_16 
REMARK       I    between atoms: C2_9  and  N5_11 
REMARK    4  A    between atoms: N5_11  and  N6_13 
ROOT
HETATM    1  N2  UNL     1      42.292 -46.581   5.754  1.00  0.00    -0.288 N 
ATOM      2  H2  UNL     1      42.854 -47.415   5.586  1.00  0.00     0.188 HD
HETATM    3  C1  UNL     1      41.029 -46.681   5.658  1.00  0.00     0.188 C 
ENDROOT
BRANCH   3   4
HETATM    4  N3  UNL     1      40.221 -45.554   5.881  1.00  0.00    -0.310 N 
HETATM    5  C2  UNL     1      39.525 -45.318   6.915  1.00  0.00     0.208 C 
HETATM    6  N4  UNL     1      38.758 -44.139   7.002  1.00  0.00    -0.062 NA
HETATM    7  N5  UNL     1      39.520 -46.239   7.982  1.00  0.00    -0.280 N 
ATOM      8  H5  UNL     1      39.724 -47.218   7.776  1.00  0.00     0.189 HD
ATOM      9  H3  UNL     1      40.190 -44.857   5.137  1.00  0.00     0.170 HD
BRANCH   7  10
HETATM   10  N6  UNL     1      39.251 -45.885   9.307  1.00  0.00    -0.343 N 
ATOM     11  H62 UNL     1      39.798 -45.123   9.706  1.00  0.00     0.176 HD
ATOM     12  H61 UNL     1      38.544 -46.345   9.881  1.00  0.00     0.176 HD
ENDBRANCH   7  10
ENDBRANCH   3   4
BRANCH   3  13
HETATM   13  C3  UNL     1      40.418 -47.941   5.322  1.00  0.00     0.300 C 
HETATM   14  N7  UNL     1      40.498 -49.039   6.245  1.00  0.00    -0.054 NA
HETATM   15  O1  UNL     1      39.805 -48.138   4.243  1.00  0.00    -0.268 OA
ENDBRANCH   3  13
BRANCH   1  16
HETATM   16  N1  UNL     1      42.953 -45.400   6.074  1.00  0.00    -0.343 N 
ATOM     17  H12 UNL     1      43.832 -45.485   6.584  1.00  0.00     0.176 HD
ATOM     18  H11 UNL     1      42.608 -44.473   5.829  1.00  0.00     0.176 HD
ENDBRANCH   1  16
TORSDOF 4
ENDMDL
MODEL 3
REMARK VINA RESULT: -6.398160559      1.774      3.111
REMARK  4 active torsions:
REMARK  status: ('A' for Active; 'I' for Inactive)
REMARK    1  A    between atoms: N1_1  and  N2_4 
REMARK    2  A    between atoms: C1_6  and  N3_7 
REMARK    3  A    between atoms: C1_6  and  C3_16 
REMARK       I    between atoms: C2_9  and  N5_11 
REMARK    4  A    between atoms: N5_11  and  N6_13 
ROOT
HETATM    1  N2  UNL     1      41.823 -45.636   8.086  1.00  0.00    -0.288 N 
ATOM      2  H2  UNL     1      41.955 -44.659   8.347  1.00  0.00     0.188 HD
HETATM    3  C1  UNL     1      40.672 -45.997   7.686  1.00  0.00     0.188 C 
ENDROOT
BRANCH   3   4
HETATM    4  N3  UNL     1      40.449 -47.334   7.317  1.00  0.00    -0.310 N 
HETATM    5  C2  UNL     1      40.598 -47.832   6.160  1.00  0.00     0.208 C 
HETATM    6  N4  UNL     1      40.336 -49.199   5.936  1.00  0.00    -0.062 NA
HETATM    7  N5  UNL     1      41.026 -47.015   5.095  1.00  0.00    -0.280 N 
ATOM      8  H5  UNL     1      40.832 -46.014   5.146  1.00  0.00     0.189 HD
ATOM      9  H3  UNL     1      40.137 -47.968   8.054  1.00  0.00     0.170 HD
BRANCH   7  10
HETATM   10  N6  UNL     1      41.702 -47.500   3.972  1.00  0.00    -0.343 N 
ATOM     11  H62 UNL     1      41.169 -48.074   3.320  1.00  0.00     0.176 HD
ATOM     12  H61 UNL     1      42.685 -47.310   3.780  1.00  0.00     0.176 HD
ENDBRANCH   7  10
ENDBRANCH   3   4
BRANCH   3  13
HETATM   13  C3  UNL     1      39.592 -45.048   7.607  1.00  0.00     0.300 C 
HETATM   14  N7  UNL     1      39.234 -44.482   6.336  1.00  0.00    -0.054 NA
HETATM   15  O1  UNL     1      38.931 -44.677   8.610  1.00  0.00    -0.268 OA
ENDBRANCH   3  13
BRANCH   1  16
HETATM   16  N1  UNL     1      42.911 -46.494   8.188  1.00  0.00    -0.343 N 
ATOM     17  H12 UNL     1      42.745 -47.405   8.618  1.00  0.00     0.176 HD
ATOM     18  H11 UNL     1      43.849 -46.263   7.861  1.00  0.00     0.176 HD
ENDBRANCH   1  16
TORSDOF 4
ENDMDL
MODEL 4
REMARK VINA RESULT: -6.271842342      1.165      1.539
REMARK  4 active torsions:
REMARK  status: ('A' for Active; 'I' for Inactive)
REMARK    1  A    between atoms: N1_1  and  N2_4 
REMARK    2  A    between atoms: C1_6  and  N3_7 
REMARK    3  A    between atoms: C1_6  and  C3_16 
REMARK       I    between atoms: C2_9  and  N5_11 
REMARK    4  A    between atoms: N5_11  and  N6_13 
ROOT
HETATM    1  N2  UNL     1      39.788 -46.089   5.240  1.00  0.00    -0.288 N 
ATOM      2  H2  UNL     1      39.428 -45.242   4.801  1.00  0.00     0.188 HD
HETATM    3  C1  UNL     1      39.801 -46.146   6.509  1.00  0.00     0.188 C 
ENDROOT
BRANCH   3   4
HETATM    4  N3  UNL     1      40.290 -47.295   7.151  1.00  0.00    -0.310 N 
HETATM    5  C2  UNL     1      41.446 -47.445   7.651  1.00  0.00     0.208 C 
HETATM    6  N4  UNL     1      41.801 -48.661   8.269  1.00  0.00    -0.062 NA
HETATM    7  N5  UNL     1      42.379 -46.390   7.588  1.00  0.00    -0.280 N 
ATOM      8  H5  UNL     1      42.286 -45.708   6.835  1.00  0.00     0.189 HD
ATOM      9  H3  UNL     1      39.652 -48.088   7.223  1.00  0.00     0.170 HD
BRANCH   7  10
HETATM   10  N6  UNL     1      43.425 -46.229   8.501  1.00  0.00    -0.343 N 
ATOM     11  H62 UNL     1      43.449 -45.360   9.034  1.00  0.00     0.176 HD
ATOM     12  H61 UNL     1      44.152 -46.928   8.656  1.00  0.00     0.176 HD
ENDBRANCH   7  10
ENDBRANCH   3   4
BRANCH   3  13
HETATM   13  C3  UNL     1      39.318 -45.041   7.297  1.00  0.00     0.300 C 
HETATM   14  N7  UNL     1      39.500 -45.050   8.722  1.00  0.00    -0.054 NA
HETATM   15  O1  UNL     1      38.732 -44.048   6.796  1.00  0.00    -0.268 OA
ENDBRANCH   3  13
BRANCH   1  16
HETATM   16  N1  UNL     1      40.236 -47.114   4.415  1.00  0.00    -0.343 N 
ATOM     17  H12 UNL     1      40.652 -47.927   4.870  1.00  0.00     0.176 HD
ATOM     18  H11 UNL     1      40.171 -47.093   3.397  1.00  0.00     0.176 HD
ENDBRANCH   1  16
TORSDOF 4
ENDMDL
MODEL 5
REMARK VINA RESULT: -6.241263037      1.416      1.965
REMARK  4 active torsions:
REMARK  status: ('A' for Active; 'I' for Inactive)
REMARK    1  A    between atoms: N1_1  and  N2_4 
REMARK    2  A    between atoms: C1_6  and  N3_7 
REMARK    3  A    between atoms: C1_6  and  C3_16 
REMARK       I    between atoms: C2_9  and  N5_11 
REMARK    4  A    between atoms: N5_11  and  N6_13 
ROOT
HETATM    1  N2  UNL     1      39.511 -46.894   6.313  1.00  0.00    -0.288 N 
ATOM      2  H2  UNL     1      39.084 -46.104   5.830  1.00  0.00     0.188 HD
HETATM    3  C1  UNL     1      40.121 -46.669   7.405  1.00  0.00     0.188 C 
ENDROOT
BRANCH   3   4
HETATM    4  N3  UNL     1      40.724 -47.731   8.099  1.00  0.00    -0.310 N 
HETATM    5  C2  UNL     1      41.929 -48.112   7.995  1.00  0.00     0.208 C 
HETATM    6  N4  UNL     1      42.399 -49.200   8.759  1.00  0.00    -0.062 NA
HETATM    7  N5  UNL     1      42.802 -47.445   7.113  1.00  0.00    -0.280 N 
ATOM      8  H5  UNL     1      42.399 -46.962   6.309  1.00  0.00     0.189 HD
ATOM      9  H3  UNL     1      40.133 -48.247   8.752  1.00  0.00     0.170 HD
BRANCH   7  10
HETATM   10  N6  UNL     1      44.189 -47.409   7.278  1.00  0.00    -0.343 N 
ATOM     11  H62 UNL     1      44.641 -48.260   7.611  1.00  0.00     0.176 HD
ATOM     12  H61 UNL     1      44.759 -46.586   7.085  1.00  0.00     0.176 HD
ENDBRANCH   7  10
ENDBRANCH   3   4
BRANCH   3  13
HETATM   13  C3  UNL     1      40.201 -45.334   7.938  1.00  0.00     0.300 C 
HETATM   14  N7  UNL     1      39.003 -44.665   8.363  1.00  0.00    -0.054 NA
HETATM   15  O1  UNL     1      41.285 -44.707   8.053  1.00  0.00    -0.268 OA
ENDBRANCH   3  13
BRANCH   1  16
HETATM   16  N1  UNL     1      39.392 -48.155   5.738  1.00  0.00    -0.343 N 
ATOM     17  H12 UNL     1      38.848 -48.222   4.878  1.00  0.00     0.176 HD
ATOM     18  H11 UNL     1      39.813 -48.997   6.127  1.00  0.00     0.176 HD
ENDBRANCH   1  16
TORSDOF 4
ENDMDL
