MODEL 1
REMARK VINA RESULT: -6.030682620      0.000      0.000
REMARK  3 active torsions:
REMARK  status: ('A' for Active; 'I' for Inactive)
REMARK    1  A    between atoms: N1_1  and  N2_4 
REMARK    2  A    between atoms: C4_14  and  N5_15 
REMARK    3  A    between atoms: N5_15  and  N6_17 
ROOT
HETATM    1  N2  UNL     1      46.082 -48.477   7.545  1.00  0.00    -0.138 N 
ATOM      2  H2  UNL     1      46.247 -47.767   6.830  1.00  0.00     0.205 HD
HETATM    3  C1  UNL     1      44.910 -48.653   8.049  1.00  0.00     0.702 A 
HETATM    4  N3  UNL     1      44.603 -49.619   9.046  1.00  0.00    -0.140 N 
ATOM      5  H3  UNL     1      45.358 -50.214   9.387  1.00  0.00     0.189 HD
HETATM    6  C2  UNL     1      43.316 -49.803   9.592  1.00  0.00     0.340 A 
HETATM    7  O1  UNL     1      43.071 -50.679  10.486  1.00  0.00    -0.246 OA
HETATM    8  N4  UNL     1      42.273 -48.963   9.105  1.00  0.00    -0.292 N 
ATOM      9  H4  UNL     1      41.329 -49.070   9.478  1.00  0.00     0.172 HD
HETATM   10  C3  UNL     1      42.522 -47.977   8.106  1.00  0.00     0.141 A 
HETATM   11  C4  UNL     1      41.541 -47.203   7.664  1.00  0.00     0.155 C 
HETATM   12  N7  UNL     1      43.836 -47.826   7.584  1.00  0.00    -0.174 N 
ATOM     13  H7  UNL     1      44.016 -47.121   6.869  1.00  0.00     0.186 HD
ENDROOT
BRANCH  11  14
HETATM   14  N5  UNL     1      40.213 -47.295   8.134  1.00  0.00    -0.315 N 
ATOM     15  H5  UNL     1      39.689 -48.154   7.973  1.00  0.00     0.185 HD
BRANCH  14  16
HETATM   16  N6  UNL     1      39.605 -46.255   8.808  1.00  0.00    -0.345 N 
ATOM     17  H62 UNL     1      39.954 -46.016   9.736  1.00  0.00     0.176 HD
ATOM     18  H61 UNL     1      38.828 -45.732   8.403  1.00  0.00     0.176 HD
ENDBRANCH  14  16
ENDBRANCH  11  14
BRANCH   1  19
HETATM   19  N1  UNL     1      47.122 -49.287   8.004  1.00  0.00    -0.331 N 
ATOM     20  H12 UNL     1      47.683 -48.993   8.803  1.00  0.00     0.177 HD
ATOM     21  H11 UNL     1      47.294 -50.167   7.519  1.00  0.00     0.177 HD
ENDBRANCH   1  19
TORSDOF 3
ENDMDL
MODEL 2
REMARK VINA RESULT: -5.783400471      3.969      5.291
REMARK  3 active torsions:
REMARK  status: ('A' for Active; 'I' for Inactive)
REMARK    1  A    between atoms: N1_1  and  N2_4 
REMARK    2  A    between atoms: C4_14  and  N5_15 
REMARK    3  A    between atoms: N5_15  and  N6_17 
ROOT
HETATM    1  N2  UNL     1      40.725 -48.035   5.760  1.00  0.00    -0.138 N 
ATOM      2  H2  UNL     1      41.532 -48.500   5.343  1.00  0.00     0.205 HD
HETATM    3  C1  UNL     1      40.875 -47.056   6.584  1.00  0.00     0.702 A 
HETATM    4  N3  UNL     1      39.801 -46.360   7.205  1.00  0.00    -0.140 N 
ATOM      5  H3  UNL     1      38.849 -46.653   6.987  1.00  0.00     0.189 HD
HETATM    6  C2  UNL     1      39.975 -45.290   8.106  1.00  0.00     0.340 A 
HETATM    7  O1  UNL     1      38.993 -44.685   8.647  1.00  0.00    -0.246 OA
HETATM    8  N4  UNL     1      41.313 -44.894   8.400  1.00  0.00    -0.292 N 
ATOM      9  H4  UNL     1      41.476 -44.123   9.048  1.00  0.00     0.172 HD
HETATM   10  C3  UNL     1      42.428 -45.555   7.807  1.00  0.00     0.141 A 
HETATM   11  C4  UNL     1      43.666 -45.176   8.092  1.00  0.00     0.155 C 
HETATM   12  N7  UNL     1      42.205 -46.631   6.904  1.00  0.00    -0.174 N 
ATOM     13  H7  UNL     1      43.002 -47.105   6.479  1.00  0.00     0.186 HD
ENDROOT
BRANCH  11  14
HETATM   14  N5  UNL     1      43.965 -44.119   8.978  1.00  0.00    -0.315 N 
ATOM     15  H5  UNL     1      43.975 -43.163   8.622  1.00  0.00     0.185 HD
BRANCH  14  16
HETATM   16  N6  UNL     1      44.243 -44.341  10.311  1.00  0.00    -0.345 N 
ATOM     17  H62 UNL     1      44.237 -45.303  10.648  1.00  0.00     0.176 HD
ATOM     18  H61 UNL     1      44.450 -43.575  10.953  1.00  0.00     0.176 HD
ENDBRANCH  14  16
ENDBRANCH  11  14
BRANCH   1  19
HETATM   19  N1  UNL     1      39.425 -48.442   5.455  1.00  0.00    -0.331 N 
ATOM     20  H12 UNL     1      38.647 -47.792   5.566  1.00  0.00     0.177 HD
ATOM     21  H11 UNL     1      39.287 -49.396   5.122  1.00  0.00     0.177 HD
ENDBRANCH   1  19
TORSDOF 3
ENDMDL
MODEL 3
REMARK VINA RESULT: -5.745723209      1.841      1.960
REMARK  3 active torsions:
REMARK  status: ('A' for Active; 'I' for Inactive)
REMARK    1  A    between atoms: N1_1  and  N2_4 
REMARK    2  A    between atoms: C4_14  and  N5_15 
REMARK    3  A    between atoms: N5_15  and  N6_17 
ROOT
HETATM    1  N2  UNL     1      45.364 -46.413   9.455  1.00  0.00    -0.138 N 
ATOM      2  H2  UNL     1      45.411 -45.538   8.932  1.00  0.00     0.205 HD
HETATM    3  C1  UNL     1      44.405 -47.251   9.261  1.00  0.00     0.702 A 
HETATM    4  N3  UNL     1      44.270 -48.488   9.950  1.00  0.00    -0.140 N 
ATOM      5  H3  UNL     1      44.978 -48.731  10.643  1.00  0.00     0.189 HD
HETATM    6  C2  UNL     1      43.216 -49.399   9.731  1.00  0.00     0.340 A 
HETATM    7  O1  UNL     1      43.123 -50.501  10.364  1.00  0.00    -0.246 OA
HETATM    8  N4  UNL     1      42.237 -49.043   8.758  1.00  0.00    -0.292 N 
ATOM      9  H4  UNL     1      41.461 -49.679   8.574  1.00  0.00     0.172 HD
HETATM   10  C3  UNL     1      42.321 -47.817   8.038  1.00  0.00     0.141 A 
HETATM   11  C4  UNL     1      41.401 -47.500   7.136  1.00  0.00     0.155 C 
HETATM   12  N7  UNL     1      43.401 -46.928   8.291  1.00  0.00    -0.174 N 
ATOM     13  H7  UNL     1      43.462 -46.049   7.776  1.00  0.00     0.186 HD
ENDROOT
BRANCH  11  14
HETATM   14  N5  UNL     1      40.302 -48.331   6.831  1.00  0.00    -0.315 N 
ATOM     15  H5  UNL     1      40.015 -49.041   7.505  1.00  0.00     0.185 HD
BRANCH  14  16
HETATM   16  N6  UNL     1      39.602 -48.210   5.648  1.00  0.00    -0.345 N 
ATOM     17  H62 UNL     1      39.845 -47.440   5.024  1.00  0.00     0.176 HD
ATOM     18  H61 UNL     1      38.861 -48.862   5.390  1.00  0.00     0.176 HD
ENDBRANCH  14  16
ENDBRANCH  11  14
BRANCH   1  19
HETATM   19  N1  UNL     1      46.337 -46.737  10.402  1.00  0.00    -0.331 N 
ATOM     20  H12 UNL     1      46.280 -47.619  10.911  1.00  0.00     0.177 HD
ATOM     21  H11 UNL     1      47.091 -46.070  10.561  1.00  0.00     0.177 HD
ENDBRANCH   1  19
TORSDOF 3
ENDMDL
MODEL 4
REMARK VINA RESULT: -5.735318126      3.736      5.504
REMARK  3 active torsions:
REMARK  status: ('A' for Active; 'I' for Inactive)
REMARK    1  A    between atoms: N1_1  and  N2_4 
REMARK    2  A    between atoms: C4_14  and  N5_15 
REMARK    3  A    between atoms: N5_15  and  N6_17 
ROOT
HETATM    1  N2  UNL     1      40.303 -45.210   8.604  1.00  0.00    -0.138 N 
ATOM      2  H2  UNL     1      40.752 -44.361   8.948  1.00  0.00     0.205 HD
HETATM    3  C1  UNL     1      40.834 -45.905   7.657  1.00  0.00     0.702 A 
HETATM    4  N3  UNL     1      40.270 -47.096   7.124  1.00  0.00    -0.140 N 
ATOM      5  H3  UNL     1      39.387 -47.426   7.515  1.00  0.00     0.189 HD
HETATM    6  C2  UNL     1      40.859 -47.849   6.087  1.00  0.00     0.340 A 
HETATM    7  O1  UNL     1      40.329 -48.915   5.630  1.00  0.00    -0.246 OA
HETATM    8  N4  UNL     1      42.092 -47.374   5.554  1.00  0.00    -0.292 N 
ATOM      9  H4  UNL     1      42.546 -47.895   4.803  1.00  0.00     0.172 HD
HETATM   10  C3  UNL     1      42.704 -46.186   6.049  1.00  0.00     0.141 A 
HETATM   11  C4  UNL     1      43.851 -45.756   5.541  1.00  0.00     0.155 C 
HETATM   12  N7  UNL     1      42.074 -45.457   7.095  1.00  0.00    -0.174 N 
ATOM     13  H7  UNL     1      42.511 -44.607   7.451  1.00  0.00     0.186 HD
ENDROOT
BRANCH  11  14
HETATM   14  N5  UNL     1      44.534 -46.425   4.503  1.00  0.00    -0.315 N 
ATOM     15  H5  UNL     1      45.221 -47.139   4.741  1.00  0.00     0.185 HD
BRANCH  14  16
HETATM   16  N6  UNL     1      44.297 -46.141   3.173  1.00  0.00    -0.345 N 
ATOM     17  H62 UNL     1      43.352 -45.869   2.902  1.00  0.00     0.176 HD
ATOM     18  H61 UNL     1      45.034 -46.198   2.470  1.00  0.00     0.176 HD
ENDBRANCH  14  16
ENDBRANCH  11  14
BRANCH   1  19
HETATM   19  N1  UNL     1      39.096 -45.654   9.144  1.00  0.00    -0.331 N 
ATOM     20  H12 UNL     1      39.089 -46.414   9.824  1.00  0.00     0.177 HD
ATOM     21  H11 UNL     1      38.237 -45.197   8.838  1.00  0.00     0.177 HD
ENDBRANCH   1  19
TORSDOF 3
ENDMDL
MODEL 5
REMARK VINA RESULT: -5.566421517      2.783      5.000
REMARK  3 active torsions:
REMARK  status: ('A' for Active; 'I' for Inactive)
REMARK    1  A    between atoms: N1_1  and  N2_4 
REMARK    2  A    between atoms: C4_14  and  N5_15 
REMARK    3  A    between atoms: N5_15  and  N6_17 
ROOT
HETATM    1  N2  UNL     1      40.163 -48.395   6.614  1.00  0.00    -0.138 N 
ATOM      2  H2  UNL     1      39.930 -49.347   6.900  1.00  0.00     0.205 HD
HETATM    3  C1  UNL     1      41.195 -47.792   7.096  1.00  0.00     0.702 A 
HETATM    4  N3  UNL     1      41.584 -46.469   6.748  1.00  0.00    -0.140 N 
ATOM      5  H3  UNL     1      41.011 -45.962   6.073  1.00  0.00     0.189 HD
HETATM    6  C2  UNL     1      42.715 -45.817   7.280  1.00  0.00     0.340 A 
HETATM    7  O1  UNL     1      43.039 -44.629   6.948  1.00  0.00    -0.246 OA
HETATM    8  N4  UNL     1      43.504 -46.541   8.221  1.00  0.00    -0.292 N 
ATOM      9  H4  UNL     1      44.330 -46.099   8.626  1.00  0.00     0.172 HD
HETATM   10  C3  UNL     1      43.163 -47.869   8.607  1.00  0.00     0.141 A 
HETATM   11  C4  UNL     1      43.907 -48.529   9.484  1.00  0.00     0.155 C 
HETATM   12  N7  UNL     1      42.012 -48.488   8.044  1.00  0.00    -0.174 N 
ATOM     13  H7  UNL     1      41.767 -49.439   8.320  1.00  0.00     0.186 HD
ENDROOT
BRANCH  11  14
HETATM   14  N5  UNL     1      45.061 -47.981  10.084  1.00  0.00    -0.315 N 
ATOM     15  H5  UNL     1      45.978 -48.323   9.797  1.00  0.00     0.185 HD
BRANCH  14  16
HETATM   16  N6  UNL     1      44.984 -46.995  11.046  1.00  0.00    -0.345 N 
ATOM     17  H62 UNL     1      44.946 -46.024  10.735  1.00  0.00     0.176 HD
ATOM     18  H61 UNL     1      44.966 -47.214  12.042  1.00  0.00     0.176 HD
ENDBRANCH  14  16
ENDBRANCH  11  14
BRANCH   1  19
HETATM   19  N1  UNL     1      39.374 -47.709   5.691  1.00  0.00    -0.331 N 
ATOM     20  H12 UNL     1      39.773 -47.406   4.803  1.00  0.00     0.177 HD
ATOM     21  H11 UNL     1      38.401 -47.527   5.934  1.00  0.00     0.177 HD
ENDBRANCH   1  19
TORSDOF 3
ENDMDL
