MODEL 1
REMARK VINA RESULT: -6.655777695      0.000      0.000
REMARK  4 active torsions:
REMARK  status: ('A' for Active; 'I' for Inactive)
REMARK    1  A    between atoms: N1_1  and  N2_4 
REMARK       I    between atoms: N2_4  and  C1_6 
REMARK       I    between atoms: C1_6  and  N3_8 
REMARK    2  A    between atoms: N3_8  and  N4_9 
REMARK    3  A    between atoms: N4_9  and  C2_10 
REMARK    4  A    between atoms: N8_17  and  O2_18 
ROOT
HETATM    1  C2  UNL     1      40.886 -48.089   7.197  1.00  0.00     0.355 A 
HETATM    2  N5  UNL     1      40.203 -48.714   6.174  1.00  0.00    -0.238 N 
ATOM      3  H5  UNL     1      40.358 -49.671   5.858  1.00  0.00     0.193 HD
HETATM    4  N6  UNL     1      39.340 -47.896   5.682  1.00  0.00    -0.222 N 
ATOM      5  H6  UNL     1      38.699 -48.093   4.913  1.00  0.00     0.210 HD
HETATM    6  N7  UNL     1      39.426 -46.780   6.332  1.00  0.00    -0.197 N 
ATOM      7  H7  UNL     1      38.847 -45.964   6.135  1.00  0.00     0.212 HD
HETATM    8  N8  UNL     1      40.330 -46.815   7.259  1.00  0.00    -0.095 N 
ENDROOT
BRANCH   1   9
HETATM    9  N4  UNL     1      41.775 -48.484   7.887  1.00  0.00    -0.200 NA
BRANCH   9  10
HETATM   10  N3  UNL     1      42.719 -48.858   8.598  1.00  0.00    -0.180 NA
HETATM   11  C1  UNL     1      43.752 -49.269   9.376  1.00  0.00     0.442 C 
HETATM   12  N2  UNL     1      44.655 -48.256   9.819  1.00  0.00    -0.244 N 
HETATM   13  O1  UNL     1      44.014 -50.432   9.750  1.00  0.00    -0.226 OA
ATOM     14  H2  UNL     1      44.519 -47.279   9.560  1.00  0.00     0.192 HD
BRANCH  12  15
HETATM   15  N1  UNL     1      45.723 -48.643  10.615  1.00  0.00    -0.340 N 
ATOM     16  H12 UNL     1      46.145 -49.564  10.492  1.00  0.00     0.177 HD
ATOM     17  H11 UNL     1      46.061 -47.982  11.313  1.00  0.00     0.177 HD
ENDBRANCH  12  15
ENDBRANCH   9  10
ENDBRANCH   1   9
BRANCH   8  18
HETATM   18  O2  UNL     1      40.753 -45.876   8.165  1.00  0.00    -0.263 OA
ATOM     19  H2  UNL     1      40.991 -44.994   7.906  1.00  0.00     0.247 HD
ENDBRANCH   8  18
TORSDOF 4
ENDMDL
MODEL 2
REMARK VINA RESULT: -6.106046054      1.297      1.662
REMARK  4 active torsions:
REMARK  status: ('A' for Active; 'I' for Inactive)
REMARK    1  A    between atoms: N1_1  and  N2_4 
REMARK       I    between atoms: N2_4  and  C1_6 
REMARK       I    between atoms: C1_6  and  N3_8 
REMARK    2  A    between atoms: N3_8  and  N4_9 
REMARK    3  A    between atoms: N4_9  and  C2_10 
REMARK    4  A    between atoms: N8_17  and  O2_18 
ROOT
HETATM    1  C2  UNL     1      40.732 -47.536   7.420  1.00  0.00     0.355 A 
HETATM    2  N5  UNL     1      40.060 -46.362   7.690  1.00  0.00    -0.238 N 
ATOM      3  H5  UNL     1      40.247 -45.741   8.478  1.00  0.00     0.193 HD
HETATM    4  N6  UNL     1      39.160 -46.176   6.790  1.00  0.00    -0.222 N 
ATOM      5  H6  UNL     1      38.515 -45.387   6.743  1.00  0.00     0.210 HD
HETATM    6  N7  UNL     1      39.215 -47.162   5.954  1.00  0.00    -0.197 N 
ATOM      7  H7  UNL     1      38.603 -47.252   5.143  1.00  0.00     0.212 HD
HETATM    8  N8  UNL     1      40.135 -48.021   6.261  1.00  0.00    -0.095 N 
ENDROOT
BRANCH   1   9
HETATM    9  N4  UNL     1      41.610 -48.079   8.017  1.00  0.00    -0.200 NA
BRANCH   9  10
HETATM   10  N3  UNL     1      42.525 -48.611   8.664  1.00  0.00    -0.180 NA
HETATM   11  C1  UNL     1      43.526 -49.193   9.371  1.00  0.00     0.442 C 
HETATM   12  N2  UNL     1      44.577 -48.333   9.811  1.00  0.00    -0.244 N 
HETATM   13  O1  UNL     1      43.643 -50.397   9.683  1.00  0.00    -0.226 OA
ATOM     14  H2  UNL     1      44.564 -47.335   9.600  1.00  0.00     0.192 HD
BRANCH  12  15
HETATM   15  N1  UNL     1      45.616 -48.898  10.535  1.00  0.00    -0.340 N 
ATOM     16  H12 UNL     1      45.509 -49.072  11.534  1.00  0.00     0.177 HD
ATOM     17  H11 UNL     1      46.475 -49.127  10.035  1.00  0.00     0.177 HD
ENDBRANCH  12  15
ENDBRANCH   9  10
ENDBRANCH   1   9
BRANCH   8  18
HETATM   18  O2  UNL     1      40.531 -49.193   5.669  1.00  0.00    -0.263 OA
ATOM     19  H2  UNL     1      39.910 -49.808   5.298  1.00  0.00     0.247 HD
ENDBRANCH   8  18
TORSDOF 4
ENDMDL
MODEL 3
REMARK VINA RESULT: -6.073466685      1.898      2.167
REMARK  4 active torsions:
REMARK  status: ('A' for Active; 'I' for Inactive)
REMARK    1  A    between atoms: N1_1  and  N2_4 
REMARK       I    between atoms: N2_4  and  C1_6 
REMARK       I    between atoms: C1_6  and  N3_8 
REMARK    2  A    between atoms: N3_8  and  N4_9 
REMARK    3  A    between atoms: N4_9  and  C2_10 
REMARK    4  A    between atoms: N8_17  and  O2_18 
ROOT
HETATM    1  C2  UNL     1      40.505 -46.169   7.013  1.00  0.00     0.355 A 
HETATM    2  N5  UNL     1      40.386 -45.716   5.715  1.00  0.00    -0.238 N 
ATOM      3  H5  UNL     1      40.972 -46.004   4.931  1.00  0.00     0.193 HD
HETATM    4  N6  UNL     1      39.416 -44.872   5.651  1.00  0.00    -0.222 N 
ATOM      5  H6  UNL     1      39.105 -44.380   4.814  1.00  0.00     0.210 HD
HETATM    6  N7  UNL     1      38.903 -44.758   6.834  1.00  0.00    -0.197 N 
ATOM      7  H7  UNL     1      38.115 -44.147   7.053  1.00  0.00     0.212 HD
HETATM    8  N8  UNL     1      39.500 -45.505   7.708  1.00  0.00    -0.095 N 
ENDROOT
BRANCH   1   9
HETATM    9  N4  UNL     1      41.286 -46.929   7.496  1.00  0.00    -0.200 NA
BRANCH   9  10
HETATM   10  N3  UNL     1      42.124 -47.688   8.005  1.00  0.00    -0.180 NA
HETATM   11  C1  UNL     1      43.041 -48.518   8.562  1.00  0.00     0.442 C 
HETATM   12  N2  UNL     1      42.631 -49.227   9.731  1.00  0.00    -0.244 N 
HETATM   13  O1  UNL     1      44.210 -48.737   8.177  1.00  0.00    -0.226 OA
ATOM     14  H2  UNL     1      41.694 -49.107  10.117  1.00  0.00     0.192 HD
BRANCH  12  15
HETATM   15  N1  UNL     1      43.546 -50.082  10.325  1.00  0.00    -0.340 N 
ATOM     16  H12 UNL     1      43.538 -50.219  11.336  1.00  0.00     0.177 HD
ATOM     17  H11 UNL     1      44.214 -50.559   9.721  1.00  0.00     0.177 HD
ENDBRANCH  12  15
ENDBRANCH   9  10
ENDBRANCH   1   9
BRANCH   8  18
HETATM   18  O2  UNL     1      39.294 -45.690   9.051  1.00  0.00    -0.263 OA
ATOM     19  H2  UNL     1      38.736 -45.115   9.561  1.00  0.00     0.247 HD
ENDBRANCH   8  18
TORSDOF 4
ENDMDL
MODEL 4
REMARK VINA RESULT: -5.845680926      3.582      4.372
REMARK  4 active torsions:
REMARK  status: ('A' for Active; 'I' for Inactive)
REMARK    1  A    between atoms: N1_1  and  N2_4 
REMARK       I    between atoms: N2_4  and  C1_6 
REMARK       I    between atoms: C1_6  and  N3_8 
REMARK    2  A    between atoms: N3_8  and  N4_9 
REMARK    3  A    between atoms: N4_9  and  C2_10 
REMARK    4  A    between atoms: N8_17  and  O2_18 
ROOT
HETATM    1  C2  UNL     1      41.179 -46.259   7.117  1.00  0.00     0.355 A 
HETATM    2  N5  UNL     1      40.859 -46.919   8.286  1.00  0.00    -0.238 N 
ATOM      3  H5  UNL     1      41.458 -47.586   8.772  1.00  0.00     0.193 HD
HETATM    4  N6  UNL     1      39.683 -46.557   8.665  1.00  0.00    -0.222 N 
ATOM      5  H6  UNL     1      39.194 -46.887   9.497  1.00  0.00     0.210 HD
HETATM    6  N7  UNL     1      39.229 -45.701   7.808  1.00  0.00    -0.197 N 
ATOM      7  H7  UNL     1      38.312 -45.259   7.880  1.00  0.00     0.212 HD
HETATM    8  N8  UNL     1      40.068 -45.467   6.849  1.00  0.00    -0.095 N 
ENDROOT
BRANCH   1   9
HETATM    9  N4  UNL     1      42.152 -46.330   6.432  1.00  0.00    -0.200 NA
BRANCH   9  10
HETATM   10  N3  UNL     1      43.185 -46.384   5.749  1.00  0.00    -0.180 NA
HETATM   11  C1  UNL     1      44.316 -46.444   5.001  1.00  0.00     0.442 C 
HETATM   12  N2  UNL     1      44.141 -46.455   3.584  1.00  0.00    -0.244 N 
HETATM   13  O1  UNL     1      45.498 -46.495   5.402  1.00  0.00    -0.226 OA
ATOM     14  H2  UNL     1      43.210 -46.417   3.168  1.00  0.00     0.192 HD
BRANCH  12  15
HETATM   15  N1  UNL     1      45.277 -46.517   2.791  1.00  0.00    -0.340 N 
ATOM     16  H12 UNL     1      46.143 -46.076   3.102  1.00  0.00     0.177 HD
ATOM     17  H11 UNL     1      45.211 -47.012   1.902  1.00  0.00     0.177 HD
ENDBRANCH  12  15
ENDBRANCH   9  10
ENDBRANCH   1   9
BRANCH   8  18
HETATM   18  O2  UNL     1      40.000 -44.651   5.748  1.00  0.00    -0.263 OA
ATOM     19  H2  UNL     1      39.325 -44.748   5.088  1.00  0.00     0.247 HD
ENDBRANCH   8  18
TORSDOF 4
ENDMDL
MODEL 5
REMARK VINA RESULT: -5.784435510      1.883      5.409
REMARK  4 active torsions:
REMARK  status: ('A' for Active; 'I' for Inactive)
REMARK    1  A    between atoms: N1_1  and  N2_4 
REMARK       I    between atoms: N2_4  and  C1_6 
REMARK       I    between atoms: C1_6  and  N3_8 
REMARK    2  A    between atoms: N3_8  and  N4_9 
REMARK    3  A    between atoms: N4_9  and  C2_10 
REMARK    4  A    between atoms: N8_17  and  O2_18 
ROOT
HETATM    1  C2  UNL     1      42.868 -49.026   8.734  1.00  0.00     0.355 A 
HETATM    2  N5  UNL     1      42.665 -49.720   9.910  1.00  0.00    -0.238 N 
ATOM      3  H5  UNL     1      41.757 -49.999  10.283  1.00  0.00     0.193 HD
HETATM    4  N6  UNL     1      43.804 -49.960  10.459  1.00  0.00    -0.222 N 
ATOM      5  H6  UNL     1      43.951 -50.457  11.338  1.00  0.00     0.210 HD
HETATM    6  N7  UNL     1      44.729 -49.462   9.704  1.00  0.00    -0.197 N 
ATOM      7  H7  UNL     1      45.725 -49.517   9.917  1.00  0.00     0.212 HD
HETATM    8  N8  UNL     1      44.249 -48.885   8.647  1.00  0.00    -0.095 N 
ENDROOT
BRANCH   1   9
HETATM    9  N4  UNL     1      42.084 -48.594   7.947  1.00  0.00    -0.200 NA
BRANCH   9  10
HETATM   10  N3  UNL     1      41.296 -48.151   7.099  1.00  0.00    -0.180 NA
HETATM   11  C1  UNL     1      40.433 -47.666   6.171  1.00  0.00     0.442 C 
HETATM   12  N2  UNL     1      40.450 -46.253   5.964  1.00  0.00    -0.244 N 
HETATM   13  O1  UNL     1      39.618 -48.307   5.474  1.00  0.00    -0.226 OA
ATOM     14  H2  UNL     1      41.083 -45.651   6.491  1.00  0.00     0.192 HD
BRANCH  12  15
HETATM   15  N1  UNL     1      39.579 -45.726   5.023  1.00  0.00    -0.340 N 
ATOM     16  H12 UNL     1      38.971 -46.344   4.485  1.00  0.00     0.177 HD
ATOM     17  H11 UNL     1      39.572 -44.715   4.894  1.00  0.00     0.177 HD
ENDBRANCH  12  15
ENDBRANCH   9  10
ENDBRANCH   1   9
BRANCH   8  18
HETATM   18  O2  UNL     1      44.854 -48.236   7.602  1.00  0.00    -0.263 OA
ATOM     19  H2  UNL     1      44.952 -48.635   6.746  1.00  0.00     0.247 HD
ENDBRANCH   8  18
TORSDOF 4
ENDMDL
