MODEL 1
REMARK VINA RESULT: -6.665283900      0.000      0.000
REMARK  1 active torsions:
REMARK  status: ('A' for Active; 'I' for Inactive)
REMARK       I    between atoms: C1_4  and  N3_6 
REMARK    1  A    between atoms: N3_6  and  C2_8 
ROOT
HETATM    1  C2  UNL     1      41.625 -46.746   7.665  1.00  0.00     0.692 A 
HETATM    2  N4  UNL     1      40.865 -45.647   7.827  1.00  0.00    -0.141 N 
ATOM      3  H4  UNL     1      41.164 -44.925   8.483  1.00  0.00     0.189 HD
HETATM    4  C3  UNL     1      39.724 -45.482   7.141  1.00  0.00     0.342 A 
HETATM    5  O1  UNL     1      39.004 -44.466   7.279  1.00  0.00    -0.246 OA
HETATM    6  N5  UNL     1      39.317 -46.420   6.274  1.00  0.00    -0.260 N 
ATOM      7  H5  UNL     1      38.452 -46.309   5.745  1.00  0.00     0.175 HD
HETATM    8  C4  UNL     1      40.085 -47.506   6.126  1.00  0.00     0.342 A 
HETATM    9  O2  UNL     1      39.741 -48.424   5.316  1.00  0.00    -0.246 OA
HETATM   10  N6  UNL     1      41.227 -47.697   6.796  1.00  0.00    -0.141 N 
ATOM     11  H6  UNL     1      41.782 -48.540   6.653  1.00  0.00     0.189 HD
ENDROOT
BRANCH   1  12
HETATM   12  N3  UNL     1      42.714 -46.876   8.337  1.00  0.00    -0.163 N 
HETATM   13  C1  UNL     1      43.243 -48.175   8.542  1.00  0.00     0.200 C 
HETATM   14  N1  UNL     1      42.772 -48.885   9.492  1.00  0.00    -0.373 N 
HETATM   15  N2  UNL     1      44.269 -48.636   7.691  1.00  0.00    -0.063 NA
ATOM     16  H12 UNL     1      43.154 -49.820   9.641  1.00  0.00     0.158 HD
ATOM     17  H11 UNL     1      42.030 -48.551  10.108  1.00  0.00     0.158 HD
ATOM     18  H3  UNL     1      43.189 -46.056   8.715  1.00  0.00     0.187 HD
ENDBRANCH   1  12
TORSDOF 1
ENDMDL
MODEL 2
REMARK VINA RESULT: -6.624165421      0.045      2.263
REMARK  1 active torsions:
REMARK  status: ('A' for Active; 'I' for Inactive)
REMARK       I    between atoms: C1_4  and  N3_6 
REMARK    1  A    between atoms: N3_6  and  C2_8 
ROOT
HETATM    1  C2  UNL     1      41.628 -46.697   7.667  1.00  0.00     0.692 A 
HETATM    2  N4  UNL     1      41.242 -47.654   6.803  1.00  0.00    -0.141 N 
ATOM      3  H4  UNL     1      41.824 -48.483   6.682  1.00  0.00     0.189 HD
HETATM    4  C3  UNL     1      40.105 -47.539   6.100  1.00  0.00     0.342 A 
HETATM    5  O1  UNL     1      39.729 -48.420   5.292  1.00  0.00    -0.246 OA
HETATM    6  N5  UNL     1      39.327 -46.458   6.248  1.00  0.00    -0.260 N 
ATOM      7  H5  UNL     1      38.459 -46.356   5.722  1.00  0.00     0.175 HD
HETATM    8  C4  UNL     1      39.727 -45.517   7.111  1.00  0.00     0.342 A 
HETATM    9  O2  UNL     1      39.023 -44.472   7.286  1.00  0.00    -0.246 OA
HETATM   10  N6  UNL     1      40.854 -45.604   7.825  1.00  0.00    -0.141 N 
ATOM     11  H6  UNL     1      41.122 -44.863   8.473  1.00  0.00     0.189 HD
ENDROOT
BRANCH   1  12
HETATM   12  N3  UNL     1      42.723 -46.835   8.327  1.00  0.00    -0.163 N 
HETATM   13  C1  UNL     1      43.251 -48.137   8.515  1.00  0.00     0.200 C 
HETATM   14  N1  UNL     1      42.788 -48.855   9.464  1.00  0.00    -0.373 N 
HETATM   15  N2  UNL     1      44.267 -48.594   7.650  1.00  0.00    -0.063 NA
ATOM     16  H12 UNL     1      43.168 -49.792   9.600  1.00  0.00     0.158 HD
ATOM     17  H11 UNL     1      42.053 -48.525  10.090  1.00  0.00     0.158 HD
ATOM     18  H3  UNL     1      43.205 -46.020   8.708  1.00  0.00     0.187 HD
ENDBRANCH   1  12
TORSDOF 1
ENDMDL
MODEL 3
REMARK VINA RESULT: -6.364764633      2.426      4.399
REMARK  1 active torsions:
REMARK  status: ('A' for Active; 'I' for Inactive)
REMARK       I    between atoms: C1_4  and  N3_6 
REMARK    1  A    between atoms: N3_6  and  C2_8 
ROOT
HETATM    1  C2  UNL     1      40.689 -46.822   6.715  1.00  0.00     0.692 A 
HETATM    2  N4  UNL     1      40.949 -47.782   7.622  1.00  0.00    -0.141 N 
ATOM      3  H4  UNL     1      40.178 -48.197   8.146  1.00  0.00     0.189 HD
HETATM    4  C3  UNL     1      42.202 -48.205   7.849  1.00  0.00     0.342 A 
HETATM    5  O1  UNL     1      42.462 -49.098   8.689  1.00  0.00    -0.246 OA
HETATM    6  N5  UNL     1      43.226 -47.672   7.169  1.00  0.00    -0.260 N 
ATOM      7  H5  UNL     1      44.184 -47.982   7.330  1.00  0.00     0.175 HD
HETATM    8  C4  UNL     1      42.949 -46.718   6.272  1.00  0.00     0.342 A 
HETATM    9  O2  UNL     1      43.888 -46.181   5.602  1.00  0.00    -0.246 OA
HETATM   10  N6  UNL     1      41.711 -46.277   6.025  1.00  0.00    -0.141 N 
ATOM     11  H6  UNL     1      41.544 -45.548   5.332  1.00  0.00     0.189 HD
ENDROOT
BRANCH   1  12
HETATM   12  N3  UNL     1      39.477 -46.437   6.520  1.00  0.00    -0.163 N 
HETATM   13  C1  UNL     1      39.050 -45.206   7.078  1.00  0.00     0.200 C 
HETATM   14  N1  UNL     1      38.681 -45.181   8.299  1.00  0.00    -0.373 N 
HETATM   15  N2  UNL     1      39.047 -44.054   6.264  1.00  0.00    -0.063 NA
ATOM     16  H12 UNL     1      38.373 -44.294   8.700  1.00  0.00     0.158 HD
ATOM     17  H11 UNL     1      38.684 -46.014   8.888  1.00  0.00     0.158 HD
ATOM     18  H3  UNL     1      38.834 -47.010   5.973  1.00  0.00     0.187 HD
ENDBRANCH   1  12
TORSDOF 1
ENDMDL
MODEL 4
REMARK VINA RESULT: -6.360198962      2.428      4.259
REMARK  1 active torsions:
REMARK  status: ('A' for Active; 'I' for Inactive)
REMARK       I    between atoms: C1_4  and  N3_6 
REMARK    1  A    between atoms: N3_6  and  C2_8 
ROOT
HETATM    1  C2  UNL     1      40.665 -46.850   6.755  1.00  0.00     0.692 A 
HETATM    2  N4  UNL     1      41.671 -46.285   6.061  1.00  0.00    -0.141 N 
ATOM      3  H4  UNL     1      41.461 -45.550   5.385  1.00  0.00     0.189 HD
HETATM    4  C3  UNL     1      42.944 -46.670   6.240  1.00  0.00     0.342 A 
HETATM    5  O1  UNL     1      43.892 -46.156   5.603  1.00  0.00    -0.246 OA
HETATM    6  N5  UNL     1      43.238 -47.634   7.124  1.00  0.00    -0.260 N 
ATOM      7  H5  UNL     1      44.200 -47.937   7.273  1.00  0.00     0.175 HD
HETATM    8  C4  UNL     1      42.226 -48.184   7.805  1.00  0.00     0.342 A 
HETATM    9  O2  UNL     1      42.454 -49.102   8.655  1.00  0.00    -0.246 OA
HETATM   10  N6  UNL     1      40.948 -47.821   7.648  1.00  0.00    -0.141 N 
ATOM     11  H6  UNL     1      40.207 -48.266   8.188  1.00  0.00     0.189 HD
ENDROOT
BRANCH   1  12
HETATM   12  N3  UNL     1      39.456 -46.460   6.561  1.00  0.00    -0.163 N 
HETATM   13  C1  UNL     1      39.037 -45.222   7.111  1.00  0.00     0.200 C 
HETATM   14  N1  UNL     1      38.672 -45.187   8.333  1.00  0.00    -0.373 N 
HETATM   15  N2  UNL     1      39.039 -44.076   6.290  1.00  0.00    -0.063 NA
ATOM     16  H12 UNL     1      38.370 -44.296   8.729  1.00  0.00     0.158 HD
ATOM     17  H11 UNL     1      38.670 -46.017   8.927  1.00  0.00     0.158 HD
ATOM     18  H3  UNL     1      38.808 -47.033   6.019  1.00  0.00     0.187 HD
ENDBRANCH   1  12
TORSDOF 1
ENDMDL
MODEL 5
REMARK VINA RESULT: -6.351537075      2.016      2.702
REMARK  1 active torsions:
REMARK  status: ('A' for Active; 'I' for Inactive)
REMARK       I    between atoms: C1_4  and  N3_6 
REMARK    1  A    between atoms: N3_6  and  C2_8 
ROOT
HETATM    1  C2  UNL     1      41.857 -45.888   7.051  1.00  0.00     0.692 A 
HETATM    2  N4  UNL     1      41.050 -45.247   7.917  1.00  0.00    -0.141 N 
ATOM      3  H4  UNL     1      41.461 -44.714   8.684  1.00  0.00     0.189 HD
HETATM    4  C3  UNL     1      39.715 -45.294   7.791  1.00  0.00     0.342 A 
HETATM    5  O1  UNL     1      38.949 -44.703   8.587  1.00  0.00    -0.246 OA
HETATM    6  N5  UNL     1      39.157 -45.987   6.788  1.00  0.00    -0.260 N 
ATOM      7  H5  UNL     1      38.144 -46.032   6.678  1.00  0.00     0.175 HD
HETATM    8  C4  UNL     1      39.975 -46.618   5.937  1.00  0.00     0.342 A 
HETATM    9  O2  UNL     1      39.493 -47.290   4.970  1.00  0.00    -0.246 OA
HETATM   10  N6  UNL     1      41.308 -46.589   6.039  1.00  0.00    -0.141 N 
ATOM     11  H6  UNL     1      41.895 -47.085   5.367  1.00  0.00     0.189 HD
ENDROOT
BRANCH   1  12
HETATM   12  N3  UNL     1      43.132 -45.824   7.199  1.00  0.00    -0.163 N 
HETATM   13  C1  UNL     1      43.820 -44.670   6.745  1.00  0.00     0.200 C 
HETATM   14  N1  UNL     1      44.129 -44.588   5.510  1.00  0.00    -0.373 N 
HETATM   15  N2  UNL     1      44.136 -43.656   7.672  1.00  0.00    -0.063 NA
ATOM     16  H12 UNL     1      44.624 -43.757   5.183  1.00  0.00     0.158 HD
ATOM     17  H11 UNL     1      43.901 -45.321   4.839  1.00  0.00     0.158 HD
ATOM     18  H3  UNL     1      43.642 -46.593   7.636  1.00  0.00     0.187 HD
ENDBRANCH   1  12
TORSDOF 1
ENDMDL
