MODEL 1
REMARK VINA RESULT: -6.209649890      0.000      0.000
REMARK  1 active torsions:
REMARK  status: ('A' for Active; 'I' for Inactive)
REMARK    1  A    between atoms: N1_2  and  C2_4 
ROOT
HETATM    1  C2  UNL     1      40.614 -46.298   6.079  1.00  0.00     0.149 C 
HETATM    2  N2  UNL     1      41.671 -45.536   6.413  1.00  0.00    -0.291 N 
ATOM      3  H2  UNL     1      41.832 -44.705   5.843  1.00  0.00     0.172 HD
HETATM    4  C3  UNL     1      42.553 -45.755   7.434  1.00  0.00     0.329 C 
HETATM    5  O1  UNL     1      43.243 -44.766   7.736  1.00  0.00    -0.246 OA
HETATM    6  N3  UNL     1      42.733 -46.901   8.114  1.00  0.00    -0.260 N 
ATOM      7  H3  UNL     1      43.416 -46.864   8.871  1.00  0.00     0.175 HD
HETATM    8  C4  UNL     1      42.129 -48.098   7.929  1.00  0.00     0.329 C 
HETATM    9  O2  UNL     1      42.473 -49.028   8.720  1.00  0.00    -0.246 OA
HETATM   10  N4  UNL     1      41.206 -48.510   7.041  1.00  0.00    -0.292 N 
ATOM     11  H4  UNL     1      41.064 -49.512   6.919  1.00  0.00     0.172 HD
HETATM   12  C5  UNL     1      40.448 -47.651   6.293  1.00  0.00     0.147 C 
HETATM   13  N5  UNL     1      39.438 -48.175   5.703  1.00  0.00    -0.382 N 
ATOM     14  H51 UNL     1      39.315 -49.175   5.860  1.00  0.00     0.157 HD
ATOM     15  H52 UNL     1      38.873 -47.534   5.144  1.00  0.00     0.157 HD
ENDROOT
BRANCH   1  16
HETATM   16  N1  UNL     1      39.647 -45.683   5.494  1.00  0.00    -0.378 N 
HETATM   17  C1  UNL     1      39.044 -44.529   6.122  1.00  0.00     0.148 C 
ATOM     18  H1  UNL     1      39.308 -46.009   4.588  1.00  0.00     0.160 HD
ENDBRANCH   1  16
TORSDOF 1
ENDMDL
MODEL 2
REMARK VINA RESULT: -6.179390303      2.184      3.466
REMARK  1 active torsions:
REMARK  status: ('A' for Active; 'I' for Inactive)
REMARK    1  A    between atoms: N1_2  and  C2_4 
ROOT
HETATM    1  C2  UNL     1      41.883 -46.129   7.832  1.00  0.00     0.149 C 
HETATM    2  N2  UNL     1      40.795 -45.346   7.937  1.00  0.00    -0.291 N 
ATOM      3  H2  UNL     1      40.790 -44.672   8.703  1.00  0.00     0.172 HD
HETATM    4  C3  UNL     1      39.693 -45.357   7.128  1.00  0.00     0.329 C 
HETATM    5  O1  UNL     1      38.973 -44.349   7.228  1.00  0.00    -0.246 OA
HETATM    6  N3  UNL     1      39.334 -46.326   6.266  1.00  0.00    -0.260 N 
ATOM      7  H3  UNL     1      38.493 -46.141   5.718  1.00  0.00     0.175 HD
HETATM    8  C4  UNL     1      39.938 -47.513   6.028  1.00  0.00     0.329 C 
HETATM    9  O2  UNL     1      39.398 -48.251   5.148  1.00  0.00    -0.246 OA
HETATM   10  N4  UNL     1      41.035 -48.084   6.559  1.00  0.00    -0.292 N 
ATOM     11  H4  UNL     1      41.180 -49.083   6.412  1.00  0.00     0.172 HD
HETATM   12  C5  UNL     1      41.966 -47.392   7.284  1.00  0.00     0.147 C 
HETATM   13  N5  UNL     1      43.074 -48.002   7.487  1.00  0.00    -0.382 N 
ATOM     14  H51 UNL     1      43.135 -48.936   7.081  1.00  0.00     0.157 HD
ATOM     15  H52 UNL     1      43.769 -47.486   8.028  1.00  0.00     0.157 HD
ENDROOT
BRANCH   1  16
HETATM   16  N1  UNL     1      42.974 -45.631   8.300  1.00  0.00    -0.378 N 
HETATM   17  C1  UNL     1      43.627 -44.546   7.601  1.00  0.00     0.148 C 
ATOM     18  H1  UNL     1      43.376 -46.000   9.162  1.00  0.00     0.160 HD
ENDBRANCH   1  16
TORSDOF 1
ENDMDL
MODEL 3
REMARK VINA RESULT: -6.011342825      2.179      4.337
REMARK  1 active torsions:
REMARK  status: ('A' for Active; 'I' for Inactive)
REMARK    1  A    between atoms: N1_2  and  C2_4 
ROOT
HETATM    1  C2  UNL     1      42.150 -47.056   7.070  1.00  0.00     0.149 C 
HETATM    2  N2  UNL     1      41.429 -47.751   6.172  1.00  0.00    -0.291 N 
ATOM      3  H2  UNL     1      41.937 -48.438   5.613  1.00  0.00     0.172 HD
HETATM    4  C3  UNL     1      40.089 -47.637   5.929  1.00  0.00     0.329 C 
HETATM    5  O1  UNL     1      39.601 -48.586   5.291  1.00  0.00    -0.246 OA
HETATM    6  N3  UNL     1      39.283 -46.626   6.303  1.00  0.00    -0.260 N 
ATOM      7  H3  UNL     1      38.298 -46.734   6.060  1.00  0.00     0.175 HD
HETATM    8  C4  UNL     1      39.605 -45.488   6.958  1.00  0.00     0.329 C 
HETATM    9  O2  UNL     1      38.647 -44.692   7.204  1.00  0.00    -0.246 OA
HETATM   10  N4  UNL     1      40.779 -45.016   7.417  1.00  0.00    -0.292 N 
ATOM     11  H4  UNL     1      40.840 -44.030   7.669  1.00  0.00     0.172 HD
HETATM   12  C5  UNL     1      41.894 -45.794   7.564  1.00  0.00     0.147 C 
HETATM   13  N5  UNL     1      42.841 -45.278   8.257  1.00  0.00    -0.382 N 
ATOM     14  H51 UNL     1      42.652 -44.345   8.622  1.00  0.00     0.157 HD
ATOM     15  H52 UNL     1      43.673 -45.858   8.366  1.00  0.00     0.157 HD
ENDROOT
BRANCH   1  16
HETATM   16  N1  UNL     1      43.201 -47.649   7.519  1.00  0.00    -0.378 N 
HETATM   17  C1  UNL     1      43.072 -48.675   8.530  1.00  0.00     0.148 C 
ATOM     18  H1  UNL     1      44.123 -47.396   7.161  1.00  0.00     0.160 HD
ENDBRANCH   1  16
TORSDOF 1
ENDMDL
MODEL 4
REMARK VINA RESULT: -5.916012034      2.362      3.980
REMARK  1 active torsions:
REMARK  status: ('A' for Active; 'I' for Inactive)
REMARK    1  A    between atoms: N1_2  and  C2_4 
ROOT
HETATM    1  C2  UNL     1      40.648 -47.283   7.063  1.00  0.00     0.149 C 
HETATM    2  N2  UNL     1      40.035 -46.902   8.198  1.00  0.00    -0.291 N 
ATOM      3  H2  UNL     1      39.958 -47.606   8.933  1.00  0.00     0.172 HD
HETATM    4  C3  UNL     1      39.504 -45.673   8.472  1.00  0.00     0.329 C 
HETATM    5  O1  UNL     1      39.278 -45.470   9.678  1.00  0.00    -0.246 OA
HETATM    6  N3  UNL     1      39.215 -44.702   7.587  1.00  0.00    -0.260 N 
ATOM      7  H3  UNL     1      38.855 -43.834   7.985  1.00  0.00     0.175 HD
HETATM    8  C4  UNL     1      39.338 -44.722   6.241  1.00  0.00     0.329 C 
HETATM    9  O2  UNL     1      39.003 -43.660   5.631  1.00  0.00    -0.246 OA
HETATM   10  N4  UNL     1      39.759 -45.677   5.391  1.00  0.00    -0.292 N 
ATOM     11  H4  UNL     1      39.547 -45.571   4.399  1.00  0.00     0.172 HD
HETATM   12  C5  UNL     1      40.458 -46.782   5.792  1.00  0.00     0.147 C 
HETATM   13  N5  UNL     1      41.019 -47.452   4.854  1.00  0.00    -0.382 N 
ATOM     14  H51 UNL     1      40.879 -47.081   3.914  1.00  0.00     0.157 HD
ATOM     15  H52 UNL     1      41.541 -48.276   5.153  1.00  0.00     0.157 HD
ENDROOT
BRANCH   1  16
HETATM   16  N1  UNL     1      41.514 -48.227   7.188  1.00  0.00    -0.378 N 
HETATM   17  C1  UNL     1      42.479 -48.179   8.264  1.00  0.00     0.148 C 
ATOM     18  H1  UNL     1      41.519 -49.007   6.531  1.00  0.00     0.160 HD
ENDBRANCH   1  16
TORSDOF 1
ENDMDL
MODEL 5
REMARK VINA RESULT: -5.913092021      2.529      4.108
REMARK  1 active torsions:
REMARK  status: ('A' for Active; 'I' for Inactive)
REMARK    1  A    between atoms: N1_2  and  C2_4 
ROOT
HETATM    1  C2  UNL     1      42.388 -46.272   6.642  1.00  0.00     0.149 C 
HETATM    2  N2  UNL     1      41.461 -46.522   5.699  1.00  0.00    -0.291 N 
ATOM      3  H2  UNL     1      41.809 -46.744   4.766  1.00  0.00     0.172 HD
HETATM    4  C3  UNL     1      40.104 -46.511   5.858  1.00  0.00     0.329 C 
HETATM    5  O1  UNL     1      39.476 -47.072   4.944  1.00  0.00    -0.246 OA
HETATM    6  N3  UNL     1      39.414 -45.968   6.877  1.00  0.00    -0.260 N 
ATOM      7  H3  UNL     1      38.402 -46.090   6.841  1.00  0.00     0.175 HD
HETATM    8  C4  UNL     1      39.883 -45.280   7.944  1.00  0.00     0.329 C 
HETATM    9  O2  UNL     1      39.015 -44.878   8.778  1.00  0.00    -0.246 OA
HETATM   10  N4  UNL     1      41.130 -44.928   8.308  1.00  0.00    -0.292 N 
ATOM     11  H4  UNL     1      41.241 -44.207   9.020  1.00  0.00     0.172 HD
HETATM   12  C5  UNL     1      42.255 -45.488   7.769  1.00  0.00     0.147 C 
HETATM   13  N5  UNL     1      43.346 -45.252   8.399  1.00  0.00    -0.382 N 
ATOM     14  H51 UNL     1      43.249 -44.672   9.232  1.00  0.00     0.157 HD
ATOM     15  H52 UNL     1      44.186 -45.669   7.997  1.00  0.00     0.157 HD
ENDROOT
BRANCH   1  16
HETATM   16  N1  UNL     1      43.530 -46.837   6.463  1.00  0.00    -0.378 N 
HETATM   17  C1  UNL     1      44.375 -46.419   5.367  1.00  0.00     0.148 C 
ATOM     18  H1  UNL     1      43.839 -47.578   7.094  1.00  0.00     0.160 HD
ENDBRANCH   1  16
TORSDOF 1
ENDMDL
