MODEL 1
REMARK VINA RESULT: -7.632105291      0.000      0.000
REMARK  4 active torsions:
REMARK  status: ('A' for Active; 'I' for Inactive)
REMARK       I    between atoms: C1_2  and  N1_3 
REMARK    1  A    between atoms: C1_2  and  C8_14 
REMARK    2  A    between atoms: N1_3  and  C2_5 
REMARK    3  A    between atoms: C5_8  and  C6_9 
REMARK    4  A    between atoms: C6_9  and  O2_10 
ROOT
HETATM    1  C2  UNL     1       9.316  14.562  25.973  1.00  0.00     0.108 C 
HETATM    2  C3  UNL     1      10.040  15.788  26.519  1.00  0.00     0.030 C 
HETATM    3  C4  UNL     1      11.502  15.378  26.725  1.00  0.00     0.036 C 
HETATM    4  C5  UNL     1      11.501  14.408  27.889  1.00  0.00     0.145 C 
HETATM    5  O3  UNL     1      10.464  13.509  27.821  1.00  0.00    -0.382 OA
HETATM    6  C7  UNL     1       9.967  13.331  26.542  1.00  0.00     0.193 C 
ENDROOT
BRANCH   1   7
HETATM    7  N1  UNL     1       7.906  14.624  26.247  1.00  0.00    -0.354 N 
HETATM    8  C1  UNL     1       6.922  14.038  25.390  1.00  0.00     0.222 C 
HETATM    9  O1  UNL     1       7.269  13.436  24.343  1.00  0.00    -0.273 OA
ATOM     10  H1  UNL     1       7.594  15.106  27.090  1.00  0.00     0.162 HD
BRANCH   8  11
HETATM   11  C8  UNL     1       5.478  14.112  25.688  1.00  0.00     0.078 C 
HETATM   12  C9  UNL     1       4.637  13.421  24.643  1.00  0.00     0.014 C 
HETATM   13  C10 UNL     1       3.290  14.063  24.838  1.00  0.00     0.001 C 
HETATM   14  C11 UNL     1       3.533  15.409  25.480  1.00  0.00     0.001 C 
HETATM   15  C12 UNL     1       5.038  15.553  25.619  1.00  0.00     0.014 C 
ENDBRANCH   8  11
ENDBRANCH   1   7
BRANCH   4  16
HETATM   16  C6  UNL     1      12.851  13.684  27.985  1.00  0.00     0.196 C 
BRANCH  16  17
HETATM   17  O2  UNL     1      12.819  12.678  28.918  1.00  0.00    -0.398 OA
ATOM     18  H2  UNL     1      12.421  12.968  29.731  1.00  0.00     0.209 HD
ENDBRANCH  16  17
ENDBRANCH   4  16
TORSDOF 4
ENDMDL
MODEL 2
REMARK VINA RESULT: -7.397418053      1.602      6.791
REMARK  4 active torsions:
REMARK  status: ('A' for Active; 'I' for Inactive)
REMARK       I    between atoms: C1_2  and  N1_3 
REMARK    1  A    between atoms: C1_2  and  C8_14 
REMARK    2  A    between atoms: N1_3  and  C2_5 
REMARK    3  A    between atoms: C5_8  and  C6_9 
REMARK    4  A    between atoms: C6_9  and  O2_10 
ROOT
HETATM    1  C2  UNL     1       7.651  13.975  25.984  1.00  0.00     0.108 C 
HETATM    2  C3  UNL     1       6.930  14.492  27.224  1.00  0.00     0.030 C 
HETATM    3  C4  UNL     1       5.429  14.375  26.939  1.00  0.00     0.036 C 
HETATM    4  C5  UNL     1       5.125  15.416  25.881  1.00  0.00     0.145 C 
HETATM    5  O3  UNL     1       6.083  15.457  24.896  1.00  0.00    -0.382 OA
HETATM    6  C7  UNL     1       6.807  14.285  24.778  1.00  0.00     0.193 C 
ENDROOT
BRANCH   1   7
HETATM    7  N1  UNL     1       8.980  14.516  25.889  1.00  0.00    -0.354 N 
HETATM    8  C1  UNL     1      10.063  14.066  26.706  1.00  0.00     0.222 C 
HETATM    9  O1  UNL     1       9.883  13.158  27.556  1.00  0.00    -0.273 OA
ATOM     10  H1  UNL     1       9.157  15.255  25.208  1.00  0.00     0.162 HD
BRANCH   8  11
HETATM   11  C8  UNL     1      11.421  14.634  26.594  1.00  0.00     0.078 C 
HETATM   12  C9  UNL     1      12.247  13.950  25.532  1.00  0.00     0.014 C 
HETATM   13  C10 UNL     1      13.652  14.284  25.954  1.00  0.00     0.001 C 
HETATM   14  C11 UNL     1      13.611  14.571  27.437  1.00  0.00     0.001 C 
HETATM   15  C12 UNL     1      12.172  14.362  27.874  1.00  0.00     0.014 C 
ENDBRANCH   8  11
ENDBRANCH   1   7
BRANCH   4  16
HETATM   16  C6  UNL     1       3.731  15.182  25.283  1.00  0.00     0.196 C 
BRANCH  16  17
HETATM   17  O2  UNL     1       3.563  13.876  24.894  1.00  0.00    -0.398 OA
ATOM     18  H2  UNL     1       4.191  13.627  24.226  1.00  0.00     0.209 HD
ENDBRANCH  16  17
ENDBRANCH   4  16
TORSDOF 4
ENDMDL
MODEL 3
REMARK VINA RESULT: -7.292291038      1.602      2.113
REMARK  4 active torsions:
REMARK  status: ('A' for Active; 'I' for Inactive)
REMARK       I    between atoms: C1_2  and  N1_3 
REMARK    1  A    between atoms: C1_2  and  C8_14 
REMARK    2  A    between atoms: N1_3  and  C2_5 
REMARK    3  A    between atoms: C5_8  and  C6_9 
REMARK    4  A    between atoms: C6_9  and  O2_10 
ROOT
HETATM    1  C2  UNL     1       9.152  14.803  26.656  1.00  0.00     0.108 C 
HETATM    2  C3  UNL     1       9.708  13.598  27.407  1.00  0.00     0.030 C 
HETATM    3  C4  UNL     1      11.113  13.986  27.880  1.00  0.00     0.036 C 
HETATM    4  C5  UNL     1      11.966  14.059  26.629  1.00  0.00     0.145 C 
HETATM    5  O3  UNL     1      11.318  14.681  25.588  1.00  0.00    -0.382 OA
HETATM    6  C7  UNL     1      10.297  15.522  25.995  1.00  0.00     0.193 C 
ENDROOT
BRANCH   1   7
HETATM    7  N1  UNL     1       8.128  14.412  25.726  1.00  0.00    -0.354 N 
HETATM    8  C1  UNL     1       6.743  14.703  25.928  1.00  0.00     0.222 C 
HETATM    9  O1  UNL     1       6.367  15.326  26.953  1.00  0.00    -0.273 OA
ATOM     10  H1  UNL     1       8.402  13.904  24.884  1.00  0.00     0.162 HD
BRANCH   8  11
HETATM   11  C8  UNL     1       5.705  14.293  24.962  1.00  0.00     0.078 C 
HETATM   12  C9  UNL     1       4.308  14.514  25.486  1.00  0.00     0.014 C 
HETATM   13  C10 UNL     1       3.494  13.576  24.637  1.00  0.00     0.001 C 
HETATM   14  C11 UNL     1       4.431  12.496  24.151  1.00  0.00     0.001 C 
HETATM   15  C12 UNL     1       5.789  12.800  24.759  1.00  0.00     0.014 C 
ENDBRANCH   8  11
ENDBRANCH   1   7
BRANCH   4  16
HETATM   16  C6  UNL     1      13.304  14.747  26.933  1.00  0.00     0.196 C 
BRANCH  16  17
HETATM   17  O2  UNL     1      14.368  13.986  26.517  1.00  0.00    -0.398 OA
ATOM     18  H2  UNL     1      15.066  13.979  27.162  1.00  0.00     0.209 HD
ENDBRANCH  16  17
ENDBRANCH   4  16
TORSDOF 4
ENDMDL
MODEL 4
REMARK VINA RESULT: -7.170175350      1.150      1.217
REMARK  4 active torsions:
REMARK  status: ('A' for Active; 'I' for Inactive)
REMARK       I    between atoms: C1_2  and  N1_3 
REMARK    1  A    between atoms: C1_2  and  C8_14 
REMARK    2  A    between atoms: N1_3  and  C2_5 
REMARK    3  A    between atoms: C5_8  and  C6_9 
REMARK    4  A    between atoms: C6_9  and  O2_10 
ROOT
HETATM    1  C2  UNL     1       9.735  13.582  26.489  1.00  0.00     0.108 C 
HETATM    2  C3  UNL     1      10.536  14.565  25.641  1.00  0.00     0.030 C 
HETATM    3  C4  UNL     1      12.013  14.333  25.980  1.00  0.00     0.036 C 
HETATM    4  C5  UNL     1      12.199  14.838  27.396  1.00  0.00     0.145 C 
HETATM    5  O3  UNL     1      11.164  14.470  28.224  1.00  0.00    -0.382 OA
HETATM    6  C7  UNL     1      10.470  13.358  27.782  1.00  0.00     0.193 C 
ENDROOT
BRANCH   1   7
HETATM    7  N1  UNL     1       8.387  14.041  26.686  1.00  0.00    -0.354 N 
HETATM    8  C1  UNL     1       7.308  13.677  25.821  1.00  0.00     0.222 C 
HETATM    9  O1  UNL     1       7.511  12.925  24.834  1.00  0.00    -0.273 OA
ATOM     10  H1  UNL     1       8.191  14.653  27.478  1.00  0.00     0.162 HD
BRANCH   8  11
HETATM   11  C8  UNL     1       5.930  14.158  26.039  1.00  0.00     0.078 C 
HETATM   12  C9  UNL     1       4.939  13.519  25.098  1.00  0.00     0.014 C 
HETATM   13  C10 UNL     1       3.797  14.498  25.120  1.00  0.00     0.001 C 
HETATM   14  C11 UNL     1       4.372  15.836  25.524  1.00  0.00     0.001 C 
HETATM   15  C12 UNL     1       5.865  15.627  25.698  1.00  0.00     0.014 C 
ENDBRANCH   8  11
ENDBRANCH   1   7
BRANCH   4  16
HETATM   16  C6  UNL     1      13.547  14.370  27.960  1.00  0.00     0.196 C 
BRANCH  16  17
HETATM   17  O2  UNL     1      14.411  14.000  26.960  1.00  0.00    -0.398 OA
ATOM     18  H2  UNL     1      14.446  13.055  26.860  1.00  0.00     0.209 HD
ENDBRANCH  16  17
ENDBRANCH   4  16
TORSDOF 4
ENDMDL
MODEL 5
REMARK VINA RESULT: -7.041515755      1.592      6.730
REMARK  4 active torsions:
REMARK  status: ('A' for Active; 'I' for Inactive)
REMARK       I    between atoms: C1_2  and  N1_3 
REMARK    1  A    between atoms: C1_2  and  C8_14 
REMARK    2  A    between atoms: N1_3  and  C2_5 
REMARK    3  A    between atoms: C5_8  and  C6_9 
REMARK    4  A    between atoms: C6_9  and  O2_10 
ROOT
HETATM    1  C2  UNL     1       7.805  14.241  26.105  1.00  0.00     0.108 C 
HETATM    2  C3  UNL     1       6.848  15.030  25.218  1.00  0.00     0.030 C 
HETATM    3  C4  UNL     1       5.644  14.118  24.954  1.00  0.00     0.036 C 
HETATM    4  C5  UNL     1       6.150  13.014  24.049  1.00  0.00     0.145 C 
HETATM    5  O3  UNL     1       7.385  12.546  24.433  1.00  0.00    -0.382 OA
HETATM    6  C7  UNL     1       7.676  12.781  25.765  1.00  0.00     0.193 C 
ENDROOT
BRANCH   1   7
HETATM    7  N1  UNL     1       9.153  14.725  25.979  1.00  0.00    -0.354 N 
HETATM    8  C1  UNL     1      10.241  14.204  26.747  1.00  0.00     0.222 C 
HETATM    9  O1  UNL     1      10.047  13.282  27.578  1.00  0.00    -0.273 OA
ATOM     10  H1  UNL     1       9.341  15.474  25.312  1.00  0.00     0.162 HD
BRANCH   8  11
HETATM   11  C8  UNL     1      11.618  14.715  26.604  1.00  0.00     0.078 C 
HETATM   12  C9  UNL     1      12.401  13.977  25.546  1.00  0.00     0.014 C 
HETATM   13  C10 UNL     1      13.825  14.263  25.942  1.00  0.00     0.001 C 
HETATM   14  C11 UNL     1      13.816  14.583  27.418  1.00  0.00     0.001 C 
HETATM   15  C12 UNL     1      12.376  14.441  27.879  1.00  0.00     0.014 C 
ENDBRANCH   8  11
ENDBRANCH   1   7
BRANCH   4  16
HETATM   16  C6  UNL     1       5.128  11.871  23.976  1.00  0.00     0.196 C 
BRANCH  16  17
HETATM   17  O2  UNL     1       3.851  12.320  24.202  1.00  0.00    -0.398 OA
ATOM     18  H2  UNL     1       3.850  13.152  24.661  1.00  0.00     0.209 HD
ENDBRANCH  16  17
ENDBRANCH   4  16
TORSDOF 4
ENDMDL
