MODEL 1
REMARK VINA RESULT: -7.267099794      0.000      0.000
REMARK  3 active torsions:
REMARK  status: ('A' for Active; 'I' for Inactive)
REMARK    1  A    between atoms: C8_8  and  C9_9 
REMARK       I    between atoms: C9_9  and  N1_11 
REMARK    2  A    between atoms: N1_11  and  N2_13 
REMARK    3  A    between atoms: C10_15  and  C11_16 
ROOT
HETATM    1  C9  UNL     1       6.841  12.803  24.381  1.00  0.00     0.240 C 
HETATM    2  O1  UNL     1       6.208  13.849  24.669  1.00  0.00    -0.271 OA
HETATM    3  N1  UNL     1       8.141  12.632  24.897  1.00  0.00    -0.270 N 
ATOM      4  H1  UNL     1       8.671  11.790  24.674  1.00  0.00     0.190 HD
ENDROOT
BRANCH   1   5
HETATM    5  C8  UNL     1       6.262  11.739  23.509  1.00  0.00     0.084 C 
HETATM    6  C2  UNL     1       7.050  10.486  23.721  1.00  0.00    -0.005 C 
HETATM    7  C1  UNL     1       7.810  10.067  22.473  1.00  0.00     0.011 C 
HETATM    8  C3  UNL     1       6.086   9.410  24.166  1.00  0.00     0.014 C 
HETATM    9  C4  UNL     1       4.731   9.892  23.762  1.00  0.00    -0.047 C 
HETATM   10  C5  UNL     1       3.639   9.398  24.686  1.00  0.00     0.015 C 
HETATM   11  C6  UNL     1       4.388   9.472  22.358  1.00  0.00     0.015 C 
HETATM   12  C7  UNL     1       4.851  11.402  23.893  1.00  0.00     0.023 C 
ENDBRANCH   1   5
BRANCH   3  13
HETATM   13  N2  UNL     1       8.697  13.605  25.707  1.00  0.00    -0.303 N 
HETATM   14  C10 UNL     1       9.945  13.673  25.993  1.00  0.00     0.191 C 
ATOM     15  H2  UNL     1       8.077  14.313  26.100  1.00  0.00     0.186 HD
BRANCH  14  16
HETATM   16  C11 UNL     1      10.402  14.752  26.857  1.00  0.00     0.216 C 
HETATM   17  O2  UNL     1       9.956  15.925  26.748  1.00  0.00    -0.643 OA
HETATM   18  O3  UNL     1      11.353  14.532  27.846  1.00  0.00    -0.643 OA
ENDBRANCH  14  16
ENDBRANCH   3  13
TORSDOF 3
ENDMDL
MODEL 2
REMARK VINA RESULT: -7.224717004      4.533      7.676
REMARK  3 active torsions:
REMARK  status: ('A' for Active; 'I' for Inactive)
REMARK    1  A    between atoms: C8_8  and  C9_9 
REMARK       I    between atoms: C9_9  and  N1_11 
REMARK    2  A    between atoms: N1_11  and  N2_13 
REMARK    3  A    between atoms: C10_15  and  C11_16 
ROOT
HETATM    1  C9  UNL     1       3.687  12.666  24.547  1.00  0.00     0.240 C 
HETATM    2  O1  UNL     1       3.966  11.452  24.714  1.00  0.00    -0.271 OA
HETATM    3  N1  UNL     1       2.343  13.031  24.335  1.00  0.00    -0.270 N 
ATOM      4  H1  UNL     1       2.097  14.011  24.196  1.00  0.00     0.190 HD
ENDROOT
BRANCH   1   5
HETATM    5  C8  UNL     1       4.733  13.730  24.563  1.00  0.00     0.084 C 
HETATM    6  C2  UNL     1       4.626  14.466  25.861  1.00  0.00    -0.005 C 
HETATM    7  C1  UNL     1       4.202  15.912  25.668  1.00  0.00     0.011 C 
HETATM    8  C3  UNL     1       5.968  14.372  26.551  1.00  0.00     0.014 C 
HETATM    9  C4  UNL     1       6.946  14.014  25.480  1.00  0.00    -0.047 C 
HETATM   10  C5  UNL     1       8.107  13.196  26.004  1.00  0.00     0.015 C 
HETATM   11  C6  UNL     1       7.499  15.237  24.800  1.00  0.00     0.015 C 
HETATM   12  C7  UNL     1       6.120  13.158  24.533  1.00  0.00     0.023 C 
ENDBRANCH   1   5
BRANCH   3  13
HETATM   13  N2  UNL     1       1.358  12.061  24.315  1.00  0.00    -0.303 N 
HETATM   14  C10 UNL     1       0.122  12.299  24.072  1.00  0.00     0.191 C 
ATOM     15  H2  UNL     1       1.631  11.097  24.505  1.00  0.00     0.186 HD
BRANCH  14  16
HETATM   16  C11 UNL     1      -0.815  11.185  24.080  1.00  0.00     0.216 C 
HETATM   17  O2  UNL     1      -2.028  11.335  23.777  1.00  0.00    -0.643 OA
HETATM   18  O3  UNL     1      -0.408   9.901  24.423  1.00  0.00    -0.643 OA
ENDBRANCH  14  16
ENDBRANCH   3  13
TORSDOF 3
ENDMDL
MODEL 3
REMARK VINA RESULT: -6.821707466      3.661      6.720
REMARK  3 active torsions:
REMARK  status: ('A' for Active; 'I' for Inactive)
REMARK    1  A    between atoms: C8_8  and  C9_9 
REMARK       I    between atoms: C9_9  and  N1_11 
REMARK    2  A    between atoms: N1_11  and  N2_13 
REMARK    3  A    between atoms: C10_15  and  C11_16 
ROOT
HETATM    1  C9  UNL     1       5.863  11.795  23.788  1.00  0.00     0.240 C 
HETATM    2  O1  UNL     1       6.707  11.717  22.861  1.00  0.00    -0.271 OA
HETATM    3  N1  UNL     1       4.668  11.057  23.682  1.00  0.00    -0.270 N 
ATOM      4  H1  UNL     1       3.970  11.108  24.424  1.00  0.00     0.190 HD
ENDROOT
BRANCH   1   5
HETATM    5  C8  UNL     1       6.086  12.644  24.995  1.00  0.00     0.084 C 
HETATM    6  C2  UNL     1       7.271  13.518  24.736  1.00  0.00    -0.005 C 
HETATM    7  C1  UNL     1       8.437  13.193  25.655  1.00  0.00     0.011 C 
HETATM    8  C3  UNL     1       6.824  14.953  24.898  1.00  0.00     0.014 C 
HETATM    9  C4  UNL     1       5.559  14.893  25.691  1.00  0.00    -0.047 C 
HETATM   10  C5  UNL     1       4.612  16.027  25.359  1.00  0.00     0.015 C 
HETATM   11  C6  UNL     1       5.828  14.920  27.171  1.00  0.00     0.015 C 
HETATM   12  C7  UNL     1       4.939  13.578  25.246  1.00  0.00     0.023 C 
ENDBRANCH   1   5
BRANCH   3  13
HETATM   13  N2  UNL     1       4.441  10.264  22.572  1.00  0.00    -0.303 N 
HETATM   14  C10 UNL     1       4.608   8.993  22.552  1.00  0.00     0.191 C 
ATOM     15  H2  UNL     1       4.121  10.719  21.716  1.00  0.00     0.186 HD
BRANCH  14  16
HETATM   16  C11 UNL     1       4.331   8.276  21.316  1.00  0.00     0.216 C 
HETATM   17  O2  UNL     1       3.972   7.068  21.315  1.00  0.00    -0.643 OA
HETATM   18  O3  UNL     1       4.449   8.896  20.078  1.00  0.00    -0.643 OA
ENDBRANCH  14  16
ENDBRANCH   3  13
TORSDOF 3
ENDMDL
MODEL 4
REMARK VINA RESULT: -6.699066868      3.745      6.882
REMARK  3 active torsions:
REMARK  status: ('A' for Active; 'I' for Inactive)
REMARK    1  A    between atoms: C8_8  and  C9_9 
REMARK       I    between atoms: C9_9  and  N1_11 
REMARK    2  A    between atoms: N1_11  and  N2_13 
REMARK    3  A    between atoms: C10_15  and  C11_16 
ROOT
HETATM    1  C9  UNL     1       4.623  12.527  24.440  1.00  0.00     0.240 C 
HETATM    2  O1  UNL     1       3.380  12.699  24.500  1.00  0.00    -0.271 OA
HETATM    3  N1  UNL     1       5.118  11.232  24.190  1.00  0.00    -0.270 N 
ATOM      4  H1  UNL     1       6.124  11.072  24.138  1.00  0.00     0.190 HD
ENDROOT
BRANCH   1   5
HETATM    5  C8  UNL     1       5.589  13.648  24.626  1.00  0.00     0.084 C 
HETATM    6  C2  UNL     1       5.200  14.397  25.861  1.00  0.00    -0.005 C 
HETATM    7  C1  UNL     1       4.746  15.814  25.554  1.00  0.00     0.011 C 
HETATM    8  C3  UNL     1       6.390  14.389  26.794  1.00  0.00     0.014 C 
HETATM    9  C4  UNL     1       7.571  14.069  25.936  1.00  0.00    -0.047 C 
HETATM   10  C5  UNL     1       8.652  13.326  26.691  1.00  0.00     0.015 C 
HETATM   11  C6  UNL     1       8.178  15.312  25.342  1.00  0.00     0.015 C 
HETATM   12  C7  UNL     1       6.985  13.155  24.873  1.00  0.00     0.023 C 
ENDBRANCH   1   5
BRANCH   3  13
HETATM   13  N2  UNL     1       4.241  10.178  24.015  1.00  0.00    -0.303 N 
HETATM   14  C10 UNL     1       4.172   9.472  22.947  1.00  0.00     0.191 C 
ATOM     15  H2  UNL     1       3.608   9.948  24.782  1.00  0.00     0.186 HD
BRANCH  14  16
HETATM   16  C11 UNL     1       3.203   8.387  22.893  1.00  0.00     0.216 C 
HETATM   17  O2  UNL     1       2.075   8.475  23.447  1.00  0.00    -0.643 OA
HETATM   18  O3  UNL     1       3.480   7.202  22.221  1.00  0.00    -0.643 OA
ENDBRANCH  14  16
ENDBRANCH   3  13
TORSDOF 3
ENDMDL
MODEL 5
REMARK VINA RESULT: -6.695394270      4.142      7.126
REMARK  3 active torsions:
REMARK  status: ('A' for Active; 'I' for Inactive)
REMARK    1  A    between atoms: C8_8  and  C9_9 
REMARK       I    between atoms: C9_9  and  N1_11 
REMARK    2  A    between atoms: N1_11  and  N2_13 
REMARK    3  A    between atoms: C10_15  and  C11_16 
ROOT
HETATM    1  C9  UNL     1       3.842  12.667  24.494  1.00  0.00     0.240 C 
HETATM    2  O1  UNL     1       2.612  12.927  24.474  1.00  0.00    -0.271 OA
HETATM    3  N1  UNL     1       4.251  11.319  24.464  1.00  0.00    -0.270 N 
ATOM      4  H1  UNL     1       5.244  11.087  24.480  1.00  0.00     0.190 HD
ENDROOT
BRANCH   1   5
HETATM    5  C8  UNL     1       4.879  13.738  24.550  1.00  0.00     0.084 C 
HETATM    6  C2  UNL     1       4.733  14.459  25.852  1.00  0.00    -0.005 C 
HETATM    7  C1  UNL     1       4.304  15.904  25.663  1.00  0.00     0.011 C 
HETATM    8  C3  UNL     1       6.056  14.366  26.576  1.00  0.00     0.014 C 
HETATM    9  C4  UNL     1       7.065  14.026  25.527  1.00  0.00    -0.047 C 
HETATM   10  C5  UNL     1       8.217  13.211  26.074  1.00  0.00     0.015 C 
HETATM   11  C6  UNL     1       7.627  15.261  24.876  1.00  0.00     0.015 C 
HETATM   12  C7  UNL     1       6.270  13.176  24.550  1.00  0.00     0.023 C 
ENDBRANCH   1   5
BRANCH   3  13
HETATM   13  N2  UNL     1       3.307  10.310  24.413  1.00  0.00    -0.303 N 
HETATM   14  C10 UNL     1       3.167   9.508  23.422  1.00  0.00     0.191 C 
ATOM     15  H2  UNL     1       2.683  10.197  25.212  1.00  0.00     0.186 HD
BRANCH  14  16
HETATM   16  C11 UNL     1       2.133   8.487  23.496  1.00  0.00     0.216 C 
HETATM   17  O2  UNL     1       2.340   7.302  23.122  1.00  0.00    -0.643 OA
HETATM   18  O3  UNL     1       0.865   8.776  23.987  1.00  0.00    -0.643 OA
ENDBRANCH  14  16
ENDBRANCH   3  13
TORSDOF 3
ENDMDL
