MODEL 1
REMARK VINA RESULT: -6.193753619      0.000      0.000
REMARK  2 active torsions:
REMARK  status: ('A' for Active; 'I' for Inactive)
REMARK    1  A    between atoms: N1_2  and  C2_4 
REMARK    2  A    between atoms: N2_6  and  C4_8 
ROOT
HETATM    1  C4  UNL     1       5.985  11.878  24.397  1.00  0.00     0.115 C 
HETATM    2  C5  UNL     1       6.783  11.744  23.092  1.00  0.00     0.058 C 
HETATM    3  C6  UNL     1       7.653  10.527  23.261  1.00  0.00     0.274 C 
HETATM    4  N3  UNL     1       7.080   9.525  24.103  1.00  0.00     0.091 N 
HETATM    5  C7  UNL     1       7.610   8.215  23.845  1.00  0.00     0.310 C 
HETATM    6  C8  UNL     1       5.649   9.452  24.077  1.00  0.00     0.253 C 
HETATM    7  C9  UNL     1       5.166   8.791  22.785  1.00  0.00     0.040 C 
HETATM    8  C10 UNL     1       3.693   8.909  22.611  1.00  0.00     0.028 C 
HETATM    9  C11 UNL     1       3.086  10.080  23.342  1.00  0.00     0.168 C 
HETATM   10  O1  UNL     1       4.051  11.096  23.347  1.00  0.00    -0.382 OA
HETATM   11  C12 UNL     1       4.962  10.750  24.345  1.00  0.00     0.177 C 
ENDROOT
BRANCH   1  12
HETATM   12  N2  UNL     1       5.349  13.148  24.502  1.00  0.00    -0.373 N 
HETATM   13  C2  UNL     1       5.824  14.020  25.317  1.00  0.00     0.068 C 
HETATM   14  C3  UNL     1       5.186  15.369  25.459  1.00  0.00     0.088 C 
ATOM     15  H2  UNL     1       4.527  13.362  23.938  1.00  0.00     0.161 HD
BRANCH  13  16
HETATM   16  N1  UNL     1       6.963  13.771  26.122  1.00  0.00    -0.385 N 
HETATM   17  C1  UNL     1       8.077  14.677  26.033  1.00  0.00     0.147 C 
ATOM     18  H1  UNL     1       6.993  12.967  26.749  1.00  0.00     0.160 HD
ENDBRANCH  13  16
ENDBRANCH   1  12
TORSDOF 2
ENDMDL
MODEL 2
REMARK VINA RESULT: -5.752997478      2.131      3.621
REMARK  2 active torsions:
REMARK  status: ('A' for Active; 'I' for Inactive)
REMARK    1  A    between atoms: N1_2  and  C2_4 
REMARK    2  A    between atoms: N2_6  and  C4_8 
ROOT
HETATM    1  C4  UNL     1       4.166  11.371  23.847  1.00  0.00     0.115 C 
HETATM    2  C5  UNL     1       3.702  10.327  24.872  1.00  0.00     0.058 C 
HETATM    3  C6  UNL     1       3.194   9.158  24.071  1.00  0.00     0.274 C 
HETATM    4  N3  UNL     1       3.854   8.992  22.815  1.00  0.00     0.091 N 
HETATM    5  C7  UNL     1       3.773   7.647  22.320  1.00  0.00     0.310 C 
HETATM    6  C8  UNL     1       5.226   9.407  22.788  1.00  0.00     0.253 C 
HETATM    7  C9  UNL     1       6.112   8.388  23.507  1.00  0.00     0.040 C 
HETATM    8  C10 UNL     1       7.498   8.893  23.709  1.00  0.00     0.028 C 
HETATM    9  C11 UNL     1       7.600  10.397  23.731  1.00  0.00     0.168 C 
HETATM   10  O1  UNL     1       6.405  10.874  24.288  1.00  0.00    -0.382 OA
HETATM   11  C12 UNL     1       5.455  10.802  23.268  1.00  0.00     0.177 C 
ENDROOT
BRANCH   1  12
HETATM   12  N2  UNL     1       4.387  12.644  24.448  1.00  0.00    -0.373 N 
HETATM   13  C2  UNL     1       3.398  13.451  24.587  1.00  0.00     0.068 C 
HETATM   14  C3  UNL     1       3.585  14.799  25.214  1.00  0.00     0.088 C 
ATOM     15  H2  UNL     1       5.319  12.910  24.765  1.00  0.00     0.161 HD
BRANCH  13  16
HETATM   16  N1  UNL     1       2.085  13.127  24.164  1.00  0.00    -0.385 N 
HETATM   17  C1  UNL     1       1.088  14.164  24.165  1.00  0.00     0.147 C 
ATOM     18  H1  UNL     1       1.851  12.180  23.866  1.00  0.00     0.160 HD
ENDBRANCH  13  16
ENDBRANCH   1  12
TORSDOF 2
ENDMDL
MODEL 3
REMARK VINA RESULT: -5.628397184      4.523      6.890
REMARK  2 active torsions:
REMARK  status: ('A' for Active; 'I' for Inactive)
REMARK    1  A    between atoms: N1_2  and  C2_4 
REMARK    2  A    between atoms: N2_6  and  C4_8 
ROOT
HETATM    1  C4  UNL     1       1.558   9.193  24.486  1.00  0.00     0.115 C 
HETATM    2  C5  UNL     1       1.808  10.696  24.669  1.00  0.00     0.058 C 
HETATM    3  C6  UNL     1       0.680  11.394  23.959  1.00  0.00     0.274 C 
HETATM    4  N3  UNL     1      -0.542  10.653  23.954  1.00  0.00     0.091 N 
HETATM    5  C7  UNL     1      -1.697  11.488  23.780  1.00  0.00     0.310 C 
HETATM    6  C8  UNL     1      -0.751   9.817  25.100  1.00  0.00     0.253 C 
HETATM    7  C9  UNL     1      -1.144  10.659  26.316  1.00  0.00     0.040 C 
HETATM    8  C10 UNL     1      -1.139   9.863  27.574  1.00  0.00     0.028 C 
HETATM    9  C11 UNL     1      -0.234   8.657  27.528  1.00  0.00     0.168 C 
HETATM   10  O1  UNL     1       0.846   8.995  26.701  1.00  0.00    -0.382 OA
HETATM   11  C12 UNL     1       0.375   8.882  25.393  1.00  0.00     0.177 C 
ENDROOT
BRANCH   1  12
HETATM   12  N2  UNL     1       2.699   8.418  24.840  1.00  0.00    -0.373 N 
HETATM   13  C2  UNL     1       3.464   7.969  23.912  1.00  0.00     0.068 C 
HETATM   14  C3  UNL     1       4.675   7.149  24.240  1.00  0.00     0.088 C 
ATOM     15  H2  UNL     1       2.906   8.223  25.820  1.00  0.00     0.161 HD
BRANCH  13  16
HETATM   16  N1  UNL     1       3.219   8.213  22.538  1.00  0.00    -0.385 N 
HETATM   17  C1  UNL     1       4.290   8.739  21.734  1.00  0.00     0.147 C 
ATOM     18  H1  UNL     1       2.305   8.022  22.128  1.00  0.00     0.160 HD
ENDBRANCH  13  16
ENDBRANCH   1  12
TORSDOF 2
ENDMDL
MODEL 4
REMARK VINA RESULT: -5.600563312      3.571      5.629
REMARK  2 active torsions:
REMARK  status: ('A' for Active; 'I' for Inactive)
REMARK    1  A    between atoms: N1_2  and  C2_4 
REMARK    2  A    between atoms: N2_6  and  C4_8 
ROOT
HETATM    1  C4  UNL     1       1.705   9.117  24.819  1.00  0.00     0.115 C 
HETATM    2  C5  UNL     1       2.800   8.137  25.262  1.00  0.00     0.058 C 
HETATM    3  C6  UNL     1       3.286   7.463  24.008  1.00  0.00     0.274 C 
HETATM    4  N3  UNL     1       3.197   8.285  22.843  1.00  0.00     0.091 N 
HETATM    5  C7  UNL     1       4.111   7.885  21.810  1.00  0.00     0.310 C 
HETATM    6  C8  UNL     1       3.358   9.690  23.075  1.00  0.00     0.253 C 
HETATM    7  C9  UNL     1       4.828  10.030  23.331  1.00  0.00     0.040 C 
HETATM    8  C10 UNL     1       5.007  11.428  23.809  1.00  0.00     0.028 C 
HETATM    9  C11 UNL     1       3.787  12.000  24.486  1.00  0.00     0.168 C 
HETATM   10  O1  UNL     1       3.143  10.932  25.126  1.00  0.00    -0.382 OA
HETATM   11  C12 UNL     1       2.454  10.248  24.124  1.00  0.00     0.177 C 
ENDROOT
BRANCH   1  12
HETATM   12  N2  UNL     1       0.947   9.601  25.923  1.00  0.00    -0.373 N 
HETATM   13  C2  UNL     1      -0.279   9.938  25.741  1.00  0.00     0.068 C 
HETATM   14  C3  UNL     1      -1.113  10.452  26.875  1.00  0.00     0.088 C 
ATOM     15  H2  UNL     1       1.372   9.679  26.847  1.00  0.00     0.161 HD
BRANCH  13  16
HETATM   16  N1  UNL     1      -0.915   9.847  24.478  1.00  0.00    -0.385 N 
HETATM   17  C1  UNL     1      -1.805  10.906  24.081  1.00  0.00     0.147 C 
ATOM     18  H1  UNL     1      -0.746   9.051  23.865  1.00  0.00     0.160 HD
ENDBRANCH  13  16
ENDBRANCH   1  12
TORSDOF 2
ENDMDL
MODEL 5
REMARK VINA RESULT: -5.585330458      2.412      4.176
REMARK  2 active torsions:
REMARK  status: ('A' for Active; 'I' for Inactive)
REMARK    1  A    between atoms: N1_2  and  C2_4 
REMARK    2  A    between atoms: N2_6  and  C4_8 
ROOT
HETATM    1  C4  UNL     1       7.174  13.732  25.315  1.00  0.00     0.115 C 
HETATM    2  C5  UNL     1       6.928  13.420  23.832  1.00  0.00     0.058 C 
HETATM    3  C6  UNL     1       6.161  12.125  23.803  1.00  0.00     0.274 C 
HETATM    4  N3  UNL     1       5.321  11.930  24.942  1.00  0.00     0.091 N 
HETATM    5  C7  UNL     1       4.235  11.026  24.681  1.00  0.00     0.310 C 
HETATM    6  C8  UNL     1       4.787  13.129  25.518  1.00  0.00     0.253 C 
HETATM    7  C9  UNL     1       3.659  13.690  24.650  1.00  0.00     0.040 C 
HETATM    8  C10 UNL     1       3.241  15.051  25.082  1.00  0.00     0.028 C 
HETATM    9  C11 UNL     1       4.315  15.811  25.820  1.00  0.00     0.168 C 
HETATM   10  O1  UNL     1       5.542  15.402  25.280  1.00  0.00    -0.382 OA
HETATM   11  C12 UNL     1       5.815  14.159  25.853  1.00  0.00     0.177 C 
ENDROOT
BRANCH   1  12
HETATM   12  N2  UNL     1       8.145  14.760  25.487  1.00  0.00    -0.373 N 
HETATM   13  C2  UNL     1       9.054  14.619  26.383  1.00  0.00     0.068 C 
HETATM   14  C3  UNL     1      10.094  15.676  26.598  1.00  0.00     0.088 C 
ATOM     15  H2  UNL     1       8.118  15.598  24.906  1.00  0.00     0.161 HD
BRANCH  13  16
HETATM   16  N1  UNL     1       9.133  13.475  27.214  1.00  0.00    -0.385 N 
HETATM   17  C1  UNL     1      10.233  13.372  28.136  1.00  0.00     0.147 C 
ATOM     18  H1  UNL     1       8.427  12.741  27.161  1.00  0.00     0.160 HD
ENDBRANCH  13  16
ENDBRANCH   1  12
TORSDOF 2
ENDMDL
