MODEL 1
REMARK VINA RESULT: -5.767282511      0.000      0.000
REMARK  2 active torsions:
REMARK  status: ('A' for Active; 'I' for Inactive)
REMARK    1  A    between atoms: C1_2  and  C2_4 
REMARK    2  A    between atoms: C9_12  and  C10_13 
ROOT
HETATM    1  C2  UNL     1      -0.296   8.445  25.265  1.00  0.00     0.103 C 
HETATM    2  C3  UNL     1      -0.418   9.149  26.580  1.00  0.00     0.018 C 
HETATM    3  C4  UNL     1      -0.495  10.638  26.273  1.00  0.00     0.022 C 
HETATM    4  C5  UNL     1      -0.489  10.735  24.800  1.00  0.00     0.022 C 
HETATM    5  C6  UNL     1      -1.790  10.871  24.132  1.00  0.00     0.022 C 
HETATM    6  C7  UNL     1      -1.913  12.119  23.374  1.00  0.00     0.012 C 
HETATM    7  C8  UNL     1      -0.610  12.525  22.783  1.00  0.00     0.075 C 
HETATM    8  S1  UNL     1       0.517  12.139  24.185  1.00  0.00    -0.158 SA
HETATM    9  C9  UNL     1       0.201   9.473  24.269  1.00  0.00     0.119 C 
ENDROOT
BRANCH   9  10
HETATM   10  C10 UNL     1       1.665   9.644  24.307  1.00  0.00     0.179 C 
HETATM   11  O3  UNL     1       2.304   9.523  23.234  1.00  0.00    -0.648 OA
HETATM   12  O4  UNL     1       2.260   9.926  25.525  1.00  0.00    -0.648 OA
ENDBRANCH   9  10
BRANCH   1  13
HETATM   13  C1  UNL     1       0.662   7.327  25.274  1.00  0.00     0.177 C 
HETATM   14  O1  UNL     1       0.875   6.654  24.251  1.00  0.00    -0.648 OA
HETATM   15  O2  UNL     1       1.322   7.038  26.447  1.00  0.00    -0.648 OA
ENDBRANCH   1  13
TORSDOF 2
ENDMDL
MODEL 2
REMARK VINA RESULT: -5.420384127      2.234      3.293
REMARK  2 active torsions:
REMARK  status: ('A' for Active; 'I' for Inactive)
REMARK    1  A    between atoms: C1_2  and  C2_4 
REMARK    2  A    between atoms: C9_12  and  C10_13 
ROOT
HETATM    1  C2  UNL     1       1.383   8.364  26.196  1.00  0.00     0.103 C 
HETATM    2  C3  UNL     1       1.405   7.655  24.878  1.00  0.00     0.018 C 
HETATM    3  C4  UNL     1       1.652   8.716  23.815  1.00  0.00     0.022 C 
HETATM    4  C5  UNL     1       1.836   9.979  24.557  1.00  0.00     0.022 C 
HETATM    5  C6  UNL     1       3.216  10.404  24.825  1.00  0.00     0.022 C 
HETATM    6  C7  UNL     1       3.542  11.695  24.214  1.00  0.00     0.012 C 
HETATM    7  C8  UNL     1       2.364  12.602  24.201  1.00  0.00     0.075 C 
HETATM    8  S1  UNL     1       1.043  11.410  23.731  1.00  0.00    -0.158 SA
HETATM    9  C9  UNL     1       1.106   9.823  25.897  1.00  0.00     0.119 C 
ENDROOT
BRANCH   9  10
HETATM   10  C10 UNL     1      -0.330  10.108  25.726  1.00  0.00     0.179 C 
HETATM   11  O3  UNL     1      -0.948   9.514  24.809  1.00  0.00    -0.648 OA
HETATM   12  O4  UNL     1      -0.924  11.018  26.584  1.00  0.00    -0.648 OA
ENDBRANCH   9  10
BRANCH   1  13
HETATM   13  C1  UNL     1       0.335   7.885  27.113  1.00  0.00     0.177 C 
HETATM   14  O1  UNL     1       0.198   8.378  28.246  1.00  0.00    -0.648 OA
HETATM   15  O2  UNL     1      -0.496   6.873  26.689  1.00  0.00    -0.648 OA
ENDBRANCH   1  13
TORSDOF 2
ENDMDL
MODEL 3
REMARK VINA RESULT: -5.268512536      2.616      4.022
REMARK  2 active torsions:
REMARK  status: ('A' for Active; 'I' for Inactive)
REMARK    1  A    between atoms: C1_2  and  C2_4 
REMARK    2  A    between atoms: C9_12  and  C10_13 
ROOT
HETATM    1  C2  UNL     1       2.280   7.977  27.734  1.00  0.00     0.103 C 
HETATM    2  C3  UNL     1       2.590   6.888  26.754  1.00  0.00     0.018 C 
HETATM    3  C4  UNL     1       2.069   7.355  25.402  1.00  0.00     0.022 C 
HETATM    4  C5  UNL     1       1.546   8.716  25.632  1.00  0.00     0.022 C 
HETATM    5  C6  UNL     1       2.433   9.839  25.302  1.00  0.00     0.022 C 
HETATM    6  C7  UNL     1       1.883  10.712  24.262  1.00  0.00     0.012 C 
HETATM    7  C8  UNL     1       0.402  10.802  24.357  1.00  0.00     0.075 C 
HETATM    8  S1  UNL     1      -0.007   9.044  24.716  1.00  0.00    -0.158 SA
HETATM    9  C9  UNL     1       1.174   8.810  27.116  1.00  0.00     0.119 C 
ENDROOT
BRANCH   9  10
HETATM   10  C10 UNL     1      -0.166   8.235  27.339  1.00  0.00     0.179 C 
HETATM   11  O3  UNL     1      -1.047   8.967  27.850  1.00  0.00    -0.648 OA
HETATM   12  O4  UNL     1      -0.382   6.917  26.975  1.00  0.00    -0.648 OA
ENDBRANCH   9  10
BRANCH   1  13
HETATM   13  C1  UNL     1       1.801   7.487  29.037  1.00  0.00     0.177 C 
HETATM   14  O1  UNL     1       1.391   8.274  29.908  1.00  0.00    -0.648 OA
HETATM   15  O2  UNL     1       1.818   6.131  29.275  1.00  0.00    -0.648 OA
ENDBRANCH   1  13
TORSDOF 2
ENDMDL
MODEL 4
REMARK VINA RESULT: -5.249347962      2.539      3.998
REMARK  2 active torsions:
REMARK  status: ('A' for Active; 'I' for Inactive)
REMARK    1  A    between atoms: C1_2  and  C2_4 
REMARK    2  A    between atoms: C9_12  and  C10_13 
ROOT
HETATM    1  C2  UNL     1       3.257   7.733  25.089  1.00  0.00     0.103 C 
HETATM    2  C3  UNL     1       3.235   7.440  23.621  1.00  0.00     0.018 C 
HETATM    3  C4  UNL     1       3.264   8.784  22.907  1.00  0.00     0.022 C 
HETATM    4  C5  UNL     1       3.375   9.794  23.977  1.00  0.00     0.022 C 
HETATM    5  C6  UNL     1       4.718  10.304  24.280  1.00  0.00     0.022 C 
HETATM    6  C7  UNL     1       4.841  11.748  24.060  1.00  0.00     0.012 C 
HETATM    7  C8  UNL     1       3.574  12.456  24.381  1.00  0.00     0.075 C 
HETATM    8  S1  UNL     1       2.355  11.283  23.656  1.00  0.00    -0.158 SA
HETATM    9  C9  UNL     1       2.794   9.167  25.250  1.00  0.00     0.119 C 
ENDROOT
BRANCH   9  10
HETATM   10  C10 UNL     1       1.325   9.295  25.251  1.00  0.00     0.179 C 
HETATM   11  O3  UNL     1       0.770   9.736  26.287  1.00  0.00    -0.648 OA
HETATM   12  O4  UNL     1       0.634   8.922  24.112  1.00  0.00    -0.648 OA
ENDBRANCH   9  10
BRANCH   1  13
HETATM   13  C1  UNL     1       2.358   6.877  25.881  1.00  0.00     0.177 C 
HETATM   14  O1  UNL     1       2.346   6.933  27.123  1.00  0.00    -0.648 OA
HETATM   15  O2  UNL     1       1.525   6.007  25.215  1.00  0.00    -0.648 OA
ENDBRANCH   1  13
TORSDOF 2
ENDMDL
MODEL 5
REMARK VINA RESULT: -5.168885886      2.095      4.195
REMARK  2 active torsions:
REMARK  status: ('A' for Active; 'I' for Inactive)
REMARK    1  A    between atoms: C1_2  and  C2_4 
REMARK    2  A    between atoms: C9_12  and  C10_13 
ROOT
HETATM    1  C2  UNL     1      -0.069  12.191  24.521  1.00  0.00     0.103 C 
HETATM    2  C3  UNL     1      -1.176  11.572  23.727  1.00  0.00     0.018 C 
HETATM    3  C4  UNL     1      -1.477  10.226  24.371  1.00  0.00     0.022 C 
HETATM    4  C5  UNL     1      -0.590  10.148  25.549  1.00  0.00     0.022 C 
HETATM    5  C6  UNL     1      -1.167  10.522  26.847  1.00  0.00     0.022 C 
HETATM    6  C7  UNL     1      -1.152   9.420  27.813  1.00  0.00     0.012 C 
HETATM    7  C8  UNL     1       0.046   8.558  27.635  1.00  0.00     0.075 C 
HETATM    8  S1  UNL     1       0.114   8.475  25.798  1.00  0.00    -0.158 SA
HETATM    9  C9  UNL     1       0.609  11.061  25.269  1.00  0.00     0.119 C 
ENDROOT
BRANCH   9  10
HETATM   10  C10 UNL     1       1.605  10.349  24.446  1.00  0.00     0.179 C 
HETATM   11  O3  UNL     1       1.201   9.717  23.440  1.00  0.00    -0.648 OA
HETATM   12  O4  UNL     1       2.934  10.412  24.827  1.00  0.00    -0.648 OA
ENDBRANCH   9  10
BRANCH   1  13
HETATM   13  C1  UNL     1       0.951  12.864  23.699  1.00  0.00     0.177 C 
HETATM   14  O1  UNL     1       1.845  13.553  24.220  1.00  0.00    -0.648 OA
HETATM   15  O2  UNL     1       0.895  12.713  22.331  1.00  0.00    -0.648 OA
ENDBRANCH   1  13
TORSDOF 2
ENDMDL
