MODEL 1
REMARK VINA RESULT: -7.239644379      0.000      0.000
REMARK  2 active torsions:
REMARK  status: ('A' for Active; 'I' for Inactive)
REMARK       I    between atoms: N1_2  and  C2_4 
REMARK       I    between atoms: C2_4  and  N3_9 
REMARK    1  A    between atoms: N2_5  and  O1_7 
REMARK       I    between atoms: N3_9  and  C4_11 
REMARK    2  A    between atoms: C4_11  and  C5_13 
ROOT
HETATM    1  C1  UNL     1       8.241   7.937  23.668  1.00  0.00     0.165 C 
HETATM    2  N1  UNL     1       7.057   8.428  22.971  1.00  0.00    -0.229 N 
ATOM      3  H1  UNL     1       7.103   8.577  21.963  1.00  0.00     0.177 HD
HETATM    4  C2  UNL     1       5.843   8.705  23.653  1.00  0.00     0.700 C 
HETATM    5  N2  UNL     1       5.085   7.704  23.963  1.00  0.00    -0.097 N 
ATOM      6  H2  UNL     1       4.208   7.885  24.453  1.00  0.00     0.213 HD
HETATM    7  N3  UNL     1       5.473  10.032  23.984  1.00  0.00    -0.158 N 
ATOM      8  H3  UNL     1       4.594  10.193  24.474  1.00  0.00     0.187 HD
HETATM    9  C4  UNL     1       6.289  11.138  23.653  1.00  0.00     0.240 C 
HETATM   10  O2  UNL     1       7.381  10.891  23.040  1.00  0.00    -0.272 OA
ENDROOT
BRANCH   9  11
HETATM   11  C5  UNL     1       5.931  12.535  23.984  1.00  0.00     0.079 C 
HETATM   12  C6  UNL     1       4.512  12.672  24.415  1.00  0.00     0.014 C 
HETATM   13  C7  UNL     1       4.234  13.626  25.498  1.00  0.00     0.005 C 
HETATM   14  C8  UNL     1       5.209  14.681  25.786  1.00  0.00    -0.019 C 
HETATM   15  C9  UNL     1       4.675  16.067  25.391  1.00  0.00     0.010 C 
HETATM   16  C10 UNL     1       6.547  14.546  25.127  1.00  0.00     0.005 C 
HETATM   17  C11 UNL     1       6.847  13.043  25.072  1.00  0.00     0.014 C 
ENDBRANCH   9  11
BRANCH   5  18
HETATM   18  O1  UNL     1       5.416   6.407  23.657  1.00  0.00    -0.272 OA
HETATM   19  C3  UNL     1       5.631   5.457  24.702  1.00  0.00     0.238 C 
ENDBRANCH   5  18
TORSDOF 2
ENDMDL
MODEL 2
REMARK VINA RESULT: -7.095312901      6.013      7.565
REMARK  2 active torsions:
REMARK  status: ('A' for Active; 'I' for Inactive)
REMARK       I    between atoms: N1_2  and  C2_4 
REMARK       I    between atoms: C2_4  and  N3_9 
REMARK    1  A    between atoms: N2_5  and  O1_7 
REMARK       I    between atoms: N3_9  and  C4_11 
REMARK    2  A    between atoms: C4_11  and  C5_13 
ROOT
HETATM    1  C1  UNL     1      13.770  14.150  25.524  1.00  0.00     0.165 C 
HETATM    2  N1  UNL     1      12.946  13.598  26.594  1.00  0.00    -0.229 N 
ATOM      3  H1  UNL     1      12.750  12.597  26.600  1.00  0.00     0.177 HD
HETATM    4  C2  UNL     1      12.409  14.411  27.627  1.00  0.00     0.700 C 
HETATM    5  N2  UNL     1      13.199  14.758  28.590  1.00  0.00    -0.097 N 
ATOM      6  H2  UNL     1      12.830  15.343  29.341  1.00  0.00     0.213 HD
HETATM    7  N3  UNL     1      11.057  14.829  27.604  1.00  0.00    -0.158 N 
ATOM      8  H3  UNL     1      10.706  15.413  28.362  1.00  0.00     0.187 HD
HETATM    9  C4  UNL     1      10.180  14.459  26.558  1.00  0.00     0.240 C 
HETATM   10  O2  UNL     1      10.659  13.728  25.629  1.00  0.00    -0.272 OA
ENDROOT
BRANCH   9  11
HETATM   11  C5  UNL     1       8.761  14.878  26.506  1.00  0.00     0.079 C 
HETATM   12  C6  UNL     1       8.339  15.288  25.137  1.00  0.00     0.014 C 
HETATM   13  C7  UNL     1       6.981  14.911  24.719  1.00  0.00     0.005 C 
HETATM   14  C8  UNL     1       5.985  14.583  25.742  1.00  0.00    -0.019 C 
HETATM   15  C9  UNL     1       4.893  15.659  25.834  1.00  0.00     0.010 C 
HETATM   16  C10 UNL     1       6.503  14.395  27.136  1.00  0.00     0.005 C 
HETATM   17  C11 UNL     1       7.887  13.748  26.994  1.00  0.00     0.014 C 
ENDBRANCH   9  11
BRANCH   5  18
HETATM   18  O1  UNL     1      14.515  14.370  28.641  1.00  0.00    -0.272 OA
HETATM   19  C3  UNL     1      14.993  13.601  29.746  1.00  0.00     0.238 C 
ENDBRANCH   5  18
TORSDOF 2
ENDMDL
MODEL 3
REMARK VINA RESULT: -7.012062565      4.193      5.537
REMARK  2 active torsions:
REMARK  status: ('A' for Active; 'I' for Inactive)
REMARK       I    between atoms: N1_2  and  C2_4 
REMARK       I    between atoms: C2_4  and  N3_9 
REMARK    1  A    between atoms: N2_5  and  O1_7 
REMARK       I    between atoms: N3_9  and  C4_11 
REMARK    2  A    between atoms: C4_11  and  C5_13 
ROOT
HETATM    1  C1  UNL     1       0.344  10.306  25.396  1.00  0.00     0.165 C 
HETATM    2  N1  UNL     1       0.798  10.881  24.134  1.00  0.00    -0.229 N 
ATOM      3  H1  UNL     1       1.113  10.257  23.392  1.00  0.00     0.177 HD
HETATM    4  C2  UNL     1       0.815  12.283  23.908  1.00  0.00     0.700 C 
HETATM    5  N2  UNL     1      -0.306  12.858  23.617  1.00  0.00    -0.097 N 
ATOM      6  H2  UNL     1      -0.313  13.865  23.452  1.00  0.00     0.213 HD
HETATM    7  N3  UNL     1       2.017  13.026  23.999  1.00  0.00    -0.158 N 
ATOM      8  H3  UNL     1       1.991  14.032  23.830  1.00  0.00     0.187 HD
HETATM    9  C4  UNL     1       3.251  12.414  24.316  1.00  0.00     0.240 C 
HETATM   10  O2  UNL     1       3.239  11.154  24.519  1.00  0.00    -0.272 OA
ENDROOT
BRANCH   9  11
HETATM   11  C5  UNL     1       4.523  13.163  24.417  1.00  0.00     0.079 C 
HETATM   12  C6  UNL     1       4.536  14.111  25.564  1.00  0.00     0.014 C 
HETATM   13  C7  UNL     1       5.802  14.252  26.298  1.00  0.00     0.005 C 
HETATM   14  C8  UNL     1       7.051  13.847  25.649  1.00  0.00    -0.019 C 
HETATM   15  C9  UNL     1       7.933  15.059  25.313  1.00  0.00     0.010 C 
HETATM   16  C10 UNL     1       6.915  13.066  24.377  1.00  0.00     0.005 C 
HETATM   17  C11 UNL     1       5.669  12.187  24.547  1.00  0.00     0.014 C 
ENDBRANCH   9  11
BRANCH   5  18
HETATM   18  O1  UNL     1      -1.488  12.165  23.523  1.00  0.00    -0.272 OA
HETATM   19  C3  UNL     1      -2.332  12.341  22.384  1.00  0.00     0.238 C 
ENDBRANCH   5  18
TORSDOF 2
ENDMDL
MODEL 4
REMARK VINA RESULT: -6.939553934      2.673      3.610
REMARK  2 active torsions:
REMARK  status: ('A' for Active; 'I' for Inactive)
REMARK       I    between atoms: N1_2  and  C2_4 
REMARK       I    between atoms: C2_4  and  N3_9 
REMARK    1  A    between atoms: N2_5  and  O1_7 
REMARK       I    between atoms: N3_9  and  C4_11 
REMARK    2  A    between atoms: C4_11  and  C5_13 
ROOT
HETATM    1  C1  UNL     1       3.763   5.609  22.544  1.00  0.00     0.165 C 
HETATM    2  N1  UNL     1       4.770   6.543  22.051  1.00  0.00    -0.229 N 
ATOM      3  H1  UNL     1       5.757   6.319  22.180  1.00  0.00     0.177 HD
HETATM    4  C2  UNL     1       4.419   7.753  21.397  1.00  0.00     0.700 C 
HETATM    5  N2  UNL     1       4.063   7.684  20.156  1.00  0.00    -0.097 N 
ATOM      6  H2  UNL     1       3.808   8.545  19.670  1.00  0.00     0.213 HD
HETATM    7  N3  UNL     1       4.456   8.993  22.079  1.00  0.00    -0.158 N 
ATOM      8  H3  UNL     1       4.197   9.842  21.578  1.00  0.00     0.187 HD
HETATM    9  C4  UNL     1       4.843   9.087  23.436  1.00  0.00     0.240 C 
HETATM   10  O2  UNL     1       5.159   8.001  24.026  1.00  0.00    -0.272 OA
ENDROOT
BRANCH   9  11
HETATM   11  C5  UNL     1       4.893  10.367  24.177  1.00  0.00     0.079 C 
HETATM   12  C6  UNL     1       6.241  10.997  24.134  1.00  0.00     0.014 C 
HETATM   13  C7  UNL     1       6.289  12.462  24.017  1.00  0.00     0.005 C 
HETATM   14  C8  UNL     1       5.108  13.245  24.390  1.00  0.00    -0.019 C 
HETATM   15  C9  UNL     1       5.348  14.051  25.676  1.00  0.00     0.010 C 
HETATM   16  C10 UNL     1       3.843  12.474  24.612  1.00  0.00     0.005 C 
HETATM   17  C11 UNL     1       3.866  11.316  23.606  1.00  0.00     0.014 C 
ENDBRANCH   9  11
BRANCH   5  18
HETATM   18  O1  UNL     1       4.017   6.497  19.467  1.00  0.00    -0.272 OA
HETATM   19  C3  UNL     1       3.662   6.486  18.083  1.00  0.00     0.238 C 
ENDBRANCH   5  18
TORSDOF 2
ENDMDL
MODEL 5
REMARK VINA RESULT: -6.923029876      1.412      1.412
REMARK  2 active torsions:
REMARK  status: ('A' for Active; 'I' for Inactive)
REMARK       I    between atoms: N1_2  and  C2_4 
REMARK       I    between atoms: C2_4  and  N3_9 
REMARK    1  A    between atoms: N2_5  and  O1_7 
REMARK       I    between atoms: N3_9  and  C4_11 
REMARK    2  A    between atoms: C4_11  and  C5_13 
ROOT
HETATM    1  C1  UNL     1       6.731   7.256  24.220  1.00  0.00     0.165 C 
HETATM    2  N1  UNL     1       6.442   8.073  23.047  1.00  0.00    -0.229 N 
ATOM      3  H1  UNL     1       7.182   8.238  22.366  1.00  0.00     0.177 HD
HETATM    4  C2  UNL     1       5.162   8.646  22.826  1.00  0.00     0.700 C 
HETATM    5  N2  UNL     1       4.232   7.878  22.359  1.00  0.00    -0.097 N 
ATOM      6  H2  UNL     1       3.306   8.274  22.194  1.00  0.00     0.213 HD
HETATM    7  N3  UNL     1       4.910  10.011  23.107  1.00  0.00    -0.158 N 
ATOM      8  H3  UNL     1       3.978  10.388  22.936  1.00  0.00     0.187 HD
HETATM    9  C4  UNL     1       5.914  10.865  23.618  1.00  0.00     0.240 C 
HETATM   10  O2  UNL     1       7.066  10.353  23.818  1.00  0.00    -0.272 OA
ENDROOT
BRANCH   9  11
HETATM   11  C5  UNL     1       5.683  12.295  23.921  1.00  0.00     0.079 C 
HETATM   12  C6  UNL     1       4.305  12.556  24.422  1.00  0.00     0.014 C 
HETATM   13  C7  UNL     1       4.162  13.559  25.487  1.00  0.00     0.005 C 
HETATM   14  C8  UNL     1       5.230  14.542  25.688  1.00  0.00    -0.019 C 
HETATM   15  C9  UNL     1       4.783  15.953  25.276  1.00  0.00     0.010 C 
HETATM   16  C10 UNL     1       6.516  14.283  24.963  1.00  0.00     0.005 C 
HETATM   17  C11 UNL     1       6.695  12.760  24.941  1.00  0.00     0.014 C 
ENDBRANCH   9  11
BRANCH   5  18
HETATM   18  O1  UNL     1       4.445   6.551  22.077  1.00  0.00    -0.272 OA
HETATM   19  C3  UNL     1       3.796   5.944  20.959  1.00  0.00     0.238 C 
ENDBRANCH   5  18
TORSDOF 2
ENDMDL
