MODEL 1
REMARK VINA RESULT: -7.894695151      0.000      0.000
REMARK  2 active torsions:
REMARK  status: ('A' for Active; 'I' for Inactive)
REMARK    1  A    between atoms: C2_3  and  C3_4 
REMARK       I    between atoms: C3_4  and  N2_6 
REMARK    2  A    between atoms: N2_6  and  C4_8 
ROOT
HETATM    1  N1  UNL     1       1.663   9.689  23.500  1.00  0.00    -0.196 NA
HETATM    2  C1  UNL     1       1.085  10.663  23.733  1.00  0.00     0.079 C 
HETATM    3  C2  UNL     1       0.345  11.888  24.042  1.00  0.00     0.132 C 
HETATM    4  C10 UNL     1      -0.588  12.157  22.907  1.00  0.00     0.062 C 
HETATM    5  C11 UNL     1      -2.017  11.861  23.180  1.00  0.00     0.234 C 
HETATM    6  N3  UNL     1      -2.120  10.725  24.053  1.00  0.00    -0.075 N 
ATOM      7  H31 UNL     1      -1.629   9.906  23.693  1.00  0.00     0.277 HD
ATOM      8  H32 UNL     1      -3.060  10.326  24.070  1.00  0.00     0.277 HD
HETATM    9  C12 UNL     1      -1.659  11.119  25.362  1.00  0.00     0.234 C 
HETATM   10  C13 UNL     1      -0.297  11.717  25.374  1.00  0.00     0.062 C 
ENDROOT
BRANCH   3  11
HETATM   11  C3  UNL     1       1.343  12.985  24.096  1.00  0.00     0.240 C 
HETATM   12  O1  UNL     1       1.037  14.180  23.855  1.00  0.00    -0.272 OA
HETATM   13  N2  UNL     1       2.718  12.723  24.431  1.00  0.00    -0.355 N 
ATOM     14  H2  UNL     1       3.005  11.765  24.633  1.00  0.00     0.162 HD
BRANCH  13  15
HETATM   15  C4  UNL     1       3.704  13.780  24.488  1.00  0.00     0.084 C 
HETATM   16  C5  UNL     1       3.244  14.898  25.381  1.00  0.00     0.025 C 
HETATM   17  C6  UNL     1       4.360  15.494  26.206  1.00  0.00     0.002 C 
HETATM   18  C7  UNL     1       5.584  15.607  25.322  1.00  0.00     0.000 C 
HETATM   19  C8  UNL     1       6.112  14.232  24.984  1.00  0.00     0.002 C 
HETATM   20  C9  UNL     1       5.022  13.195  24.947  1.00  0.00     0.025 C 
ENDBRANCH  13  15
ENDBRANCH   3  11
TORSDOF 2
ENDMDL
MODEL 2
REMARK VINA RESULT: -7.757796078      3.843      4.817
REMARK  2 active torsions:
REMARK  status: ('A' for Active; 'I' for Inactive)
REMARK    1  A    between atoms: C2_3  and  C3_4 
REMARK       I    between atoms: C3_4  and  N2_6 
REMARK    2  A    between atoms: N2_6  and  C4_8 
ROOT
HETATM    1  N1  UNL     1       4.516   9.166  20.778  1.00  0.00    -0.196 NA
HETATM    2  C1  UNL     1       4.735   9.335  21.901  1.00  0.00     0.079 C 
HETATM    3  C2  UNL     1       5.025   9.534  23.322  1.00  0.00     0.132 C 
HETATM    4  C10 UNL     1       3.775   9.245  24.088  1.00  0.00     0.062 C 
HETATM    5  C11 UNL     1       3.767   7.953  24.820  1.00  0.00     0.234 C 
HETATM    6  N3  UNL     1       4.499   6.967  24.073  1.00  0.00    -0.075 N 
ATOM      7  H31 UNL     1       4.155   6.861  23.119  1.00  0.00     0.277 HD
ATOM      8  H32 UNL     1       4.315   6.015  24.393  1.00  0.00     0.277 HD
HETATM    9  C12 UNL     1       5.899   7.310  24.124  1.00  0.00     0.234 C 
HETATM   10  C13 UNL     1       6.203   8.696  23.677  1.00  0.00     0.062 C 
ENDROOT
BRANCH   3  11
HETATM   11  C3  UNL     1       5.353  10.971  23.492  1.00  0.00     0.240 C 
HETATM   12  O1  UNL     1       6.378  11.489  22.982  1.00  0.00    -0.272 OA
HETATM   13  N2  UNL     1       4.500  11.842  24.258  1.00  0.00    -0.355 N 
ATOM     14  H2  UNL     1       3.659  11.459  24.687  1.00  0.00     0.162 HD
BRANCH  13  15
HETATM   15  C4  UNL     1       4.805  13.245  24.434  1.00  0.00     0.084 C 
HETATM   16  C5  UNL     1       3.567  14.028  24.774  1.00  0.00     0.025 C 
HETATM   17  C6  UNL     1       3.814  15.112  25.795  1.00  0.00     0.002 C 
HETATM   18  C7  UNL     1       5.132  15.777  25.459  1.00  0.00     0.000 C 
HETATM   19  C8  UNL     1       6.276  14.819  25.702  1.00  0.00     0.002 C 
HETATM   20  C9  UNL     1       5.872  13.385  25.497  1.00  0.00     0.025 C 
ENDBRANCH  13  15
ENDBRANCH   3  11
TORSDOF 2
ENDMDL
MODEL 3
REMARK VINA RESULT: -7.728750579      3.818      5.885
REMARK  2 active torsions:
REMARK  status: ('A' for Active; 'I' for Inactive)
REMARK    1  A    between atoms: C2_3  and  C3_4 
REMARK       I    between atoms: C3_4  and  N2_6 
REMARK    2  A    between atoms: N2_6  and  C4_8 
ROOT
HETATM    1  N1  UNL     1       4.330   9.123  21.399  1.00  0.00    -0.196 NA
HETATM    2  C1  UNL     1       5.024   9.489  22.248  1.00  0.00     0.079 C 
HETATM    3  C2  UNL     1       5.916   9.956  23.311  1.00  0.00     0.132 C 
HETATM    4  C10 UNL     1       6.198   8.798  24.212  1.00  0.00     0.062 C 
HETATM    5  C11 UNL     1       7.552   8.203  24.071  1.00  0.00     0.234 C 
HETATM    6  N3  UNL     1       7.975   8.277  22.700  1.00  0.00    -0.075 N 
ATOM      7  H31 UNL     1       7.307   7.848  22.059  1.00  0.00     0.277 HD
ATOM      8  H32 UNL     1       8.769   7.668  22.500  1.00  0.00     0.277 HD
HETATM    9  C12 UNL     1       8.241   9.659  22.384  1.00  0.00     0.234 C 
HETATM   10  C13 UNL     1       7.108  10.579  22.675  1.00  0.00     0.062 C 
ENDROOT
BRANCH   3  11
HETATM   11  C3  UNL     1       5.161  10.974  24.084  1.00  0.00     0.240 C 
HETATM   12  O1  UNL     1       3.991  10.772  24.493  1.00  0.00    -0.272 OA
HETATM   13  N2  UNL     1       5.747  12.250  24.399  1.00  0.00    -0.355 N 
ATOM     14  H2  UNL     1       6.696  12.452  24.084  1.00  0.00     0.162 HD
BRANCH  13  15
HETATM   15  C4  UNL     1       5.027  13.254  25.151  1.00  0.00     0.084 C 
HETATM   16  C5  UNL     1       5.917  14.418  25.488  1.00  0.00     0.025 C 
HETATM   17  C6  UNL     1       5.211  15.749  25.396  1.00  0.00     0.002 C 
HETATM   18  C7  UNL     1       3.826  15.584  25.986  1.00  0.00     0.000 C 
HETATM   19  C8  UNL     1       2.985  14.695  25.101  1.00  0.00     0.002 C 
HETATM   20  C9  UNL     1       3.812  13.682  24.357  1.00  0.00     0.025 C 
ENDBRANCH  13  15
ENDBRANCH   3  11
TORSDOF 2
ENDMDL
MODEL 4
REMARK VINA RESULT: -7.660717468      3.952      4.886
REMARK  2 active torsions:
REMARK  status: ('A' for Active; 'I' for Inactive)
REMARK    1  A    between atoms: C2_3  and  C3_4 
REMARK       I    between atoms: C3_4  and  N2_6 
REMARK    2  A    between atoms: N2_6  and  C4_8 
ROOT
HETATM    1  N1  UNL     1       7.744   8.573  24.099  1.00  0.00    -0.196 NA
HETATM    2  C1  UNL     1       6.785   9.105  23.734  1.00  0.00     0.079 C 
HETATM    3  C2  UNL     1       5.559   9.766  23.281  1.00  0.00     0.132 C 
HETATM    4  C10 UNL     1       5.438   9.547  21.808  1.00  0.00     0.062 C 
HETATM    5  C11 UNL     1       4.416   8.551  21.399  1.00  0.00     0.234 C 
HETATM    6  N3  UNL     1       4.342   7.501  22.377  1.00  0.00    -0.075 N 
ATOM      7  H31 UNL     1       5.245   7.061  22.552  1.00  0.00     0.277 HD
ATOM      8  H32 UNL     1       3.851   6.675  22.031  1.00  0.00     0.277 HD
HETATM    9  C12 UNL     1       3.745   8.041  23.574  1.00  0.00     0.234 C 
HETATM   10  C13 UNL     1       4.427   9.254  24.100  1.00  0.00     0.062 C 
ENDROOT
BRANCH   3  11
HETATM   11  C3  UNL     1       5.745  11.219  23.522  1.00  0.00     0.240 C 
HETATM   12  O1  UNL     1       6.762  11.839  23.123  1.00  0.00    -0.272 OA
HETATM   13  N2  UNL     1       4.755  11.986  24.232  1.00  0.00    -0.355 N 
ATOM     14  H2  UNL     1       3.915  11.518  24.572  1.00  0.00     0.162 HD
BRANCH  13  15
HETATM   15  C4  UNL     1       4.919  13.402  24.476  1.00  0.00     0.084 C 
HETATM   16  C5  UNL     1       3.596  14.059  24.753  1.00  0.00     0.025 C 
HETATM   17  C6  UNL     1       3.675  15.120  25.825  1.00  0.00     0.002 C 
HETATM   18  C7  UNL     1       4.948  15.910  25.606  1.00  0.00     0.000 C 
HETATM   19  C8  UNL     1       6.154  15.047  25.897  1.00  0.00     0.002 C 
HETATM   20  C9  UNL     1       5.896  13.592  25.616  1.00  0.00     0.025 C 
ENDBRANCH  13  15
ENDBRANCH   3  11
TORSDOF 2
ENDMDL
MODEL 5
REMARK VINA RESULT: -7.654013346      4.131      5.077
REMARK  2 active torsions:
REMARK  status: ('A' for Active; 'I' for Inactive)
REMARK    1  A    between atoms: C2_3  and  C3_4 
REMARK       I    between atoms: C3_4  and  N2_6 
REMARK    2  A    between atoms: N2_6  and  C4_8 
ROOT
HETATM    1  N1  UNL     1       6.971  10.233  21.559  1.00  0.00    -0.196 NA
HETATM    2  C1  UNL     1       6.163   9.888  22.311  1.00  0.00     0.079 C 
HETATM    3  C2  UNL     1       5.150   9.436  23.265  1.00  0.00     0.132 C 
HETATM    4  C10 UNL     1       3.912   9.103  22.497  1.00  0.00     0.062 C 
HETATM    5  C11 UNL     1       3.639   7.653  22.336  1.00  0.00     0.234 C 
HETATM    6  N3  UNL     1       4.878   6.935  22.216  1.00  0.00    -0.075 N 
ATOM      7  H31 UNL     1       5.468   7.292  21.464  1.00  0.00     0.277 HD
ATOM      8  H32 UNL     1       4.751   5.989  21.855  1.00  0.00     0.277 HD
HETATM    9  C12 UNL     1       5.538   6.957  23.498  1.00  0.00     0.234 C 
HETATM   10  C13 UNL     1       5.729   8.320  24.062  1.00  0.00     0.062 C 
ENDROOT
BRANCH   3  11
HETATM   11  C3  UNL     1       4.853  10.591  24.149  1.00  0.00     0.240 C 
HETATM   12  O1  UNL     1       3.879  10.593  24.943  1.00  0.00    -0.272 OA
HETATM   13  N2  UNL     1       5.679  11.769  24.134  1.00  0.00    -0.355 N 
ATOM     14  H2  UNL     1       6.479  11.806  23.502  1.00  0.00     0.162 HD
BRANCH  13  15
HETATM   15  C4  UNL     1       5.404  12.904  24.988  1.00  0.00     0.084 C 
HETATM   16  C5  UNL     1       6.596  13.816  25.073  1.00  0.00     0.025 C 
HETATM   17  C6  UNL     1       6.221  15.279  25.091  1.00  0.00     0.002 C 
HETATM   18  C7  UNL     1       5.007  15.439  25.980  1.00  0.00     0.000 C 
HETATM   19  C8  UNL     1       3.802  14.791  25.339  1.00  0.00     0.002 C 
HETATM   20  C9  UNL     1       4.178  13.622  24.469  1.00  0.00     0.025 C 
ENDBRANCH  13  15
ENDBRANCH   3  11
TORSDOF 2
ENDMDL
