MODEL 1
REMARK VINA RESULT: -5.442920037      0.000      0.000
REMARK  3 active torsions:
REMARK  status: ('A' for Active; 'I' for Inactive)
REMARK    1  A    between atoms: O1_2  and  C2_3 
REMARK    2  A    between atoms: C4_5  and  O2_6 
REMARK    3  A    between atoms: C8_11  and  C10_13 
ROOT
HETATM    1  C2  UNL     1      -0.092  10.099  24.171  1.00  0.00     0.133 C 
HETATM    2  C3  UNL     1       0.395  11.559  24.360  1.00  0.00     0.065 C 
HETATM    3  C4  UNL     1       1.874  11.406  24.283  1.00  0.00     0.125 C 
HETATM    4  C5  UNL     1       2.155  10.076  24.896  1.00  0.00     0.026 C 
HETATM    5  C6  UNL     1       2.989   9.252  23.987  1.00  0.00     0.009 C 
HETATM    6  C7  UNL     1       2.088   8.134  23.540  1.00  0.00     0.021 C 
HETATM    7  C8  UNL     1       1.148   7.982  24.694  1.00  0.00     0.055 C 
HETATM    8  C9  UNL     1      -0.071   7.155  24.339  1.00  0.00     0.027 C 
HETATM    9  C11 UNL     1       0.825   9.378  25.076  1.00  0.00     0.005 C 
HETATM   10  C12 UNL     1       0.382   9.526  26.514  1.00  0.00     0.020 C 
ENDROOT
BRANCH   7  11
HETATM   11  C10 UNL     1       1.835   7.259  25.783  1.00  0.00     0.182 C 
HETATM   12  O3  UNL     1       1.161   6.814  26.737  1.00  0.00    -0.647 OA
HETATM   13  O4  UNL     1       3.205   7.033  25.824  1.00  0.00    -0.647 OA
ENDBRANCH   7  11
BRANCH   1  14
HETATM   14  O1  UNL     1      -1.420  10.136  24.517  1.00  0.00    -0.390 OA
HETATM   15  C1  UNL     1      -2.018  11.253  23.956  1.00  0.00     0.202 C 
ENDBRANCH   1  14
BRANCH   3  16
HETATM   16  O2  UNL     1       2.251  11.445  22.949  1.00  0.00    -0.395 OA
ATOM     17  H2  UNL     1       2.748  12.242  22.801  1.00  0.00     0.210 HD
ENDBRANCH   3  16
TORSDOF 3
ENDMDL
MODEL 2
REMARK VINA RESULT: -5.428667628      1.646      3.298
REMARK  3 active torsions:
REMARK  status: ('A' for Active; 'I' for Inactive)
REMARK    1  A    between atoms: O1_2  and  C2_3 
REMARK    2  A    between atoms: C4_5  and  O2_6 
REMARK    3  A    between atoms: C8_11  and  C10_13 
ROOT
HETATM    1  C2  UNL     1       2.143  10.167  25.050  1.00  0.00     0.133 C 
HETATM    2  C3  UNL     1       1.827  10.980  23.768  1.00  0.00     0.065 C 
HETATM    3  C4  UNL     1       0.348  11.128  23.850  1.00  0.00     0.125 C 
HETATM    4  C5  UNL     1      -0.130   9.867  24.485  1.00  0.00     0.026 C 
HETATM    5  C6  UNL     1      -1.002  10.169  25.647  1.00  0.00     0.009 C 
HETATM    6  C7  UNL     1      -0.219   9.717  26.848  1.00  0.00     0.021 C 
HETATM    7  C8  UNL     1       0.624   8.609  26.299  1.00  0.00     0.055 C 
HETATM    8  C9  UNL     1       1.753   8.225  27.234  1.00  0.00     0.027 C 
HETATM    9  C11 UNL     1       1.092   9.132  24.993  1.00  0.00     0.005 C 
HETATM   10  C12 UNL     1       1.461   8.050  24.004  1.00  0.00     0.020 C 
ENDROOT
BRANCH   7  11
HETATM   11  C10 UNL     1      -0.210   7.401  26.141  1.00  0.00     0.182 C 
HETATM   12  O3  UNL     1      -0.630   6.815  27.161  1.00  0.00    -0.647 OA
HETATM   13  O4  UNL     1      -0.569   6.859  24.913  1.00  0.00    -0.647 OA
ENDBRANCH   7  11
BRANCH   1  14
HETATM   14  O1  UNL     1       3.442   9.757  24.881  1.00  0.00    -0.390 OA
HETATM   15  C1  UNL     1       4.148  10.717  24.175  1.00  0.00     0.202 C 
ENDBRANCH   1  14
BRANCH   3  16
HETATM   16  O2  UNL     1       0.060  12.237  24.632  1.00  0.00    -0.395 OA
ATOM     17  H2  UNL     1      -0.153  12.963  24.057  1.00  0.00     0.210 HD
ENDBRANCH   3  16
TORSDOF 3
ENDMDL
MODEL 3
REMARK VINA RESULT: -5.397708197      1.672      2.330
REMARK  3 active torsions:
REMARK  status: ('A' for Active; 'I' for Inactive)
REMARK    1  A    between atoms: O1_2  and  C2_3 
REMARK    2  A    between atoms: C4_5  and  O2_6 
REMARK    3  A    between atoms: C8_11  and  C10_13 
ROOT
HETATM    1  C2  UNL     1       2.014  10.142  23.727  1.00  0.00     0.133 C 
HETATM    2  C3  UNL     1       3.492  10.422  23.350  1.00  0.00     0.065 C 
HETATM    3  C4  UNL     1       3.990   9.059  23.015  1.00  0.00     0.125 C 
HETATM    4  C5  UNL     1       3.255   8.145  23.935  1.00  0.00     0.026 C 
HETATM    5  C6  UNL     1       2.612   7.048  23.170  1.00  0.00     0.009 C 
HETATM    6  C7  UNL     1       1.135   7.305  23.288  1.00  0.00     0.021 C 
HETATM    7  C8  UNL     1       1.025   8.010  24.603  1.00  0.00     0.055 C 
HETATM    8  C9  UNL     1      -0.321   8.684  24.784  1.00  0.00     0.027 C 
HETATM    9  C11 UNL     1       2.164   8.959  24.595  1.00  0.00     0.005 C 
HETATM   10  C12 UNL     1       2.622   9.366  25.978  1.00  0.00     0.020 C 
ENDROOT
BRANCH   7  11
HETATM   11  C10 UNL     1       1.140   7.020  25.692  1.00  0.00     0.182 C 
HETATM   12  O3  UNL     1       0.318   7.052  26.633  1.00  0.00    -0.647 OA
HETATM   13  O4  UNL     1       2.118   6.035  25.747  1.00  0.00    -0.647 OA
ENDBRANCH   7  11
BRANCH   1  14
HETATM   14  O1  UNL     1       1.586  11.307  24.315  1.00  0.00    -0.390 OA
HETATM   15  C1  UNL     1       1.070  12.156  23.350  1.00  0.00     0.202 C 
ENDBRANCH   1  14
BRANCH   3  16
HETATM   16  O2  UNL     1       3.694   8.797  21.686  1.00  0.00    -0.395 OA
ATOM     17  H2  UNL     1       3.849   7.875  21.520  1.00  0.00     0.210 HD
ENDBRANCH   3  16
TORSDOF 3
ENDMDL
MODEL 4
REMARK VINA RESULT: -5.288743346      3.063      4.265
REMARK  3 active torsions:
REMARK  status: ('A' for Active; 'I' for Inactive)
REMARK    1  A    between atoms: O1_2  and  C2_3 
REMARK    2  A    between atoms: C4_5  and  O2_6 
REMARK    3  A    between atoms: C8_11  and  C10_13 
ROOT
HETATM    1  C2  UNL     1       3.764  11.116  23.160  1.00  0.00     0.133 C 
HETATM    2  C3  UNL     1       3.902  12.162  24.296  1.00  0.00     0.065 C 
HETATM    3  C4  UNL     1       5.350  12.072  24.629  1.00  0.00     0.125 C 
HETATM    4  C5  UNL     1       5.703  10.638  24.419  1.00  0.00     0.026 C 
HETATM    5  C6  UNL     1       6.887  10.521  23.532  1.00  0.00     0.009 C 
HETATM    6  C7  UNL     1       6.362   9.908  22.263  1.00  0.00     0.021 C 
HETATM    7  C8  UNL     1       5.196   9.100  22.741  1.00  0.00     0.055 C 
HETATM    8  C9  UNL     1       4.291   8.666  21.606  1.00  0.00     0.027 C 
HETATM    9  C11 UNL     1       4.528   9.986  23.724  1.00  0.00     0.005 C 
HETATM   10  C12 UNL     1       3.702   9.241  24.748  1.00  0.00     0.020 C 
ENDROOT
BRANCH   7  11
HETATM   11  C10 UNL     1       5.694   7.859  23.369  1.00  0.00     0.182 C 
HETATM   12  O3  UNL     1       5.049   6.800  23.218  1.00  0.00    -0.647 OA
HETATM   13  O4  UNL     1       6.854   7.784  24.131  1.00  0.00    -0.647 OA
ENDBRANCH   7  11
BRANCH   1  14
HETATM   14  O1  UNL     1       2.409  10.950  23.012  1.00  0.00    -0.390 OA
HETATM   15  C1  UNL     1       1.748  12.085  23.456  1.00  0.00     0.202 C 
ENDBRANCH   1  14
BRANCH   3  16
HETATM   16  O2  UNL     1       6.051  12.904  23.769  1.00  0.00    -0.395 OA
ATOM     17  H2  UNL     1       6.022  12.528  22.897  1.00  0.00     0.210 HD
ENDBRANCH   3  16
TORSDOF 3
ENDMDL
MODEL 5
REMARK VINA RESULT: -5.212714538      3.350      5.829
REMARK  3 active torsions:
REMARK  status: ('A' for Active; 'I' for Inactive)
REMARK    1  A    between atoms: O1_2  and  C2_3 
REMARK    2  A    between atoms: C4_5  and  O2_6 
REMARK    3  A    between atoms: C8_11  and  C10_13 
ROOT
HETATM    1  C2  UNL     1       6.396   9.376  24.108  1.00  0.00     0.133 C 
HETATM    2  C3  UNL     1       7.544  10.030  23.295  1.00  0.00     0.065 C 
HETATM    3  C4  UNL     1       7.084  11.442  23.189  1.00  0.00     0.125 C 
HETATM    4  C5  UNL     1       5.598  11.356  23.101  1.00  0.00     0.026 C 
HETATM    5  C6  UNL     1       4.968  12.240  24.112  1.00  0.00     0.009 C 
HETATM    6  C7  UNL     1       4.318  11.305  25.094  1.00  0.00     0.021 C 
HETATM    7  C8  UNL     1       4.001  10.108  24.254  1.00  0.00     0.055 C 
HETATM    8  C9  UNL     1       3.659   8.891  25.090  1.00  0.00     0.027 C 
HETATM    9  C11 UNL     1       5.213   9.928  23.420  1.00  0.00     0.005 C 
HETATM   10  C12 UNL     1       4.955   9.188  22.126  1.00  0.00     0.020 C 
ENDROOT
BRANCH   7  11
HETATM   11  C10 UNL     1       2.807  10.396  23.435  1.00  0.00     0.182 C 
HETATM   12  O3  UNL     1       2.009   9.469  23.177  1.00  0.00    -0.647 OA
HETATM   13  O4  UNL     1       2.501  11.649  22.919  1.00  0.00    -0.647 OA
ENDBRANCH   7  11
BRANCH   1  14
HETATM   14  O1  UNL     1       6.622   8.027  23.991  1.00  0.00    -0.390 OA
HETATM   15  C1  UNL     1       7.977   7.793  23.817  1.00  0.00     0.202 C 
ENDBRANCH   1  14
BRANCH   3  16
HETATM   16  O2  UNL     1       7.493  12.123  24.326  1.00  0.00    -0.395 OA
ATOM     17  H2  UNL     1       6.737  12.556  24.704  1.00  0.00     0.210 HD
ENDBRANCH   3  16
TORSDOF 3
ENDMDL
