MODEL 1
REMARK VINA RESULT: -9.101702513      0.000      0.000
REMARK  7 active torsions:
REMARK  status: ('A' for Active; 'I' for Inactive)
REMARK    1  A    between atoms: C3_3  and  C4_4 
REMARK    2  A    between atoms: C4_4  and  C5_5 
REMARK    3  A    between atoms: N1_8  and  N2_10 
REMARK       I    between atoms: N2_10  and  C8_12 
REMARK    4  A    between atoms: C8_12  and  C9_14 
REMARK    5  A    between atoms: C9_14  and  O2_15 
REMARK    6  A    between atoms: C9_14  and  N3_17 
REMARK       I    between atoms: N3_17  and  C10_19 
REMARK    7  A    between atoms: C10_19  and  C11_21 
ROOT
HETATM    1  C1  UNL     1       5.853  15.348  25.667  1.00  0.00     0.019 C 
HETATM    2  C2  UNL     1       6.909  14.938  25.237  1.00  0.00    -0.063 C 
HETATM    3  C3  UNL     1       8.167  14.456  24.753  1.00  0.00     0.078 C 
HETATM    4  N1  UNL     1       8.232  13.298  24.211  1.00  0.00    -0.293 N 
ATOM      5  H1  UNL     1       9.132  12.963  23.866  1.00  0.00     0.187 HD
ENDROOT
BRANCH   3   6
HETATM    6  C4  UNL     1       9.392  15.312  24.882  1.00  0.00     0.073 C 
BRANCH   6   7
HETATM    7  C5  UNL     1       9.834  15.310  26.331  1.00  0.00    -0.008 A 
HETATM    8  C6  UNL     1      11.322  15.086  26.513  1.00  0.00     0.005 A 
HETATM    9  C7  UNL     1      10.289  14.079  26.994  1.00  0.00     0.005 A 
ENDBRANCH   6   7
ENDBRANCH   3   6
BRANCH   4  10
HETATM   10  N2  UNL     1       7.132  12.496  24.080  1.00  0.00    -0.262 N 
HETATM   11  C8  UNL     1       7.272  11.115  23.669  1.00  0.00     0.310 C 
HETATM   12  O1  UNL     1       8.452  10.762  23.459  1.00  0.00    -0.262 OA
ATOM     13  H2  UNL     1       6.204  12.874  24.273  1.00  0.00     0.190 HD
BRANCH  11  14
HETATM   14  C9  UNL     1       6.129  10.261  23.527  1.00  0.00     0.214 C 
BRANCH  14  15
HETATM   15  O2  UNL     1       6.287   9.335  22.617  1.00  0.00    -0.342 OA
ATOM     16  H2  UNL     1       6.317   8.457  22.978  1.00  0.00     0.219 HD
ENDBRANCH  14  15
BRANCH  14  17
HETATM   17  N3  UNL     1       4.923  10.270  24.191  1.00  0.00    -0.303 N 
HETATM   18  C10 UNL     1       3.651   9.775  23.880  1.00  0.00     0.230 C 
HETATM   19  O3  UNL     1       3.422   9.175  22.814  1.00  0.00    -0.273 OA
ATOM     20  H3  UNL     1       4.965  10.735  25.098  1.00  0.00     0.171 HD
BRANCH  18  21
HETATM   21  C11 UNL     1       2.528   9.978  24.872  1.00  0.00     0.105 C 
HETATM   22  C12 UNL     1       1.417   9.057  24.487  1.00  0.00     0.183 C 
HETATM   23  O4  UNL     1       0.541   9.809  23.761  1.00  0.00    -0.379 OA
HETATM   24  C13 UNL     1       0.507  11.031  24.384  1.00  0.00     0.061 C 
HETATM   25  C14 UNL     1      -0.146  12.097  23.565  1.00  0.00     0.038 C 
HETATM   26  C17 UNL     1      -0.406  10.955  25.596  1.00  0.00     0.038 C 
HETATM   27  C18 UNL     1       1.928  11.354  24.775  1.00  0.00     0.054 C 
HETATM   28  C15 UNL     1      -1.607  11.699  23.631  1.00  0.00     0.003 C 
HETATM   29  C16 UNL     1      -1.777  10.910  24.912  1.00  0.00     0.003 C 
ENDBRANCH  18  21
ENDBRANCH  14  17
ENDBRANCH  11  14
ENDBRANCH   4  10
TORSDOF 7
ENDMDL
MODEL 2
REMARK VINA RESULT: -9.087560811      1.203      1.450
REMARK  7 active torsions:
REMARK  status: ('A' for Active; 'I' for Inactive)
REMARK    1  A    between atoms: C3_3  and  C4_4 
REMARK    2  A    between atoms: C4_4  and  C5_5 
REMARK    3  A    between atoms: N1_8  and  N2_10 
REMARK       I    between atoms: N2_10  and  C8_12 
REMARK    4  A    between atoms: C8_12  and  C9_14 
REMARK    5  A    between atoms: C9_14  and  O2_15 
REMARK    6  A    between atoms: C9_14  and  N3_17 
REMARK       I    between atoms: N3_17  and  C10_19 
REMARK    7  A    between atoms: C10_19  and  C11_21 
ROOT
HETATM    1  C1  UNL     1       6.985  14.691  27.392  1.00  0.00     0.019 C 
HETATM    2  C2  UNL     1       7.911  14.702  26.611  1.00  0.00    -0.063 C 
HETATM    3  C3  UNL     1       9.021  14.705  25.706  1.00  0.00     0.078 C 
HETATM    4  N1  UNL     1       8.915  14.108  24.578  1.00  0.00    -0.293 N 
ATOM      5  H1  UNL     1       9.710  14.116  23.938  1.00  0.00     0.187 HD
ENDROOT
BRANCH   3   6
HETATM    6  C4  UNL     1      10.291  15.407  26.086  1.00  0.00     0.073 C 
BRANCH   6   7
HETATM    7  C5  UNL     1      11.350  14.365  26.385  1.00  0.00    -0.008 A 
HETATM    8  C6  UNL     1      11.836  14.387  27.819  1.00  0.00     0.005 A 
HETATM    9  C7  UNL     1      12.745  14.743  26.653  1.00  0.00     0.005 A 
ENDBRANCH   6   7
ENDBRANCH   3   6
BRANCH   4  10
HETATM   10  N2  UNL     1       7.770  13.460  24.205  1.00  0.00    -0.262 N 
HETATM   11  C8  UNL     1       7.761  12.023  24.029  1.00  0.00     0.310 C 
HETATM   12  O1  UNL     1       8.863  11.476  24.246  1.00  0.00    -0.262 OA
ATOM     13  H2  UNL     1       6.915  13.993  24.049  1.00  0.00     0.190 HD
BRANCH  11  14
HETATM   14  C9  UNL     1       6.569  11.328  23.640  1.00  0.00     0.214 C 
BRANCH  14  15
HETATM   15  O2  UNL     1       6.761  10.484  22.659  1.00  0.00    -0.342 OA
ATOM     16  H2  UNL     1       6.130  10.578  21.956  1.00  0.00     0.219 HD
ENDBRANCH  14  15
BRANCH  14  17
HETATM   17  N3  UNL     1       5.287  11.415  24.133  1.00  0.00    -0.303 N 
HETATM   18  C10 UNL     1       4.049  10.939  23.683  1.00  0.00     0.230 C 
HETATM   19  O3  UNL     1       3.941  10.281  22.632  1.00  0.00    -0.273 OA
ATOM     20  H3  UNL     1       5.225  11.933  25.009  1.00  0.00     0.171 HD
BRANCH  18  21
HETATM   21  C11 UNL     1       2.813  11.237  24.501  1.00  0.00     0.105 C 
HETATM   22  C12 UNL     1       1.795  10.195  24.172  1.00  0.00     0.183 C 
HETATM   23  O4  UNL     1       0.974  10.754  23.236  1.00  0.00    -0.379 OA
HETATM   24  C13 UNL     1       0.816  12.060  23.628  1.00  0.00     0.061 C 
HETATM   25  C14 UNL     1       0.213  12.927  22.570  1.00  0.00     0.038 C 
HETATM   26  C17 UNL     1      -0.224  12.135  24.732  1.00  0.00     0.038 C 
HETATM   27  C18 UNL     1       2.167  12.535  24.100  1.00  0.00     0.054 C 
HETATM   28  C15 UNL     1      -1.227  12.454  22.552  1.00  0.00     0.003 C 
HETATM   29  C16 UNL     1      -1.506  11.887  23.927  1.00  0.00     0.003 C 
ENDBRANCH  18  21
ENDBRANCH  14  17
ENDBRANCH  11  14
ENDBRANCH   4  10
TORSDOF 7
ENDMDL
MODEL 3
REMARK VINA RESULT: -9.076400688      1.014      1.392
REMARK  7 active torsions:
REMARK  status: ('A' for Active; 'I' for Inactive)
REMARK    1  A    between atoms: C3_3  and  C4_4 
REMARK    2  A    between atoms: C4_4  and  C5_5 
REMARK    3  A    between atoms: N1_8  and  N2_10 
REMARK       I    between atoms: N2_10  and  C8_12 
REMARK    4  A    between atoms: C8_12  and  C9_14 
REMARK    5  A    between atoms: C9_14  and  O2_15 
REMARK    6  A    between atoms: C9_14  and  N3_17 
REMARK       I    between atoms: N3_17  and  C10_19 
REMARK    7  A    between atoms: C10_19  and  C11_21 
ROOT
HETATM    1  C1  UNL     1       5.814  15.131  25.372  1.00  0.00     0.019 C 
HETATM    2  C2  UNL     1       6.939  14.716  25.197  1.00  0.00    -0.063 C 
HETATM    3  C3  UNL     1       8.273  14.229  25.014  1.00  0.00     0.078 C 
HETATM    4  N1  UNL     1       8.455  13.041  24.572  1.00  0.00    -0.293 N 
ATOM      5  H1  UNL     1       9.409  12.703  24.443  1.00  0.00     0.187 HD
ENDROOT
BRANCH   3   6
HETATM    6  C4  UNL     1       9.440  15.113  25.341  1.00  0.00     0.073 C 
BRANCH   6   7
HETATM    7  C5  UNL     1      10.493  14.284  26.048  1.00  0.00    -0.008 A 
HETATM    8  C6  UNL     1      11.436  15.103  26.906  1.00  0.00     0.005 A 
HETATM    9  C7  UNL     1      11.912  14.359  25.668  1.00  0.00     0.005 A 
ENDBRANCH   6   7
ENDBRANCH   3   6
BRANCH   4  10
HETATM   10  N2  UNL     1       7.411  12.213  24.266  1.00  0.00    -0.262 N 
HETATM   11  C8  UNL     1       7.650  10.919  23.663  1.00  0.00     0.310 C 
HETATM   12  O1  UNL     1       8.856  10.662  23.466  1.00  0.00    -0.262 OA
ATOM     13  H2  UNL     1       6.455  12.509  24.464  1.00  0.00     0.190 HD
BRANCH  11  14
HETATM   14  C9  UNL     1       6.566  10.037  23.338  1.00  0.00     0.214 C 
BRANCH  14  15
HETATM   15  O2  UNL     1       6.879   9.148  22.431  1.00  0.00    -0.342 OA
ATOM     16  H2  UNL     1       7.240   9.531  21.641  1.00  0.00     0.219 HD
ENDBRANCH  14  15
BRANCH  14  17
HETATM   17  N3  UNL     1       5.280   9.990  23.826  1.00  0.00    -0.303 N 
HETATM   18  C10 UNL     1       4.477   8.956  24.321  1.00  0.00     0.230 C 
HETATM   19  O3  UNL     1       4.888   7.783  24.397  1.00  0.00    -0.273 OA
ATOM     20  H3  UNL     1       4.815  10.898  23.827  1.00  0.00     0.171 HD
BRANCH  18  21
HETATM   21  C11 UNL     1       3.071   9.279  24.777  1.00  0.00     0.105 C 
HETATM   22  C12 UNL     1       2.203   9.318  23.562  1.00  0.00     0.183 C 
HETATM   23  O4  UNL     1       2.097  10.634  23.219  1.00  0.00    -0.379 OA
HETATM   24  C13 UNL     1       1.995  11.312  24.408  1.00  0.00     0.061 C 
HETATM   25  C14 UNL     1       2.190  12.787  24.269  1.00  0.00     0.038 C 
HETATM   26  C17 UNL     1       0.567  11.226  24.918  1.00  0.00     0.038 C 
HETATM   27  C18 UNL     1       2.968  10.661  25.360  1.00  0.00     0.054 C 
HETATM   28  C15 UNL     1       0.908  13.214  23.581  1.00  0.00     0.003 C 
HETATM   29  C16 UNL     1      -0.136  12.181  23.946  1.00  0.00     0.003 C 
ENDBRANCH  18  21
ENDBRANCH  14  17
ENDBRANCH  11  14
ENDBRANCH   4  10
TORSDOF 7
ENDMDL
MODEL 4
REMARK VINA RESULT: -9.060477425      1.212      1.628
REMARK  7 active torsions:
REMARK  status: ('A' for Active; 'I' for Inactive)
REMARK    1  A    between atoms: C3_3  and  C4_4 
REMARK    2  A    between atoms: C4_4  and  C5_5 
REMARK    3  A    between atoms: N1_8  and  N2_10 
REMARK       I    between atoms: N2_10  and  C8_12 
REMARK    4  A    between atoms: C8_12  and  C9_14 
REMARK    5  A    between atoms: C9_14  and  O2_15 
REMARK    6  A    between atoms: C9_14  and  N3_17 
REMARK       I    between atoms: N3_17  and  C10_19 
REMARK    7  A    between atoms: C10_19  and  C11_21 
ROOT
HETATM    1  C1  UNL     1       5.836  15.297  25.693  1.00  0.00     0.019 C 
HETATM    2  C2  UNL     1       6.891  14.888  25.262  1.00  0.00    -0.063 C 
HETATM    3  C3  UNL     1       8.151  14.411  24.775  1.00  0.00     0.078 C 
HETATM    4  N1  UNL     1       8.247  13.206  24.353  1.00  0.00    -0.293 N 
ATOM      5  H1  UNL     1       9.148  12.874  24.006  1.00  0.00     0.187 HD
ENDROOT
BRANCH   3   6
HETATM    6  C4  UNL     1       9.340  15.326  24.762  1.00  0.00     0.073 C 
BRANCH   6   7
HETATM    7  C5  UNL     1       9.918  15.389  26.161  1.00  0.00    -0.008 A 
HETATM    8  C6  UNL     1      11.345  14.890  26.252  1.00  0.00     0.005 A 
HETATM    9  C7  UNL     1      10.193  14.169  26.934  1.00  0.00     0.005 A 
ENDBRANCH   6   7
ENDBRANCH   3   6
BRANCH   4  10
HETATM   10  N2  UNL     1       7.181  12.350  24.354  1.00  0.00    -0.262 N 
HETATM   11  C8  UNL     1       7.311  11.012  23.817  1.00  0.00     0.310 C 
HETATM   12  O1  UNL     1       8.449  10.747  23.377  1.00  0.00    -0.262 OA
ATOM     13  H2  UNL     1       6.286  12.656  24.735  1.00  0.00     0.190 HD
BRANCH  11  14
HETATM   14  C9  UNL     1       6.203  10.101  23.811  1.00  0.00     0.214 C 
BRANCH  14  15
HETATM   15  O2  UNL     1       6.538   8.879  24.135  1.00  0.00    -0.342 OA
ATOM     16  H2  UNL     1       7.250   8.840  24.762  1.00  0.00     0.219 HD
ENDBRANCH  14  15
BRANCH  14  17
HETATM   17  N3  UNL     1       4.875  10.317  23.522  1.00  0.00    -0.303 N 
HETATM   18  C10 UNL     1       3.980  11.350  23.825  1.00  0.00     0.230 C 
HETATM   19  O3  UNL     1       4.327  12.347  24.485  1.00  0.00    -0.273 OA
ATOM     20  H3  UNL     1       4.454   9.568  22.971  1.00  0.00     0.171 HD
BRANCH  18  21
HETATM   21  C11 UNL     1       2.554  11.248  23.334  1.00  0.00     0.105 C 
HETATM   22  C12 UNL     1       1.824  12.457  23.818  1.00  0.00     0.183 C 
HETATM   23  O4  UNL     1       1.170  12.073  24.951  1.00  0.00    -0.379 OA
HETATM   24  C13 UNL     1       0.715  10.803  24.695  1.00  0.00     0.061 C 
HETATM   25  C14 UNL     1       0.250  10.081  25.918  1.00  0.00     0.038 C 
HETATM   26  C17 UNL     1      -0.555  10.879  23.866  1.00  0.00     0.038 C 
HETATM   27  C18 UNL     1       1.822  10.091  23.958  1.00  0.00     0.054 C 
HETATM   28  C15 UNL     1      -1.050  10.795  26.234  1.00  0.00     0.003 C 
HETATM   29  C16 UNL     1      -1.552  11.364  24.924  1.00  0.00     0.003 C 
ENDBRANCH  18  21
ENDBRANCH  14  17
ENDBRANCH  11  14
ENDBRANCH   4  10
TORSDOF 7
ENDMDL
MODEL 5
REMARK VINA RESULT: -8.961579885      2.422      3.867
REMARK  7 active torsions:
REMARK  status: ('A' for Active; 'I' for Inactive)
REMARK    1  A    between atoms: C3_3  and  C4_4 
REMARK    2  A    between atoms: C4_4  and  C5_5 
REMARK    3  A    between atoms: N1_8  and  N2_10 
REMARK       I    between atoms: N2_10  and  C8_12 
REMARK    4  A    between atoms: C8_12  and  C9_14 
REMARK    5  A    between atoms: C9_14  and  O2_15 
REMARK    6  A    between atoms: C9_14  and  N3_17 
REMARK       I    between atoms: N3_17  and  C10_19 
REMARK    7  A    between atoms: C10_19  and  C11_21 
ROOT
HETATM    1  C1  UNL     1       4.857  15.712  25.739  1.00  0.00     0.019 C 
HETATM    2  C2  UNL     1       5.526  14.817  25.270  1.00  0.00    -0.063 C 
HETATM    3  C3  UNL     1       6.329  13.758  24.738  1.00  0.00     0.078 C 
HETATM    4  N1  UNL     1       5.761  12.707  24.277  1.00  0.00    -0.293 N 
ATOM      5  H1  UNL     1       6.341  11.958  23.897  1.00  0.00     0.187 HD
ENDROOT
BRANCH   3   6
HETATM    6  C4  UNL     1       7.823  13.891  24.725  1.00  0.00     0.073 C 
BRANCH   6   7
HETATM    7  C5  UNL     1       8.262  14.560  26.012  1.00  0.00    -0.008 A 
HETATM    8  C6  UNL     1       9.666  15.127  25.955  1.00  0.00     0.005 A 
HETATM    9  C7  UNL     1       9.300  13.969  26.870  1.00  0.00     0.005 A 
ENDBRANCH   6   7
ENDBRANCH   3   6
BRANCH   4  10
HETATM   10  N2  UNL     1       4.402  12.559  24.276  1.00  0.00    -0.262 N 
HETATM   11  C8  UNL     1       3.788  11.408  23.649  1.00  0.00     0.310 C 
HETATM   12  O1  UNL     1       4.601  10.610  23.137  1.00  0.00    -0.262 OA
ATOM     13  H2  UNL     1       3.815  13.265  24.720  1.00  0.00     0.190 HD
BRANCH  11  14
HETATM   14  C9  UNL     1       2.364  11.236  23.640  1.00  0.00     0.214 C 
BRANCH  14  15
HETATM   15  O2  UNL     1       1.755  12.017  22.785  1.00  0.00    -0.342 OA
ATOM     16  H2  UNL     1       1.816  11.710  21.888  1.00  0.00     0.219 HD
ENDBRANCH  14  15
BRANCH  14  17
HETATM   17  N3  UNL     1       1.564  10.393  24.378  1.00  0.00    -0.303 N 
HETATM   18  C10 UNL     1       0.178  10.277  24.537  1.00  0.00     0.230 C 
HETATM   19  O3  UNL     1      -0.617  11.027  23.940  1.00  0.00    -0.273 OA
ATOM     20  H3  UNL     1       2.091   9.711  24.923  1.00  0.00     0.171 HD
BRANCH  18  21
HETATM   21  C11 UNL     1      -0.363   9.208  25.459  1.00  0.00     0.105 C 
HETATM   22  C12 UNL     1      -0.179   9.689  26.861  1.00  0.00     0.183 C 
HETATM   23  O4  UNL     1       0.969   9.105  27.310  1.00  0.00    -0.379 OA
HETATM   24  C13 UNL     1       0.951   7.830  26.803  1.00  0.00     0.061 C 
HETATM   25  C14 UNL     1       2.267   7.129  26.912  1.00  0.00     0.038 C 
HETATM   26  C17 UNL     1       0.052   6.957  27.661  1.00  0.00     0.038 C 
HETATM   27  C18 UNL     1       0.440   7.938  25.388  1.00  0.00     0.054 C 
HETATM   28  C15 UNL     1       2.355   6.848  28.399  1.00  0.00     0.003 C 
HETATM   29  C16 UNL     1       0.930   6.790  28.907  1.00  0.00     0.003 C 
ENDBRANCH  18  21
ENDBRANCH  14  17
ENDBRANCH  11  14
ENDBRANCH   4  10
TORSDOF 7
ENDMDL
