MODEL 1
REMARK VINA RESULT: -7.753171276      0.000      0.000
REMARK  7 active torsions:
REMARK  status: ('A' for Active; 'I' for Inactive)
REMARK    1  A    between atoms: C1_2  and  C2_4 
REMARK    2  A    between atoms: C4_6  and  C5_7 
REMARK    3  A    between atoms: C8_11  and  N1_12 
REMARK    4  A    between atoms: N1_12  and  C9_14 
REMARK    5  A    between atoms: C9_14  and  C10_16 
REMARK    6  A    between atoms: C10_16  and  O3_17 
REMARK    7  A    between atoms: C10_16  and  N2_19 
ROOT
HETATM    1  N1  UNL     1       3.591  10.373  23.331  1.00  0.00    -0.337 N 
ATOM      2  H1  UNL     1       3.340  10.522  22.354  1.00  0.00     0.167 HD
ENDROOT
BRANCH   1   3
HETATM    3  C8  UNL     1       4.555  11.255  23.869  1.00  0.00     0.092 A 
HETATM    4  C2  UNL     1       5.901  11.387  23.826  1.00  0.00     0.075 A 
HETATM    5  C3  UNL     1       6.448  12.550  24.242  1.00  0.00     0.036 A 
HETATM    6  C4  UNL     1       5.610  13.522  24.694  1.00  0.00    -0.010 A 
HETATM    7  S1  UNL     1       4.079  12.819  24.535  1.00  0.00    -0.075 SA
BRANCH   4   8
HETATM    8  C1  UNL     1       6.772  10.188  23.605  1.00  0.00     0.212 C 
HETATM    9  O1  UNL     1       6.302   9.171  23.042  1.00  0.00    -0.644 OA
HETATM   10  O2  UNL     1       8.087  10.133  23.976  1.00  0.00    -0.644 OA
ENDBRANCH   4   8
BRANCH   6  11
HETATM   11  C5  UNL     1       5.971  14.897  25.214  1.00  0.00     0.026 A 
HETATM   12  C6  UNL     1       4.760  15.689  25.668  1.00  0.00     0.010 A 
HETATM   13  C7  UNL     1       5.795  15.179  26.656  1.00  0.00     0.010 A 
ENDBRANCH   6  11
ENDBRANCH   1   3
BRANCH   1  14
HETATM   14  C9  UNL     1       2.949   9.332  23.973  1.00  0.00     0.152 C 
HETATM   15  S2  UNL     1       2.893   7.824  23.365  1.00  0.00    -0.056 SA
BRANCH  14  16
HETATM   16  C10 UNL     1       2.133   9.595  25.163  1.00  0.00     0.177 C 
BRANCH  16  17
HETATM   17  O3  UNL     1       2.778   9.432  26.280  1.00  0.00    -0.344 OA
ATOM     18  H3  UNL     1       2.211   9.273  27.025  1.00  0.00     0.219 HD
ENDBRANCH  16  17
BRANCH  16  19
HETATM   19  N2  UNL     1       0.796   9.982  25.207  1.00  0.00    -0.355 N 
HETATM   20  C11 UNL     1      -0.080   9.379  26.207  1.00  0.00     0.151 C 
HETATM   21  C12 UNL     1      -0.784  10.537  26.899  1.00  0.00     0.187 C 
HETATM   22  O4  UNL     1      -1.511  11.275  25.998  1.00  0.00    -0.388 OA
HETATM   23  C13 UNL     1      -1.297  10.954  24.681  1.00  0.00     0.187 C 
HETATM   24  C14 UNL     1       0.209  10.938  24.330  1.00  0.00     0.151 C 
ENDBRANCH  16  19
ENDBRANCH  14  16
ENDBRANCH   1  14
TORSDOF 7
ENDMDL
MODEL 2
REMARK VINA RESULT: -7.689412744      0.965      1.401
REMARK  7 active torsions:
REMARK  status: ('A' for Active; 'I' for Inactive)
REMARK    1  A    between atoms: C1_2  and  C2_4 
REMARK    2  A    between atoms: C4_6  and  C5_7 
REMARK    3  A    between atoms: C8_11  and  N1_12 
REMARK    4  A    between atoms: N1_12  and  C9_14 
REMARK    5  A    between atoms: C9_14  and  C10_16 
REMARK    6  A    between atoms: C10_16  and  O3_17 
REMARK    7  A    between atoms: C10_16  and  N2_19 
ROOT
HETATM    1  N1  UNL     1       3.221  10.165  23.598  1.00  0.00    -0.337 N 
ATOM      2  H1  UNL     1       2.883  10.261  22.641  1.00  0.00     0.167 HD
ENDROOT
BRANCH   1   3
HETATM    3  C8  UNL     1       4.211  11.087  24.006  1.00  0.00     0.092 A 
HETATM    4  C2  UNL     1       5.544  11.240  23.832  1.00  0.00     0.075 A 
HETATM    5  C3  UNL     1       6.103  12.430  24.146  1.00  0.00     0.036 A 
HETATM    6  C4  UNL     1       5.290  13.407  24.632  1.00  0.00    -0.010 A 
HETATM    7  S1  UNL     1       3.766  12.671  24.646  1.00  0.00    -0.075 SA
BRANCH   4   8
HETATM    8  C1  UNL     1       6.417  10.048  23.584  1.00  0.00     0.212 C 
HETATM    9  O1  UNL     1       6.069   9.185  22.742  1.00  0.00    -0.644 OA
HETATM   10  O2  UNL     1       7.608   9.838  24.222  1.00  0.00    -0.644 OA
ENDBRANCH   4   8
BRANCH   6  11
HETATM   11  C5  UNL     1       5.667  14.809  25.056  1.00  0.00     0.026 A 
HETATM   12  C6  UNL     1       4.537  15.533  25.762  1.00  0.00     0.010 A 
HETATM   13  C7  UNL     1       5.793  15.103  26.501  1.00  0.00     0.010 A 
ENDBRANCH   6  11
ENDBRANCH   1   3
BRANCH   1  14
HETATM   14  C9  UNL     1       2.658   9.148  24.344  1.00  0.00     0.152 C 
HETATM   15  S2  UNL     1       3.529   7.910  24.943  1.00  0.00    -0.056 SA
BRANCH  14  16
HETATM   16  C10 UNL     1       1.201   9.055  24.477  1.00  0.00     0.177 C 
BRANCH  16  17
HETATM   17  O3  UNL     1       0.672   8.125  23.739  1.00  0.00    -0.344 OA
ATOM     18  H3  UNL     1      -0.207   7.884  24.006  1.00  0.00     0.219 HD
ENDBRANCH  16  17
BRANCH  16  19
HETATM   19  N2  UNL     1       0.370   9.831  25.281  1.00  0.00    -0.355 N 
HETATM   20  C11 UNL     1      -0.046  11.147  24.802  1.00  0.00     0.151 C 
HETATM   21  C12 UNL     1      -1.558  11.191  24.963  1.00  0.00     0.187 C 
HETATM   22  O4  UNL     1      -1.915  11.017  26.278  1.00  0.00    -0.388 OA
HETATM   23  C13 UNL     1      -0.888  10.648  27.111  1.00  0.00     0.187 C 
HETATM   24  C14 UNL     1      -0.109   9.432  26.561  1.00  0.00     0.151 C 
ENDBRANCH  16  19
ENDBRANCH  14  16
ENDBRANCH   1  14
TORSDOF 7
ENDMDL
MODEL 3
REMARK VINA RESULT: -7.632640405      0.797      1.392
REMARK  7 active torsions:
REMARK  status: ('A' for Active; 'I' for Inactive)
REMARK    1  A    between atoms: C1_2  and  C2_4 
REMARK    2  A    between atoms: C4_6  and  C5_7 
REMARK    3  A    between atoms: C8_11  and  N1_12 
REMARK    4  A    between atoms: N1_12  and  C9_14 
REMARK    5  A    between atoms: C9_14  and  C10_16 
REMARK    6  A    between atoms: C10_16  and  O3_17 
REMARK    7  A    between atoms: C10_16  and  N2_19 
ROOT
HETATM    1  N1  UNL     1       3.609  10.484  23.280  1.00  0.00    -0.337 N 
ATOM      2  H1  UNL     1       3.394  10.635  22.294  1.00  0.00     0.167 HD
ENDROOT
BRANCH   1   3
HETATM    3  C8  UNL     1       4.611  11.311  23.835  1.00  0.00     0.092 A 
HETATM    4  C2  UNL     1       5.961  11.385  23.789  1.00  0.00     0.075 A 
HETATM    5  C3  UNL     1       6.560  12.513  24.231  1.00  0.00     0.036 A 
HETATM    6  C4  UNL     1       5.767  13.510  24.708  1.00  0.00    -0.010 A 
HETATM    7  S1  UNL     1       4.206  12.878  24.539  1.00  0.00    -0.075 SA
BRANCH   4   8
HETATM    8  C1  UNL     1       6.779  10.155  23.539  1.00  0.00     0.212 C 
HETATM    9  O1  UNL     1       7.958  10.092  23.962  1.00  0.00    -0.644 OA
HETATM   10  O2  UNL     1       6.306   9.058  22.873  1.00  0.00    -0.644 OA
ENDBRANCH   4   8
BRANCH   6  11
HETATM   11  C5  UNL     1       6.189  14.855  25.257  1.00  0.00     0.026 A 
HETATM   12  C6  UNL     1       5.009  15.728  25.641  1.00  0.00     0.010 A 
HETATM   13  C7  UNL     1       5.943  15.146  26.688  1.00  0.00     0.010 A 
ENDBRANCH   6  11
ENDBRANCH   1   3
BRANCH   1  14
HETATM   14  C9  UNL     1       2.885   9.494  23.916  1.00  0.00     0.152 C 
HETATM   15  S2  UNL     1       2.871   7.949  23.405  1.00  0.00    -0.056 SA
BRANCH  14  16
HETATM   16  C10 UNL     1       1.950   9.842  24.990  1.00  0.00     0.177 C 
BRANCH  16  17
HETATM   17  O3  UNL     1       2.381   9.527  26.175  1.00  0.00    -0.344 OA
ATOM     18  H3  UNL     1       1.699   9.516  26.836  1.00  0.00     0.219 HD
ENDBRANCH  16  17
BRANCH  16  19
HETATM   19  N2  UNL     1       0.703  10.450  24.867  1.00  0.00    -0.355 N 
HETATM   20  C11 UNL     1       0.639  11.890  24.631  1.00  0.00     0.151 C 
HETATM   21  C12 UNL     1      -0.291  12.077  23.441  1.00  0.00     0.187 C 
HETATM   22  O4  UNL     1      -1.539  11.574  23.713  1.00  0.00    -0.388 OA
HETATM   23  C13 UNL     1      -1.630  10.850  24.876  1.00  0.00     0.187 C 
HETATM   24  C14 UNL     1      -0.538   9.758  24.961  1.00  0.00     0.151 C 
ENDBRANCH  16  19
ENDBRANCH  14  16
ENDBRANCH   1  14
TORSDOF 7
ENDMDL
MODEL 4
REMARK VINA RESULT: -7.461206989      1.725      2.170
REMARK  7 active torsions:
REMARK  status: ('A' for Active; 'I' for Inactive)
REMARK    1  A    between atoms: C1_2  and  C2_4 
REMARK    2  A    between atoms: C4_6  and  C5_7 
REMARK    3  A    between atoms: C8_11  and  N1_12 
REMARK    4  A    between atoms: N1_12  and  C9_14 
REMARK    5  A    between atoms: C9_14  and  C10_16 
REMARK    6  A    between atoms: C10_16  and  O3_17 
REMARK    7  A    between atoms: C10_16  and  N2_19 
ROOT
HETATM    1  N1  UNL     1       4.462  10.312  23.265  1.00  0.00    -0.337 N 
ATOM      2  H1  UNL     1       4.459  10.272  22.246  1.00  0.00     0.167 HD
ENDROOT
BRANCH   1   3
HETATM    3  C8  UNL     1       5.244  11.336  23.847  1.00  0.00     0.092 A 
HETATM    4  C2  UNL     1       6.544  11.709  23.832  1.00  0.00     0.075 A 
HETATM    5  C3  UNL     1       6.867  12.937  24.293  1.00  0.00     0.036 A 
HETATM    6  C4  UNL     1       5.862  13.728  24.758  1.00  0.00    -0.010 A 
HETATM    7  S1  UNL     1       4.485  12.766  24.550  1.00  0.00    -0.075 SA
BRANCH   4   8
HETATM    8  C1  UNL     1       7.620  10.694  23.592  1.00  0.00     0.212 C 
HETATM    9  O1  UNL     1       8.810  10.967  23.879  1.00  0.00    -0.644 OA
HETATM   10  O2  UNL     1       7.381   9.449  23.080  1.00  0.00    -0.644 OA
ENDBRANCH   4   8
BRANCH   6  11
HETATM   11  C5  UNL     1       5.962  15.127  25.324  1.00  0.00     0.026 A 
HETATM   12  C6  UNL     1       4.606  15.746  25.603  1.00  0.00     0.010 A 
HETATM   13  C7  UNL     1       5.549  15.356  26.728  1.00  0.00     0.010 A 
ENDBRANCH   6  11
ENDBRANCH   1   3
BRANCH   1  14
HETATM   14  C9  UNL     1       3.702   9.360  23.915  1.00  0.00     0.152 C 
HETATM   15  S2  UNL     1       4.259   7.867  24.249  1.00  0.00    -0.056 SA
BRANCH  14  16
HETATM   16  C10 UNL     1       2.281   9.607  24.176  1.00  0.00     0.177 C 
BRANCH  16  17
HETATM   17  O3  UNL     1       1.778  10.560  23.449  1.00  0.00    -0.344 OA
ATOM     18  H3  UNL     1       1.141  10.256  22.814  1.00  0.00     0.219 HD
ENDBRANCH  16  17
BRANCH  16  19
HETATM   19  N2  UNL     1       1.457   8.949  25.087  1.00  0.00    -0.355 N 
HETATM   20  C11 UNL     1       0.310   8.197  24.585  1.00  0.00     0.151 C 
HETATM   21  C12 UNL     1       0.398   6.822  25.232  1.00  0.00     0.187 C 
HETATM   22  O4  UNL     1       0.353   6.922  26.600  1.00  0.00    -0.388 OA
HETATM   23  C13 UNL     1       0.442   8.201  27.090  1.00  0.00     0.187 C 
HETATM   24  C14 UNL     1       1.652   8.960  26.498  1.00  0.00     0.151 C 
ENDBRANCH  16  19
ENDBRANCH  14  16
ENDBRANCH   1  14
TORSDOF 7
ENDMDL
MODEL 5
REMARK VINA RESULT: -7.450387940      1.883      2.480
REMARK  7 active torsions:
REMARK  status: ('A' for Active; 'I' for Inactive)
REMARK    1  A    between atoms: C1_2  and  C2_4 
REMARK    2  A    between atoms: C4_6  and  C5_7 
REMARK    3  A    between atoms: C8_11  and  N1_12 
REMARK    4  A    between atoms: N1_12  and  C9_14 
REMARK    5  A    between atoms: C9_14  and  C10_16 
REMARK    6  A    between atoms: C10_16  and  O3_17 
REMARK    7  A    between atoms: C10_16  and  N2_19 
ROOT
HETATM    1  N1  UNL     1       5.541  10.075  23.051  1.00  0.00    -0.337 N 
ATOM      2  H1  UNL     1       5.810  10.143  22.069  1.00  0.00     0.167 HD
ENDROOT
BRANCH   1   3
HETATM    3  C8  UNL     1       5.588  11.275  23.796  1.00  0.00     0.092 A 
HETATM    4  C2  UNL     1       6.516  12.214  24.090  1.00  0.00     0.075 A 
HETATM    5  C3  UNL     1       6.101  13.392  24.606  1.00  0.00     0.036 A 
HETATM    6  C4  UNL     1       4.766  13.562  24.811  1.00  0.00    -0.010 A 
HETATM    7  S1  UNL     1       4.104  12.096  24.286  1.00  0.00    -0.075 SA
BRANCH   4   8
HETATM    8  C1  UNL     1       7.971  11.856  24.123  1.00  0.00     0.212 C 
HETATM    9  O1  UNL     1       8.383  10.863  23.478  1.00  0.00    -0.644 OA
HETATM   10  O2  UNL     1       8.908  12.569  24.818  1.00  0.00    -0.644 OA
ENDBRANCH   4   8
BRANCH   6  11
HETATM   11  C5  UNL     1       4.057  14.773  25.374  1.00  0.00     0.026 A 
HETATM   12  C6  UNL     1       4.651  15.243  26.689  1.00  0.00     0.010 A 
HETATM   13  C7  UNL     1       4.781  16.064  25.417  1.00  0.00     0.010 A 
ENDBRANCH   6  11
ENDBRANCH   1   3
BRANCH   1  14
HETATM   14  C9  UNL     1       5.173   8.820  23.496  1.00  0.00     0.152 C 
HETATM   15  S2  UNL     1       6.251   7.728  24.037  1.00  0.00    -0.056 SA
BRANCH  14  16
HETATM   16  C10 UNL     1       3.792   8.358  23.332  1.00  0.00     0.177 C 
BRANCH  16  17
HETATM   17  O3  UNL     1       3.582   7.740  22.207  1.00  0.00    -0.344 OA
ATOM     18  H3  UNL     1       4.030   6.905  22.145  1.00  0.00     0.219 HD
ENDBRANCH  16  17
BRANCH  16  19
HETATM   19  N2  UNL     1       2.732   8.512  24.223  1.00  0.00    -0.355 N 
HETATM   20  C11 UNL     1       2.822   7.887  25.540  1.00  0.00     0.151 C 
HETATM   21  C12 UNL     1       2.484   8.979  26.544  1.00  0.00     0.187 C 
HETATM   22  O4  UNL     1       1.221   9.471  26.324  1.00  0.00    -0.388 OA
HETATM   23  C13 UNL     1       0.626   9.040  25.165  1.00  0.00     0.187 C 
HETATM   24  C14 UNL     1       1.544   9.243  23.937  1.00  0.00     0.151 C 
ENDBRANCH  16  19
ENDBRANCH  14  16
ENDBRANCH   1  14
TORSDOF 7
ENDMDL
