MODEL 1
REMARK VINA RESULT: -6.752904957      0.000      0.000
REMARK  7 active torsions:
REMARK  status: ('A' for Active; 'I' for Inactive)
REMARK    1  A    between atoms: O1_2  and  C2_3 
REMARK    2  A    between atoms: C2_3  and  C3_5 
REMARK    3  A    between atoms: C3_5  and  O3_6 
REMARK    4  A    between atoms: C3_5  and  C14_22 
REMARK    5  A    between atoms: O3_6  and  C4_7 
REMARK    6  A    between atoms: C8_11  and  N1_12 
REMARK       I    between atoms: N1_12  and  C9_14 
REMARK       I    between atoms: C9_14  and  N2_16 
REMARK    7  A    between atoms: N2_16  and  C10_18 
ROOT
HETATM    1  C4  UNL     1       2.977  10.849  23.760  1.00  0.00     0.145 C 
HETATM    2  C5  UNL     1       4.318  11.505  23.780  1.00  0.00     0.034 C 
HETATM    3  C6  UNL     1       5.356  10.458  24.117  1.00  0.00     0.005 C 
HETATM    4  C7  UNL     1       4.615   9.131  24.087  1.00  0.00     0.028 C 
HETATM    5  C8  UNL     1       3.220   9.568  24.485  1.00  0.00     0.115 C 
ENDROOT
BRANCH   1   6
HETATM    6  O3  UNL     1       1.933  11.608  24.186  1.00  0.00    -0.368 OA
BRANCH   6   7
HETATM    7  C3  UNL     1       0.695  11.363  23.652  1.00  0.00     0.228 C 
BRANCH   7   8
HETATM    8  C2  UNL     1      -0.258  10.866  24.681  1.00  0.00     0.288 C 
HETATM    9  O2  UNL     1      -1.362  10.341  24.393  1.00  0.00    -0.262 OA
BRANCH   8  10
HETATM   10  O1  UNL     1       0.105  10.995  26.011  1.00  0.00    -0.324 OA
HETATM   11  C1  UNL     1      -0.660  10.296  26.998  1.00  0.00     0.213 C 
ENDBRANCH   8  10
ENDBRANCH   7   8
BRANCH   7  12
HETATM   12  C14 UNL     1       0.142  12.748  23.269  1.00  0.00    -0.016 C 
HETATM   13  C15 UNL     1      -1.355  12.807  23.429  1.00  0.00     0.018 C 
HETATM   14  C16 UNL     1       0.769  13.793  24.127  1.00  0.00     0.018 C 
HETATM   15  C17 UNL     1       0.456  13.012  21.820  1.00  0.00     0.018 C 
ENDBRANCH   7  12
ENDBRANCH   6   7
ENDBRANCH   1   6
BRANCH   5  16
HETATM   16  N1  UNL     1       3.025   9.594  25.896  1.00  0.00    -0.336 N 
HETATM   17  C9  UNL     1       2.517   8.474  26.593  1.00  0.00     0.317 C 
HETATM   18  O4  UNL     1       2.237   7.439  25.946  1.00  0.00    -0.247 OA
HETATM   19  N2  UNL     1       2.314   8.476  27.985  1.00  0.00    -0.335 N 
ATOM     20  H2  UNL     1       2.545   9.329  28.496  1.00  0.00     0.165 HD
ATOM     21  H1  UNL     1       3.258  10.441  26.415  1.00  0.00     0.164 HD
BRANCH  19  22
HETATM   22  C10 UNL     1       1.806   7.366  28.737  1.00  0.00     0.023 C 
HETATM   23  C11 UNL     1       2.790   6.187  28.723  1.00  0.00     0.037 C 
HETATM   24  C12 UNL     1       0.483   6.862  28.221  1.00  0.00     0.037 C 
HETATM   25  C13 UNL     1       1.682   7.778  30.189  1.00  0.00     0.037 C 
ENDBRANCH  19  22
ENDBRANCH   5  16
TORSDOF 7
ENDMDL
MODEL 2
REMARK VINA RESULT: -6.633802369      2.106      5.616
REMARK  7 active torsions:
REMARK  status: ('A' for Active; 'I' for Inactive)
REMARK    1  A    between atoms: O1_2  and  C2_3 
REMARK    2  A    between atoms: C2_3  and  C3_5 
REMARK    3  A    between atoms: C3_5  and  O3_6 
REMARK    4  A    between atoms: C3_5  and  C14_22 
REMARK    5  A    between atoms: O3_6  and  C4_7 
REMARK    6  A    between atoms: C8_11  and  N1_12 
REMARK       I    between atoms: N1_12  and  C9_14 
REMARK       I    between atoms: C9_14  and  N2_16 
REMARK    7  A    between atoms: N2_16  and  C10_18 
ROOT
HETATM    1  C4  UNL     1       0.716  10.391  24.448  1.00  0.00     0.145 C 
HETATM    2  C5  UNL     1       0.126  11.596  25.102  1.00  0.00     0.034 C 
HETATM    3  C6  UNL     1       0.491  12.812  24.281  1.00  0.00     0.005 C 
HETATM    4  C7  UNL     1       1.132  12.266  23.015  1.00  0.00     0.028 C 
HETATM    5  C8  UNL     1       1.735  10.975  23.528  1.00  0.00     0.115 C 
ENDROOT
BRANCH   1   6
HETATM    6  O3  UNL     1       1.134   9.402  25.281  1.00  0.00    -0.368 OA
BRANCH   6   7
HETATM    7  C3  UNL     1       0.209   8.490  25.718  1.00  0.00     0.228 C 
BRANCH   7   8
HETATM    8  C2  UNL     1       0.496   7.125  25.199  1.00  0.00     0.288 C 
HETATM    9  O2  UNL     1      -0.313   6.170  25.304  1.00  0.00    -0.262 OA
BRANCH   8  10
HETATM   10  O1  UNL     1       1.715   6.916  24.576  1.00  0.00    -0.324 OA
HETATM   11  C1  UNL     1       1.726   6.666  23.167  1.00  0.00     0.213 C 
ENDBRANCH   8  10
ENDBRANCH   7   8
BRANCH   7  12
HETATM   12  C14 UNL     1       0.446   8.372  27.234  1.00  0.00    -0.016 C 
HETATM   13  C15 UNL     1       0.090   6.999  27.742  1.00  0.00     0.018 C 
HETATM   14  C16 UNL     1       1.878   8.651  27.540  1.00  0.00     0.018 C 
HETATM   15  C17 UNL     1      -0.437   9.363  27.943  1.00  0.00     0.018 C 
ENDBRANCH   7  12
ENDBRANCH   6   7
ENDBRANCH   1   6
BRANCH   5  16
HETATM   16  N1  UNL     1       3.044  11.146  24.064  1.00  0.00    -0.336 N 
HETATM   17  C9  UNL     1       4.167  10.508  23.489  1.00  0.00     0.317 C 
HETATM   18  O4  UNL     1       3.997   9.781  22.484  1.00  0.00    -0.247 OA
HETATM   19  N2  UNL     1       5.469  10.660  24.001  1.00  0.00    -0.335 N 
ATOM     20  H2  UNL     1       5.590  11.254  24.822  1.00  0.00     0.165 HD
ATOM     21  H1  UNL     1       3.174  11.742  24.882  1.00  0.00     0.164 HD
BRANCH  19  22
HETATM   22  C10 UNL     1       6.639  10.039  23.451  1.00  0.00     0.023 C 
HETATM   23  C11 UNL     1       7.909  10.816  23.824  1.00  0.00     0.037 C 
HETATM   24  C12 UNL     1       6.595   9.929  21.948  1.00  0.00     0.037 C 
HETATM   25  C13 UNL     1       6.800   8.668  24.074  1.00  0.00     0.037 C 
ENDBRANCH  19  22
ENDBRANCH   5  16
TORSDOF 7
ENDMDL
MODEL 3
REMARK VINA RESULT: -6.516026137      3.584      6.109
REMARK  7 active torsions:
REMARK  status: ('A' for Active; 'I' for Inactive)
REMARK    1  A    between atoms: O1_2  and  C2_3 
REMARK    2  A    between atoms: C2_3  and  C3_5 
REMARK    3  A    between atoms: C3_5  and  O3_6 
REMARK    4  A    between atoms: C3_5  and  C14_22 
REMARK    5  A    between atoms: O3_6  and  C4_7 
REMARK    6  A    between atoms: C8_11  and  N1_12 
REMARK       I    between atoms: N1_12  and  C9_14 
REMARK       I    between atoms: C9_14  and  N2_16 
REMARK    7  A    between atoms: N2_16  and  C10_18 
ROOT
HETATM    1  C4  UNL     1       7.437  11.562  23.557  1.00  0.00     0.145 C 
HETATM    2  C5  UNL     1       8.408  10.428  23.567  1.00  0.00     0.034 C 
HETATM    3  C6  UNL     1       7.801   9.274  22.803  1.00  0.00     0.005 C 
HETATM    4  C7  UNL     1       6.540   9.831  22.164  1.00  0.00     0.028 C 
HETATM    5  C8  UNL     1       6.158  10.903  23.164  1.00  0.00     0.115 C 
ENDROOT
BRANCH   1   6
HETATM    6  O3  UNL     1       7.412  12.339  24.672  1.00  0.00    -0.368 OA
BRANCH   6   7
HETATM    7  C3  UNL     1       7.431  13.700  24.514  1.00  0.00     0.228 C 
BRANCH   7   8
HETATM    8  C2  UNL     1       6.165  14.325  24.985  1.00  0.00     0.288 C 
HETATM    9  O2  UNL     1       6.026  15.565  25.126  1.00  0.00    -0.262 OA
BRANCH   8  10
HETATM   10  O1  UNL     1       5.102  13.487  25.277  1.00  0.00    -0.324 OA
HETATM   11  C1  UNL     1       3.779  13.925  24.953  1.00  0.00     0.213 C 
ENDBRANCH   8  10
ENDBRANCH   7   8
BRANCH   7  12
HETATM   12  C14 UNL     1       8.491  14.206  25.509  1.00  0.00    -0.016 C 
HETATM   13  C15 UNL     1       9.502  13.135  25.828  1.00  0.00     0.018 C 
HETATM   14  C16 UNL     1       9.192  15.389  24.936  1.00  0.00     0.018 C 
HETATM   15  C17 UNL     1       7.807  14.583  26.796  1.00  0.00     0.018 C 
ENDBRANCH   7  12
ENDBRANCH   6   7
ENDBRANCH   1   6
BRANCH   5  16
HETATM   16  N1  UNL     1       5.349  10.411  24.228  1.00  0.00    -0.336 N 
HETATM   17  C9  UNL     1       3.942  10.330  24.110  1.00  0.00     0.317 C 
HETATM   18  O4  UNL     1       3.405  10.700  23.042  1.00  0.00    -0.247 OA
HETATM   19  N2  UNL     1       3.122   9.849  25.148  1.00  0.00    -0.335 N 
ATOM     20  H2  UNL     1       3.575   9.554  26.012  1.00  0.00     0.165 HD
ATOM     21  H1  UNL     1       5.795  10.109  25.094  1.00  0.00     0.164 HD
BRANCH  19  22
HETATM   22  C10 UNL     1       1.693   9.743  25.075  1.00  0.00     0.023 C 
HETATM   23  C11 UNL     1       1.264   8.704  24.030  1.00  0.00     0.037 C 
HETATM   24  C12 UNL     1       1.024  11.048  24.724  1.00  0.00     0.037 C 
HETATM   25  C13 UNL     1       1.176   9.228  26.401  1.00  0.00     0.037 C 
ENDBRANCH  19  22
ENDBRANCH   5  16
TORSDOF 7
ENDMDL
MODEL 4
REMARK VINA RESULT: -6.398215911      5.078      8.162
REMARK  7 active torsions:
REMARK  status: ('A' for Active; 'I' for Inactive)
REMARK    1  A    between atoms: O1_2  and  C2_3 
REMARK    2  A    between atoms: C2_3  and  C3_5 
REMARK    3  A    between atoms: C3_5  and  O3_6 
REMARK    4  A    between atoms: C3_5  and  C14_22 
REMARK    5  A    between atoms: O3_6  and  C4_7 
REMARK    6  A    between atoms: C8_11  and  N1_12 
REMARK       I    between atoms: N1_12  and  C9_14 
REMARK       I    between atoms: C9_14  and  N2_16 
REMARK    7  A    between atoms: N2_16  and  C10_18 
ROOT
HETATM    1  C4  UNL     1       5.022  13.383  24.630  1.00  0.00     0.145 C 
HETATM    2  C5  UNL     1       3.993  13.902  25.580  1.00  0.00     0.034 C 
HETATM    3  C6  UNL     1       4.384  15.305  25.988  1.00  0.00     0.005 C 
HETATM    4  C7  UNL     1       5.555  15.674  25.091  1.00  0.00     0.028 C 
HETATM    5  C8  UNL     1       6.170  14.312  24.841  1.00  0.00     0.115 C 
ENDROOT
BRANCH   1   6
HETATM    6  O3  UNL     1       5.286  12.052  24.702  1.00  0.00    -0.368 OA
BRANCH   6   7
HETATM    7  C3  UNL     1       5.492  11.369  23.532  1.00  0.00     0.228 C 
BRANCH   7   8
HETATM    8  C2  UNL     1       6.939  11.105  23.298  1.00  0.00     0.288 C 
HETATM    9  O2  UNL     1       7.814  11.267  24.184  1.00  0.00    -0.262 OA
BRANCH   8  10
HETATM   10  O1  UNL     1       7.318  10.662  22.043  1.00  0.00    -0.324 OA
HETATM   11  C1  UNL     1       8.357   9.682  21.951  1.00  0.00     0.213 C 
ENDBRANCH   8  10
ENDBRANCH   7   8
BRANCH   7  12
HETATM   12  C14 UNL     1       4.891   9.972  23.771  1.00  0.00    -0.016 C 
HETATM   13  C15 UNL     1       5.926   9.010  24.296  1.00  0.00     0.018 C 
HETATM   14  C16 UNL     1       3.771  10.070  24.748  1.00  0.00     0.018 C 
HETATM   15  C17 UNL     1       4.389   9.430  22.460  1.00  0.00     0.018 C 
ENDBRANCH   7  12
ENDBRANCH   6   7
ENDBRANCH   1   6
BRANCH   5  16
HETATM   16  N1  UNL     1       7.112  13.934  25.840  1.00  0.00    -0.336 N 
HETATM   17  C9  UNL     1       8.456  14.374  25.793  1.00  0.00     0.317 C 
HETATM   18  O4  UNL     1       8.814  15.113  24.850  1.00  0.00    -0.247 OA
HETATM   19  N2  UNL     1       9.404  14.013  26.768  1.00  0.00    -0.335 N 
ATOM     20  H2  UNL     1       9.096  13.407  27.529  1.00  0.00     0.165 HD
ATOM     21  H1  UNL     1       6.810  13.333  26.607  1.00  0.00     0.164 HD
BRANCH  19  22
HETATM   22  C10 UNL     1      10.775  14.435  26.767  1.00  0.00     0.023 C 
HETATM   23  C11 UNL     1      10.885  15.965  26.709  1.00  0.00     0.037 C 
HETATM   24  C12 UNL     1      11.562  13.877  25.609  1.00  0.00     0.037 C 
HETATM   25  C13 UNL     1      11.409  14.029  28.080  1.00  0.00     0.037 C 
ENDBRANCH  19  22
ENDBRANCH   5  16
TORSDOF 7
ENDMDL
MODEL 5
REMARK VINA RESULT: -6.277639045      3.074      5.063
REMARK  7 active torsions:
REMARK  status: ('A' for Active; 'I' for Inactive)
REMARK    1  A    between atoms: O1_2  and  C2_3 
REMARK    2  A    between atoms: C2_3  and  C3_5 
REMARK    3  A    between atoms: C3_5  and  O3_6 
REMARK    4  A    between atoms: C3_5  and  C14_22 
REMARK    5  A    between atoms: O3_6  and  C4_7 
REMARK    6  A    between atoms: C8_11  and  N1_12 
REMARK       I    between atoms: N1_12  and  C9_14 
REMARK       I    between atoms: C9_14  and  N2_16 
REMARK    7  A    between atoms: N2_16  and  C10_18 
ROOT
HETATM    1  C4  UNL     1       4.431  14.056  24.927  1.00  0.00     0.145 C 
HETATM    2  C5  UNL     1       4.777  14.781  26.187  1.00  0.00     0.034 C 
HETATM    3  C6  UNL     1       6.272  15.001  26.214  1.00  0.00     0.005 C 
HETATM    4  C7  UNL     1       6.769  14.576  24.843  1.00  0.00     0.028 C 
HETATM    5  C8  UNL     1       5.748  13.518  24.479  1.00  0.00     0.115 C 
ENDROOT
BRANCH   1   6
HETATM    6  O3  UNL     1       3.401  13.174  25.007  1.00  0.00    -0.368 OA
BRANCH   6   7
HETATM    7  C3  UNL     1       2.934  12.616  23.845  1.00  0.00     0.228 C 
BRANCH   7   8
HETATM    8  C2  UNL     1       3.010  11.130  23.881  1.00  0.00     0.288 C 
HETATM    9  O2  UNL     1       2.870  10.414  22.859  1.00  0.00    -0.262 OA
BRANCH   8  10
HETATM   10  O1  UNL     1       3.247  10.527  25.105  1.00  0.00    -0.324 OA
HETATM   11  C1  UNL     1       3.136   9.103  25.196  1.00  0.00     0.213 C 
ENDBRANCH   8  10
ENDBRANCH   7   8
BRANCH   7  12
HETATM   12  C14 UNL     1       1.424  12.914  23.835  1.00  0.00    -0.016 C 
HETATM   13  C15 UNL     1       0.664  11.935  24.693  1.00  0.00     0.018 C 
HETATM   14  C16 UNL     1       1.183  14.297  24.336  1.00  0.00     0.018 C 
HETATM   15  C17 UNL     1       0.912  12.777  22.426  1.00  0.00     0.018 C 
ENDBRANCH   7  12
ENDBRANCH   6   7
ENDBRANCH   1   6
BRANCH   5  16
HETATM   16  N1  UNL     1       6.095  12.222  24.957  1.00  0.00    -0.336 N 
HETATM   17  C9  UNL     1       6.465  11.182  24.073  1.00  0.00     0.317 C 
HETATM   18  O4  UNL     1       6.487  11.417  22.844  1.00  0.00    -0.247 OA
HETATM   19  N2  UNL     1       6.810   9.893  24.521  1.00  0.00    -0.335 N 
ATOM     20  H2  UNL     1       6.784   9.718  25.526  1.00  0.00     0.165 HD
ATOM     21  H1  UNL     1       6.077  12.040  25.961  1.00  0.00     0.164 HD
BRANCH  19  22
HETATM   22  C10 UNL     1       7.196   8.809  23.666  1.00  0.00     0.023 C 
HETATM   23  C11 UNL     1       7.745   7.628  24.477  1.00  0.00     0.037 C 
HETATM   24  C12 UNL     1       8.247   9.199  22.659  1.00  0.00     0.037 C 
HETATM   25  C13 UNL     1       5.962   8.284  22.961  1.00  0.00     0.037 C 
ENDBRANCH  19  22
ENDBRANCH   5  16
TORSDOF 7
ENDMDL
