MODEL 1
REMARK VINA RESULT: -7.003856765      0.000      0.000
REMARK  2 active torsions:
REMARK  status: ('A' for Active; 'I' for Inactive)
REMARK    1  A    between atoms: N6_19  and  C10_20 
REMARK    2  A    between atoms: C10_20  and  C11_21 
ROOT
HETATM    1  C1  UNL     1       1.644  12.075  23.361  1.00  0.00     0.024 C 
HETATM    2  C2  UNL     1       1.613  11.851  24.846  1.00  0.00     0.075 C 
HETATM    3  S1  UNL     1       0.266  10.708  25.250  1.00  0.00    -0.088 SA
HETATM    4  C3  UNL     1       0.962   9.287  26.053  1.00  0.00     0.134 C 
HETATM    5  N1  UNL     1       0.199   8.282  26.318  1.00  0.00    -0.380 N 
ATOM      6  H11 UNL     1       0.599   7.465  26.780  1.00  0.00     0.158 HD
ATOM      7  H12 UNL     1      -0.794   8.264  26.084  1.00  0.00     0.158 HD
HETATM    8  N2  UNL     1       2.341   9.312  26.377  1.00  0.00    -0.361 N 
ATOM      9  H2  UNL     1       2.688   8.799  27.188  1.00  0.00     0.162 HD
HETATM   10  C4  UNL     1       3.242  10.058  25.560  1.00  0.00     0.157 C 
HETATM   11  C5  UNL     1       3.331   9.384  24.219  1.00  0.00     0.355 C 
HETATM   12  N3  UNL     1       3.919   8.065  24.439  1.00  0.00    -0.125 NA
HETATM   13  N4  UNL     1       4.460   7.715  23.219  1.00  0.00    -0.209 NA
HETATM   14  C6  UNL     1       5.703   7.019  23.473  1.00  0.00     0.134 C 
HETATM   15  C7  UNL     1       4.612   8.910  22.442  1.00  0.00     0.384 C 
HETATM   16  N5  UNL     1       4.218  10.032  23.311  1.00  0.00     0.127 N 
HETATM   17  C8  UNL     1       5.426  10.532  23.882  1.00  0.00     0.295 C 
HETATM   18  C9  UNL     1       5.248  11.697  24.828  1.00  0.00     0.147 C 
HETATM   19  N6  UNL     1       3.956  12.265  24.862  1.00  0.00    -0.403 N 
HETATM   20  C14 UNL     1       2.913  11.517  25.475  1.00  0.00     0.119 C 
ENDROOT
BRANCH  19  21
HETATM   21  C10 UNL     1       3.908  13.672  25.059  1.00  0.00     0.122 C 
BRANCH  21  22
HETATM   22  C11 UNL     1       4.756  14.251  26.130  1.00  0.00     0.003 A 
HETATM   23  C12 UNL     1       5.921  15.138  25.897  1.00  0.00     0.007 A 
HETATM   24  C13 UNL     1       4.618  15.730  26.379  1.00  0.00     0.007 A 
ENDBRANCH  21  22
ENDBRANCH  19  21
TORSDOF 2
ENDMDL
MODEL 2
REMARK VINA RESULT: -6.521640171      2.579      4.670
REMARK  2 active torsions:
REMARK  status: ('A' for Active; 'I' for Inactive)
REMARK    1  A    between atoms: N6_19  and  C10_20 
REMARK    2  A    between atoms: C10_20  and  C11_21 
ROOT
HETATM    1  C1  UNL     1       5.621   7.389  24.590  1.00  0.00     0.024 C 
HETATM    2  C2  UNL     1       4.709   7.478  23.401  1.00  0.00     0.075 C 
HETATM    3  S1  UNL     1       4.390   5.812  22.766  1.00  0.00    -0.088 SA
HETATM    4  C3  UNL     1       2.642   5.513  22.833  1.00  0.00     0.134 C 
HETATM    5  N1  UNL     1       2.197   4.337  22.547  1.00  0.00    -0.380 N 
ATOM      6  H11 UNL     1       1.192   4.165  22.585  1.00  0.00     0.158 HD
ATOM      7  H12 UNL     1       2.807   3.563  22.282  1.00  0.00     0.158 HD
HETATM    8  N2  UNL     1       1.795   6.588  23.201  1.00  0.00    -0.361 N 
ATOM      9  H2  UNL     1       0.844   6.641  22.835  1.00  0.00     0.162 HD
HETATM   10  C4  UNL     1       2.281   7.594  24.088  1.00  0.00     0.157 C 
HETATM   11  C5  UNL     1       2.472   6.975  25.444  1.00  0.00     0.355 C 
HETATM   12  N3  UNL     1       1.153   6.563  25.918  1.00  0.00    -0.125 NA
HETATM   13  N4  UNL     1       1.276   6.509  27.292  1.00  0.00    -0.209 NA
HETATM   14  C6  UNL     1       0.037   6.993  27.863  1.00  0.00     0.134 C 
HETATM   15  C7  UNL     1       2.427   7.278  27.665  1.00  0.00     0.384 C 
HETATM   16  N5  UNL     1       2.944   7.890  26.430  1.00  0.00     0.127 N 
HETATM   17  C8  UNL     1       2.381   9.200  26.372  1.00  0.00     0.295 C 
HETATM   18  C9  UNL     1       2.779  10.012  25.161  1.00  0.00     0.147 C 
HETATM   19  N6  UNL     1       3.804   9.458  24.363  1.00  0.00    -0.403 N 
HETATM   20  C14 UNL     1       3.495   8.311  23.581  1.00  0.00     0.119 C 
ENDROOT
BRANCH  19  21
HETATM   21  C10 UNL     1       4.694  10.393  23.768  1.00  0.00     0.122 C 
BRANCH  21  22
HETATM   22  C11 UNL     1       5.679  11.067  24.648  1.00  0.00     0.003 A 
HETATM   23  C12 UNL     1       6.772  11.950  24.172  1.00  0.00     0.007 A 
HETATM   24  C13 UNL     1       5.542  12.559  24.802  1.00  0.00     0.007 A 
ENDBRANCH  21  22
ENDBRANCH  19  21
TORSDOF 2
ENDMDL
MODEL 3
REMARK VINA RESULT: -6.502829184      1.895      2.467
REMARK  2 active torsions:
REMARK  status: ('A' for Active; 'I' for Inactive)
REMARK    1  A    between atoms: N6_19  and  C10_20 
REMARK    2  A    between atoms: C10_20  and  C11_21 
ROOT
HETATM    1  C1  UNL     1       1.308  12.492  22.574  1.00  0.00     0.024 C 
HETATM    2  C2  UNL     1       0.622  12.828  23.867  1.00  0.00     0.075 C 
HETATM    3  S1  UNL     1      -1.146  12.460  23.718  1.00  0.00    -0.088 SA
HETATM    4  C3  UNL     1      -1.573  11.261  24.955  1.00  0.00     0.134 C 
HETATM    5  N1  UNL     1      -2.759  10.755  24.953  1.00  0.00    -0.380 N 
ATOM      6  H11 UNL     1      -3.005  10.067  25.663  1.00  0.00     0.158 HD
ATOM      7  H12 UNL     1      -3.469  11.013  24.267  1.00  0.00     0.158 HD
HETATM    8  N2  UNL     1      -0.586  10.903  25.906  1.00  0.00    -0.361 N 
ATOM      9  H2  UNL     1      -0.858  10.619  26.847  1.00  0.00     0.162 HD
HETATM   10  C4  UNL     1       0.793  10.943  25.538  1.00  0.00     0.157 C 
HETATM   11  C5  UNL     1       1.041   9.858  24.527  1.00  0.00     0.355 C 
HETATM   12  N3  UNL     1       0.795   8.583  25.195  1.00  0.00    -0.125 NA
HETATM   13  N4  UNL     1       1.514   7.660  24.462  1.00  0.00    -0.209 NA
HETATM   14  C6  UNL     1       2.074   6.702  25.392  1.00  0.00     0.134 C 
HETATM   15  C7  UNL     1       2.497   8.370  23.697  1.00  0.00     0.384 C 
HETATM   16  N5  UNL     1       2.396   9.785  24.089  1.00  0.00     0.127 N 
HETATM   17  C8  UNL     1       3.382   9.987  25.101  1.00  0.00     0.295 C 
HETATM   18  C9  UNL     1       3.444  11.390  25.658  1.00  0.00     0.147 C 
HETATM   19  N6  UNL     1       2.676  12.356  24.971  1.00  0.00    -0.403 N 
HETATM   20  C14 UNL     1       1.260  12.294  25.094  1.00  0.00     0.119 C 
ENDROOT
BRANCH  19  21
HETATM   21  C10 UNL     1       3.237  13.661  24.913  1.00  0.00     0.122 C 
BRANCH  21  22
HETATM   22  C11 UNL     1       4.189  14.053  25.982  1.00  0.00     0.003 A 
HETATM   23  C12 UNL     1       5.556  14.576  25.744  1.00  0.00     0.007 A 
HETATM   24  C13 UNL     1       4.454  15.526  26.147  1.00  0.00     0.007 A 
ENDBRANCH  21  22
ENDBRANCH  19  21
TORSDOF 2
ENDMDL
MODEL 4
REMARK VINA RESULT: -6.468116523      2.478      4.840
REMARK  2 active torsions:
REMARK  status: ('A' for Active; 'I' for Inactive)
REMARK    1  A    between atoms: N6_19  and  C10_20 
REMARK    2  A    between atoms: C10_20  and  C11_21 
ROOT
HETATM    1  C1  UNL     1       3.619  11.450  25.138  1.00  0.00     0.024 C 
HETATM    2  C2  UNL     1       3.114  10.740  23.915  1.00  0.00     0.075 C 
HETATM    3  S1  UNL     1       4.472   9.805  23.165  1.00  0.00    -0.088 SA
HETATM    4  C3  UNL     1       4.017   8.089  23.131  1.00  0.00     0.134 C 
HETATM    5  N1  UNL     1       4.889   7.218  22.753  1.00  0.00    -0.380 N 
ATOM      6  H11 UNL     1       4.627   6.232  22.733  1.00  0.00     0.158 HD
ATOM      7  H12 UNL     1       5.836   7.469  22.471  1.00  0.00     0.158 HD
HETATM    8  N2  UNL     1       2.700   7.740  23.523  1.00  0.00    -0.361 N 
ATOM      9  H2  UNL     1       2.242   6.925  23.117  1.00  0.00     0.162 HD
HETATM   10  C4  UNL     1       2.021   8.538  24.492  1.00  0.00     0.157 C 
HETATM   11  C5  UNL     1       2.712   8.362  25.816  1.00  0.00     0.355 C 
HETATM   12  N3  UNL     1       2.552   6.962  26.201  1.00  0.00    -0.125 NA
HETATM   13  N4  UNL     1       2.702   6.957  27.573  1.00  0.00    -0.209 NA
HETATM   14  C6  UNL     1       1.766   5.995  28.113  1.00  0.00     0.134 C 
HETATM   15  C7  UNL     1       2.497   8.295  28.046  1.00  0.00     0.384 C 
HETATM   16  N5  UNL     1       2.113   9.103  26.876  1.00  0.00     0.127 N 
HETATM   17  C8  UNL     1       0.686   9.138  26.873  1.00  0.00     0.295 C 
HETATM   18  C9  UNL     1       0.072   9.918  25.734  1.00  0.00     0.147 C 
HETATM   19  N6  UNL     1       0.973  10.673  24.953  1.00  0.00    -0.403 N 
HETATM   20  C14 UNL     1       1.858   9.971  24.088  1.00  0.00     0.119 C 
ENDROOT
BRANCH  19  21
HETATM   21  C10 UNL     1       0.475  11.909  24.458  1.00  0.00     0.122 C 
BRANCH  21  22
HETATM   22  C11 UNL     1      -0.745  11.875  23.615  1.00  0.00     0.003 A 
HETATM   23  C12 UNL     1      -1.815  12.902  23.634  1.00  0.00     0.007 A 
HETATM   24  C13 UNL     1      -0.824  12.879  22.495  1.00  0.00     0.007 A 
ENDBRANCH  21  22
ENDBRANCH  19  21
TORSDOF 2
ENDMDL
MODEL 5
REMARK VINA RESULT: -6.428577709      4.386      6.357
REMARK  2 active torsions:
REMARK  status: ('A' for Active; 'I' for Inactive)
REMARK    1  A    between atoms: N6_19  and  C10_20 
REMARK    2  A    between atoms: C10_20  and  C11_21 
ROOT
HETATM    1  C1  UNL     1       2.490   7.388  25.387  1.00  0.00     0.024 C 
HETATM    2  C2  UNL     1       1.126   6.787  25.209  1.00  0.00     0.075 C 
HETATM    3  S1  UNL     1       1.274   4.984  25.118  1.00  0.00    -0.088 SA
HETATM    4  C3  UNL     1       0.322   4.277  26.438  1.00  0.00     0.134 C 
HETATM    5  N1  UNL     1       0.385   3.006  26.645  1.00  0.00    -0.380 N 
ATOM      6  H11 UNL     1      -0.163   2.600  27.403  1.00  0.00     0.158 HD
ATOM      7  H12 UNL     1       0.962   2.382  26.081  1.00  0.00     0.158 HD
HETATM    8  N2  UNL     1      -0.479   5.145  27.222  1.00  0.00    -0.361 N 
ATOM      9  H2  UNL     1      -1.343   4.805  27.645  1.00  0.00     0.162 HD
HETATM   10  C4  UNL     1      -0.068   6.498  27.416  1.00  0.00     0.157 C 
HETATM   11  C5  UNL     1       1.172   6.496  28.266  1.00  0.00     0.355 C 
HETATM   12  N3  UNL     1       0.798   5.953  29.569  1.00  0.00    -0.125 NA
HETATM   13  N4  UNL     1       1.752   6.443  30.439  1.00  0.00    -0.209 NA
HETATM   14  C6  UNL     1       1.089   6.756  31.687  1.00  0.00     0.134 C 
HETATM   15  C7  UNL     1       2.380   7.572  29.817  1.00  0.00     0.384 C 
HETATM   16  N5  UNL     1       1.676   7.801  28.544  1.00  0.00     0.127 N 
HETATM   17  C8  UNL     1       0.690   8.796  28.812  1.00  0.00     0.295 C 
HETATM   18  C9  UNL     1      -0.167   9.179  27.627  1.00  0.00     0.147 C 
HETATM   19  N6  UNL     1       0.249   8.664  26.380  1.00  0.00    -0.403 N 
HETATM   20  C14 UNL     1       0.080   7.272  26.142  1.00  0.00     0.119 C 
ENDROOT
BRANCH  19  21
HETATM   21  C10 UNL     1       0.036   9.515  25.261  1.00  0.00     0.122 C 
BRANCH  21  22
HETATM   22  C11 UNL     1      -0.551  10.854  25.511  1.00  0.00     0.003 A 
HETATM   23  C12 UNL     1      -0.403  12.023  24.611  1.00  0.00     0.007 A 
HETATM   24  C13 UNL     1      -1.707  11.262  24.635  1.00  0.00     0.007 A 
ENDBRANCH  21  22
ENDBRANCH  19  21
TORSDOF 2
ENDMDL
