MODEL 1
REMARK VINA RESULT: -8.238862322      0.000      0.000
REMARK  5 active torsions:
REMARK  status: ('A' for Active; 'I' for Inactive)
REMARK    1  A    between atoms: C4_4  and  C5_5 
REMARK    2  A    between atoms: C9_9  and  O1_10 
REMARK    3  A    between atoms: C13_15  and  O2_16 
REMARK    4  A    between atoms: N1_19  and  N2_21 
REMARK    5  A    between atoms: N2_21  and  C15_23 
ROOT
HETATM    1  C5  UNL     1       4.849  12.306  24.965  1.00  0.00     0.014 C 
HETATM    2  C6  UNL     1       5.599  11.437  24.333  1.00  0.00    -0.009 C 
HETATM    3  C7  UNL     1       6.997  11.653  24.078  1.00  0.00     0.012 C 
HETATM    4  C8  UNL     1       7.716  10.770  23.444  1.00  0.00     0.015 C 
HETATM    5  C9  UNL     1       7.169   9.506  22.947  1.00  0.00     0.112 C 
HETATM    6  C10 UNL     1       8.202   8.432  23.329  1.00  0.00     0.046 C 
HETATM    7  C11 UNL     1       7.833   8.186  24.770  1.00  0.00     0.007 C 
HETATM    8  C12 UNL     1       6.323   8.298  24.819  1.00  0.00     0.048 C 
HETATM    9  C13 UNL     1       5.902   9.039  23.573  1.00  0.00     0.136 C 
HETATM   10  C14 UNL     1       4.993  10.166  23.849  1.00  0.00     0.073 C 
HETATM   11  N1  UNL     1       3.739  10.151  23.714  1.00  0.00    -0.299 N 
ATOM     12  H1  UNL     1       3.252  11.015  23.950  1.00  0.00     0.186 HD
ENDROOT
BRANCH   9  13
HETATM   13  O2  UNL     1       5.262   8.171  22.689  1.00  0.00    -0.380 OA
ATOM     14  H2  UNL     1       5.712   7.334  22.705  1.00  0.00     0.211 HD
ENDBRANCH   9  13
BRANCH  11  15
HETATM   15  N2  UNL     1       2.951   9.109  23.287  1.00  0.00    -0.278 N 
ATOM     16  H2  UNL     1       2.846   8.971  22.281  1.00  0.00     0.189 HD
BRANCH  15  17
HETATM   17  C15 UNL     1       2.274   8.215  24.153  1.00  0.00     0.199 C 
HETATM   18  N3  UNL     1       2.876   6.992  24.547  1.00  0.00    -0.068 NA
HETATM   19  S1  UNL     1       0.783   8.536  24.738  1.00  0.00    -0.043 SA
ENDBRANCH  15  17
ENDBRANCH  11  15
BRANCH   1  20
HETATM   20  C4  UNL     1       5.333  13.573  25.478  1.00  0.00     0.003 C 
HETATM   21  C2  UNL     1       4.509  14.586  25.712  1.00  0.00    -0.088 C 
HETATM   22  C1  UNL     1       3.057  14.460  25.457  1.00  0.00     0.043 C 
HETATM   23  C3  UNL     1       5.050  15.854  26.233  1.00  0.00     0.043 C 
ENDBRANCH   1  20
BRANCH   5  24
HETATM   24  O1  UNL     1       7.071   9.596  21.555  1.00  0.00    -0.382 OA
ATOM     25  H1  UNL     1       7.733   9.029  21.177  1.00  0.00     0.211 HD
ENDBRANCH   5  24
TORSDOF 5
ENDMDL
MODEL 2
REMARK VINA RESULT: -7.976291721      1.909      2.325
REMARK  5 active torsions:
REMARK  status: ('A' for Active; 'I' for Inactive)
REMARK    1  A    between atoms: C4_4  and  C5_5 
REMARK    2  A    between atoms: C9_9  and  O1_10 
REMARK    3  A    between atoms: C13_15  and  O2_16 
REMARK    4  A    between atoms: N1_19  and  N2_21 
REMARK    5  A    between atoms: N2_21  and  C15_23 
ROOT
HETATM    1  C5  UNL     1       4.287  12.412  25.022  1.00  0.00     0.014 C 
HETATM    2  C6  UNL     1       4.420  11.265  24.401  1.00  0.00    -0.009 C 
HETATM    3  C7  UNL     1       5.679  10.799  23.886  1.00  0.00     0.012 C 
HETATM    4  C8  UNL     1       5.778   9.654  23.272  1.00  0.00     0.015 C 
HETATM    5  C9  UNL     1       4.637   8.763  23.058  1.00  0.00     0.112 C 
HETATM    6  C10 UNL     1       5.145   7.353  23.408  1.00  0.00     0.046 C 
HETATM    7  C11 UNL     1       5.024   7.375  24.910  1.00  0.00     0.007 C 
HETATM    8  C12 UNL     1       3.769   8.173  25.198  1.00  0.00     0.048 C 
HETATM    9  C13 UNL     1       3.462   8.963  23.949  1.00  0.00     0.136 C 
HETATM   10  C14 UNL     1       3.227  10.394  24.212  1.00  0.00     0.073 C 
HETATM   11  N1  UNL     1       2.099  10.953  24.294  1.00  0.00    -0.299 N 
ATOM     12  H1  UNL     1       2.107  11.955  24.484  1.00  0.00     0.186 HD
ENDROOT
BRANCH   9  13
HETATM   13  O2  UNL     1       2.331   8.447  23.317  1.00  0.00    -0.380 OA
ATOM     14  H2  UNL     1       1.763   9.169  23.073  1.00  0.00     0.211 HD
ENDBRANCH   9  13
BRANCH  11  15
HETATM   15  N2  UNL     1       0.860  10.373  24.158  1.00  0.00    -0.278 N 
ATOM     16  H2  UNL     1       0.487  10.261  23.215  1.00  0.00     0.189 HD
BRANCH  15  17
HETATM   17  C15 UNL     1       0.069   9.920  25.243  1.00  0.00     0.199 C 
HETATM   18  N3  UNL     1       0.076   8.554  25.625  1.00  0.00    -0.068 NA
HETATM   19  S1  UNL     1      -0.883  10.932  26.103  1.00  0.00    -0.043 SA
ENDBRANCH  15  17
ENDBRANCH  11  15
BRANCH   1  20
HETATM   20  C4  UNL     1       5.378  13.335  25.261  1.00  0.00     0.003 C 
HETATM   21  C2  UNL     1       5.162  14.552  25.743  1.00  0.00    -0.088 C 
HETATM   22  C1  UNL     1       3.793  15.014  26.058  1.00  0.00     0.043 C 
HETATM   23  C3  UNL     1       6.306  15.454  25.969  1.00  0.00     0.043 C 
ENDBRANCH   1  20
BRANCH   5  24
HETATM   24  O1  UNL     1       4.292   8.819  21.704  1.00  0.00    -0.382 OA
ATOM     25  H1  UNL     1       4.094   9.723  21.489  1.00  0.00     0.211 HD
ENDBRANCH   5  24
TORSDOF 5
ENDMDL
MODEL 3
REMARK VINA RESULT: -7.975120441      3.850      5.640
REMARK  5 active torsions:
REMARK  status: ('A' for Active; 'I' for Inactive)
REMARK    1  A    between atoms: C4_4  and  C5_5 
REMARK    2  A    between atoms: C9_9  and  O1_10 
REMARK    3  A    between atoms: C13_15  and  O2_16 
REMARK    4  A    between atoms: N1_19  and  N2_21 
REMARK    5  A    between atoms: N2_21  and  C15_23 
ROOT
HETATM    1  C5  UNL     1       3.114  12.017  24.605  1.00  0.00     0.014 C 
HETATM    2  C6  UNL     1       2.399  10.939  24.819  1.00  0.00    -0.009 C 
HETATM    3  C7  UNL     1       2.984   9.668  25.151  1.00  0.00     0.012 C 
HETATM    4  C8  UNL     1       2.245   8.614  25.355  1.00  0.00     0.015 C 
HETATM    5  C9  UNL     1       0.784   8.635  25.265  1.00  0.00     0.112 C 
HETATM    6  C10 UNL     1       0.285   7.847  26.488  1.00  0.00     0.046 C 
HETATM    7  C11 UNL     1       0.373   8.904  27.559  1.00  0.00     0.007 C 
HETATM    8  C12 UNL     1      -0.018  10.199  26.876  1.00  0.00     0.048 C 
HETATM    9  C13 UNL     1       0.130   9.966  25.391  1.00  0.00     0.136 C 
HETATM   10  C14 UNL     1       0.915  11.016  24.716  1.00  0.00     0.073 C 
HETATM   11  N1  UNL     1       0.442  11.981  24.057  1.00  0.00    -0.299 N 
ATOM     12  H1  UNL     1       1.122  12.624  23.652  1.00  0.00     0.186 HD
ENDROOT
BRANCH   9  13
HETATM   13  O2  UNL     1      -1.125   9.906  24.785  1.00  0.00    -0.380 OA
ATOM     14  H2  UNL     1      -1.664  10.606  25.134  1.00  0.00     0.211 HD
ENDBRANCH   9  13
BRANCH  11  15
HETATM   15  N2  UNL     1      -0.881  12.269  23.818  1.00  0.00    -0.278 N 
ATOM     16  H2  UNL     1      -1.562  12.019  24.536  1.00  0.00     0.189 HD
BRANCH  15  17
HETATM   17  C15 UNL     1      -1.361  12.890  22.638  1.00  0.00     0.199 C 
HETATM   18  N3  UNL     1      -2.732  13.229  22.503  1.00  0.00    -0.068 NA
HETATM   19  S1  UNL     1      -0.376  13.246  21.384  1.00  0.00    -0.043 SA
ENDBRANCH  15  17
ENDBRANCH  11  15
BRANCH   1  20
HETATM   20  C4  UNL     1       4.561  12.056  24.679  1.00  0.00     0.003 C 
HETATM   21  C2  UNL     1       5.202  13.122  25.140  1.00  0.00    -0.088 C 
HETATM   22  C1  UNL     1       4.460  14.316  25.601  1.00  0.00     0.043 C 
HETATM   23  C3  UNL     1       6.675  13.113  25.195  1.00  0.00     0.043 C 
ENDBRANCH   1  20
BRANCH   5  24
HETATM   24  O1  UNL     1       0.414   7.972  24.091  1.00  0.00    -0.382 OA
ATOM     25  H1  UNL     1      -0.466   7.634  24.210  1.00  0.00     0.211 HD
ENDBRANCH   5  24
TORSDOF 5
ENDMDL
MODEL 4
REMARK VINA RESULT: -7.915209095      2.993      4.112
REMARK  5 active torsions:
REMARK  status: ('A' for Active; 'I' for Inactive)
REMARK    1  A    between atoms: C4_4  and  C5_5 
REMARK    2  A    between atoms: C9_9  and  O1_10 
REMARK    3  A    between atoms: C13_15  and  O2_16 
REMARK    4  A    between atoms: N1_19  and  N2_21 
REMARK    5  A    between atoms: N2_21  and  C15_23 
ROOT
HETATM    1  C5  UNL     1       3.840  12.920  25.072  1.00  0.00     0.014 C 
HETATM    2  C6  UNL     1       3.600  11.645  24.890  1.00  0.00    -0.009 C 
HETATM    3  C7  UNL     1       4.642  10.657  24.823  1.00  0.00     0.012 C 
HETATM    4  C8  UNL     1       4.371   9.395  24.640  1.00  0.00     0.015 C 
HETATM    5  C9  UNL     1       3.006   8.888  24.489  1.00  0.00     0.112 C 
HETATM    6  C10 UNL     1       2.937   7.626  25.367  1.00  0.00     0.046 C 
HETATM    7  C11 UNL     1       2.708   8.240  26.725  1.00  0.00     0.007 C 
HETATM    8  C12 UNL     1       1.808   9.433  26.477  1.00  0.00     0.048 C 
HETATM    9  C13 UNL     1       1.913   9.757  25.006  1.00  0.00     0.136 C 
HETATM   10  C14 UNL     1       2.193  11.181  24.745  1.00  0.00     0.073 C 
HETATM   11  N1  UNL     1       1.341  12.049  24.410  1.00  0.00    -0.299 N 
ATOM     12  H1  UNL     1       1.696  12.994  24.268  1.00  0.00     0.186 HD
ENDROOT
BRANCH   9  13
HETATM   13  O2  UNL     1       0.729   9.420  24.352  1.00  0.00    -0.380 OA
ATOM     14  H2  UNL     1       0.945   9.033  23.512  1.00  0.00     0.211 HD
ENDBRANCH   9  13
BRANCH  11  15
HETATM   15  N2  UNL     1      -0.008  11.873  24.211  1.00  0.00    -0.278 N 
ATOM     16  H2  UNL     1      -0.531  11.357  24.919  1.00  0.00     0.189 HD
BRANCH  15  17
HETATM   17  C15 UNL     1      -0.718  12.361  23.087  1.00  0.00     0.199 C 
HETATM   18  N3  UNL     1      -2.108  12.115  22.944  1.00  0.00    -0.068 NA
HETATM   19  S1  UNL     1       0.013  13.222  21.907  1.00  0.00    -0.043 SA
ENDBRANCH  15  17
ENDBRANCH  11  15
BRANCH   1  20
HETATM   20  C4  UNL     1       5.169  13.481  25.225  1.00  0.00     0.003 C 
HETATM   21  C2  UNL     1       5.360  14.661  25.799  1.00  0.00    -0.088 C 
HETATM   22  C1  UNL     1       4.219  15.454  26.308  1.00  0.00     0.043 C 
HETATM   23  C3  UNL     1       6.730  15.188  25.931  1.00  0.00     0.043 C 
ENDBRANCH   1  20
BRANCH   5  24
HETATM   24  O1  UNL     1       2.819   8.542  23.147  1.00  0.00    -0.382 OA
ATOM     25  H1  UNL     1       3.456   7.873  22.925  1.00  0.00     0.211 HD
ENDBRANCH   5  24
TORSDOF 5
ENDMDL
MODEL 5
REMARK VINA RESULT: -7.890456774      2.288      3.058
REMARK  5 active torsions:
REMARK  status: ('A' for Active; 'I' for Inactive)
REMARK    1  A    between atoms: C4_4  and  C5_5 
REMARK    2  A    between atoms: C9_9  and  O1_10 
REMARK    3  A    between atoms: C13_15  and  O2_16 
REMARK    4  A    between atoms: N1_19  and  N2_21 
REMARK    5  A    between atoms: N2_21  and  C15_23 
ROOT
HETATM    1  C5  UNL     1       5.452  12.657  24.876  1.00  0.00     0.014 C 
HETATM    2  C6  UNL     1       5.255  11.507  24.279  1.00  0.00    -0.009 C 
HETATM    3  C7  UNL     1       6.327  10.712  23.745  1.00  0.00     0.012 C 
HETATM    4  C8  UNL     1       6.097   9.573  23.155  1.00  0.00     0.015 C 
HETATM    5  C9  UNL     1       4.753   9.017  22.990  1.00  0.00     0.112 C 
HETATM    6  C10 UNL     1       4.875   7.529  23.360  1.00  0.00     0.046 C 
HETATM    7  C11 UNL     1       4.809   7.606  24.864  1.00  0.00     0.007 C 
HETATM    8  C12 UNL     1       3.823   8.716  25.163  1.00  0.00     0.048 C 
HETATM    9  C13 UNL     1       3.702   9.540  23.904  1.00  0.00     0.136 C 
HETATM   10  C14 UNL     1       3.867  10.986  24.140  1.00  0.00     0.073 C 
HETATM   11  N1  UNL     1       2.933  11.828  24.236  1.00  0.00    -0.299 N 
ATOM     12  H1  UNL     1       3.215  12.794  24.403  1.00  0.00     0.186 HD
ENDROOT
BRANCH   9  13
HETATM   13  O2  UNL     1       2.455   9.336  23.313  1.00  0.00    -0.380 OA
ATOM     14  H2  UNL     1       1.800   9.806  23.816  1.00  0.00     0.211 HD
ENDBRANCH   9  13
BRANCH  11  15
HETATM   15  N2  UNL     1       1.580  11.599  24.144  1.00  0.00    -0.278 N 
ATOM     16  H2  UNL     1       1.266  10.636  24.024  1.00  0.00     0.189 HD
BRANCH  15  17
HETATM   17  C15 UNL     1       0.595  12.616  24.204  1.00  0.00     0.199 C 
HETATM   18  N3  UNL     1       0.960  13.966  24.446  1.00  0.00    -0.068 NA
HETATM   19  S1  UNL     1      -0.994  12.297  24.001  1.00  0.00    -0.043 SA
ENDBRANCH  15  17
ENDBRANCH  11  15
BRANCH   1  20
HETATM   20  C4  UNL     1       6.758  13.257  25.067  1.00  0.00     0.003 C 
HETATM   21  C2  UNL     1       6.893  14.465  25.599  1.00  0.00    -0.088 C 
HETATM   22  C1  UNL     1       5.711  15.248  26.021  1.00  0.00     0.043 C 
HETATM   23  C3  UNL     1       8.242  15.032  25.772  1.00  0.00     0.043 C 
ENDBRANCH   1  20
BRANCH   5  24
HETATM   24  O1  UNL     1       4.396   9.143  21.644  1.00  0.00    -0.382 OA
ATOM     25  H1  UNL     1       3.782   9.864  21.569  1.00  0.00     0.211 HD
ENDBRANCH   5  24
TORSDOF 5
ENDMDL
