MODEL 1
REMARK VINA RESULT: -8.431757912      0.000      0.000
REMARK  5 active torsions:
REMARK  status: ('A' for Active; 'I' for Inactive)
REMARK    1  A    between atoms: N3_9  and  N4_10 
REMARK    2  A    between atoms: N4_10  and  C4_12 
REMARK    3  A    between atoms: C4_12  and  N5_14 
REMARK    4  A    between atoms: N5_14  and  N6_16 
REMARK       I    between atoms: N6_16  and  C5_18 
REMARK    5  A    between atoms: C5_18  and  C6_20 
ROOT
HETATM    1  C4  UNL     1       1.669  10.787  24.071  1.00  0.00     0.206 C 
HETATM    2  S2  UNL     1       1.745   9.274  24.590  1.00  0.00    -0.038 SA
ENDROOT
BRANCH   1   3
HETATM    3  N4  UNL     1       0.653  11.690  24.240  1.00  0.00    -0.265 N 
ATOM      4  H4  UNL     1       0.748  12.172  25.134  1.00  0.00     0.190 HD
BRANCH   3   5
HETATM    5  N3  UNL     1      -0.457  12.142  23.567  1.00  0.00    -0.213 N 
HETATM    6  C2  UNL     1      -0.718  12.755  22.421  1.00  0.00     0.117 A 
HETATM    7  C1  UNL     1       0.264  13.326  21.472  1.00  0.00     0.092 C 
HETATM    8  N1  UNL     1      -2.077  12.846  22.250  1.00  0.00    -0.285 N 
HETATM    9  N2  UNL     1      -2.674  12.304  23.269  1.00  0.00    -0.273 N 
ATOM     10  H1  UNL     1      -2.543  13.271  21.450  1.00  0.00     0.188 HD
HETATM   11  C3  UNL     1      -1.715  11.868  24.083  1.00  0.00     0.213 A 
ATOM     12  H2  UNL     1      -3.681  12.227  23.416  1.00  0.00     0.189 HD
HETATM   13  S1  UNL     1      -2.054  11.112  25.495  1.00  0.00    -0.037 SA
ENDBRANCH   3   5
ENDBRANCH   1   3
BRANCH   1  14
HETATM   14  N5  UNL     1       2.887  11.230  23.378  1.00  0.00    -0.272 N 
ATOM     15  H5  UNL     1       2.960  11.196  22.361  1.00  0.00     0.189 HD
BRANCH  14  16
HETATM   16  N6  UNL     1       3.932  11.694  24.159  1.00  0.00    -0.268 N 
HETATM   17  C5  UNL     1       3.885  12.887  24.915  1.00  0.00     0.240 C 
HETATM   18  O1  UNL     1       2.822  13.571  24.873  1.00  0.00    -0.271 OA
ATOM     19  H6  UNL     1       4.789  11.141  24.191  1.00  0.00     0.190 HD
BRANCH  17  20
HETATM   20  C6  UNL     1       5.008  13.374  25.749  1.00  0.00     0.079 C 
HETATM   21  C7  UNL     1       4.899  14.852  25.901  1.00  0.00     0.014 C 
HETATM   22  C8  UNL     1       6.125  15.375  26.607  1.00  0.00     0.001 C 
HETATM   23  C9  UNL     1       7.305  15.120  25.701  1.00  0.00     0.000 C 
HETATM   24  C10 UNL     1       7.500  13.659  25.482  1.00  0.00     0.001 C 
HETATM   25  C11 UNL     1       6.280  12.896  25.113  1.00  0.00     0.014 C 
ENDBRANCH  17  20
ENDBRANCH  14  16
ENDBRANCH   1  14
TORSDOF 5
ENDMDL
MODEL 2
REMARK VINA RESULT: -8.295021600      1.043      1.510
REMARK  5 active torsions:
REMARK  status: ('A' for Active; 'I' for Inactive)
REMARK    1  A    between atoms: N3_9  and  N4_10 
REMARK    2  A    between atoms: N4_10  and  C4_12 
REMARK    3  A    between atoms: C4_12  and  N5_14 
REMARK    4  A    between atoms: N5_14  and  N6_16 
REMARK       I    between atoms: N6_16  and  C5_18 
REMARK    5  A    between atoms: C5_18  and  C6_20 
ROOT
HETATM    1  C4  UNL     1       1.647  10.472  24.197  1.00  0.00     0.206 C 
HETATM    2  S2  UNL     1       1.213   8.958  24.483  1.00  0.00    -0.038 SA
ENDROOT
BRANCH   1   3
HETATM    3  N4  UNL     1       0.868  11.599  24.242  1.00  0.00    -0.265 N 
ATOM      4  H4  UNL     1       1.278  12.291  24.870  1.00  0.00     0.190 HD
BRANCH   3   5
HETATM    5  N3  UNL     1      -0.299  12.077  23.697  1.00  0.00    -0.213 N 
HETATM    6  C2  UNL     1      -0.674  12.690  22.584  1.00  0.00     0.117 A 
HETATM    7  C1  UNL     1       0.208  13.229  21.523  1.00  0.00     0.092 C 
HETATM    8  N1  UNL     1      -2.039  12.817  22.568  1.00  0.00    -0.285 N 
HETATM    9  N2  UNL     1      -2.531  12.297  23.653  1.00  0.00    -0.273 N 
ATOM     10  H1  UNL     1      -2.583  13.251  21.822  1.00  0.00     0.188 HD
HETATM   11  C3  UNL     1      -1.496  11.841  24.356  1.00  0.00     0.213 A 
ATOM     12  H2  UNL     1      -3.516  12.249  23.915  1.00  0.00     0.189 HD
HETATM   13  S1  UNL     1      -1.691  11.102  25.804  1.00  0.00    -0.037 SA
ENDBRANCH   3   5
ENDBRANCH   1   3
BRANCH   1  14
HETATM   14  N5  UNL     1       3.079  10.626  23.906  1.00  0.00    -0.272 N 
ATOM     15  H5  UNL     1       3.634   9.848  23.549  1.00  0.00     0.189 HD
BRANCH  14  16
HETATM   16  N6  UNL     1       3.647  11.869  24.136  1.00  0.00    -0.268 N 
HETATM   17  C5  UNL     1       4.947  12.060  24.654  1.00  0.00     0.240 C 
HETATM   18  O1  UNL     1       5.632  11.032  24.924  1.00  0.00    -0.271 OA
ATOM     19  H6  UNL     1       3.092  12.696  23.918  1.00  0.00     0.190 HD
BRANCH  17  20
HETATM   20  C6  UNL     1       5.546  13.393  24.895  1.00  0.00     0.079 C 
HETATM   21  C7  UNL     1       6.848  13.224  25.596  1.00  0.00     0.014 C 
HETATM   22  C8  UNL     1       7.384  14.578  25.991  1.00  0.00     0.001 C 
HETATM   23  C9  UNL     1       6.424  15.162  26.999  1.00  0.00     0.000 C 
HETATM   24  C10 UNL     1       5.079  15.369  26.391  1.00  0.00     0.001 C 
HETATM   25  C11 UNL     1       4.531  14.214  25.634  1.00  0.00     0.014 C 
ENDBRANCH  17  20
ENDBRANCH  14  16
ENDBRANCH   1  14
TORSDOF 5
ENDMDL
MODEL 3
REMARK VINA RESULT: -8.078049249      2.423      3.146
REMARK  5 active torsions:
REMARK  status: ('A' for Active; 'I' for Inactive)
REMARK    1  A    between atoms: N3_9  and  N4_10 
REMARK    2  A    between atoms: N4_10  and  C4_12 
REMARK    3  A    between atoms: C4_12  and  N5_14 
REMARK    4  A    between atoms: N5_14  and  N6_16 
REMARK       I    between atoms: N6_16  and  C5_18 
REMARK    5  A    between atoms: C5_18  and  C6_20 
ROOT
HETATM    1  C4  UNL     1       1.872   9.550  24.239  1.00  0.00     0.206 C 
HETATM    2  S2  UNL     1       3.027   8.443  24.163  1.00  0.00    -0.038 SA
ENDROOT
BRANCH   1   3
HETATM    3  N4  UNL     1       0.617   9.429  24.776  1.00  0.00    -0.265 N 
ATOM      4  H4  UNL     1       0.046   8.802  24.210  1.00  0.00     0.190 HD
BRANCH   3   5
HETATM    5  N3  UNL     1      -0.103   9.898  25.848  1.00  0.00    -0.213 N 
HETATM    6  C2  UNL     1      -0.133   9.707  27.159  1.00  0.00     0.117 A 
HETATM    7  C1  UNL     1       0.617   8.688  27.929  1.00  0.00     0.092 C 
HETATM    8  N1  UNL     1      -1.031  10.574  27.728  1.00  0.00    -0.285 N 
HETATM    9  N2  UNL     1      -1.569  11.306  26.798  1.00  0.00    -0.273 N 
ATOM     10  H1  UNL     1      -1.244  10.635  28.723  1.00  0.00     0.188 HD
HETATM   11  C3  UNL     1      -1.023  10.916  25.647  1.00  0.00     0.213 A 
ATOM     12  H2  UNL     1      -2.271  12.034  26.924  1.00  0.00     0.189 HD
HETATM   13  S1  UNL     1      -1.433  11.601  24.217  1.00  0.00    -0.037 SA
ENDBRANCH   3   5
ENDBRANCH   1   3
BRANCH   1  14
HETATM   14  N5  UNL     1       2.275  10.855  23.697  1.00  0.00    -0.272 N 
ATOM     15  H5  UNL     1       2.243  11.046  22.696  1.00  0.00     0.189 HD
BRANCH  14  16
HETATM   16  N6  UNL     1       2.702  11.816  24.599  1.00  0.00    -0.268 N 
HETATM   17  C5  UNL     1       4.048  12.221  24.746  1.00  0.00     0.240 C 
HETATM   18  O1  UNL     1       4.914  11.670  24.006  1.00  0.00    -0.271 OA
ATOM     19  H6  UNL     1       2.002  12.258  25.195  1.00  0.00     0.190 HD
BRANCH  17  20
HETATM   20  C6  UNL     1       4.493  13.251  25.712  1.00  0.00     0.079 C 
HETATM   21  C7  UNL     1       3.581  14.425  25.630  1.00  0.00     0.014 C 
HETATM   22  C8  UNL     1       4.122  15.541  26.489  1.00  0.00     0.001 C 
HETATM   23  C9  UNL     1       5.435  15.973  25.883  1.00  0.00     0.000 C 
HETATM   24  C10 UNL     1       6.425  14.859  25.915  1.00  0.00     0.001 C 
HETATM   25  C11 UNL     1       5.934  13.548  25.418  1.00  0.00     0.014 C 
ENDBRANCH  17  20
ENDBRANCH  14  16
ENDBRANCH   1  14
TORSDOF 5
ENDMDL
MODEL 4
REMARK VINA RESULT: -7.989933631      2.346      2.770
REMARK  5 active torsions:
REMARK  status: ('A' for Active; 'I' for Inactive)
REMARK    1  A    between atoms: N3_9  and  N4_10 
REMARK    2  A    between atoms: N4_10  and  C4_12 
REMARK    3  A    between atoms: C4_12  and  N5_14 
REMARK    4  A    between atoms: N5_14  and  N6_16 
REMARK       I    between atoms: N6_16  and  C5_18 
REMARK    5  A    between atoms: C5_18  and  C6_20 
ROOT
HETATM    1  C4  UNL     1       1.933   9.523  24.249  1.00  0.00     0.206 C 
HETATM    2  S2  UNL     1       3.089   8.432  24.060  1.00  0.00    -0.038 SA
ENDROOT
BRANCH   1   3
HETATM    3  N4  UNL     1       0.724   9.376  24.877  1.00  0.00    -0.265 N 
ATOM      4  H4  UNL     1       0.332   8.454  24.684  1.00  0.00     0.190 HD
BRANCH   3   5
HETATM    5  N3  UNL     1      -0.120  10.095  25.688  1.00  0.00    -0.213 N 
HETATM    6  C2  UNL     1      -1.061  11.017  25.540  1.00  0.00     0.117 A 
HETATM    7  C1  UNL     1      -1.423  11.729  24.293  1.00  0.00     0.092 C 
HETATM    8  N1  UNL     1      -1.641  11.278  26.755  1.00  0.00    -0.285 N 
HETATM    9  N2  UNL     1      -1.081  10.539  27.666  1.00  0.00    -0.273 N 
ATOM     10  H1  UNL     1      -2.394  11.946  26.918  1.00  0.00     0.188 HD
HETATM   11  C3  UNL     1      -0.154   9.811  27.045  1.00  0.00     0.213 A 
ATOM     12  H2  UNL     1      -1.306  10.520  28.660  1.00  0.00     0.189 HD
HETATM   13  S1  UNL     1       0.785   8.736  27.847  1.00  0.00    -0.037 SA
ENDBRANCH   3   5
ENDBRANCH   1   3
BRANCH   1  14
HETATM   14  N5  UNL     1       2.282  10.846  23.711  1.00  0.00    -0.272 N 
ATOM     15  H5  UNL     1       2.214  11.046  22.713  1.00  0.00     0.189 HD
BRANCH  14  16
HETATM   16  N6  UNL     1       2.707  11.809  24.610  1.00  0.00    -0.268 N 
HETATM   17  C5  UNL     1       4.052  12.218  24.755  1.00  0.00     0.240 C 
HETATM   18  O1  UNL     1       4.918  11.668  24.016  1.00  0.00    -0.271 OA
ATOM     19  H6  UNL     1       2.006  12.251  25.206  1.00  0.00     0.190 HD
BRANCH  17  20
HETATM   20  C6  UNL     1       4.496  13.251  25.719  1.00  0.00     0.079 C 
HETATM   21  C7  UNL     1       3.581  14.423  25.634  1.00  0.00     0.014 C 
HETATM   22  C8  UNL     1       4.120  15.542  26.490  1.00  0.00     0.001 C 
HETATM   23  C9  UNL     1       5.433  15.975  25.883  1.00  0.00     0.000 C 
HETATM   24  C10 UNL     1       6.425  14.863  25.918  1.00  0.00     0.001 C 
HETATM   25  C11 UNL     1       5.936  13.551  25.424  1.00  0.00     0.014 C 
ENDBRANCH  17  20
ENDBRANCH  14  16
ENDBRANCH   1  14
TORSDOF 5
ENDMDL
MODEL 5
REMARK VINA RESULT: -7.964867782      1.571      2.347
REMARK  5 active torsions:
REMARK  status: ('A' for Active; 'I' for Inactive)
REMARK    1  A    between atoms: N3_9  and  N4_10 
REMARK    2  A    between atoms: N4_10  and  C4_12 
REMARK    3  A    between atoms: C4_12  and  N5_14 
REMARK    4  A    between atoms: N5_14  and  N6_16 
REMARK       I    between atoms: N6_16  and  C5_18 
REMARK    5  A    between atoms: C5_18  and  C6_20 
ROOT
HETATM    1  C4  UNL     1       1.571  10.547  24.159  1.00  0.00     0.206 C 
HETATM    2  S2  UNL     1       1.147   9.077  24.631  1.00  0.00    -0.038 SA
ENDROOT
BRANCH   1   3
HETATM    3  N4  UNL     1       0.780  11.658  24.038  1.00  0.00    -0.265 N 
ATOM      4  H4  UNL     1       1.333  12.506  24.168  1.00  0.00     0.190 HD
BRANCH   3   5
HETATM    5  N3  UNL     1      -0.534  11.977  23.796  1.00  0.00    -0.213 N 
HETATM    6  C2  UNL     1      -1.699  11.838  24.413  1.00  0.00     0.117 A 
HETATM    7  C1  UNL     1      -1.966  11.072  25.652  1.00  0.00     0.092 C 
HETATM    8  N1  UNL     1      -2.677  12.477  23.693  1.00  0.00    -0.285 N 
HETATM    9  N2  UNL     1      -2.149  13.011  22.633  1.00  0.00    -0.273 N 
ATOM     10  H1  UNL     1      -3.663  12.524  23.950  1.00  0.00     0.188 HD
HETATM   11  C3  UNL     1      -0.849  12.723  22.671  1.00  0.00     0.213 A 
ATOM     12  H2  UNL     1      -2.635  13.546  21.913  1.00  0.00     0.189 HD
HETATM   13  S1  UNL     1       0.184  13.225  21.504  1.00  0.00    -0.037 SA
ENDBRANCH   3   5
ENDBRANCH   1   3
BRANCH   1  14
HETATM   14  N5  UNL     1       3.009  10.681  23.883  1.00  0.00    -0.272 N 
ATOM     15  H5  UNL     1       3.557   9.895  23.533  1.00  0.00     0.189 HD
BRANCH  14  16
HETATM   16  N6  UNL     1       3.591  11.916  24.116  1.00  0.00    -0.268 N 
HETATM   17  C5  UNL     1       4.884  12.091  24.658  1.00  0.00     0.240 C 
HETATM   18  O1  UNL     1       5.548  11.054  24.947  1.00  0.00    -0.271 OA
ATOM     19  H6  UNL     1       3.053  12.750  23.883  1.00  0.00     0.190 HD
BRANCH  17  20
HETATM   20  C6  UNL     1       5.498  13.417  24.902  1.00  0.00     0.079 C 
HETATM   21  C7  UNL     1       6.806  13.229  25.590  1.00  0.00     0.014 C 
HETATM   22  C8  UNL     1       7.359  14.575  25.989  1.00  0.00     0.001 C 
HETATM   23  C9  UNL     1       6.414  15.160  27.010  1.00  0.00     0.000 C 
HETATM   24  C10 UNL     1       5.065  15.385  26.418  1.00  0.00     0.001 C 
HETATM   25  C11 UNL     1       4.499  14.242  25.658  1.00  0.00     0.014 C 
ENDBRANCH  17  20
ENDBRANCH  14  16
ENDBRANCH   1  14
TORSDOF 5
ENDMDL
