MODEL 1
REMARK VINA RESULT: -9.059107120      0.000      0.000
REMARK  4 active torsions:
REMARK  status: ('A' for Active; 'I' for Inactive)
REMARK    1  A    between atoms: C8_9  and  O2_10 
REMARK    2  A    between atoms: C13_16  and  C14_17 
REMARK    3  A    between atoms: C14_17  and  O3_18 
REMARK    4  A    between atoms: O3_18  and  C15_19 
ROOT
HETATM    1  C1  UNL     1       5.372  14.509  24.885  1.00  0.00     0.025 C 
HETATM    2  C2  UNL     1       5.177  13.234  24.498  1.00  0.00     0.011 C 
HETATM    3  C3  UNL     1       6.266  12.464  23.914  1.00  0.00     0.157 C 
HETATM    4  O1  UNL     1       7.379  12.493  24.556  1.00  0.00    -0.293 OA
HETATM    5  C4  UNL     1       6.250  11.665  22.691  1.00  0.00     0.095 C 
HETATM    6  C5  UNL     1       6.422  10.175  22.861  1.00  0.00    -0.011 C 
HETATM    7  C6  UNL     1       7.570   9.795  21.892  1.00  0.00     0.018 C 
HETATM    8  C7  UNL     1       7.005   9.776  24.202  1.00  0.00     0.018 C 
HETATM    9  C8  UNL     1       5.182   9.480  22.466  1.00  0.00     0.148 C 
HETATM   10  C9  UNL     1       4.420   8.670  23.410  1.00  0.00     0.003 C 
HETATM   11  C10 UNL     1       3.782   9.148  24.602  1.00  0.00     0.009 C 
HETATM   12  C11 UNL     1       3.164  10.461  24.717  1.00  0.00     0.281 A 
HETATM   13  C12 UNL     1       2.340  11.166  23.718  1.00  0.00     0.268 A 
HETATM   14  C13 UNL     1       1.607  12.431  24.119  1.00  0.00     0.048 C 
HETATM   15  C17 UNL     1       2.690  13.523  24.238  1.00  0.00     0.050 C 
HETATM   16  C18 UNL     1       3.831  12.674  24.707  1.00  0.00     0.260 C 
HETATM   17  N1  UNL     1       3.692  11.510  23.920  1.00  0.00     0.115 N 
ENDROOT
BRANCH  14  18
HETATM   18  C14 UNL     1       0.721  12.844  22.988  1.00  0.00     0.185 C 
BRANCH  18  19
HETATM   19  O3  UNL     1      -0.586  13.055  23.426  1.00  0.00    -0.321 OA
BRANCH  19  20
HETATM   20  C15 UNL     1      -1.558  12.101  23.261  1.00  0.00     0.254 C 
HETATM   21  C16 UNL     1      -1.702  11.015  24.292  1.00  0.00     0.126 C 
HETATM   22  O4  UNL     1      -2.360  12.051  22.304  1.00  0.00    -0.266 OA
ENDBRANCH  19  20
ENDBRANCH  18  19
ENDBRANCH  14  18
BRANCH   9  23
HETATM   23  O2  UNL     1       5.521   8.544  21.439  1.00  0.00    -0.391 OA
ATOM     24  H2  UNL     1       4.806   7.922  21.372  1.00  0.00     0.210 HD
ENDBRANCH   9  23
TORSDOF 4
ENDMDL
MODEL 2
REMARK VINA RESULT: -8.098228095      2.607      5.912
REMARK  4 active torsions:
REMARK  status: ('A' for Active; 'I' for Inactive)
REMARK    1  A    between atoms: C8_9  and  O2_10 
REMARK    2  A    between atoms: C13_16  and  C14_17 
REMARK    3  A    between atoms: C14_17  and  O3_18 
REMARK    4  A    between atoms: O3_18  and  C15_19 
ROOT
HETATM    1  C1  UNL     1      -0.102  12.647  24.091  1.00  0.00     0.025 C 
HETATM    2  C2  UNL     1       0.606  11.528  24.338  1.00  0.00     0.011 C 
HETATM    3  C3  UNL     1       0.016  10.430  25.090  1.00  0.00     0.157 C 
HETATM    4  O1  UNL     1      -1.153  10.056  24.708  1.00  0.00    -0.293 OA
HETATM    5  C4  UNL     1       0.585   9.705  26.223  1.00  0.00     0.095 C 
HETATM    6  C5  UNL     1       0.908   8.248  25.992  1.00  0.00    -0.011 C 
HETATM    7  C6  UNL     1       0.215   7.499  27.159  1.00  0.00     0.018 C 
HETATM    8  C7  UNL     1       0.212   7.651  24.786  1.00  0.00     0.018 C 
HETATM    9  C8  UNL     1       2.366   8.042  26.061  1.00  0.00     0.148 C 
HETATM   10  C9  UNL     1       3.127   7.541  24.921  1.00  0.00     0.003 C 
HETATM   11  C10 UNL     1       3.271   8.199  23.655  1.00  0.00     0.009 C 
HETATM   12  C11 UNL     1       3.352   9.644  23.499  1.00  0.00     0.281 A 
HETATM   13  C12 UNL     1       4.083  10.607  24.341  1.00  0.00     0.268 A 
HETATM   14  C13 UNL     1       4.220  12.045  23.879  1.00  0.00     0.048 C 
HETATM   15  C17 UNL     1       2.828  12.682  24.072  1.00  0.00     0.050 C 
HETATM   16  C18 UNL     1       1.979  11.478  23.804  1.00  0.00     0.260 C 
HETATM   17  N1  UNL     1       2.687  10.449  24.461  1.00  0.00     0.115 N 
ENDROOT
BRANCH  14  18
HETATM   18  C14 UNL     1       5.139  12.759  24.817  1.00  0.00     0.185 C 
BRANCH  18  19
HETATM   19  O3  UNL     1       5.396  14.057  24.376  1.00  0.00    -0.321 OA
BRANCH  19  20
HETATM   20  C15 UNL     1       5.670  15.071  25.259  1.00  0.00     0.254 C 
HETATM   21  C16 UNL     1       4.565  16.005  25.671  1.00  0.00     0.126 C 
HETATM   22  O4  UNL     1       6.789  15.296  25.768  1.00  0.00    -0.266 OA
ENDBRANCH  19  20
ENDBRANCH  18  19
ENDBRANCH  14  18
BRANCH   9  23
HETATM   23  O2  UNL     1       2.616   7.060  27.070  1.00  0.00    -0.391 OA
ATOM     24  H2  UNL     1       1.781   6.672  27.306  1.00  0.00     0.210 HD
ENDBRANCH   9  23
TORSDOF 4
ENDMDL
MODEL 3
REMARK VINA RESULT: -7.992307135      2.013      3.070
REMARK  4 active torsions:
REMARK  status: ('A' for Active; 'I' for Inactive)
REMARK    1  A    between atoms: C8_9  and  O2_10 
REMARK    2  A    between atoms: C13_16  and  C14_17 
REMARK    3  A    between atoms: C14_17  and  O3_18 
REMARK    4  A    between atoms: O3_18  and  C15_19 
ROOT
HETATM    1  C1  UNL     1       5.838  11.400  23.806  1.00  0.00     0.025 C 
HETATM    2  C2  UNL     1       4.804  10.538  23.858  1.00  0.00     0.011 C 
HETATM    3  C3  UNL     1       4.957   9.170  23.382  1.00  0.00     0.157 C 
HETATM    4  O1  UNL     1       5.991   8.540  23.815  1.00  0.00    -0.293 OA
HETATM    5  C4  UNL     1       4.084   8.429  22.476  1.00  0.00     0.095 C 
HETATM    6  C5  UNL     1       3.363   7.240  23.064  1.00  0.00    -0.011 C 
HETATM    7  C6  UNL     1       3.676   6.069  22.098  1.00  0.00     0.018 C 
HETATM    8  C7  UNL     1       3.964   6.740  24.361  1.00  0.00     0.018 C 
HETATM    9  C8  UNL     1       1.911   7.497  23.085  1.00  0.00     0.148 C 
HETATM   10  C9  UNL     1       1.153   7.532  24.331  1.00  0.00     0.003 C 
HETATM   11  C10 UNL     1       1.343   8.468  25.401  1.00  0.00     0.009 C 
HETATM   12  C11 UNL     1       1.718   9.860  25.201  1.00  0.00     0.281 A 
HETATM   13  C12 UNL     1       1.230  10.791  24.168  1.00  0.00     0.268 A 
HETATM   14  C13 UNL     1       1.581  12.263  24.268  1.00  0.00     0.048 C 
HETATM   15  C17 UNL     1       3.073  12.365  23.890  1.00  0.00     0.050 C 
HETATM   16  C18 UNL     1       3.542  11.046  24.422  1.00  0.00     0.260 C 
HETATM   17  N1  UNL     1       2.493  10.175  24.055  1.00  0.00     0.115 N 
ENDROOT
BRANCH  14  18
HETATM   18  C14 UNL     1       0.830  13.003  23.207  1.00  0.00     0.185 C 
BRANCH  18  19
HETATM   19  O3  UNL     1      -0.541  12.985  23.459  1.00  0.00    -0.321 OA
BRANCH  19  20
HETATM   20  C15 UNL     1      -1.440  12.595  22.499  1.00  0.00     0.254 C 
HETATM   21  C16 UNL     1      -1.336  13.178  21.116  1.00  0.00     0.126 C 
HETATM   22  O4  UNL     1      -2.366  11.774  22.674  1.00  0.00    -0.266 OA
ENDBRANCH  19  20
ENDBRANCH  18  19
ENDBRANCH  14  18
BRANCH   9  23
HETATM   23  O2  UNL     1       1.276   6.445  22.352  1.00  0.00    -0.391 OA
ATOM     24  H2  UNL     1       0.425   6.763  22.073  1.00  0.00     0.210 HD
ENDBRANCH   9  23
TORSDOF 4
ENDMDL
MODEL 4
REMARK VINA RESULT: -7.932686566      2.577      6.040
REMARK  4 active torsions:
REMARK  status: ('A' for Active; 'I' for Inactive)
REMARK    1  A    between atoms: C8_9  and  O2_10 
REMARK    2  A    between atoms: C13_16  and  C14_17 
REMARK    3  A    between atoms: C14_17  and  O3_18 
REMARK    4  A    between atoms: O3_18  and  C15_19 
ROOT
HETATM    1  C1  UNL     1       0.669  12.416  23.875  1.00  0.00     0.025 C 
HETATM    2  C2  UNL     1       1.179  11.196  24.133  1.00  0.00     0.011 C 
HETATM    3  C3  UNL     1       0.452  10.252  24.970  1.00  0.00     0.157 C 
HETATM    4  O1  UNL     1      -0.788  10.084  24.676  1.00  0.00    -0.293 OA
HETATM    5  C4  UNL     1       0.957   9.477  26.100  1.00  0.00     0.095 C 
HETATM    6  C5  UNL     1       0.996   7.979  25.920  1.00  0.00    -0.011 C 
HETATM    7  C6  UNL     1       0.259   7.411  27.160  1.00  0.00     0.018 C 
HETATM    8  C7  UNL     1       0.125   7.476  24.787  1.00  0.00     0.018 C 
HETATM    9  C8  UNL     1       2.395   7.512  25.912  1.00  0.00     0.148 C 
HETATM   10  C9  UNL     1       2.975   6.840  24.754  1.00  0.00     0.003 C 
HETATM   11  C10 UNL     1       3.150   7.415  23.452  1.00  0.00     0.009 C 
HETATM   12  C11 UNL     1       3.479   8.814  23.223  1.00  0.00     0.281 A 
HETATM   13  C12 UNL     1       4.426   9.657  23.973  1.00  0.00     0.268 A 
HETATM   14  C13 UNL     1       4.788  11.029  23.436  1.00  0.00     0.048 C 
HETATM   15  C17 UNL     1       3.550  11.915  23.681  1.00  0.00     0.050 C 
HETATM   16  C18 UNL     1       2.481  10.878  23.522  1.00  0.00     0.260 C 
HETATM   17  N1  UNL     1       3.036   9.761  24.184  1.00  0.00     0.115 N 
ENDROOT
BRANCH  14  18
HETATM   18  C14 UNL     1       5.882  11.596  24.283  1.00  0.00     0.185 C 
BRANCH  18  19
HETATM   19  O3  UNL     1       6.296  12.838  23.801  1.00  0.00    -0.321 OA
BRANCH  19  20
HETATM   20  C15 UNL     1       6.658  13.850  24.652  1.00  0.00     0.254 C 
HETATM   21  C16 UNL     1       5.636  14.885  25.040  1.00  0.00     0.126 C 
HETATM   22  O4  UNL     1       7.795  13.997  25.151  1.00  0.00    -0.266 OA
ENDBRANCH  19  20
ENDBRANCH  18  19
ENDBRANCH  14  18
BRANCH   9  23
HETATM   23  O2  UNL     1       2.531   6.538  26.950  1.00  0.00    -0.391 OA
ATOM     24  H2  UNL     1       2.372   6.977  27.778  1.00  0.00     0.210 HD
ENDBRANCH   9  23
TORSDOF 4
ENDMDL
MODEL 5
REMARK VINA RESULT: -7.929607940      2.260      6.093
REMARK  4 active torsions:
REMARK  status: ('A' for Active; 'I' for Inactive)
REMARK    1  A    between atoms: C8_9  and  O2_10 
REMARK    2  A    between atoms: C13_16  and  C14_17 
REMARK    3  A    between atoms: C14_17  and  O3_18 
REMARK    4  A    between atoms: O3_18  and  C15_19 
ROOT
HETATM    1  C1  UNL     1       2.242  12.875  24.094  1.00  0.00     0.025 C 
HETATM    2  C2  UNL     1       3.277  12.020  23.987  1.00  0.00     0.011 C 
HETATM    3  C3  UNL     1       3.067  10.585  24.115  1.00  0.00     0.157 C 
HETATM    4  O1  UNL     1       2.105  10.097  23.416  1.00  0.00    -0.293 OA
HETATM    5  C4  UNL     1       3.811   9.636  24.938  1.00  0.00     0.095 C 
HETATM    6  C5  UNL     1       4.612   8.591  24.198  1.00  0.00    -0.011 C 
HETATM    7  C6  UNL     1       4.175   7.241  24.821  1.00  0.00     0.018 C 
HETATM    8  C7  UNL     1       4.196   8.413  22.752  1.00  0.00     0.018 C 
HETATM    9  C8  UNL     1       6.052   8.808  24.431  1.00  0.00     0.148 C 
HETATM   10  C9  UNL     1       6.973   9.103  23.338  1.00  0.00     0.003 C 
HETATM   11  C10 UNL     1       6.927  10.261  22.493  1.00  0.00     0.009 C 
HETATM   12  C11 UNL     1       6.521  11.581  22.951  1.00  0.00     0.281 A 
HETATM   13  C12 UNL     1       6.859  12.242  24.225  1.00  0.00     0.268 A 
HETATM   14  C13 UNL     1       6.518  13.707  24.415  1.00  0.00     0.048 C 
HETATM   15  C17 UNL     1       4.988  13.761  24.603  1.00  0.00     0.050 C 
HETATM   16  C18 UNL     1       4.602  12.609  23.727  1.00  0.00     0.260 C 
HETATM   17  N1  UNL     1       5.595  11.650  24.025  1.00  0.00     0.115 N 
ENDROOT
BRANCH  14  18
HETATM   18  C14 UNL     1       7.114  14.169  25.707  1.00  0.00     0.185 C 
BRANCH  18  19
HETATM   19  O3  UNL     1       8.253  14.942  25.486  1.00  0.00    -0.321 OA
BRANCH  19  20
HETATM   20  C15 UNL     1       9.472  14.581  25.999  1.00  0.00     0.254 C 
HETATM   21  C16 UNL     1      10.320  15.622  26.678  1.00  0.00     0.126 C 
HETATM   22  O4  UNL     1       9.959  13.431  25.952  1.00  0.00    -0.266 OA
ENDBRANCH  19  20
ENDBRANCH  18  19
ENDBRANCH  14  18
BRANCH   9  23
HETATM   23  O2  UNL     1       6.586   7.601  24.983  1.00  0.00    -0.391 OA
ATOM     24  H2  UNL     1       6.826   7.781  25.884  1.00  0.00     0.210 HD
ENDBRANCH   9  23
TORSDOF 4
ENDMDL
