MODEL 1
REMARK VINA RESULT: -7.546211080      0.000      0.000
REMARK  5 active torsions:
REMARK  status: ('A' for Active; 'I' for Inactive)
REMARK    1  A    between atoms: C2_2  and  C4_4 
REMARK    2  A    between atoms: C10_10  and  O1_11 
REMARK    3  A    between atoms: O1_11  and  C11_12 
REMARK    4  A    between atoms: C15_17  and  O3_18 
REMARK    5  A    between atoms: C17_21  and  O4_22 
ROOT
HETATM    1  C4  UNL     1       5.821   7.937  24.434  1.00  0.00     0.086 C 
HETATM    2  C5  UNL     1       4.772   7.238  25.263  1.00  0.00     0.018 C 
HETATM    3  C6  UNL     1       3.442   7.882  25.309  1.00  0.00     0.019 C 
HETATM    4  C7  UNL     1       3.008   8.666  24.133  1.00  0.00     0.029 C 
HETATM    5  C8  UNL     1       2.534   9.993  24.482  1.00  0.00    -0.048 C 
HETATM    6  C9  UNL     1       3.253  11.079  24.656  1.00  0.00     0.018 C 
HETATM    7  C10 UNL     1       1.054   9.938  24.624  1.00  0.00     0.161 C 
HETATM    8  C13 UNL     1       0.710   8.443  24.429  1.00  0.00     0.045 C 
HETATM    9  C14 UNL     1       1.725   8.125  23.461  1.00  0.00     0.033 C 
HETATM   10  C15 UNL     1       2.159   6.800  23.103  1.00  0.00     0.126 C 
HETATM   11  C16 UNL     1       3.518   7.131  22.451  1.00  0.00     0.079 C 
HETATM   12  C17 UNL     1       3.879   8.520  22.922  1.00  0.00     0.133 C 
HETATM   13  C18 UNL     1       5.270   8.708  23.328  1.00  0.00     0.170 C 
HETATM   14  O5  UNL     1       5.966   9.529  22.724  1.00  0.00    -0.294 OA
ENDROOT
BRANCH   7  15
HETATM   15  O1  UNL     1       0.587  10.416  25.843  1.00  0.00    -0.312 OA
BRANCH  15  16
HETATM   16  C11 UNL     1      -0.689  10.968  25.895  1.00  0.00     0.255 C 
HETATM   17  C12 UNL     1      -1.334  11.581  24.695  1.00  0.00     0.126 C 
HETATM   18  O2  UNL     1      -1.344  10.966  26.976  1.00  0.00    -0.266 OA
ENDBRANCH  15  16
ENDBRANCH   7  15
BRANCH  12  19
HETATM   19  O4  UNL     1       3.505   9.488  21.990  1.00  0.00    -0.381 OA
ATOM     20  H4  UNL     1       4.058   9.395  21.223  1.00  0.00     0.211 HD
ENDBRANCH  12  19
BRANCH  10  21
HETATM   21  O3  UNL     1       1.359   6.289  22.069  1.00  0.00    -0.395 OA
ATOM     22  H3  UNL     1       1.527   5.362  21.952  1.00  0.00     0.210 HD
ENDBRANCH  10  21
BRANCH   1  23
HETATM   23  C2  UNL     1       6.893   7.030  23.997  1.00  0.00    -0.082 C 
HETATM   24  C1  UNL     1       8.161   7.392  23.915  1.00  0.00     0.015 C 
HETATM   25  C3  UNL     1       6.567   5.599  23.628  1.00  0.00     0.043 C 
ENDBRANCH   1  23
TORSDOF 5
ENDMDL
MODEL 2
REMARK VINA RESULT: -6.834598864      2.840      5.327
REMARK  5 active torsions:
REMARK  status: ('A' for Active; 'I' for Inactive)
REMARK    1  A    between atoms: C2_2  and  C4_4 
REMARK    2  A    between atoms: C10_10  and  O1_11 
REMARK    3  A    between atoms: O1_11  and  C11_12 
REMARK    4  A    between atoms: C15_17  and  O3_18 
REMARK    5  A    between atoms: C17_21  and  O4_22 
ROOT
HETATM    1  C4  UNL     1       3.714   7.803  22.312  1.00  0.00     0.086 C 
HETATM    2  C5  UNL     1       4.827   8.380  21.474  1.00  0.00     0.018 C 
HETATM    3  C6  UNL     1       5.591   9.491  22.080  1.00  0.00     0.019 C 
HETATM    4  C7  UNL     1       5.726   9.520  23.552  1.00  0.00     0.029 C 
HETATM    5  C8  UNL     1       5.368  10.803  24.128  1.00  0.00    -0.048 C 
HETATM    6  C9  UNL     1       4.168  11.225  24.457  1.00  0.00     0.018 C 
HETATM    7  C10 UNL     1       6.611  11.605  24.291  1.00  0.00     0.161 C 
HETATM    8  C13 UNL     1       7.716  10.722  23.668  1.00  0.00     0.045 C 
HETATM    9  C14 UNL     1       7.189   9.438  24.047  1.00  0.00     0.033 C 
HETATM   10  C15 UNL     1       7.581   8.171  23.488  1.00  0.00     0.126 C 
HETATM   11  C16 UNL     1       6.375   7.307  23.913  1.00  0.00     0.079 C 
HETATM   12  C17 UNL     1       5.267   8.276  24.251  1.00  0.00     0.133 C 
HETATM   13  C18 UNL     1       3.943   7.924  23.746  1.00  0.00     0.170 C 
HETATM   14  O5  UNL     1       3.024   7.736  24.549  1.00  0.00    -0.294 OA
ENDROOT
BRANCH   7  15
HETATM   15  O1  UNL     1       6.556  12.858  23.690  1.00  0.00    -0.312 OA
BRANCH  15  16
HETATM   16  C11 UNL     1       6.637  13.987  24.499  1.00  0.00     0.255 C 
HETATM   17  C12 UNL     1       5.419  14.731  24.939  1.00  0.00     0.126 C 
HETATM   18  O2  UNL     1       7.759  14.418  24.886  1.00  0.00    -0.266 OA
ENDBRANCH  15  16
ENDBRANCH   7  15
BRANCH  12  19
HETATM   19  O4  UNL     1       5.217   8.534  25.622  1.00  0.00    -0.381 OA
ATOM     20  H4  UNL     1       4.669   7.875  26.031  1.00  0.00     0.211 HD
ENDBRANCH  12  19
BRANCH  10  21
HETATM   21  O3  UNL     1       8.681   7.651  24.187  1.00  0.00    -0.395 OA
ATOM     22  H3  UNL     1       9.283   8.348  24.419  1.00  0.00     0.210 HD
ENDBRANCH  10  21
BRANCH   1  23
HETATM   23  C2  UNL     1       3.365   6.428  21.921  1.00  0.00    -0.082 C 
HETATM   24  C1  UNL     1       4.211   5.606  21.328  1.00  0.00     0.015 C 
HETATM   25  C3  UNL     1       1.979   5.892  22.210  1.00  0.00     0.043 C 
ENDBRANCH   1  23
TORSDOF 5
ENDMDL
MODEL 3
REMARK VINA RESULT: -6.786547830      2.380      5.722
REMARK  5 active torsions:
REMARK  status: ('A' for Active; 'I' for Inactive)
REMARK    1  A    between atoms: C2_2  and  C4_4 
REMARK    2  A    between atoms: C10_10  and  O1_11 
REMARK    3  A    between atoms: O1_11  and  C11_12 
REMARK    4  A    between atoms: C15_17  and  O3_18 
REMARK    5  A    between atoms: C17_21  and  O4_22 
ROOT
HETATM    1  C4  UNL     1       1.670   7.317  27.245  1.00  0.00     0.086 C 
HETATM    2  C5  UNL     1       2.685   8.429  27.150  1.00  0.00     0.018 C 
HETATM    3  C6  UNL     1       3.163   8.760  25.791  1.00  0.00     0.019 C 
HETATM    4  C7  UNL     1       2.238   8.547  24.658  1.00  0.00     0.029 C 
HETATM    5  C8  UNL     1       2.834   7.784  23.577  1.00  0.00    -0.048 C 
HETATM    6  C9  UNL     1       2.908   6.478  23.467  1.00  0.00     0.018 C 
HETATM    7  C10 UNL     1       3.376   8.741  22.574  1.00  0.00     0.161 C 
HETATM    8  C13 UNL     1       3.138  10.131  23.208  1.00  0.00     0.045 C 
HETATM    9  C14 UNL     1       1.899   9.839  23.877  1.00  0.00     0.033 C 
HETATM   10  C15 UNL     1       1.305  10.627  24.926  1.00  0.00     0.126 C 
HETATM   11  C16 UNL     1       0.336   9.586  25.526  1.00  0.00     0.079 C 
HETATM   12  C17 UNL     1       0.824   8.239  25.048  1.00  0.00     0.133 C 
HETATM   13  C18 UNL     1       0.843   7.180  26.054  1.00  0.00     0.170 C 
HETATM   14  O5  UNL     1       0.154   6.171  25.878  1.00  0.00    -0.294 OA
ENDROOT
BRANCH   7  15
HETATM   15  O1  UNL     1       4.719   8.540  22.272  1.00  0.00    -0.312 OA
BRANCH  15  16
HETATM   16  C11 UNL     1       5.288   9.287  21.245  1.00  0.00     0.255 C 
HETATM   17  C12 UNL     1       6.499  10.133  21.461  1.00  0.00     0.126 C 
HETATM   18  O2  UNL     1       4.784   9.269  20.086  1.00  0.00    -0.266 OA
ENDBRANCH  15  16
ENDBRANCH   7  15
BRANCH  12  19
HETATM   19  O4  UNL     1       0.134   7.821  23.909  1.00  0.00    -0.381 OA
ATOM     20  H4  UNL     1      -0.634   7.334  24.186  1.00  0.00     0.211 HD
ENDBRANCH  12  19
BRANCH  10  21
HETATM   21  O3  UNL     1       0.489  11.629  24.378  1.00  0.00    -0.395 OA
ATOM     22  H3  UNL     1      -0.337  11.672  24.845  1.00  0.00     0.210 HD
ENDBRANCH  10  21
BRANCH   1  23
HETATM   23  C2  UNL     1       0.864   7.389  28.474  1.00  0.00    -0.082 C 
HETATM   24  C1  UNL     1       0.073   8.406  28.764  1.00  0.00     0.015 C 
HETATM   25  C3  UNL     1       0.909   6.253  29.473  1.00  0.00     0.043 C 
ENDBRANCH   1  23
TORSDOF 5
ENDMDL
MODEL 4
REMARK VINA RESULT: -6.640378571      2.637      4.628
REMARK  5 active torsions:
REMARK  status: ('A' for Active; 'I' for Inactive)
REMARK    1  A    between atoms: C2_2  and  C4_4 
REMARK    2  A    between atoms: C10_10  and  O1_11 
REMARK    3  A    between atoms: O1_11  and  C11_12 
REMARK    4  A    between atoms: C15_17  and  O3_18 
REMARK    5  A    between atoms: C17_21  and  O4_22 
ROOT
HETATM    1  C4  UNL     1       3.752   7.177  21.779  1.00  0.00     0.086 C 
HETATM    2  C5  UNL     1       4.681   8.185  21.148  1.00  0.00     0.018 C 
HETATM    3  C6  UNL     1       4.924   9.421  21.921  1.00  0.00     0.019 C 
HETATM    4  C7  UNL     1       4.861   9.343  23.396  1.00  0.00     0.029 C 
HETATM    5  C8  UNL     1       4.006  10.360  23.980  1.00  0.00    -0.048 C 
HETATM    6  C9  UNL     1       2.704  10.308  24.149  1.00  0.00     0.018 C 
HETATM    7  C10 UNL     1       4.855  11.518  24.370  1.00  0.00     0.161 C 
HETATM    8  C13 UNL     1       6.268  11.136  23.871  1.00  0.00     0.045 C 
HETATM    9  C14 UNL     1       6.188   9.718  24.097  1.00  0.00     0.033 C 
HETATM   10  C15 UNL     1       7.067   8.727  23.535  1.00  0.00     0.126 C 
HETATM   11  C16 UNL     1       6.203   7.463  23.728  1.00  0.00     0.079 C 
HETATM   12  C17 UNL     1       4.792   7.953  23.950  1.00  0.00     0.133 C 
HETATM   13  C18 UNL     1       3.749   7.222  23.236  1.00  0.00     0.170 C 
HETATM   14  O5  UNL     1       2.867   6.648  23.881  1.00  0.00    -0.294 OA
ENDROOT
BRANCH   7  15
HETATM   15  O1  UNL     1       4.434  12.730  23.835  1.00  0.00    -0.312 OA
BRANCH  15  16
HETATM   16  C11 UNL     1       4.577  13.881  24.605  1.00  0.00     0.255 C 
HETATM   17  C12 UNL     1       5.912  14.497  24.864  1.00  0.00     0.126 C 
HETATM   18  O2  UNL     1       3.564  14.440  25.114  1.00  0.00    -0.266 OA
ENDBRANCH  15  16
ENDBRANCH   7  15
BRANCH  12  19
HETATM   19  O4  UNL     1       4.489   8.036  25.310  1.00  0.00    -0.381 OA
ATOM     20  H4  UNL     1       4.460   7.155  25.665  1.00  0.00     0.211 HD
ENDBRANCH  12  19
BRANCH  10  21
HETATM   21  O3  UNL     1       8.188   8.547  24.361  1.00  0.00    -0.395 OA
ATOM     22  H3  UNL     1       8.039   8.946  25.209  1.00  0.00     0.210 HD
ENDBRANCH  10  21
BRANCH   1  23
HETATM   23  C2  UNL     1       3.962   5.815  21.267  1.00  0.00    -0.082 C 
HETATM   24  C1  UNL     1       4.767   4.939  21.842  1.00  0.00     0.015 C 
HETATM   25  C3  UNL     1       3.225   5.353  20.028  1.00  0.00     0.043 C 
ENDBRANCH   1  23
TORSDOF 5
ENDMDL
MODEL 5
REMARK VINA RESULT: -6.571604020      2.586      5.257
REMARK  5 active torsions:
REMARK  status: ('A' for Active; 'I' for Inactive)
REMARK    1  A    between atoms: C2_2  and  C4_4 
REMARK    2  A    between atoms: C10_10  and  O1_11 
REMARK    3  A    between atoms: O1_11  and  C11_12 
REMARK    4  A    between atoms: C15_17  and  O3_18 
REMARK    5  A    between atoms: C17_21  and  O4_22 
ROOT
HETATM    1  C4  UNL     1       4.987  11.209  24.656  1.00  0.00     0.086 C 
HETATM    2  C5  UNL     1       6.129  10.376  24.129  1.00  0.00     0.018 C 
HETATM    3  C6  UNL     1       5.833   8.951  23.874  1.00  0.00     0.019 C 
HETATM    4  C7  UNL     1       4.453   8.586  23.487  1.00  0.00     0.029 C 
HETATM    5  C8  UNL     1       3.910   7.503  24.285  1.00  0.00    -0.048 C 
HETATM    6  C9  UNL     1       3.316   7.592  25.453  1.00  0.00     0.018 C 
HETATM    7  C10 UNL     1       4.139   6.226  23.557  1.00  0.00     0.161 C 
HETATM    8  C13 UNL     1       4.955   6.640  22.311  1.00  0.00     0.045 C 
HETATM    9  C14 UNL     1       4.350   7.927  22.091  1.00  0.00     0.033 C 
HETATM   10  C15 UNL     1       4.888   8.978  21.268  1.00  0.00     0.126 C 
HETATM   11  C16 UNL     1       4.097  10.182  21.821  1.00  0.00     0.079 C 
HETATM   12  C17 UNL     1       3.562   9.747  23.164  1.00  0.00     0.133 C 
HETATM   13  C18 UNL     1       3.676  10.730  24.239  1.00  0.00     0.170 C 
HETATM   14  O5  UNL     1       2.650  11.142  24.788  1.00  0.00    -0.294 OA
ENDROOT
BRANCH   7  15
HETATM   15  O1  UNL     1       4.804   5.262  24.307  1.00  0.00    -0.312 OA
BRANCH  15  16
HETATM   16  C11 UNL     1       4.147   4.068  24.588  1.00  0.00     0.255 C 
HETATM   17  C12 UNL     1       3.476   3.266  23.521  1.00  0.00     0.126 C 
HETATM   18  O2  UNL     1       4.099   3.626  25.771  1.00  0.00    -0.266 OA
ENDBRANCH  15  16
ENDBRANCH   7  15
BRANCH  12  19
HETATM   19  O4  UNL     1       2.251   9.281  23.064  1.00  0.00    -0.381 OA
ATOM     20  H4  UNL     1       1.962   9.010  23.927  1.00  0.00     0.211 HD
ENDBRANCH  12  19
BRANCH  10  21
HETATM   21  O3  UNL     1       4.459   8.823  19.940  1.00  0.00    -0.395 OA
ATOM     22  H3  UNL     1       5.200   8.641  19.375  1.00  0.00     0.210 HD
ENDBRANCH  10  21
BRANCH   1  23
HETATM   23  C2  UNL     1       5.162  12.645  24.389  1.00  0.00    -0.082 C 
HETATM   24  C1  UNL     1       4.191  13.530  24.514  1.00  0.00     0.015 C 
HETATM   25  C3  UNL     1       6.515  13.172  23.960  1.00  0.00     0.043 C 
ENDBRANCH   1  23
TORSDOF 5
ENDMDL
