MODEL 1
REMARK VINA RESULT: -8.255920514      0.000      0.000
REMARK  5 active torsions:
REMARK  status: ('A' for Active; 'I' for Inactive)
REMARK    1  A    between atoms: C9_10  and  O2_11 
REMARK    2  A    between atoms: O2_11  and  C10_12 
REMARK    3  A    between atoms: C10_12  and  C11_14 
REMARK    4  A    between atoms: C16_19  and  O4_20 
REMARK    5  A    between atoms: C17_22  and  O5_24 
ROOT
HETATM    1  C1  UNL     1       5.283   6.806  26.381  1.00  0.00     0.013 C 
HETATM    2  C2  UNL     1       6.096   6.706  25.139  1.00  0.00     0.024 C 
HETATM    3  C3  UNL     1       7.261   7.692  25.101  1.00  0.00     0.086 C 
HETATM    4  C4  UNL     1       7.190   8.246  23.721  1.00  0.00     0.140 C 
HETATM    5  O1  UNL     1       8.127   8.553  23.045  1.00  0.00    -0.297 OA
HETATM    6  C5  UNL     1       5.739   8.311  23.418  1.00  0.00     0.066 C 
HETATM    7  C6  UNL     1       5.327   8.806  22.081  1.00  0.00     0.034 C 
HETATM    8  C7  UNL     1       6.204   9.933  21.537  1.00  0.00     0.011 C 
HETATM    9  C8  UNL     1       6.407  11.030  22.532  1.00  0.00     0.034 C 
HETATM   10  C9  UNL     1       5.993  10.663  23.930  1.00  0.00     0.139 C 
HETATM   11  C15 UNL     1       5.033   9.500  23.991  1.00  0.00     0.064 C 
HETATM   12  C16 UNL     1       4.139   9.499  22.767  1.00  0.00     0.131 C 
HETATM   13  C17 UNL     1       5.303   6.961  23.861  1.00  0.00     0.073 C 
HETATM   14  C18 UNL     1       3.862   6.698  24.017  1.00  0.00     0.047 C 
ENDROOT
BRANCH  13  15
HETATM   15  O5  UNL     1       5.806   6.033  22.918  1.00  0.00    -0.389 OA
ATOM     16  H5  UNL     1       5.945   6.535  22.123  1.00  0.00     0.210 HD
ENDBRANCH  13  15
BRANCH  12  17
HETATM   17  O4  UNL     1       3.852  10.772  22.264  1.00  0.00    -0.395 OA
ATOM     18  H4  UNL     1       3.005  10.840  21.839  1.00  0.00     0.210 HD
ENDBRANCH  12  17
BRANCH  10  19
HETATM   19  O2  UNL     1       5.497  11.796  24.620  1.00  0.00    -0.315 OA
BRANCH  19  20
HETATM   20  C10 UNL     1       6.147  13.001  24.610  1.00  0.00     0.263 C 
HETATM   21  O3  UNL     1       7.417  12.975  24.732  1.00  0.00    -0.265 OA
BRANCH  20  22
HETATM   22  C11 UNL     1       5.444  14.313  24.467  1.00  0.00     0.085 C 
HETATM   23  C12 UNL     1       5.771  15.304  25.564  1.00  0.00     0.014 C 
HETATM   24  C13 UNL     1       4.272  15.608  25.640  1.00  0.00     0.002 C 
HETATM   25  C14 UNL     1       4.043  14.211  25.067  1.00  0.00     0.014 C 
ENDBRANCH  20  22
ENDBRANCH  19  20
ENDBRANCH  10  19
TORSDOF 5
ENDMDL
MODEL 2
REMARK VINA RESULT: -7.808133891      3.536      4.707
REMARK  5 active torsions:
REMARK  status: ('A' for Active; 'I' for Inactive)
REMARK    1  A    between atoms: C9_10  and  O2_11 
REMARK    2  A    between atoms: O2_11  and  C10_12 
REMARK    3  A    between atoms: C10_12  and  C11_14 
REMARK    4  A    between atoms: C16_19  and  O4_20 
REMARK    5  A    between atoms: C17_22  and  O5_24 
ROOT
HETATM    1  C1  UNL     1       2.243   8.316  29.307  1.00  0.00     0.013 C 
HETATM    2  C2  UNL     1       1.876   7.263  28.322  1.00  0.00     0.024 C 
HETATM    3  C3  UNL     1       3.010   6.917  27.361  1.00  0.00     0.086 C 
HETATM    4  C4  UNL     1       2.330   6.871  26.038  1.00  0.00     0.140 C 
HETATM    5  O1  UNL     1       2.595   6.124  25.143  1.00  0.00    -0.297 OA
HETATM    6  C5  UNL     1       1.295   7.931  26.114  1.00  0.00     0.066 C 
HETATM    7  C6  UNL     1       0.410   8.127  24.937  1.00  0.00     0.034 C 
HETATM    8  C7  UNL     1       1.109   7.930  23.593  1.00  0.00     0.011 C 
HETATM    9  C8  UNL     1       2.390   8.694  23.498  1.00  0.00     0.034 C 
HETATM   10  C9  UNL     1       2.880   9.223  24.817  1.00  0.00     0.139 C 
HETATM   11  C15 UNL     1       1.800   9.318  25.868  1.00  0.00     0.064 C 
HETATM   12  C16 UNL     1       0.468   9.637  25.218  1.00  0.00     0.131 C 
HETATM   13  C17 UNL     1       0.690   7.634  27.438  1.00  0.00     0.073 C 
HETATM   14  C18 UNL     1      -0.195   8.638  28.055  1.00  0.00     0.047 C 
ENDROOT
BRANCH  13  15
HETATM   15  O5  UNL     1      -0.056   6.439  27.294  1.00  0.00    -0.389 OA
ATOM     16  H5  UNL     1      -0.511   6.527  26.464  1.00  0.00     0.210 HD
ENDBRANCH  13  15
BRANCH  12  17
HETATM   17  O4  UNL     1       0.565  10.429  24.069  1.00  0.00    -0.395 OA
ATOM     18  H4  UNL     1      -0.077  11.127  24.023  1.00  0.00     0.210 HD
ENDBRANCH  12  17
BRANCH  10  19
HETATM   19  O2  UNL     1       3.560  10.452  24.644  1.00  0.00    -0.315 OA
BRANCH  19  20
HETATM   20  C10 UNL     1       4.828  10.520  24.132  1.00  0.00     0.263 C 
HETATM   21  O3  UNL     1       5.506   9.439  24.119  1.00  0.00    -0.265 OA
BRANCH  20  22
HETATM   22  C11 UNL     1       5.435  11.780  23.603  1.00  0.00     0.085 C 
HETATM   23  C12 UNL     1       6.812  12.075  24.157  1.00  0.00     0.014 C 
HETATM   24  C13 UNL     1       6.349  13.522  24.350  1.00  0.00     0.002 C 
HETATM   25  C14 UNL     1       4.926  12.972  24.412  1.00  0.00     0.014 C 
ENDBRANCH  20  22
ENDBRANCH  19  20
ENDBRANCH  10  19
TORSDOF 5
ENDMDL
MODEL 3
REMARK VINA RESULT: -7.785864847      1.494      2.848
REMARK  5 active torsions:
REMARK  status: ('A' for Active; 'I' for Inactive)
REMARK    1  A    between atoms: C9_10  and  O2_11 
REMARK    2  A    between atoms: O2_11  and  C10_12 
REMARK    3  A    between atoms: C10_12  and  C11_14 
REMARK    4  A    between atoms: C16_19  and  O4_20 
REMARK    5  A    between atoms: C17_22  and  O5_24 
ROOT
HETATM    1  C1  UNL     1       8.288   9.904  23.571  1.00  0.00     0.013 C 
HETATM    2  C2  UNL     1       7.354   9.101  22.736  1.00  0.00     0.024 C 
HETATM    3  C3  UNL     1       6.510   9.950  21.789  1.00  0.00     0.086 C 
HETATM    4  C4  UNL     1       5.146   9.379  21.948  1.00  0.00     0.140 C 
HETATM    5  O1  UNL     1       4.329   9.273  21.081  1.00  0.00    -0.297 OA
HETATM    6  C5  UNL     1       5.066   8.994  23.378  1.00  0.00     0.066 C 
HETATM    7  C6  UNL     1       3.814   8.358  23.861  1.00  0.00     0.034 C 
HETATM    8  C7  UNL     1       2.545   8.914  23.216  1.00  0.00     0.011 C 
HETATM    9  C8  UNL     1       2.495  10.407  23.250  1.00  0.00     0.034 C 
HETATM   10  C9  UNL     1       3.807  11.050  23.603  1.00  0.00     0.139 C 
HETATM   11  C15 UNL     1       4.762  10.121  24.314  1.00  0.00     0.064 C 
HETATM   12  C16 UNL     1       3.990   9.139  25.173  1.00  0.00     0.131 C 
HETATM   13  C17 UNL     1       6.357   8.278  23.545  1.00  0.00     0.073 C 
HETATM   14  C18 UNL     1       6.831   7.978  24.908  1.00  0.00     0.047 C 
ENDROOT
BRANCH  13  15
HETATM   15  O5  UNL     1       6.241   7.047  22.854  1.00  0.00    -0.389 OA
ATOM     16  H5  UNL     1       6.772   6.433  23.347  1.00  0.00     0.210 HD
ENDBRANCH  13  15
BRANCH  12  17
HETATM   17  O4  UNL     1       2.798   9.648  25.699  1.00  0.00    -0.395 OA
ATOM     18  H4  UNL     1       2.269   9.005  26.154  1.00  0.00     0.210 HD
ENDBRANCH  12  17
BRANCH  10  19
HETATM   19  O2  UNL     1       3.600  12.250  24.324  1.00  0.00    -0.315 OA
BRANCH  19  20
HETATM   20  C10 UNL     1       4.608  13.148  24.555  1.00  0.00     0.263 C 
HETATM   21  O3  UNL     1       5.674  13.013  23.866  1.00  0.00    -0.265 OA
BRANCH  20  22
HETATM   22  C11 UNL     1       4.512  14.251  25.560  1.00  0.00     0.085 C 
HETATM   23  C12 UNL     1       3.495  15.315  25.206  1.00  0.00     0.014 C 
HETATM   24  C13 UNL     1       4.549  16.354  25.597  1.00  0.00     0.002 C 
HETATM   25  C14 UNL     1       5.597  15.290  25.283  1.00  0.00     0.014 C 
ENDBRANCH  20  22
ENDBRANCH  19  20
ENDBRANCH  10  19
TORSDOF 5
ENDMDL
MODEL 4
REMARK VINA RESULT: -7.728902589      1.371      1.860
REMARK  5 active torsions:
REMARK  status: ('A' for Active; 'I' for Inactive)
REMARK    1  A    between atoms: C9_10  and  O2_11 
REMARK    2  A    between atoms: O2_11  and  C10_12 
REMARK    3  A    between atoms: C10_12  and  C11_14 
REMARK    4  A    between atoms: C16_19  and  O4_20 
REMARK    5  A    between atoms: C17_22  and  O5_24 
ROOT
HETATM    1  C1  UNL     1       3.577   7.032  27.279  1.00  0.00     0.013 C 
HETATM    2  C2  UNL     1       3.980   6.457  25.968  1.00  0.00     0.024 C 
HETATM    3  C3  UNL     1       5.400   6.837  25.555  1.00  0.00     0.086 C 
HETATM    4  C4  UNL     1       5.247   7.213  24.123  1.00  0.00     0.140 C 
HETATM    5  O1  UNL     1       6.049   7.012  23.260  1.00  0.00    -0.297 OA
HETATM    6  C5  UNL     1       3.915   7.861  24.047  1.00  0.00     0.066 C 
HETATM    7  C6  UNL     1       3.444   8.337  22.722  1.00  0.00     0.034 C 
HETATM    8  C7  UNL     1       4.550   8.910  21.838  1.00  0.00     0.011 C 
HETATM    9  C8  UNL     1       5.392   9.915  22.557  1.00  0.00     0.034 C 
HETATM   10  C9  UNL     1       5.194   9.917  24.047  1.00  0.00     0.139 C 
HETATM   11  C15 UNL     1       3.890   9.293  24.483  1.00  0.00     0.064 C 
HETATM   12  C16 UNL     1       2.818   9.543  23.440  1.00  0.00     0.131 C 
HETATM   13  C17 UNL     1       3.088   6.887  24.807  1.00  0.00     0.073 C 
HETATM   14  C18 UNL     1       1.737   7.287  25.238  1.00  0.00     0.047 C 
ENDROOT
BRANCH  13  15
HETATM   15  O5  UNL     1       2.953   5.736  23.994  1.00  0.00    -0.389 OA
ATOM     16  H5  UNL     1       2.802   6.067  23.116  1.00  0.00     0.210 HD
ENDBRANCH  13  15
BRANCH  12  17
HETATM   17  O4  UNL     1       2.957  10.753  22.752  1.00  0.00    -0.395 OA
ATOM     18  H4  UNL     1       2.893  11.523  23.304  1.00  0.00     0.210 HD
ENDBRANCH  12  17
BRANCH  10  19
HETATM   19  O2  UNL     1       5.359  11.221  24.573  1.00  0.00    -0.315 OA
BRANCH  19  20
HETATM   20  C10 UNL     1       6.409  12.024  24.219  1.00  0.00     0.263 C 
HETATM   21  O3  UNL     1       7.542  11.460  24.059  1.00  0.00    -0.265 OA
BRANCH  20  22
HETATM   22  C11 UNL     1       6.284  13.502  24.019  1.00  0.00     0.085 C 
HETATM   23  C12 UNL     1       7.048  14.323  25.035  1.00  0.00     0.014 C 
HETATM   24  C13 UNL     1       5.805  15.208  25.152  1.00  0.00     0.002 C 
HETATM   25  C14 UNL     1       5.000  14.000  24.680  1.00  0.00     0.014 C 
ENDBRANCH  20  22
ENDBRANCH  19  20
ENDBRANCH  10  19
TORSDOF 5
ENDMDL
MODEL 5
REMARK VINA RESULT: -7.693011388      1.846      3.371
REMARK  5 active torsions:
REMARK  status: ('A' for Active; 'I' for Inactive)
REMARK    1  A    between atoms: C9_10  and  O2_11 
REMARK    2  A    between atoms: O2_11  and  C10_12 
REMARK    3  A    between atoms: C10_12  and  C11_14 
REMARK    4  A    between atoms: C16_19  and  O4_20 
REMARK    5  A    between atoms: C17_22  and  O5_24 
ROOT
HETATM    1  C1  UNL     1       7.717  10.183  23.876  1.00  0.00     0.013 C 
HETATM    2  C2  UNL     1       7.175   9.095  23.017  1.00  0.00     0.024 C 
HETATM    3  C3  UNL     1       6.119   9.580  22.026  1.00  0.00     0.086 C 
HETATM    4  C4  UNL     1       5.051   8.551  22.141  1.00  0.00     0.140 C 
HETATM    5  O1  UNL     1       4.365   8.155  21.245  1.00  0.00    -0.297 OA
HETATM    6  C5  UNL     1       5.058   8.161  23.572  1.00  0.00     0.066 C 
HETATM    7  C6  UNL     1       4.105   7.113  24.015  1.00  0.00     0.034 C 
HETATM    8  C7  UNL     1       2.748   7.169  23.315  1.00  0.00     0.011 C 
HETATM    9  C8  UNL     1       2.157   8.542  23.325  1.00  0.00     0.034 C 
HETATM   10  C9  UNL     1       3.129   9.618  23.720  1.00  0.00     0.139 C 
HETATM   11  C15 UNL     1       4.327   9.101  24.480  1.00  0.00     0.064 C 
HETATM   12  C16 UNL     1       3.931   7.903  25.322  1.00  0.00     0.131 C 
HETATM   13  C17 UNL     1       6.514   7.965  23.799  1.00  0.00     0.073 C 
HETATM   14  C18 UNL     1       7.008   7.858  25.183  1.00  0.00     0.047 C 
ENDROOT
BRANCH  13  15
HETATM   15  O5  UNL     1       6.881   6.777  23.122  1.00  0.00    -0.389 OA
ATOM     16  H5  UNL     1       7.829   6.740  23.179  1.00  0.00     0.210 HD
ENDBRANCH  13  15
BRANCH  12  17
HETATM   17  O4  UNL     1       2.615   7.944  25.795  1.00  0.00    -0.395 OA
ATOM     18  H4  UNL     1       2.452   7.373  26.536  1.00  0.00     0.210 HD
ENDBRANCH  12  17
BRANCH  10  19
HETATM   19  O2  UNL     1       2.470  10.660  24.415  1.00  0.00    -0.315 OA
BRANCH  19  20
HETATM   20  C10 UNL     1       2.779  11.979  24.219  1.00  0.00     0.263 C 
HETATM   21  O3  UNL     1       2.100  12.609  23.342  1.00  0.00    -0.265 OA
BRANCH  20  22
HETATM   22  C11 UNL     1       3.855  12.693  24.974  1.00  0.00     0.085 C 
HETATM   23  C12 UNL     1       3.802  14.200  24.836  1.00  0.00     0.014 C 
HETATM   24  C13 UNL     1       5.317  14.163  24.618  1.00  0.00     0.002 C 
HETATM   25  C14 UNL     1       5.131  12.727  24.134  1.00  0.00     0.014 C 
ENDBRANCH  20  22
ENDBRANCH  19  20
ENDBRANCH  10  19
TORSDOF 5
ENDMDL
