MODEL 1
REMARK VINA RESULT: -7.179508022      0.000      0.000
REMARK  5 active torsions:
REMARK  status: ('A' for Active; 'I' for Inactive)
REMARK    1  A    between atoms: C2_2  and  O2_4 
REMARK    2  A    between atoms: O2_4  and  C3_5 
REMARK    3  A    between atoms: C3_5  and  C4_6 
REMARK    4  A    between atoms: C6_8  and  O3_9 
REMARK    5  A    between atoms: C16_21  and  O5_22 
ROOT
HETATM    1  C4  UNL     1       0.329  10.955  24.557  1.00  0.00     0.008 C 
HETATM    2  C5  UNL     1       0.796  12.397  24.520  1.00  0.00     0.020 C 
HETATM    3  C6  UNL     1       0.139  10.641  26.019  1.00  0.00     0.128 C 
HETATM    4  C7  UNL     1      -0.316   9.258  26.286  1.00  0.00     0.033 C 
HETATM    5  C8  UNL     1       0.088   8.251  25.269  1.00  0.00     0.012 C 
HETATM    6  C9  UNL     1       1.309   8.619  24.455  1.00  0.00    -0.035 C 
HETATM    7  C10 UNL     1       1.347   7.567  23.327  1.00  0.00     0.016 C 
HETATM    8  C11 UNL     1       2.503   8.402  25.338  1.00  0.00     0.008 C 
HETATM    9  C12 UNL     1       2.830   6.996  25.650  1.00  0.00     0.013 C 
HETATM   10  C13 UNL     1       4.024   6.581  24.780  1.00  0.00     0.079 C 
HETATM   11  C14 UNL     1       4.285   7.795  23.960  1.00  0.00     0.134 C 
HETATM   12  O4  UNL     1       4.790   7.860  22.843  1.00  0.00    -0.297 OA
HETATM   13  C15 UNL     1       3.793   8.920  24.798  1.00  0.00     0.089 C 
HETATM   14  C16 UNL     1       3.741  10.218  24.106  1.00  0.00     0.130 C 
HETATM   15  C17 UNL     1       2.513  10.534  23.360  1.00  0.00     0.039 C 
HETATM   16  C18 UNL     1       1.211   9.981  23.835  1.00  0.00     0.009 C 
ENDROOT
BRANCH   1  17
HETATM   17  C3  UNL     1      -1.092  11.020  23.964  1.00  0.00     0.191 C 
BRANCH  17  18
HETATM   18  O2  UNL     1      -1.393  12.394  23.668  1.00  0.00    -0.321 OA
BRANCH  18  19
HETATM   19  C2  UNL     1      -1.781  12.803  22.437  1.00  0.00     0.254 C 
HETATM   20  C1  UNL     1      -0.780  12.832  21.337  1.00  0.00     0.126 C 
HETATM   21  O1  UNL     1      -2.951  13.150  22.212  1.00  0.00    -0.266 OA
ENDBRANCH  18  19
ENDBRANCH  17  18
ENDBRANCH   1  17
BRANCH   3  22
HETATM   22  O3  UNL     1      -0.886  11.509  26.465  1.00  0.00    -0.395 OA
ATOM     23  H3  UNL     1      -0.441  12.253  26.854  1.00  0.00     0.210 HD
ENDBRANCH   3  22
BRANCH  14  24
HETATM   24  O5  UNL     1       4.136  11.208  25.040  1.00  0.00    -0.395 OA
ATOM     25  H5  UNL     1       3.396  11.789  25.164  1.00  0.00     0.210 HD
ENDBRANCH  14  24
TORSDOF 5
ENDMDL
MODEL 2
REMARK VINA RESULT: -6.920221082      4.712      6.176
REMARK  5 active torsions:
REMARK  status: ('A' for Active; 'I' for Inactive)
REMARK    1  A    between atoms: C2_2  and  O2_4 
REMARK    2  A    between atoms: O2_4  and  C3_5 
REMARK    3  A    between atoms: C3_5  and  C4_6 
REMARK    4  A    between atoms: C6_8  and  O3_9 
REMARK    5  A    between atoms: C16_21  and  O5_22 
ROOT
HETATM    1  C4  UNL     1       6.082   9.356  23.326  1.00  0.00     0.008 C 
HETATM    2  C5  UNL     1       5.726  10.034  22.017  1.00  0.00     0.020 C 
HETATM    3  C6  UNL     1       7.405   8.682  23.071  1.00  0.00     0.128 C 
HETATM    4  C7  UNL     1       7.941   7.943  24.237  1.00  0.00     0.033 C 
HETATM    5  C8  UNL     1       6.918   7.427  25.185  1.00  0.00     0.012 C 
HETATM    6  C9  UNL     1       5.541   7.227  24.592  1.00  0.00    -0.035 C 
HETATM    7  C10 UNL     1       4.636   6.956  25.811  1.00  0.00     0.016 C 
HETATM    8  C11 UNL     1       5.600   5.976  23.766  1.00  0.00     0.008 C 
HETATM    9  C12 UNL     1       5.731   4.710  24.516  1.00  0.00     0.013 C 
HETATM   10  C13 UNL     1       4.356   4.029  24.545  1.00  0.00     0.079 C 
HETATM   11  C14 UNL     1       3.482   4.999  23.832  1.00  0.00     0.134 C 
HETATM   12  O4  UNL     1       2.274   5.171  23.966  1.00  0.00    -0.297 OA
HETATM   13  C15 UNL     1       4.403   5.722  22.914  1.00  0.00     0.089 C 
HETATM   14  C16 UNL     1       3.808   6.894  22.252  1.00  0.00     0.130 C 
HETATM   15  C17 UNL     1       3.876   8.178  22.967  1.00  0.00     0.039 C 
HETATM   16  C18 UNL     1       5.029   8.442  23.877  1.00  0.00     0.009 C 
ENDROOT
BRANCH   1  17
HETATM   17  C3  UNL     1       6.396  10.533  24.269  1.00  0.00     0.191 C 
BRANCH  17  18
HETATM   18  O2  UNL     1       6.250  11.756  23.526  1.00  0.00    -0.321 OA
BRANCH  18  19
HETATM   19  C2  UNL     1       6.110  12.959  24.131  1.00  0.00     0.254 C 
HETATM   20  C1  UNL     1       4.750  13.415  24.528  1.00  0.00     0.126 C 
HETATM   21  O1  UNL     1       7.091  13.684  24.359  1.00  0.00    -0.266 OA
ENDBRANCH  18  19
ENDBRANCH  17  18
ENDBRANCH   1  17
BRANCH   3  22
HETATM   22  O3  UNL     1       8.317   9.726  22.786  1.00  0.00    -0.395 OA
ATOM     23  H3  UNL     1       8.677   9.988  23.625  1.00  0.00     0.210 HD
ENDBRANCH   3  22
BRANCH  14  24
HETATM   24  O5  UNL     1       4.310   6.927  20.927  1.00  0.00    -0.395 OA
ATOM     25  H5  UNL     1       4.044   7.756  20.546  1.00  0.00     0.210 HD
ENDBRANCH  14  24
TORSDOF 5
ENDMDL
MODEL 3
REMARK VINA RESULT: -6.813179721      2.059      5.284
REMARK  5 active torsions:
REMARK  status: ('A' for Active; 'I' for Inactive)
REMARK    1  A    between atoms: C2_2  and  O2_4 
REMARK    2  A    between atoms: O2_4  and  C3_5 
REMARK    3  A    between atoms: C3_5  and  C4_6 
REMARK    4  A    between atoms: C6_8  and  O3_9 
REMARK    5  A    between atoms: C16_21  and  O5_22 
ROOT
HETATM    1  C4  UNL     1       3.299  10.153  23.879  1.00  0.00     0.008 C 
HETATM    2  C5  UNL     1       2.812  11.376  23.127  1.00  0.00     0.020 C 
HETATM    3  C6  UNL     1       3.139   9.008  22.913  1.00  0.00     0.128 C 
HETATM    4  C7  UNL     1       3.558   7.696  23.456  1.00  0.00     0.033 C 
HETATM    5  C8  UNL     1       3.441   7.556  24.932  1.00  0.00     0.012 C 
HETATM    6  C9  UNL     1       2.442   8.485  25.585  1.00  0.00    -0.035 C 
HETATM    7  C10 UNL     1       2.708   8.330  27.097  1.00  0.00     0.016 C 
HETATM    8  C11 UNL     1       1.077   7.934  25.291  1.00  0.00     0.008 C 
HETATM    9  C12 UNL     1       0.727   6.675  25.978  1.00  0.00     0.013 C 
HETATM   10  C13 UNL     1      -0.210   7.013  27.146  1.00  0.00     0.079 C 
HETATM   11  C14 UNL     1      -0.301   8.497  27.088  1.00  0.00     0.134 C 
HETATM   12  O4  UNL     1      -0.523   9.279  28.008  1.00  0.00    -0.297 OA
HETATM   13  C15 UNL     1      -0.059   8.827  25.658  1.00  0.00     0.089 C 
HETATM   14  C16 UNL     1       0.120  10.262  25.387  1.00  0.00     0.130 C 
HETATM   15  C17 UNL     1       1.481  10.806  25.508  1.00  0.00     0.039 C 
HETATM   16  C18 UNL     1       2.647   9.922  25.209  1.00  0.00     0.009 C 
ENDROOT
BRANCH   1  17
HETATM   17  C3  UNL     1       4.818  10.383  23.997  1.00  0.00     0.191 C 
BRANCH  17  18
HETATM   18  O2  UNL     1       5.095  11.750  23.651  1.00  0.00    -0.321 OA
BRANCH  18  19
HETATM   19  C2  UNL     1       6.257  12.361  23.981  1.00  0.00     0.254 C 
HETATM   20  C1  UNL     1       6.224  13.776  24.441  1.00  0.00     0.126 C 
HETATM   21  O1  UNL     1       7.342  11.765  23.907  1.00  0.00    -0.266 OA
ENDBRANCH  18  19
ENDBRANCH  17  18
ENDBRANCH   1  17
BRANCH   3  22
HETATM   22  O3  UNL     1       4.001   9.302  21.828  1.00  0.00    -0.395 OA
ATOM     23  H3  UNL     1       3.924   8.566  21.233  1.00  0.00     0.210 HD
ENDBRANCH   3  22
BRANCH  14  24
HETATM   24  O5  UNL     1      -0.519  10.538  24.151  1.00  0.00    -0.395 OA
ATOM     25  H5  UNL     1      -0.163   9.935  23.510  1.00  0.00     0.210 HD
ENDBRANCH  14  24
TORSDOF 5
ENDMDL
MODEL 4
REMARK VINA RESULT: -6.707448798      2.461      6.146
REMARK  5 active torsions:
REMARK  status: ('A' for Active; 'I' for Inactive)
REMARK    1  A    between atoms: C2_2  and  O2_4 
REMARK    2  A    between atoms: O2_4  and  C3_5 
REMARK    3  A    between atoms: C3_5  and  C4_6 
REMARK    4  A    between atoms: C6_8  and  O3_9 
REMARK    5  A    between atoms: C16_21  and  O5_22 
ROOT
HETATM    1  C4  UNL     1       4.849   9.670  22.940  1.00  0.00     0.008 C 
HETATM    2  C5  UNL     1       4.829  11.166  22.697  1.00  0.00     0.020 C 
HETATM    3  C6  UNL     1       4.471   9.053  21.619  1.00  0.00     0.128 C 
HETATM    4  C7  UNL     1       4.422   7.573  21.635  1.00  0.00     0.033 C 
HETATM    5  C8  UNL     1       4.103   6.964  22.954  1.00  0.00     0.012 C 
HETATM    6  C9  UNL     1       3.353   7.866  23.909  1.00  0.00    -0.035 C 
HETATM    7  C10 UNL     1       3.390   7.112  25.255  1.00  0.00     0.016 C 
HETATM    8  C11 UNL     1       1.930   7.913  23.437  1.00  0.00     0.008 C 
HETATM    9  C12 UNL     1       1.150   6.670  23.609  1.00  0.00     0.013 C 
HETATM   10  C13 UNL     1       0.228   6.850  24.823  1.00  0.00     0.079 C 
HETATM   11  C14 UNL     1       0.583   8.207  25.320  1.00  0.00     0.134 C 
HETATM   12  O4  UNL     1       0.497   8.640  26.465  1.00  0.00    -0.297 OA
HETATM   13  C15 UNL     1       1.071   8.927  24.114  1.00  0.00     0.089 C 
HETATM   14  C16 UNL     1       1.692  10.231  24.393  1.00  0.00     0.130 C 
HETATM   15  C17 UNL     1       3.130  10.241  24.702  1.00  0.00     0.039 C 
HETATM   16  C18 UNL     1       4.011   9.201  24.093  1.00  0.00     0.009 C 
ENDROOT
BRANCH   1  17
HETATM   17  C3  UNL     1       6.345   9.354  23.129  1.00  0.00     0.191 C 
BRANCH  17  18
HETATM   18  O2  UNL     1       6.544   8.916  24.484  1.00  0.00    -0.321 OA
BRANCH  18  19
HETATM   19  C2  UNL     1       7.235   7.791  24.788  1.00  0.00     0.254 C 
HETATM   20  C1  UNL     1       8.235   7.272  23.816  1.00  0.00     0.126 C 
HETATM   21  O1  UNL     1       7.049   7.191  25.857  1.00  0.00    -0.266 OA
ENDBRANCH  18  19
ENDBRANCH  17  18
ENDBRANCH   1  17
BRANCH   3  22
HETATM   22  O3  UNL     1       5.497   9.424  20.717  1.00  0.00    -0.395 OA
ATOM     23  H3  UNL     1       5.409   8.840  19.974  1.00  0.00     0.210 HD
ENDBRANCH   3  22
BRANCH  14  24
HETATM   24  O5  UNL     1       1.306  11.112  23.351  1.00  0.00    -0.395 OA
ATOM     25  H5  UNL     1       1.015  11.919  23.758  1.00  0.00     0.210 HD
ENDBRANCH  14  24
TORSDOF 5
ENDMDL
MODEL 5
REMARK VINA RESULT: -6.684027514      2.741      4.181
REMARK  5 active torsions:
REMARK  status: ('A' for Active; 'I' for Inactive)
REMARK    1  A    between atoms: C2_2  and  O2_4 
REMARK    2  A    between atoms: O2_4  and  C3_5 
REMARK    3  A    between atoms: C3_5  and  C4_6 
REMARK    4  A    between atoms: C6_8  and  O3_9 
REMARK    5  A    between atoms: C16_21  and  O5_22 
ROOT
HETATM    1  C4  UNL     1       1.409   7.814  25.714  1.00  0.00     0.008 C 
HETATM    2  C5  UNL     1       0.896   7.298  27.045  1.00  0.00     0.020 C 
HETATM    3  C6  UNL     1       0.897   6.834  24.690  1.00  0.00     0.128 C 
HETATM    4  C7  UNL     1       1.295   7.150  23.300  1.00  0.00     0.033 C 
HETATM    5  C8  UNL     1       2.571   7.902  23.161  1.00  0.00     0.012 C 
HETATM    6  C9  UNL     1       3.528   7.755  24.323  1.00  0.00    -0.035 C 
HETATM    7  C10 UNL     1       4.615   8.817  24.059  1.00  0.00     0.016 C 
HETATM    8  C11 UNL     1       4.158   6.399  24.200  1.00  0.00     0.008 C 
HETATM    9  C12 UNL     1       5.104   6.225  23.079  1.00  0.00     0.013 C 
HETATM   10  C13 UNL     1       6.530   6.284  23.645  1.00  0.00     0.079 C 
HETATM   11  C14 UNL     1       6.309   6.549  25.092  1.00  0.00     0.134 C 
HETATM   12  O4  UNL     1       7.058   7.119  25.881  1.00  0.00    -0.297 OA
HETATM   13  C15 UNL     1       4.969   5.968  25.375  1.00  0.00     0.089 C 
HETATM   14  C16 UNL     1       4.429   6.301  26.703  1.00  0.00     0.130 C 
HETATM   15  C17 UNL     1       3.663   7.550  26.825  1.00  0.00     0.039 C 
HETATM   16  C18 UNL     1       2.889   8.046  25.648  1.00  0.00     0.009 C 
ENDROOT
BRANCH   1  17
HETATM   17  C3  UNL     1       0.597   9.104  25.490  1.00  0.00     0.191 C 
BRANCH  17  18
HETATM   18  O2  UNL     1      -0.106   9.410  26.705  1.00  0.00    -0.321 OA
BRANCH  18  19
HETATM   19  C2  UNL     1      -1.004  10.420  26.789  1.00  0.00     0.254 C 
HETATM   20  C1  UNL     1      -1.368  11.167  25.555  1.00  0.00     0.126 C 
HETATM   21  O1  UNL     1      -1.525  10.732  27.871  1.00  0.00    -0.266 OA
ENDBRANCH  18  19
ENDBRANCH  17  18
ENDBRANCH   1  17
BRANCH   3  22
HETATM   22  O3  UNL     1      -0.514   6.923  24.749  1.00  0.00    -0.395 OA
ATOM     23  H3  UNL     1      -0.779   7.337  23.936  1.00  0.00     0.210 HD
ENDBRANCH   3  22
BRANCH  14  24
HETATM   24  O5  UNL     1       3.760   5.147  27.184  1.00  0.00    -0.395 OA
ATOM     25  H5  UNL     1       4.410   4.460  27.270  1.00  0.00     0.210 HD
ENDBRANCH  14  24
TORSDOF 5
ENDMDL
