MODEL 1
REMARK VINA RESULT: -7.727121683      0.000      0.000
REMARK  6 active torsions:
REMARK  status: ('A' for Active; 'I' for Inactive)
REMARK    1  A    between atoms: N1_2  and  C3_4 
REMARK    2  A    between atoms: C4_5  and  O1_6 
REMARK    3  A    between atoms: C6_9  and  O2_10 
REMARK    4  A    between atoms: O2_10  and  C7_11 
REMARK    5  A    between atoms: C8_13  and  O4_14 
REMARK    6  A    between atoms: C21_29  and  O6_30 
ROOT
HETATM    1  C7  UNL     1       2.430   7.824  24.488  1.00  0.00     0.268 C 
HETATM    2  O3  UNL     1       1.572   6.874  25.155  1.00  0.00    -0.331 OA
HETATM    3  C8  UNL     1       0.418   7.458  25.505  1.00  0.00     0.264 C 
HETATM    4  C9  UNL     1       0.629   8.928  25.325  1.00  0.00     0.050 C 
HETATM    5  C10 UNL     1      -0.608   9.700  25.085  1.00  0.00     0.010 C 
HETATM    6  C11 UNL     1      -0.323  10.926  24.260  1.00  0.00     0.007 C 
HETATM    7  C12 UNL     1       1.155  11.233  24.371  1.00  0.00     0.005 C 
HETATM    8  C13 UNL     1       1.835  10.138  23.528  1.00  0.00     0.069 C 
HETATM    9  C14 UNL     1       3.212  10.543  23.276  1.00  0.00     0.132 C 
HETATM   10  O5  UNL     1       3.877   9.863  22.512  1.00  0.00    -0.298 OA
HETATM   11  C15 UNL     1       3.868  11.726  23.880  1.00  0.00     0.079 C 
HETATM   12  C16 UNL     1       2.921  12.873  24.116  1.00  0.00     0.016 C 
HETATM   13  C17 UNL     1       1.504  12.550  23.738  1.00  0.00    -0.043 C 
HETATM   14  C18 UNL     1       1.243  12.634  22.272  1.00  0.00     0.015 C 
HETATM   15  C19 UNL     1       0.594  13.595  24.403  1.00  0.00     0.015 C 
HETATM   16  C20 UNL     1       1.494   8.850  24.047  1.00  0.00     0.061 C 
ENDROOT
BRANCH   1  17
HETATM   17  O2  UNL     1       3.385   8.112  25.397  1.00  0.00    -0.353 OA
BRANCH  17  18
HETATM   18  C6  UNL     1       4.529   7.371  25.391  1.00  0.00     0.158 C 
HETATM   19  C5  UNL     1       5.700   8.068  24.720  1.00  0.00     0.068 C 
HETATM   20  C4  UNL     1       6.349   7.072  23.785  1.00  0.00     0.145 C 
HETATM   21  C3  UNL     1       5.161   6.217  23.392  1.00  0.00     0.138 C 
HETATM   22  C21 UNL     1       4.537   6.033  24.782  1.00  0.00     0.172 C 
BRANCH  20  23
HETATM   23  O1  UNL     1       6.797   7.728  22.641  1.00  0.00    -0.393 OA
ATOM     24  H1  UNL     1       7.529   7.234  22.292  1.00  0.00     0.210 HD
ENDBRANCH  20  23
BRANCH  21  25
HETATM   25  N1  UNL     1       5.431   5.053  22.694  1.00  0.00    -0.412 N 
HETATM   26  C1  UNL     1       6.658   4.409  22.805  1.00  0.00     0.143 C 
HETATM   27  C2  UNL     1       4.556   4.664  21.647  1.00  0.00     0.143 C 
ENDBRANCH  21  25
BRANCH  22  28
HETATM   28  O6  UNL     1       5.459   5.184  25.455  1.00  0.00    -0.391 OA
ATOM     29  H6  UNL     1       6.272   5.676  25.435  1.00  0.00     0.210 HD
ENDBRANCH  22  28
ENDBRANCH  17  18
ENDBRANCH   1  17
BRANCH   3  30
HETATM   30  O4  UNL     1      -0.668   6.981  24.768  1.00  0.00    -0.371 OA
ATOM     31  H4  UNL     1      -1.202   6.370  25.261  1.00  0.00     0.212 HD
ENDBRANCH   3  30
TORSDOF 6
ENDMDL
MODEL 2
REMARK VINA RESULT: -7.706845438      2.890      5.954
REMARK  6 active torsions:
REMARK  status: ('A' for Active; 'I' for Inactive)
REMARK    1  A    between atoms: N1_2  and  C3_4 
REMARK    2  A    between atoms: C4_5  and  O1_6 
REMARK    3  A    between atoms: C6_9  and  O2_10 
REMARK    4  A    between atoms: O2_10  and  C7_11 
REMARK    5  A    between atoms: C8_13  and  O4_14 
REMARK    6  A    between atoms: C21_29  and  O6_30 
ROOT
HETATM    1  C7  UNL     1       3.698   6.571  25.476  1.00  0.00     0.268 C 
HETATM    2  O3  UNL     1       3.985   5.273  26.040  1.00  0.00    -0.331 OA
HETATM    3  C8  UNL     1       5.261   4.938  25.805  1.00  0.00     0.264 C 
HETATM    4  C9  UNL     1       5.765   5.920  24.796  1.00  0.00     0.050 C 
HETATM    5  C10 UNL     1       7.230   6.124  24.818  1.00  0.00     0.010 C 
HETATM    6  C11 UNL     1       7.584   7.510  24.351  1.00  0.00     0.007 C 
HETATM    7  C12 UNL     1       6.415   8.052  23.558  1.00  0.00     0.005 C 
HETATM    8  C13 UNL     1       5.343   8.358  24.620  1.00  0.00     0.069 C 
HETATM    9  C14 UNL     1       4.325   9.205  24.014  1.00  0.00     0.132 C 
HETATM   10  O5  UNL     1       3.455   9.661  24.737  1.00  0.00    -0.298 OA
HETATM   11  C15 UNL     1       4.268   9.558  22.577  1.00  0.00     0.079 C 
HETATM   12  C16 UNL     1       5.627   9.675  21.940  1.00  0.00     0.016 C 
HETATM   13  C17 UNL     1       6.747   9.355  22.887  1.00  0.00    -0.043 C 
HETATM   14  C18 UNL     1       7.083  10.473  23.815  1.00  0.00     0.015 C 
HETATM   15  C19 UNL     1       8.008   9.091  22.049  1.00  0.00     0.015 C 
HETATM   16  C20 UNL     1       5.022   7.162  25.337  1.00  0.00     0.061 C 
ENDROOT
BRANCH   1  17
HETATM   17  O2  UNL     1       2.947   6.307  24.388  1.00  0.00    -0.353 OA
BRANCH  17  18
HETATM   18  C6  UNL     1       1.599   6.501  24.468  1.00  0.00     0.158 C 
HETATM   19  C5  UNL     1       1.107   7.685  23.653  1.00  0.00     0.068 C 
HETATM   20  C4  UNL     1       0.172   8.486  24.532  1.00  0.00     0.145 C 
HETATM   21  C3  UNL     1       0.752   8.217  25.905  1.00  0.00     0.138 C 
HETATM   22  C21 UNL     1       0.961   6.702  25.777  1.00  0.00     0.172 C 
BRANCH  20  23
HETATM   23  O1  UNL     1       0.327   9.844  24.264  1.00  0.00    -0.393 OA
ATOM     24  H1  UNL     1      -0.417  10.124  23.744  1.00  0.00     0.210 HD
ENDBRANCH  20  23
BRANCH  21  25
HETATM   25  N1  UNL     1       0.004   8.631  26.993  1.00  0.00    -0.412 N 
HETATM   26  C1  UNL     1      -0.770   9.786  26.945  1.00  0.00     0.143 C 
HETATM   27  C2  UNL     1       0.244   8.032  28.257  1.00  0.00     0.143 C 
ENDBRANCH  21  25
BRANCH  22  28
HETATM   28  O6  UNL     1      -0.362   6.179  25.772  1.00  0.00    -0.391 OA
ATOM     29  H6  UNL     1      -0.257   5.307  25.410  1.00  0.00     0.210 HD
ENDBRANCH  22  28
ENDBRANCH  17  18
ENDBRANCH   1  17
BRANCH   3  30
HETATM   30  O4  UNL     1       6.033   4.926  26.969  1.00  0.00    -0.371 OA
ATOM     31  H4  UNL     1       6.958   4.794  26.791  1.00  0.00     0.212 HD
ENDBRANCH   3  30
TORSDOF 6
ENDMDL
MODEL 3
REMARK VINA RESULT: -7.626190365      2.300      4.596
REMARK  6 active torsions:
REMARK  status: ('A' for Active; 'I' for Inactive)
REMARK    1  A    between atoms: N1_2  and  C3_4 
REMARK    2  A    between atoms: C4_5  and  O1_6 
REMARK    3  A    between atoms: C6_9  and  O2_10 
REMARK    4  A    between atoms: O2_10  and  C7_11 
REMARK    5  A    between atoms: C8_13  and  O4_14 
REMARK    6  A    between atoms: C21_29  and  O6_30 
ROOT
HETATM    1  C7  UNL     1       2.872   9.853  23.680  1.00  0.00     0.268 C 
HETATM    2  O3  UNL     1       2.242  10.946  22.979  1.00  0.00    -0.331 OA
HETATM    3  C8  UNL     1       1.045  11.214  23.520  1.00  0.00     0.264 C 
HETATM    4  C9  UNL     1       0.739  10.069  24.431  1.00  0.00     0.050 C 
HETATM    5  C10 UNL     1      -0.190  10.394  25.535  1.00  0.00     0.010 C 
HETATM    6  C11 UNL     1       0.074   9.520  26.732  1.00  0.00     0.007 C 
HETATM    7  C12 UNL     1       0.830   8.297  26.263  1.00  0.00     0.005 C 
HETATM    8  C13 UNL     1       2.246   8.819  25.954  1.00  0.00     0.069 C 
HETATM    9  C14 UNL     1       3.142   7.677  25.839  1.00  0.00     0.132 C 
HETATM   10  O5  UNL     1       4.336   7.895  25.725  1.00  0.00    -0.298 OA
HETATM   11  C15 UNL     1       2.709   6.260  25.853  1.00  0.00     0.079 C 
HETATM   12  C16 UNL     1       1.506   6.016  26.727  1.00  0.00     0.016 C 
HETATM   13  C17 UNL     1       0.972   7.272  27.353  1.00  0.00    -0.043 C 
HETATM   14  C18 UNL     1       1.748   7.722  28.543  1.00  0.00     0.015 C 
HETATM   15  C19 UNL     1      -0.453   6.979  27.847  1.00  0.00     0.015 C 
HETATM   16  C20 UNL     1       2.174   9.844  24.959  1.00  0.00     0.061 C 
ENDROOT
BRANCH   1  17
HETATM   17  O2  UNL     1       2.770   8.807  22.836  1.00  0.00    -0.353 OA
BRANCH  17  18
HETATM   18  C6  UNL     1       3.875   8.431  22.132  1.00  0.00     0.158 C 
HETATM   19  C5  UNL     1       4.588   7.224  22.718  1.00  0.00     0.068 C 
HETATM   20  C4  UNL     1       6.066   7.543  22.759  1.00  0.00     0.145 C 
HETATM   21  C3  UNL     1       6.040   9.046  22.946  1.00  0.00     0.138 C 
HETATM   22  C21 UNL     1       4.965   9.392  21.906  1.00  0.00     0.172 C 
BRANCH  20  23
HETATM   23  O1  UNL     1       6.633   6.982  23.901  1.00  0.00    -0.393 OA
ATOM     24  H1  UNL     1       5.929   6.620  24.425  1.00  0.00     0.210 HD
ENDBRANCH  20  23
BRANCH  21  25
HETATM   25  N1  UNL     1       7.245   9.715  22.812  1.00  0.00    -0.412 N 
HETATM   26  C1  UNL     1       8.319   9.146  22.136  1.00  0.00     0.143 C 
HETATM   27  C2  UNL     1       7.480  10.867  23.605  1.00  0.00     0.143 C 
ENDBRANCH  21  25
BRANCH  22  28
HETATM   28  O6  UNL     1       5.607   9.136  20.662  1.00  0.00    -0.391 OA
ATOM     29  H6  UNL     1       4.962   8.634  20.177  1.00  0.00     0.210 HD
ENDBRANCH  22  28
ENDBRANCH  17  18
ENDBRANCH   1  17
BRANCH   3  30
HETATM   30  O4  UNL     1       1.022  12.443  24.183  1.00  0.00    -0.371 OA
ATOM     31  H4  UNL     1       0.153  12.830  24.202  1.00  0.00     0.212 HD
ENDBRANCH   3  30
TORSDOF 6
ENDMDL
MODEL 4
REMARK VINA RESULT: -7.586456080      2.649      4.181
REMARK  6 active torsions:
REMARK  status: ('A' for Active; 'I' for Inactive)
REMARK    1  A    between atoms: N1_2  and  C3_4 
REMARK    2  A    between atoms: C4_5  and  O1_6 
REMARK    3  A    between atoms: C6_9  and  O2_10 
REMARK    4  A    between atoms: O2_10  and  C7_11 
REMARK    5  A    between atoms: C8_13  and  O4_14 
REMARK    6  A    between atoms: C21_29  and  O6_30 
ROOT
HETATM    1  C7  UNL     1       4.460  10.381  23.327  1.00  0.00     0.268 C 
HETATM    2  O3  UNL     1       3.040  10.176  23.162  1.00  0.00    -0.331 OA
HETATM    3  C8  UNL     1       2.360  11.215  23.667  1.00  0.00     0.264 C 
HETATM    4  C9  UNL     1       3.350  12.008  24.460  1.00  0.00     0.050 C 
HETATM    5  C10 UNL     1       3.007  13.438  24.613  1.00  0.00     0.010 C 
HETATM    6  C11 UNL     1       4.250  14.273  24.763  1.00  0.00     0.007 C 
HETATM    7  C12 UNL     1       5.376  13.364  25.204  1.00  0.00     0.005 C 
HETATM    8  C13 UNL     1       5.716  12.542  23.947  1.00  0.00     0.069 C 
HETATM    9  C14 UNL     1       7.006  11.898  24.155  1.00  0.00     0.132 C 
HETATM   10  O5  UNL     1       7.508  11.305  23.215  1.00  0.00    -0.298 OA
HETATM   11  C15 UNL     1       7.760  11.912  25.430  1.00  0.00     0.079 C 
HETATM   12  C16 UNL     1       7.570  13.181  26.218  1.00  0.00     0.016 C 
HETATM   13  C17 UNL     1       6.613  14.137  25.567  1.00  0.00    -0.043 C 
HETATM   14  C18 UNL     1       7.217  14.918  24.450  1.00  0.00     0.015 C 
HETATM   15  C19 UNL     1       6.178  15.159  26.629  1.00  0.00     0.015 C 
HETATM   16  C20 UNL     1       4.557  11.823  23.515  1.00  0.00     0.061 C 
ENDROOT
BRANCH   1  17
HETATM   17  O2  UNL     1       4.808   9.535  24.318  1.00  0.00    -0.353 OA
BRANCH  17  18
HETATM   18  C6  UNL     1       5.173   8.264  23.987  1.00  0.00     0.158 C 
HETATM   19  C5  UNL     1       5.403   8.067  22.498  1.00  0.00     0.068 C 
HETATM   20  C4  UNL     1       4.686   6.799  22.090  1.00  0.00     0.145 C 
HETATM   21  C3  UNL     1       3.532   6.782  23.071  1.00  0.00     0.138 C 
HETATM   22  C21 UNL     1       4.307   7.132  24.349  1.00  0.00     0.172 C 
BRANCH  20  23
HETATM   23  O1  UNL     1       4.155   6.953  20.812  1.00  0.00    -0.393 OA
ATOM     24  H1  UNL     1       3.922   7.868  20.704  1.00  0.00     0.210 HD
ENDBRANCH  20  23
BRANCH  21  25
HETATM   25  N1  UNL     1       2.773   5.626  23.126  1.00  0.00    -0.412 N 
HETATM   26  C1  UNL     1       3.084   4.516  22.348  1.00  0.00     0.143 C 
HETATM   27  C2  UNL     1       1.509   5.666  23.768  1.00  0.00     0.143 C 
ENDBRANCH  21  25
BRANCH  22  28
HETATM   28  O6  UNL     1       5.086   5.968  24.599  1.00  0.00    -0.391 OA
ATOM     29  H6  UNL     1       5.459   6.129  25.458  1.00  0.00     0.210 HD
ENDBRANCH  22  28
ENDBRANCH  17  18
ENDBRANCH   1  17
BRANCH   3  30
HETATM   30  O4  UNL     1       1.736  11.978  22.677  1.00  0.00    -0.371 OA
ATOM     31  H4  UNL     1       1.845  12.912  22.816  1.00  0.00     0.212 HD
ENDBRANCH   3  30
TORSDOF 6
ENDMDL
MODEL 5
REMARK VINA RESULT: -7.580809572      2.841      5.080
REMARK  6 active torsions:
REMARK  status: ('A' for Active; 'I' for Inactive)
REMARK    1  A    between atoms: N1_2  and  C3_4 
REMARK    2  A    between atoms: C4_5  and  O1_6 
REMARK    3  A    between atoms: C6_9  and  O2_10 
REMARK    4  A    between atoms: O2_10  and  C7_11 
REMARK    5  A    between atoms: C8_13  and  O4_14 
REMARK    6  A    between atoms: C21_29  and  O6_30 
ROOT
HETATM    1  C7  UNL     1      -0.036   9.534  25.144  1.00  0.00     0.268 C 
HETATM    2  O3  UNL     1      -1.018  10.588  25.238  1.00  0.00    -0.331 OA
HETATM    3  C8  UNL     1      -0.526  11.726  24.732  1.00  0.00     0.264 C 
HETATM    4  C9  UNL     1       0.942  11.499  24.558  1.00  0.00     0.050 C 
HETATM    5  C10 UNL     1       1.575  12.340  23.520  1.00  0.00     0.010 C 
HETATM    6  C11 UNL     1       2.766  11.644  22.919  1.00  0.00     0.007 C 
HETATM    7  C12 UNL     1       3.220  10.571  23.884  1.00  0.00     0.005 C 
HETATM    8  C13 UNL     1       2.142   9.476  23.771  1.00  0.00     0.069 C 
HETATM    9  C14 UNL     1       2.659   8.258  24.381  1.00  0.00     0.132 C 
HETATM   10  O5  UNL     1       1.998   7.240  24.274  1.00  0.00    -0.298 OA
HETATM   11  C15 UNL     1       3.937   8.165  25.125  1.00  0.00     0.079 C 
HETATM   12  C16 UNL     1       5.001   9.090  24.595  1.00  0.00     0.016 C 
HETATM   13  C17 UNL     1       4.520   9.948  23.461  1.00  0.00    -0.043 C 
HETATM   14  C18 UNL     1       4.481   9.238  22.151  1.00  0.00     0.015 C 
HETATM   15  C19 UNL     1       5.514  11.109  23.299  1.00  0.00     0.015 C 
HETATM   16  C20 UNL     1       0.864  10.023  24.108  1.00  0.00     0.061 C 
ENDROOT
BRANCH   1  17
HETATM   17  O2  UNL     1       0.401   9.367  26.409  1.00  0.00    -0.353 OA
BRANCH  17  18
HETATM   18  C6  UNL     1      -0.031   8.278  27.106  1.00  0.00     0.158 C 
HETATM   19  C5  UNL     1      -0.109   8.508  28.605  1.00  0.00     0.068 C 
HETATM   20  C4  UNL     1       0.537   7.320  29.283  1.00  0.00     0.145 C 
HETATM   21  C3  UNL     1       1.568   6.914  28.250  1.00  0.00     0.138 C 
HETATM   22  C21 UNL     1       0.688   7.000  26.995  1.00  0.00     0.172 C 
BRANCH  20  23
HETATM   23  O1  UNL     1       1.220   7.745  30.420  1.00  0.00    -0.393 OA
ATOM     24  H1  UNL     1       0.593   7.800  31.131  1.00  0.00     0.210 HD
ENDBRANCH  20  23
BRANCH  21  25
HETATM   25  N1  UNL     1       2.214   5.706  28.449  1.00  0.00    -0.412 N 
HETATM   26  C1  UNL     1       2.243   5.097  29.699  1.00  0.00     0.143 C 
HETATM   27  C2  UNL     1       3.089   5.223  27.443  1.00  0.00     0.143 C 
ENDBRANCH  21  25
BRANCH  22  28
HETATM   28  O6  UNL     1      -0.211   5.907  27.140  1.00  0.00    -0.391 OA
ATOM     29  H6  UNL     1      -1.064   6.298  26.991  1.00  0.00     0.210 HD
ENDBRANCH  22  28
ENDBRANCH  17  18
ENDBRANCH   1  17
BRANCH   3  30
HETATM   30  O4  UNL     1      -1.152  12.096  23.539  1.00  0.00    -0.371 OA
ATOM     31  H4  UNL     1      -0.988  13.004  23.309  1.00  0.00     0.212 HD
ENDBRANCH   3  30
TORSDOF 6
ENDMDL
