MODEL 1
REMARK VINA RESULT: -6.614772923      0.000      0.000
REMARK  7 active torsions:
REMARK  status: ('A' for Active; 'I' for Inactive)
REMARK    1  A    between atoms: C8_8  and  O1_9 
REMARK    2  A    between atoms: O1_9  and  C9_10 
REMARK    3  A    between atoms: C11_13  and  O3_14 
REMARK    4  A    between atoms: C16_20  and  C17_21 
REMARK    5  A    between atoms: C17_21  and  O5_22 
REMARK    6  A    between atoms: C18_24  and  O6_25 
REMARK    7  A    between atoms: C21_29  and  O7_30 
ROOT
HETATM    1  C1  UNL     1       0.567   6.575  27.037  1.00  0.00     0.017 C 
HETATM    2  C2  UNL     1       1.498   6.718  26.100  1.00  0.00    -0.056 C 
HETATM    3  C3  UNL     1       1.326   5.959  24.836  1.00  0.00     0.018 C 
HETATM    4  C4  UNL     1       2.420   4.884  24.680  1.00  0.00     0.009 C 
HETATM    5  C5  UNL     1       3.734   5.548  24.233  1.00  0.00     0.007 C 
HETATM    6  C6  UNL     1       4.036   6.475  25.316  1.00  0.00     0.006 A 
HETATM    7  C7  UNL     1       4.880   7.693  25.265  1.00  0.00     0.036 A 
HETATM    8  C8  UNL     1       5.712   7.654  24.102  1.00  0.00     0.167 C 
HETATM    9  C11 UNL     1       6.094   8.918  23.375  1.00  0.00     0.161 C 
HETATM   10  C13 UNL     1       4.792   9.374  22.678  1.00  0.00     0.084 C 
HETATM   11  C14 UNL     1       4.453   8.588  21.492  1.00  0.00     0.020 C 
HETATM   12  C15 UNL     1       3.858   9.469  23.786  1.00  0.00     0.147 C 
HETATM   13  O4  UNL     1       4.076  10.559  24.352  1.00  0.00    -0.296 OA
HETATM   14  C16 UNL     1       2.765   8.659  24.410  1.00  0.00     0.079 C 
HETATM   15  C18 UNL     1       1.712   8.140  23.546  1.00  0.00     0.137 C 
HETATM   16  C19 UNL     1       1.312   6.725  23.581  1.00  0.00     0.042 C 
HETATM   17  C20 UNL     1       3.457   7.789  25.366  1.00  0.00     0.019 A 
HETATM   18  C21 UNL     1       2.584   7.667  26.568  1.00  0.00     0.157 C 
ENDROOT
BRANCH   8  19
HETATM   19  O1  UNL     1       7.003   7.138  24.511  1.00  0.00    -0.313 OA
BRANCH  19  20
HETATM   20  C9  UNL     1       7.768   6.285  23.783  1.00  0.00     0.255 C 
HETATM   21  C10 UNL     1       7.268   4.922  23.385  1.00  0.00     0.126 C 
HETATM   22  O2  UNL     1       8.924   6.636  23.431  1.00  0.00    -0.266 OA
ENDBRANCH  19  20
ENDBRANCH   8  19
BRANCH   9  23
HETATM   23  O3  UNL     1       6.650   9.882  24.139  1.00  0.00    -0.387 OA
HETATM   24  C12 UNL     1       7.806  10.406  23.568  1.00  0.00     0.202 C 
ENDBRANCH   9  23
BRANCH  14  25
HETATM   25  C17 UNL     1       2.041   9.743  25.251  1.00  0.00     0.184 C 
BRANCH  25  26
HETATM   26  O5  UNL     1       1.636  10.822  24.457  1.00  0.00    -0.400 OA
ATOM     27  H5  UNL     1       0.916  11.296  24.856  1.00  0.00     0.209 HD
ENDBRANCH  25  26
ENDBRANCH  14  25
BRANCH  18  28
HETATM   28  O7  UNL     1       3.217   6.930  27.612  1.00  0.00    -0.390 OA
ATOM     29  H7  UNL     1       3.683   7.604  28.092  1.00  0.00     0.210 HD
ENDBRANCH  18  28
BRANCH  15  30
HETATM   30  O6  UNL     1       0.469   8.856  23.629  1.00  0.00    -0.394 OA
ATOM     31  H6  UNL     1       0.083   9.071  22.788  1.00  0.00     0.210 HD
ENDBRANCH  15  30
TORSDOF 7
ENDMDL
MODEL 2
REMARK VINA RESULT: -6.275234407      1.996      5.217
REMARK  7 active torsions:
REMARK  status: ('A' for Active; 'I' for Inactive)
REMARK    1  A    between atoms: C8_8  and  O1_9 
REMARK    2  A    between atoms: O1_9  and  C9_10 
REMARK    3  A    between atoms: C11_13  and  O3_14 
REMARK    4  A    between atoms: C16_20  and  C17_21 
REMARK    5  A    between atoms: C17_21  and  O5_22 
REMARK    6  A    between atoms: C18_24  and  O6_25 
REMARK    7  A    between atoms: C21_29  and  O7_30 
ROOT
HETATM    1  C1  UNL     1       3.852   4.266  22.679  1.00  0.00     0.017 C 
HETATM    2  C2  UNL     1       3.660   5.432  23.285  1.00  0.00    -0.056 C 
HETATM    3  C3  UNL     1       4.234   5.604  24.643  1.00  0.00     0.018 C 
HETATM    4  C4  UNL     1       3.122   5.737  25.703  1.00  0.00     0.009 C 
HETATM    5  C5  UNL     1       2.529   7.156  25.652  1.00  0.00     0.007 C 
HETATM    6  C6  UNL     1       2.000   7.258  24.298  1.00  0.00     0.006 A 
HETATM    7  C7  UNL     1       1.739   8.488  23.512  1.00  0.00     0.036 A 
HETATM    8  C8  UNL     1       1.689   9.619  24.388  1.00  0.00     0.167 C 
HETATM    9  C11 UNL     1       2.165  10.975  23.936  1.00  0.00     0.161 C 
HETATM   10  C13 UNL     1       3.703  10.843  23.862  1.00  0.00     0.084 C 
HETATM   11  C14 UNL     1       4.358  10.856  25.170  1.00  0.00     0.020 C 
HETATM   12  C15 UNL     1       3.879   9.714  22.966  1.00  0.00     0.147 C 
HETATM   13  O4  UNL     1       3.743  10.149  21.804  1.00  0.00    -0.296 OA
HETATM   14  C16 UNL     1       4.160   8.247  23.044  1.00  0.00     0.079 C 
HETATM   15  C18 UNL     1       5.289   7.802  23.851  1.00  0.00     0.137 C 
HETATM   16  C19 UNL     1       5.149   6.736  24.855  1.00  0.00     0.042 C 
HETATM   17  C20 UNL     1       2.837   7.630  23.190  1.00  0.00     0.019 A 
HETATM   18  C21 UNL     1       2.847   6.363  22.407  1.00  0.00     0.157 C 
ENDROOT
BRANCH   8  19
HETATM   19  O1  UNL     1       0.294   9.871  24.689  1.00  0.00    -0.313 OA
BRANCH  19  20
HETATM   20  C9  UNL     1      -0.201  10.137  25.925  1.00  0.00     0.255 C 
HETATM   21  C10 UNL     1      -0.100   9.138  27.046  1.00  0.00     0.126 C 
HETATM   22  O2  UNL     1      -0.759  11.243  26.143  1.00  0.00    -0.266 OA
ENDBRANCH  19  20
ENDBRANCH   8  19
BRANCH   9  23
HETATM   23  O3  UNL     1       1.618  11.430  22.789  1.00  0.00    -0.387 OA
HETATM   24  C12 UNL     1       1.024  12.679  22.948  1.00  0.00     0.202 C 
ENDBRANCH   9  23
BRANCH  14  25
HETATM   25  C17 UNL     1       4.617   7.957  21.591  1.00  0.00     0.184 C 
BRANCH  25  26
HETATM   26  O5  UNL     1       5.641   8.825  21.194  1.00  0.00    -0.400 OA
ATOM     27  H5  UNL     1       6.395   8.348  20.868  1.00  0.00     0.209 HD
ENDBRANCH  25  26
ENDBRANCH  14  25
BRANCH  18  28
HETATM   28  O7  UNL     1       1.566   5.739  22.387  1.00  0.00    -0.390 OA
ATOM     29  H7  UNL     1       0.977   6.463  22.562  1.00  0.00     0.210 HD
ENDBRANCH  18  28
BRANCH  15  30
HETATM   30  O6  UNL     1       6.446   7.416  23.092  1.00  0.00    -0.394 OA
ATOM     31  H6  UNL     1       6.324   6.643  22.553  1.00  0.00     0.210 HD
ENDBRANCH  15  30
TORSDOF 7
ENDMDL
MODEL 3
REMARK VINA RESULT: -6.168261533      2.106      4.180
REMARK  7 active torsions:
REMARK  status: ('A' for Active; 'I' for Inactive)
REMARK    1  A    between atoms: C8_8  and  O1_9 
REMARK    2  A    between atoms: O1_9  and  C9_10 
REMARK    3  A    between atoms: C11_13  and  O3_14 
REMARK    4  A    between atoms: C16_20  and  C17_21 
REMARK    5  A    between atoms: C17_21  and  O5_22 
REMARK    6  A    between atoms: C18_24  and  O6_25 
REMARK    7  A    between atoms: C21_29  and  O7_30 
ROOT
HETATM    1  C1  UNL     1      -0.621   6.208  26.701  1.00  0.00     0.017 C 
HETATM    2  C2  UNL     1       0.550   6.699  26.311  1.00  0.00    -0.056 C 
HETATM    3  C3  UNL     1       1.663   6.690  27.294  1.00  0.00     0.018 C 
HETATM    4  C4  UNL     1       2.060   8.124  27.696  1.00  0.00     0.009 C 
HETATM    5  C5  UNL     1       2.904   8.758  26.577  1.00  0.00     0.007 C 
HETATM    6  C6  UNL     1       2.012   8.747  25.425  1.00  0.00     0.006 A 
HETATM    7  C7  UNL     1       2.378   8.785  23.989  1.00  0.00     0.036 A 
HETATM    8  C8  UNL     1       3.726   9.242  23.846  1.00  0.00     0.167 C 
HETATM    9  C11 UNL     1       4.608   8.733  22.736  1.00  0.00     0.161 C 
HETATM   10  C13 UNL     1       4.929   7.275  23.131  1.00  0.00     0.084 C 
HETATM   11  C14 UNL     1       5.917   7.160  24.204  1.00  0.00     0.020 C 
HETATM   12  C15 UNL     1       3.608   6.692  23.287  1.00  0.00     0.147 C 
HETATM   13  O4  UNL     1       3.196   6.415  22.143  1.00  0.00    -0.296 OA
HETATM   14  C16 UNL     1       2.649   6.355  24.385  1.00  0.00     0.079 C 
HETATM   15  C18 UNL     1       3.140   5.581  25.518  1.00  0.00     0.137 C 
HETATM   16  C19 UNL     1       2.906   6.007  26.906  1.00  0.00     0.042 C 
HETATM   17  C20 UNL     1       1.879   7.586  24.588  1.00  0.00     0.019 A 
HETATM   18  C21 UNL     1       0.472   7.189  24.879  1.00  0.00     0.157 C 
ENDROOT
BRANCH   8  19
HETATM   19  O1  UNL     1       3.673  10.663  23.565  1.00  0.00    -0.313 OA
BRANCH  19  20
HETATM   20  C9  UNL     1       4.476  11.601  24.130  1.00  0.00     0.255 C 
HETATM   21  C10 UNL     1       3.956  12.963  24.503  1.00  0.00     0.126 C 
HETATM   22  O2  UNL     1       5.685  11.329  24.349  1.00  0.00    -0.266 OA
ENDBRANCH  19  20
ENDBRANCH   8  19
BRANCH   9  23
HETATM   23  O3  UNL     1       4.096   8.843  21.492  1.00  0.00    -0.387 OA
HETATM   24  C12 UNL     1       5.085   8.842  20.512  1.00  0.00     0.202 C 
ENDBRANCH   9  23
BRANCH  14  25
HETATM   25  C17 UNL     1       1.703   5.365  23.654  1.00  0.00     0.184 C 
BRANCH  25  26
HETATM   26  O5  UNL     1       2.417   4.317  23.062  1.00  0.00    -0.400 OA
ATOM     27  H5  UNL     1       1.958   3.490  23.150  1.00  0.00     0.209 HD
ENDBRANCH  25  26
ENDBRANCH  14  25
BRANCH  18  28
HETATM   28  O7  UNL     1      -0.389   8.320  24.980  1.00  0.00    -0.390 OA
ATOM     29  H7  UNL     1      -1.046   8.144  24.316  1.00  0.00     0.210 HD
ENDBRANCH  18  28
BRANCH  15  30
HETATM   30  O6  UNL     1       2.750   4.198  25.507  1.00  0.00    -0.394 OA
ATOM     31  H6  UNL     1       1.834   4.047  25.709  1.00  0.00     0.210 HD
ENDBRANCH  15  30
TORSDOF 7
ENDMDL
MODEL 4
REMARK VINA RESULT: -6.097040718      1.893      4.304
REMARK  7 active torsions:
REMARK  status: ('A' for Active; 'I' for Inactive)
REMARK    1  A    between atoms: C8_8  and  O1_9 
REMARK    2  A    between atoms: O1_9  and  C9_10 
REMARK    3  A    between atoms: C11_13  and  O3_14 
REMARK    4  A    between atoms: C16_20  and  C17_21 
REMARK    5  A    between atoms: C17_21  and  O5_22 
REMARK    6  A    between atoms: C18_24  and  O6_25 
REMARK    7  A    between atoms: C21_29  and  O7_30 
ROOT
HETATM    1  C1  UNL     1       6.838   4.131  25.893  1.00  0.00     0.017 C 
HETATM    2  C2  UNL     1       5.937   4.746  25.136  1.00  0.00    -0.056 C 
HETATM    3  C3  UNL     1       5.298   3.962  24.049  1.00  0.00     0.018 C 
HETATM    4  C4  UNL     1       5.707   4.499  22.663  1.00  0.00     0.009 C 
HETATM    5  C5  UNL     1       4.916   5.782  22.354  1.00  0.00     0.007 C 
HETATM    6  C6  UNL     1       5.306   6.692  23.424  1.00  0.00     0.006 A 
HETATM    7  C7  UNL     1       4.564   7.870  23.934  1.00  0.00     0.036 A 
HETATM    8  C8  UNL     1       3.576   8.269  22.979  1.00  0.00     0.167 C 
HETATM    9  C11 UNL     1       2.263   8.863  23.419  1.00  0.00     0.161 C 
HETATM   10  C13 UNL     1       1.486   7.677  24.033  1.00  0.00     0.084 C 
HETATM   11  C14 UNL     1       0.935   6.757  23.039  1.00  0.00     0.020 C 
HETATM   12  C15 UNL     1       2.401   7.193  25.051  1.00  0.00     0.147 C 
HETATM   13  O4  UNL     1       2.273   7.942  26.040  1.00  0.00    -0.296 OA
HETATM   14  C16 UNL     1       3.410   6.103  25.232  1.00  0.00     0.079 C 
HETATM   15  C18 UNL     1       3.014   4.737  24.917  1.00  0.00     0.137 C 
HETATM   16  C19 UNL     1       3.830   3.876  24.046  1.00  0.00     0.042 C 
HETATM   17  C20 UNL     1       4.657   6.669  24.706  1.00  0.00     0.019 A 
HETATM   18  C21 UNL     1       5.767   6.188  25.575  1.00  0.00     0.157 C 
ENDROOT
BRANCH   8  19
HETATM   19  O1  UNL     1       4.146   9.342  22.190  1.00  0.00    -0.313 OA
BRANCH  19  20
HETATM   20  C9  UNL     1       5.030   9.178  21.173  1.00  0.00     0.255 C 
HETATM   21  C10 UNL     1       6.477   9.570  21.315  1.00  0.00     0.126 C 
HETATM   22  O2  UNL     1       4.636   8.687  20.084  1.00  0.00    -0.266 OA
ENDBRANCH  19  20
ENDBRANCH   8  19
BRANCH   9  23
HETATM   23  O3  UNL     1       2.355   9.921  24.251  1.00  0.00    -0.387 OA
HETATM   24  C12 UNL     1       1.281  10.797  24.112  1.00  0.00     0.202 C 
ENDBRANCH   9  23
BRANCH  14  25
HETATM   25  C17 UNL     1       3.556   6.091  26.776  1.00  0.00     0.184 C 
BRANCH  25  26
HETATM   26  O5  UNL     1       2.316   5.932  27.406  1.00  0.00    -0.400 OA
ATOM     27  H5  UNL     1       1.845   5.182  27.062  1.00  0.00     0.209 HD
ENDBRANCH  25  26
ENDBRANCH  14  25
BRANCH  18  28
HETATM   28  O7  UNL     1       7.015   6.775  25.218  1.00  0.00    -0.390 OA
ATOM     29  H7  UNL     1       7.109   6.530  24.305  1.00  0.00     0.210 HD
ENDBRANCH  18  28
BRANCH  15  30
HETATM   30  O6  UNL     1       2.745   3.916  26.065  1.00  0.00    -0.394 OA
ATOM     31  H6  UNL     1       3.517   3.523  26.457  1.00  0.00     0.210 HD
ENDBRANCH  15  30
TORSDOF 7
ENDMDL
MODEL 5
REMARK VINA RESULT: -5.904891555      1.815      5.607
REMARK  7 active torsions:
REMARK  status: ('A' for Active; 'I' for Inactive)
REMARK    1  A    between atoms: C8_8  and  O1_9 
REMARK    2  A    between atoms: O1_9  and  C9_10 
REMARK    3  A    between atoms: C11_13  and  O3_14 
REMARK    4  A    between atoms: C16_20  and  C17_21 
REMARK    5  A    between atoms: C17_21  and  O5_22 
REMARK    6  A    between atoms: C18_24  and  O6_25 
REMARK    7  A    between atoms: C21_29  and  O7_30 
ROOT
HETATM    1  C1  UNL     1       6.857   5.667  23.709  1.00  0.00     0.017 C 
HETATM    2  C2  UNL     1       5.595   6.078  23.777  1.00  0.00    -0.056 C 
HETATM    3  C3  UNL     1       4.713   5.790  22.619  1.00  0.00     0.018 C 
HETATM    4  C4  UNL     1       4.295   7.090  21.903  1.00  0.00     0.009 C 
HETATM    5  C5  UNL     1       3.191   7.792  22.712  1.00  0.00     0.007 C 
HETATM    6  C6  UNL     1       3.825   8.061  23.996  1.00  0.00     0.006 A 
HETATM    7  C7  UNL     1       3.169   8.282  25.308  1.00  0.00     0.036 A 
HETATM    8  C8  UNL     1       1.789   8.601  25.109  1.00  0.00     0.167 C 
HETATM    9  C11 UNL     1       0.740   8.176  26.104  1.00  0.00     0.161 C 
HETATM   10  C13 UNL     1       0.624   6.647  25.917  1.00  0.00     0.084 C 
HETATM   11  C14 UNL     1      -0.110   6.255  24.714  1.00  0.00     0.020 C 
HETATM   12  C15 UNL     1       1.991   6.200  26.119  1.00  0.00     0.147 C 
HETATM   13  O4  UNL     1       2.178   6.153  27.351  1.00  0.00    -0.296 OA
HETATM   14  C16 UNL     1       3.179   5.805  25.300  1.00  0.00     0.079 C 
HETATM   15  C18 UNL     1       2.994   4.813  24.249  1.00  0.00     0.137 C 
HETATM   16  C19 UNL     1       3.475   5.041  22.877  1.00  0.00     0.042 C 
HETATM   17  C20 UNL     1       3.874   7.068  25.034  1.00  0.00     0.019 A 
HETATM   18  C21 UNL     1       5.338   6.792  25.090  1.00  0.00     0.157 C 
ENDROOT
BRANCH   8  19
HETATM   19  O1  UNL     1       1.670  10.045  25.141  1.00  0.00    -0.313 OA
BRANCH  19  20
HETATM   20  C9  UNL     1       1.166  10.809  24.139  1.00  0.00     0.255 C 
HETATM   21  C10 UNL     1      -0.252  11.312  24.168  1.00  0.00     0.126 C 
HETATM   22  O2  UNL     1       1.897  11.105  23.159  1.00  0.00    -0.266 OA
ENDBRANCH  19  20
ENDBRANCH   8  19
BRANCH   9  23
HETATM   23  O3  UNL     1       0.975   8.535  27.384  1.00  0.00    -0.387 OA
HETATM   24  C12 UNL     1      -0.188   8.552  28.149  1.00  0.00     0.202 C 
ENDBRANCH   9  23
BRANCH  14  25
HETATM   25  C17 UNL     1       4.029   5.055  26.359  1.00  0.00     0.184 C 
BRANCH  25  26
HETATM   26  O5  UNL     1       3.300   4.026  26.966  1.00  0.00    -0.400 OA
ATOM     27  H5  UNL     1       2.375   4.086  26.759  1.00  0.00     0.209 HD
ENDBRANCH  25  26
ENDBRANCH  14  25
BRANCH  18  28
HETATM   28  O7  UNL     1       6.109   7.983  24.957  1.00  0.00    -0.390 OA
ATOM     29  H7  UNL     1       7.000   7.656  24.948  1.00  0.00     0.210 HD
ENDBRANCH  18  28
BRANCH  15  30
HETATM   30  O6  UNL     1       3.483   3.501  24.576  1.00  0.00    -0.394 OA
ATOM     31  H6  UNL     1       2.809   2.886  24.840  1.00  0.00     0.210 HD
ENDBRANCH  15  30
TORSDOF 7
ENDMDL
