MODEL 1
REMARK VINA RESULT: -8.150462474      0.000      0.000
REMARK  5 active torsions:
REMARK  status: ('A' for Active; 'I' for Inactive)
REMARK    1  A    between atoms: C3_3  and  N1_4 
REMARK       I    between atoms: N1_4  and  C4_6 
REMARK       I    between atoms: C4_6  and  N2_8 
REMARK    2  A    between atoms: N3_11  and  C7_12 
REMARK    3  A    between atoms: C7_12  and  N4_13 
REMARK    4  A    between atoms: C8_14  and  O2_15 
REMARK    5  A    between atoms: C11_19  and  O3_20 
ROOT
HETATM    1  C1  UNL     1       5.141   3.566  29.425  1.00  0.00     0.014 C 
HETATM    2  C2  UNL     1       4.818   3.454  28.265  1.00  0.00    -0.098 C 
HETATM    3  C3  UNL     1       4.420   3.339  26.856  1.00  0.00     0.217 C 
ENDROOT
BRANCH   3   4
HETATM    4  N1  UNL     1       4.353   4.697  26.339  1.00  0.00    -0.333 N 
HETATM    5  C4  UNL     1       5.109   5.131  25.234  1.00  0.00     0.319 C 
HETATM    6  O1  UNL     1       5.876   4.339  24.657  1.00  0.00    -0.247 OA
HETATM    7  N2  UNL     1       4.999   6.460  24.782  1.00  0.00    -0.331 N 
HETATM    8  C5  UNL     1       4.097   7.403  25.454  1.00  0.00     0.158 C 
HETATM    9  C17 UNL     1       5.740   6.989  23.653  1.00  0.00     0.158 C 
HETATM   10  C6  UNL     1       3.853   8.529  24.454  1.00  0.00     0.294 C 
HETATM   11  N3  UNL     1       5.075   9.227  24.203  1.00  0.00     0.109 N 
HETATM   12  C16 UNL     1       6.216   8.373  24.028  1.00  0.00     0.294 C 
ATOM     13  H1  UNL     1       3.730   5.363  26.797  1.00  0.00     0.165 HD
BRANCH  11  14
HETATM   14  C7  UNL     1       4.984  10.203  23.148  1.00  0.00     0.406 C 
BRANCH  14  15
HETATM   15  N4  UNL     1       4.909  11.545  23.695  1.00  0.00    -0.280 N 
HETATM   16  C8  UNL     1       6.021  12.287  23.974  1.00  0.00     0.152 A 
HETATM   17  C9  UNL     1       5.553  13.498  24.460  1.00  0.00     0.004 A 
HETATM   18  C10 UNL     1       4.182  13.505  24.480  1.00  0.00     0.004 A 
HETATM   19  C15 UNL     1       6.366  14.681  24.919  1.00  0.00     0.044 C 
HETATM   20  C11 UNL     1       3.804  12.253  23.989  1.00  0.00     0.152 A 
HETATM   21  C12 UNL     1       3.407  14.675  24.953  1.00  0.00     0.044 C 
HETATM   22  C13 UNL     1       4.268  15.453  25.907  1.00  0.00     0.005 C 
HETATM   23  C14 UNL     1       5.510  15.898  25.161  1.00  0.00     0.005 C 
BRANCH  16  24
HETATM   24  O2  UNL     1       7.349  11.900  23.804  1.00  0.00    -0.345 OA
ATOM     25  H2  UNL     1       7.926  12.143  23.089  1.00  0.00     0.219 HD
ENDBRANCH  16  24
BRANCH  20  26
HETATM   26  O3  UNL     1       2.475  11.880  23.857  1.00  0.00    -0.345 OA
ATOM     27  H3  UNL     1       2.082  11.300  23.214  1.00  0.00     0.219 HD
ENDBRANCH  20  26
ENDBRANCH  14  15
ENDBRANCH  11  14
ENDBRANCH   3   4
TORSDOF 5
ENDMDL
MODEL 2
REMARK VINA RESULT: -8.019381010      3.201      4.189
REMARK  5 active torsions:
REMARK  status: ('A' for Active; 'I' for Inactive)
REMARK    1  A    between atoms: C3_3  and  N1_4 
REMARK       I    between atoms: N1_4  and  C4_6 
REMARK       I    between atoms: C4_6  and  N2_8 
REMARK    2  A    between atoms: N3_11  and  C7_12 
REMARK    3  A    between atoms: C7_12  and  N4_13 
REMARK    4  A    between atoms: C8_14  and  O2_15 
REMARK    5  A    between atoms: C11_19  and  O3_20 
ROOT
HETATM    1  C1  UNL     1       3.263   6.250  31.028  1.00  0.00     0.014 C 
HETATM    2  C2  UNL     1       2.278   6.717  30.504  1.00  0.00    -0.098 C 
HETATM    3  C3  UNL     1       1.095   7.296  29.856  1.00  0.00     0.217 C 
ENDROOT
BRANCH   3   4
HETATM    4  N1  UNL     1       1.561   7.895  28.616  1.00  0.00    -0.333 N 
HETATM    5  C4  UNL     1       0.760   8.746  27.830  1.00  0.00     0.319 C 
HETATM    6  O1  UNL     1      -0.401   9.012  28.192  1.00  0.00    -0.247 OA
HETATM    7  N2  UNL     1       1.270   9.294  26.639  1.00  0.00    -0.331 N 
HETATM    8  C5  UNL     1       2.638   8.987  26.203  1.00  0.00     0.158 C 
HETATM    9  C17 UNL     1       0.514  10.178  25.772  1.00  0.00     0.158 C 
HETATM   10  C6  UNL     1       3.015  10.084  25.212  1.00  0.00     0.294 C 
HETATM   11  N3  UNL     1       2.180   9.999  24.055  1.00  0.00     0.109 N 
HETATM   12  C16 UNL     1       0.792   9.766  24.345  1.00  0.00     0.294 C 
ATOM     13  H1  UNL     1       2.509   7.690  28.301  1.00  0.00     0.165 HD
BRANCH  11  14
HETATM   14  C7  UNL     1       2.346  11.092  23.133  1.00  0.00     0.406 C 
BRANCH  14  15
HETATM   15  N4  UNL     1       3.219  12.106  23.691  1.00  0.00    -0.280 N 
HETATM   16  C8  UNL     1       2.744  13.265  24.236  1.00  0.00     0.152 A 
HETATM   17  C9  UNL     1       3.861  13.964  24.670  1.00  0.00     0.004 A 
HETATM   18  C10 UNL     1       5.002  13.252  24.399  1.00  0.00     0.004 A 
HETATM   19  C15 UNL     1       3.898  15.310  25.345  1.00  0.00     0.044 C 
HETATM   20  C11 UNL     1       4.562  12.080  23.779  1.00  0.00     0.152 A 
HETATM   21  C12 UNL     1       6.348  13.757  24.753  1.00  0.00     0.044 C 
HETATM   22  C13 UNL     1       6.284  15.257  24.815  1.00  0.00     0.005 C 
HETATM   23  C14 UNL     1       5.271  15.641  25.875  1.00  0.00     0.005 C 
BRANCH  16  24
HETATM   24  O2  UNL     1       1.410  13.658  24.333  1.00  0.00    -0.345 OA
ATOM     25  H2  UNL     1       0.915  14.156  23.694  1.00  0.00     0.219 HD
ENDBRANCH  16  24
BRANCH  20  26
HETATM   26  O3  UNL     1       5.438  11.094  23.353  1.00  0.00    -0.345 OA
ATOM     27  H3  UNL     1       5.819  10.970  22.492  1.00  0.00     0.219 HD
ENDBRANCH  20  26
ENDBRANCH  14  15
ENDBRANCH  11  14
ENDBRANCH   3   4
TORSDOF 5
ENDMDL
MODEL 3
REMARK VINA RESULT: -8.009000030      0.687      1.219
REMARK  5 active torsions:
REMARK  status: ('A' for Active; 'I' for Inactive)
REMARK    1  A    between atoms: C3_3  and  N1_4 
REMARK       I    between atoms: N1_4  and  C4_6 
REMARK       I    between atoms: C4_6  and  N2_8 
REMARK    2  A    between atoms: N3_11  and  C7_12 
REMARK    3  A    between atoms: C7_12  and  N4_13 
REMARK    4  A    between atoms: C8_14  and  O2_15 
REMARK    5  A    between atoms: C11_19  and  O3_20 
ROOT
HETATM    1  C1  UNL     1       2.585   1.909  25.229  1.00  0.00     0.014 C 
HETATM    2  C2  UNL     1       3.394   2.527  25.882  1.00  0.00    -0.098 C 
HETATM    3  C3  UNL     1       4.377   3.292  26.660  1.00  0.00     0.217 C 
ENDROOT
BRANCH   3   4
HETATM    4  N1  UNL     1       4.318   4.657  26.161  1.00  0.00    -0.333 N 
HETATM    5  C4  UNL     1       5.133   5.123  25.111  1.00  0.00     0.319 C 
HETATM    6  O1  UNL     1       5.947   4.352  24.570  1.00  0.00    -0.247 OA
HETATM    7  N2  UNL     1       5.028   6.457  24.674  1.00  0.00    -0.331 N 
HETATM    8  C5  UNL     1       4.071   7.374  25.305  1.00  0.00     0.158 C 
HETATM    9  C17 UNL     1       5.828   7.016  23.602  1.00  0.00     0.158 C 
HETATM   10  C6  UNL     1       3.870   8.513  24.311  1.00  0.00     0.294 C 
HETATM   11  N3  UNL     1       5.093   9.234  24.146  1.00  0.00     0.109 N 
HETATM   12  C16 UNL     1       6.257   8.401  24.027  1.00  0.00     0.294 C 
ATOM     13  H1  UNL     1       3.658   5.306  26.590  1.00  0.00     0.165 HD
BRANCH  11  14
HETATM   14  C7  UNL     1       5.050  10.226  23.103  1.00  0.00     0.406 C 
BRANCH  14  15
HETATM   15  N4  UNL     1       4.951  11.559  23.666  1.00  0.00    -0.280 N 
HETATM   16  C8  UNL     1       6.050  12.309  23.975  1.00  0.00     0.152 A 
HETATM   17  C9  UNL     1       5.561  13.509  24.469  1.00  0.00     0.004 A 
HETATM   18  C10 UNL     1       4.189  13.501  24.465  1.00  0.00     0.004 A 
HETATM   19  C15 UNL     1       6.353  14.694  24.957  1.00  0.00     0.044 C 
HETATM   20  C11 UNL     1       3.833  12.252  23.951  1.00  0.00     0.152 A 
HETATM   21  C12 UNL     1       3.394  14.657  24.940  1.00  0.00     0.044 C 
HETATM   22  C13 UNL     1       4.230  15.431  25.919  1.00  0.00     0.005 C 
HETATM   23  C14 UNL     1       5.480  15.898  25.201  1.00  0.00     0.005 C 
BRANCH  16  24
HETATM   24  O2  UNL     1       7.385  11.938  23.822  1.00  0.00    -0.345 OA
ATOM     25  H2  UNL     1       7.878  11.909  23.011  1.00  0.00     0.219 HD
ENDBRANCH  16  24
BRANCH  20  26
HETATM   26  O3  UNL     1       2.511  11.867  23.790  1.00  0.00    -0.345 OA
ATOM     27  H3  UNL     1       1.849  12.240  23.219  1.00  0.00     0.219 HD
ENDBRANCH  20  26
ENDBRANCH  14  15
ENDBRANCH  11  14
ENDBRANCH   3   4
TORSDOF 5
ENDMDL
MODEL 4
REMARK VINA RESULT: -7.894089932      4.045      7.589
REMARK  5 active torsions:
REMARK  status: ('A' for Active; 'I' for Inactive)
REMARK    1  A    between atoms: C3_3  and  N1_4 
REMARK       I    between atoms: N1_4  and  C4_6 
REMARK       I    between atoms: C4_6  and  N2_8 
REMARK    2  A    between atoms: N3_11  and  C7_12 
REMARK    3  A    between atoms: C7_12  and  N4_13 
REMARK    4  A    between atoms: C8_14  and  O2_15 
REMARK    5  A    between atoms: C11_19  and  O3_20 
ROOT
HETATM    1  C1  UNL     1      11.223  14.533  27.102  1.00  0.00     0.014 C 
HETATM    2  C2  UNL     1      10.356  15.045  26.432  1.00  0.00    -0.098 C 
HETATM    3  C3  UNL     1       9.299  15.649  25.611  1.00  0.00     0.217 C 
ENDROOT
BRANCH   3   4
HETATM    4  N1  UNL     1       8.482  14.548  25.125  1.00  0.00    -0.333 N 
HETATM    5  C4  UNL     1       7.085  14.645  24.970  1.00  0.00     0.319 C 
HETATM    6  O1  UNL     1       6.502  15.708  25.253  1.00  0.00    -0.247 OA
HETATM    7  N2  UNL     1       6.350  13.543  24.495  1.00  0.00    -0.331 N 
HETATM    8  C5  UNL     1       7.028  12.285  24.157  1.00  0.00     0.158 C 
HETATM    9  C17 UNL     1       4.912  13.557  24.306  1.00  0.00     0.158 C 
HETATM   10  C6  UNL     1       6.066  11.527  23.247  1.00  0.00     0.294 C 
HETATM   11  N3  UNL     1       4.884  11.182  23.972  1.00  0.00     0.109 N 
HETATM   12  C16 UNL     1       4.373  12.236  24.803  1.00  0.00     0.294 C 
ATOM     13  H1  UNL     1       8.939  13.669  24.886  1.00  0.00     0.165 HD
BRANCH  11  14
HETATM   14  C7  UNL     1       3.845  10.608  23.156  1.00  0.00     0.406 C 
BRANCH  14  15
HETATM   15  N4  UNL     1       2.577  10.615  23.860  1.00  0.00    -0.280 N 
HETATM   16  C8  UNL     1       1.549  11.447  23.514  1.00  0.00     0.152 A 
HETATM   17  C9  UNL     1       0.517  11.156  24.393  1.00  0.00     0.004 A 
HETATM   18  C10 UNL     1       0.897  10.166  25.263  1.00  0.00     0.004 A 
HETATM   19  C15 UNL     1      -0.849  11.789  24.449  1.00  0.00     0.044 C 
HETATM   20  C11 UNL     1       2.207   9.845  24.900  1.00  0.00     0.152 A 
HETATM   21  C12 UNL     1      -0.009   9.652  26.316  1.00  0.00     0.044 C 
HETATM   22  C13 UNL     1      -1.002  10.729  26.646  1.00  0.00     0.005 C 
HETATM   23  C14 UNL     1      -1.776  11.056  25.385  1.00  0.00     0.005 C 
BRANCH  16  24
HETATM   24  O2  UNL     1       1.547  12.390  22.488  1.00  0.00    -0.345 OA
ATOM     25  H2  UNL     1       1.489  12.217  21.556  1.00  0.00     0.219 HD
ENDBRANCH  16  24
BRANCH  20  26
HETATM   26  O3  UNL     1       2.941   8.870  25.559  1.00  0.00    -0.345 OA
ATOM     27  H3  UNL     1       2.676   8.317  26.285  1.00  0.00     0.219 HD
ENDBRANCH  20  26
ENDBRANCH  14  15
ENDBRANCH  11  14
ENDBRANCH   3   4
TORSDOF 5
ENDMDL
MODEL 5
REMARK VINA RESULT: -7.859476657      0.416      1.898
REMARK  5 active torsions:
REMARK  status: ('A' for Active; 'I' for Inactive)
REMARK    1  A    between atoms: C3_3  and  N1_4 
REMARK       I    between atoms: N1_4  and  C4_6 
REMARK       I    between atoms: C4_6  and  N2_8 
REMARK    2  A    between atoms: N3_11  and  C7_12 
REMARK    3  A    between atoms: C7_12  and  N4_13 
REMARK    4  A    between atoms: C8_14  and  O2_15 
REMARK    5  A    between atoms: C11_19  and  O3_20 
ROOT
HETATM    1  C1  UNL     1       5.344   3.270  29.138  1.00  0.00     0.014 C 
HETATM    2  C2  UNL     1       4.947   3.209  27.998  1.00  0.00    -0.098 C 
HETATM    3  C3  UNL     1       4.459   3.154  26.614  1.00  0.00     0.217 C 
ENDROOT
BRANCH   3   4
HETATM    4  N1  UNL     1       4.355   4.533  26.163  1.00  0.00    -0.333 N 
HETATM    5  C4  UNL     1       4.953   4.995  24.976  1.00  0.00     0.319 C 
HETATM    6  O1  UNL     1       5.604   4.210  24.263  1.00  0.00    -0.247 OA
HETATM    7  N2  UNL     1       4.815   6.343  24.594  1.00  0.00    -0.331 N 
HETATM    8  C5  UNL     1       4.048   7.278  25.427  1.00  0.00     0.158 C 
HETATM    9  C17 UNL     1       5.397   6.901  23.389  1.00  0.00     0.158 C 
HETATM   10  C6  UNL     1       3.692   8.450  24.517  1.00  0.00     0.294 C 
HETATM   11  N3  UNL     1       4.883   9.130  24.114  1.00  0.00     0.109 N 
HETATM   12  C16 UNL     1       5.962   8.258  23.740  1.00  0.00     0.294 C 
ATOM     13  H1  UNL     1       3.825   5.194  26.732  1.00  0.00     0.165 HD
BRANCH  11  14
HETATM   14  C7  UNL     1       4.666  10.149  23.121  1.00  0.00     0.406 C 
BRANCH  14  15
HETATM   15  N4  UNL     1       4.939  11.465  23.668  1.00  0.00    -0.280 N 
HETATM   16  C8  UNL     1       3.946  12.321  24.052  1.00  0.00     0.152 A 
HETATM   17  C9  UNL     1       4.589  13.454  24.529  1.00  0.00     0.004 A 
HETATM   18  C10 UNL     1       5.949  13.301  24.441  1.00  0.00     0.004 A 
HETATM   19  C15 UNL     1       3.957  14.707  25.076  1.00  0.00     0.044 C 
HETATM   20  C11 UNL     1       6.139  12.031  23.893  1.00  0.00     0.152 A 
HETATM   21  C12 UNL     1       6.890  14.357  24.882  1.00  0.00     0.044 C 
HETATM   22  C13 UNL     1       6.182  15.680  24.796  1.00  0.00     0.005 C 
HETATM   23  C14 UNL     1       4.973  15.625  25.708  1.00  0.00     0.005 C 
BRANCH  16  24
HETATM   24  O2  UNL     1       2.573  12.096  23.977  1.00  0.00    -0.345 OA
ATOM     25  H2  UNL     1       1.895  12.543  24.468  1.00  0.00     0.219 HD
ENDBRANCH  16  24
BRANCH  20  26
HETATM   26  O3  UNL     1       7.401  11.510  23.651  1.00  0.00    -0.345 OA
ATOM     27  H3  UNL     1       8.160  11.503  24.223  1.00  0.00     0.219 HD
ENDBRANCH  20  26
ENDBRANCH  14  15
ENDBRANCH  11  14
ENDBRANCH   3   4
TORSDOF 5
ENDMDL
