MODEL 1
REMARK VINA RESULT: -7.371813105      0.000      0.000
REMARK  5 active torsions:
REMARK  status: ('A' for Active; 'I' for Inactive)
REMARK    1  A    between atoms: C3_3  and  C4_4 
REMARK    2  A    between atoms: C7_7  and  O1_8 
REMARK    3  A    between atoms: N1_10  and  O2_11 
REMARK    4  A    between atoms: N2_14  and  S1_15 
REMARK    5  A    between atoms: S1_15  and  C9_18 
ROOT
HETATM    1  C1  UNL     1       4.148  15.544  25.396  1.00  0.00     0.112 C 
HETATM    2  C2  UNL     1       4.440  14.200  24.863  1.00  0.00    -0.104 C 
HETATM    3  C3  UNL     1       4.695  13.100  24.441  1.00  0.00    -0.046 C 
ENDROOT
BRANCH   3   4
HETATM    4  C4  UNL     1       5.021  11.790  23.923  1.00  0.00     0.125 A 
HETATM    5  C5  UNL     1       4.097  10.803  23.633  1.00  0.00    -0.005 A 
HETATM    6  C6  UNL     1       4.767   9.689  23.160  1.00  0.00     0.023 A 
HETATM    7  C14 UNL     1       2.623  10.637  23.694  1.00  0.00     0.073 C 
HETATM    8  C7  UNL     1       6.090  10.000  23.163  1.00  0.00     0.177 A 
HETATM    9  C8  UNL     1       3.862   8.565  22.817  1.00  0.00     0.177 C 
HETATM   10  N1  UNL     1       6.220  11.264  23.624  1.00  0.00    -0.192 N 
HETATM   11  N2  UNL     1       2.987   8.200  23.949  1.00  0.00    -0.317 N 
HETATM   12  C11 UNL     1       2.279   9.388  24.379  1.00  0.00     0.038 C 
HETATM   13  C12 UNL     1       2.356   9.642  25.868  1.00  0.00     0.039 C 
HETATM   14  C13 UNL     1       0.796   9.087  24.099  1.00  0.00     0.039 C 
BRANCH   8  15
HETATM   15  O1  UNL     1       7.084   9.111  22.746  1.00  0.00    -0.344 OA
ATOM     16  H1  UNL     1       7.719   9.322  22.072  1.00  0.00     0.219 HD
ENDBRANCH   8  15
BRANCH  10  17
HETATM   17  O2  UNL     1       7.414  11.924  23.769  1.00  0.00    -0.280 OA
ATOM     18  H2  UNL     1       8.033  12.073  23.065  1.00  0.00     0.245 HD
ENDBRANCH  10  17
BRANCH  11  19
HETATM   19  S1  UNL     1       3.433   7.004  25.025  1.00  0.00     0.110 S 
HETATM   20  O3  UNL     1       1.794   6.197  24.863  1.00  0.00    -0.234 OA
HETATM   21 CL1  UNL     1       4.817   6.538  23.752  1.00  0.00    -0.003 Cl
BRANCH  19  22
HETATM   22  C9  UNL     1       4.014   5.674  26.114  1.00  0.00     0.129 C 
HETATM   23  C10 UNL     1       4.389   6.124  27.544  1.00  0.00     0.020 C 
ENDBRANCH  19  22
ENDBRANCH  11  19
ENDBRANCH   3   4
TORSDOF 5
ENDMDL
MODEL 2
REMARK VINA RESULT: -7.083885598      1.010      1.064
REMARK  5 active torsions:
REMARK  status: ('A' for Active; 'I' for Inactive)
REMARK    1  A    between atoms: C3_3  and  C4_4 
REMARK    2  A    between atoms: C7_7  and  O1_8 
REMARK    3  A    between atoms: N1_10  and  O2_11 
REMARK    4  A    between atoms: N2_14  and  S1_15 
REMARK    5  A    between atoms: S1_15  and  C9_18 
ROOT
HETATM    1  C1  UNL     1       5.498  15.195  24.881  1.00  0.00     0.112 C 
HETATM    2  C2  UNL     1       5.718  13.787  24.499  1.00  0.00    -0.104 C 
HETATM    3  C3  UNL     1       5.899  12.632  24.207  1.00  0.00    -0.046 C 
ENDROOT
BRANCH   3   4
HETATM    4  C4  UNL     1       6.138  11.247  23.866  1.00  0.00     0.125 A 
HETATM    5  C5  UNL     1       5.154  10.332  23.541  1.00  0.00    -0.005 A 
HETATM    6  C6  UNL     1       5.749   9.112  23.274  1.00  0.00     0.023 A 
HETATM    7  C14 UNL     1       3.676  10.322  23.407  1.00  0.00     0.073 C 
HETATM    8  C7  UNL     1       7.088   9.288  23.436  1.00  0.00     0.177 A 
HETATM    9  C8  UNL     1       4.775   8.054  22.913  1.00  0.00     0.177 C 
HETATM   10  N1  UNL     1       7.299  10.575  23.791  1.00  0.00    -0.192 N 
HETATM   11  N2  UNL     1       3.723   7.902  23.938  1.00  0.00    -0.317 N 
HETATM   12  C11 UNL     1       3.105   9.195  24.150  1.00  0.00     0.038 C 
HETATM   13  C12 UNL     1       3.015   9.600  25.604  1.00  0.00     0.039 C 
HETATM   14  C13 UNL     1       1.647   9.015  23.691  1.00  0.00     0.039 C 
BRANCH   8  15
HETATM   15  O1  UNL     1       8.019   8.263  23.249  1.00  0.00    -0.344 OA
ATOM     16  H1  UNL     1       8.642   8.253  22.532  1.00  0.00     0.219 HD
ENDBRANCH   8  15
BRANCH  10  17
HETATM   17  O2  UNL     1       8.530  11.123  24.042  1.00  0.00    -0.280 OA
ATOM     18  H2  UNL     1       9.217  10.697  24.542  1.00  0.00     0.245 HD
ENDBRANCH  10  17
BRANCH  11  19
HETATM   19  S1  UNL     1       3.885   6.792  25.174  1.00  0.00     0.110 S 
HETATM   20  O3  UNL     1       2.210   6.124  24.840  1.00  0.00    -0.234 OA
HETATM   21 CL1  UNL     1       5.378   6.071  24.172  1.00  0.00    -0.003 Cl
BRANCH  19  22
HETATM   22  C9  UNL     1       4.163   5.537  26.454  1.00  0.00     0.129 C 
HETATM   23  C10 UNL     1       4.352   6.098  27.882  1.00  0.00     0.020 C 
ENDBRANCH  19  22
ENDBRANCH  11  19
ENDBRANCH   3   4
TORSDOF 5
ENDMDL
MODEL 3
REMARK VINA RESULT: -6.486271857      1.844      1.881
REMARK  5 active torsions:
REMARK  status: ('A' for Active; 'I' for Inactive)
REMARK    1  A    between atoms: C3_3  and  C4_4 
REMARK    2  A    between atoms: C7_7  and  O1_8 
REMARK    3  A    between atoms: N1_10  and  O2_11 
REMARK    4  A    between atoms: N2_14  and  S1_15 
REMARK    5  A    between atoms: S1_15  and  C9_18 
ROOT
HETATM    1  C1  UNL     1       7.452  14.910  24.697  1.00  0.00     0.112 C 
HETATM    2  C2  UNL     1       7.027  13.539  24.357  1.00  0.00    -0.104 C 
HETATM    3  C3  UNL     1       6.698  12.411  24.086  1.00  0.00    -0.046 C 
ENDROOT
BRANCH   3   4
HETATM    4  C4  UNL     1       6.321  11.059  23.742  1.00  0.00     0.125 A 
HETATM    5  C5  UNL     1       5.048  10.663  23.376  1.00  0.00    -0.005 A 
HETATM    6  C6  UNL     1       5.058   9.304  23.120  1.00  0.00     0.023 A 
HETATM    7  C14 UNL     1       3.719  11.299  23.189  1.00  0.00     0.073 C 
HETATM    8  C7  UNL     1       6.333   8.878  23.330  1.00  0.00     0.177 A 
HETATM    9  C8  UNL     1       3.733   8.775  22.716  1.00  0.00     0.177 C 
HETATM   10  N1  UNL     1       7.073   9.946  23.702  1.00  0.00    -0.192 N 
HETATM   11  N2  UNL     1       2.686   9.106  23.703  1.00  0.00    -0.317 N 
HETATM   12  C11 UNL     1       2.688  10.541  23.903  1.00  0.00     0.038 C 
HETATM   13  C12 UNL     1       2.732  10.956  25.357  1.00  0.00     0.039 C 
HETATM   14  C13 UNL     1       1.315  11.012  23.392  1.00  0.00     0.039 C 
BRANCH   8  15
HETATM   15  O1  UNL     1       6.729   7.548  23.168  1.00  0.00    -0.344 OA
ATOM     16  H1  UNL     1       7.193   7.060  23.838  1.00  0.00     0.219 HD
ENDBRANCH   8  15
BRANCH  10  17
HETATM   17  O2  UNL     1       8.410   9.904  24.000  1.00  0.00    -0.280 OA
ATOM     18  H2  UNL     1       8.940   9.115  23.983  1.00  0.00     0.245 HD
ENDBRANCH  10  17
BRANCH  11  19
HETATM   19  S1  UNL     1       2.302   8.047  24.935  1.00  0.00     0.110 S 
HETATM   20  O3  UNL     1       0.515   8.405  24.735  1.00  0.00    -0.234 OA
HETATM   21 CL1  UNL     1       3.092   6.664  23.832  1.00  0.00    -0.003 Cl
BRANCH  19  22
HETATM   22  C9  UNL     1       1.942   6.802  26.204  1.00  0.00     0.129 C 
HETATM   23  C10 UNL     1       2.102   7.295  27.660  1.00  0.00     0.020 C 
ENDBRANCH  19  22
ENDBRANCH  11  19
ENDBRANCH   3   4
TORSDOF 5
ENDMDL
MODEL 4
REMARK VINA RESULT: -6.362391987      3.727      6.624
REMARK  5 active torsions:
REMARK  status: ('A' for Active; 'I' for Inactive)
REMARK    1  A    between atoms: C3_3  and  C4_4 
REMARK    2  A    between atoms: C7_7  and  O1_8 
REMARK    3  A    between atoms: N1_10  and  O2_11 
REMARK    4  A    between atoms: N2_14  and  S1_15 
REMARK    5  A    between atoms: S1_15  and  C9_18 
ROOT
HETATM    1  C1  UNL     1       6.110   6.899  29.578  1.00  0.00     0.112 C 
HETATM    2  C2  UNL     1       4.768   7.303  29.117  1.00  0.00    -0.104 C 
HETATM    3  C3  UNL     1       3.681   7.643  28.724  1.00  0.00    -0.046 C 
ENDROOT
BRANCH   3   4
HETATM    4  C4  UNL     1       2.381   8.074  28.261  1.00  0.00     0.125 A 
HETATM    5  C5  UNL     1       2.007   8.169  26.933  1.00  0.00    -0.005 A 
HETATM    6  C6  UNL     1       0.699   8.613  26.868  1.00  0.00     0.023 A 
HETATM    7  C14 UNL     1       2.625   7.924  25.606  1.00  0.00     0.073 C 
HETATM    8  C7  UNL     1       0.281   8.785  28.150  1.00  0.00     0.177 A 
HETATM    9  C8  UNL     1       0.197   8.751  25.479  1.00  0.00     0.177 C 
HETATM   10  N1  UNL     1       1.305   8.456  28.969  1.00  0.00    -0.192 N 
HETATM   11  N2  UNL     1       1.076   9.611  24.661  1.00  0.00    -0.317 N 
HETATM   12  C11 UNL     1       2.422   9.080  24.728  1.00  0.00     0.038 C 
HETATM   13  C12 UNL     1       3.470  10.114  25.076  1.00  0.00     0.039 C 
HETATM   14  C13 UNL     1       2.747   8.645  23.289  1.00  0.00     0.039 C 
BRANCH   8  15
HETATM   15  O1  UNL     1      -1.001   9.229  28.482  1.00  0.00    -0.344 OA
ATOM     16  H1  UNL     1      -1.793   8.792  28.191  1.00  0.00     0.219 HD
ENDBRANCH   8  15
BRANCH  10  17
HETATM   17  O2  UNL     1       1.257   8.505  30.339  1.00  0.00    -0.280 OA
ATOM     18  H2  UNL     1       1.398   9.291  30.853  1.00  0.00     0.245 HD
ENDBRANCH  10  17
BRANCH  11  19
HETATM   19  S1  UNL     1       0.781  11.247  24.518  1.00  0.00     0.110 S 
HETATM   20  O3  UNL     1       1.595  11.287  22.875  1.00  0.00    -0.234 OA
HETATM   21 CL1  UNL     1      -1.101  10.796  24.600  1.00  0.00    -0.003 Cl
BRANCH  19  22
HETATM   22  C9  UNL     1       0.334  13.000  24.372  1.00  0.00     0.129 C 
HETATM   23  C10 UNL     1       1.518  13.948  24.074  1.00  0.00     0.020 C 
ENDBRANCH  19  22
ENDBRANCH  11  19
ENDBRANCH   3   4
TORSDOF 5
ENDMDL
MODEL 5
REMARK VINA RESULT: -6.334800250      2.517      3.384
REMARK  5 active torsions:
REMARK  status: ('A' for Active; 'I' for Inactive)
REMARK    1  A    between atoms: C3_3  and  C4_4 
REMARK    2  A    between atoms: C7_7  and  O1_8 
REMARK    3  A    between atoms: N1_10  and  O2_11 
REMARK    4  A    between atoms: N2_14  and  S1_15 
REMARK    5  A    between atoms: S1_15  and  C9_18 
ROOT
HETATM    1  C1  UNL     1       6.690  12.738  24.117  1.00  0.00     0.112 C 
HETATM    2  C2  UNL     1       6.028  11.504  23.654  1.00  0.00    -0.104 C 
HETATM    3  C3  UNL     1       5.500  10.495  23.260  1.00  0.00    -0.046 C 
ENDROOT
BRANCH   3   4
HETATM    4  C4  UNL     1       4.858   9.296  22.768  1.00  0.00     0.125 A 
HETATM    5  C5  UNL     1       4.065   8.456  23.527  1.00  0.00    -0.005 A 
HETATM    6  C6  UNL     1       3.623   7.416  22.729  1.00  0.00     0.023 A 
HETATM    7  C14 UNL     1       3.579   8.387  24.928  1.00  0.00     0.073 C 
HETATM    8  C7  UNL     1       4.146   7.626  21.492  1.00  0.00     0.177 A 
HETATM    9  C8  UNL     1       2.760   6.452  23.452  1.00  0.00     0.177 C 
HETATM   10  N1  UNL     1       4.884   8.758  21.537  1.00  0.00    -0.192 N 
HETATM   11  N2  UNL     1       3.417   5.928  24.666  1.00  0.00    -0.317 N 
HETATM   12  C11 UNL     1       3.821   7.053  25.485  1.00  0.00     0.038 C 
HETATM   13  C12 UNL     1       5.264   6.994  25.935  1.00  0.00     0.039 C 
HETATM   14  C13 UNL     1       2.992   6.919  26.774  1.00  0.00     0.039 C 
BRANCH   8  15
HETATM   15  O1  UNL     1       3.915   6.771  20.411  1.00  0.00    -0.344 OA
ATOM     16  H1  UNL     1       4.331   6.881  19.565  1.00  0.00     0.219 HD
ENDBRANCH   8  15
BRANCH  10  17
HETATM   17  O2  UNL     1       5.566   9.289  20.473  1.00  0.00    -0.280 OA
ATOM     18  H2  UNL     1       6.098   8.782  19.870  1.00  0.00     0.245 HD
ENDBRANCH  10  17
BRANCH  11  19
HETATM   19  S1  UNL     1       4.299   4.511  24.620  1.00  0.00     0.110 S 
HETATM   20  O3  UNL     1       3.467   3.902  26.136  1.00  0.00    -0.234 OA
HETATM   21 CL1  UNL     1       3.451   4.178  22.910  1.00  0.00    -0.003 Cl
BRANCH  19  22
HETATM   22  C9  UNL     1       5.205   2.948  24.453  1.00  0.00     0.129 C 
HETATM   23  C10 UNL     1       6.559   2.902  25.197  1.00  0.00     0.020 C 
ENDBRANCH  19  22
ENDBRANCH  11  19
ENDBRANCH   3   4
TORSDOF 5
ENDMDL
