MODEL 1
REMARK VINA RESULT: -6.758212222      0.000      0.000
REMARK  5 active torsions:
REMARK  status: ('A' for Active; 'I' for Inactive)
REMARK    1  A    between atoms: C2_2  and  O1_5 
REMARK    2  A    between atoms: O1_5  and  C5_6 
REMARK       I    between atoms: C5_6  and  N1_8 
REMARK    3  A    between atoms: N1_8  and  C6_10 
REMARK    4  A    between atoms: N2_12  and  C8_13 
REMARK    5  A    between atoms: C12_21  and  O4_22 
ROOT
HETATM    1  C6  UNL     1       3.884   8.476  23.156  1.00  0.00     0.135 C 
HETATM    2  C7  UNL     1       4.823   9.138  24.170  1.00  0.00     0.154 C 
HETATM    3  N2  UNL     1       5.420  10.184  23.359  1.00  0.00    -0.342 N 
HETATM    4  C11 UNL     1       5.748   9.563  22.100  1.00  0.00     0.160 C 
HETATM    5  C12 UNL     1       4.515   8.735  21.814  1.00  0.00     0.160 C 
ENDROOT
BRANCH   1   6
HETATM    6  N1  UNL     1       2.631   9.189  23.211  1.00  0.00    -0.328 N 
HETATM    7  C5  UNL     1       1.556   8.653  23.943  1.00  0.00     0.361 C 
HETATM    8  O2  UNL     1       1.693   7.560  24.544  1.00  0.00    -0.238 OA
ATOM      9  H1  UNL     1       2.526  10.077  22.722  1.00  0.00     0.165 HD
BRANCH   7  10
HETATM   10  O1  UNL     1       0.320   9.273  24.047  1.00  0.00    -0.294 OA
BRANCH  10  11
HETATM   11  C2  UNL     1       0.170  10.385  24.864  1.00  0.00     0.061 C 
HETATM   12  C1  UNL     1      -1.245  10.929  24.628  1.00  0.00     0.046 C 
HETATM   13  C3  UNL     1       0.276  10.031  26.338  1.00  0.00     0.046 C 
HETATM   14  C4  UNL     1       1.119  11.507  24.550  1.00  0.00     0.046 C 
ENDBRANCH  10  11
ENDBRANCH   7  10
ENDBRANCH   1   6
BRANCH   5  15
HETATM   15  O4  UNL     1       4.850   7.528  21.205  1.00  0.00    -0.392 OA
ATOM     16  H4  UNL     1       5.725   7.581  20.839  1.00  0.00     0.210 HD
ENDBRANCH   5  15
BRANCH   3  17
HETATM   17  C8  UNL     1       5.619  11.527  23.767  1.00  0.00     0.227 A 
HETATM   18  N3  UNL     1       6.833  12.149  23.716  1.00  0.00    -0.329 N 
HETATM   19  C9  UNL     1       6.604  13.384  24.178  1.00  0.00     0.137 A 
ATOM     20  H3  UNL     1       7.720  11.758  23.396  1.00  0.00     0.168 HD
HETATM   21  C10 UNL     1       5.269  13.499  24.502  1.00  0.00     0.140 A 
HETATM   22 BR1  UNL     1       4.351  15.003  25.201  1.00  0.00    -0.021 Br
HETATM   23  O3  UNL     1       4.724  12.344  24.231  1.00  0.00    -0.270 OA
ENDBRANCH   3  17
TORSDOF 5
ENDMDL
MODEL 2
REMARK VINA RESULT: -6.676791091      1.082      1.237
REMARK  5 active torsions:
REMARK  status: ('A' for Active; 'I' for Inactive)
REMARK    1  A    between atoms: C2_2  and  O1_5 
REMARK    2  A    between atoms: O1_5  and  C5_6 
REMARK       I    between atoms: C5_6  and  N1_8 
REMARK    3  A    between atoms: N1_8  and  C6_10 
REMARK    4  A    between atoms: N2_12  and  C8_13 
REMARK    5  A    between atoms: C12_21  and  O4_22 
ROOT
HETATM    1  C6  UNL     1       4.535   8.521  22.553  1.00  0.00     0.135 C 
HETATM    2  C7  UNL     1       5.558   9.121  23.522  1.00  0.00     0.154 C 
HETATM    3  N2  UNL     1       5.854  10.385  22.873  1.00  0.00    -0.342 N 
HETATM    4  C11 UNL     1       6.013  10.078  21.474  1.00  0.00     0.160 C 
HETATM    5  C12 UNL     1       4.862   9.131  21.215  1.00  0.00     0.160 C 
ENDROOT
BRANCH   1   6
HETATM    6  N1  UNL     1       3.235   8.998  22.960  1.00  0.00    -0.328 N 
HETATM    7  C5  UNL     1       2.279   8.087  23.443  1.00  0.00     0.361 C 
HETATM    8  O2  UNL     1       2.561   6.867  23.519  1.00  0.00    -0.238 OA
ATOM      9  H1  UNL     1       3.011   9.991  22.897  1.00  0.00     0.165 HD
BRANCH   7  10
HETATM   10  O1  UNL     1       1.008   8.461  23.854  1.00  0.00    -0.294 OA
BRANCH  10  11
HETATM   11  C2  UNL     1       0.763   8.719  25.197  1.00  0.00     0.061 C 
HETATM   12  C1  UNL     1      -0.309   9.815  25.255  1.00  0.00     0.046 C 
HETATM   13  C3  UNL     1       0.206   7.505  25.920  1.00  0.00     0.046 C 
HETATM   14  C4  UNL     1       1.956   9.244  25.946  1.00  0.00     0.046 C 
ENDBRANCH  10  11
ENDBRANCH   7  10
ENDBRANCH   1   6
BRANCH   5  15
HETATM   15  O4  UNL     1       5.224   8.133  20.314  1.00  0.00    -0.392 OA
ATOM     16  H4  UNL     1       4.500   7.946  19.728  1.00  0.00     0.210 HD
ENDBRANCH   5  15
BRANCH   3  17
HETATM   17  C8  UNL     1       5.957  11.640  23.525  1.00  0.00     0.227 A 
HETATM   18  N3  UNL     1       7.151  12.220  23.842  1.00  0.00    -0.329 N 
HETATM   19  C9  UNL     1       6.823  13.374  24.435  1.00  0.00     0.137 A 
ATOM     20  H3  UNL     1       8.087  11.854  23.665  1.00  0.00     0.168 HD
HETATM   21  C10 UNL     1       5.450  13.483  24.473  1.00  0.00     0.140 A 
HETATM   22 BR1  UNL     1       4.397  14.890  25.186  1.00  0.00    -0.021 Br
HETATM   23  O3  UNL     1       4.979  12.405  23.907  1.00  0.00    -0.270 OA
ENDBRANCH   3  17
TORSDOF 5
ENDMDL
MODEL 3
REMARK VINA RESULT: -6.611734657      2.764      4.267
REMARK  5 active torsions:
REMARK  status: ('A' for Active; 'I' for Inactive)
REMARK    1  A    between atoms: C2_2  and  O1_5 
REMARK    2  A    between atoms: O1_5  and  C5_6 
REMARK       I    between atoms: C5_6  and  N1_8 
REMARK    3  A    between atoms: N1_8  and  C6_10 
REMARK    4  A    between atoms: N2_12  and  C8_13 
REMARK    5  A    between atoms: C12_21  and  O4_22 
ROOT
HETATM    1  C6  UNL     1       0.036  10.769  24.209  1.00  0.00     0.135 C 
HETATM    2  C7  UNL     1       1.360  11.039  23.489  1.00  0.00     0.154 C 
HETATM    3  N2  UNL     1       1.538  12.456  23.747  1.00  0.00    -0.342 N 
HETATM    4  C11 UNL     1       0.250  13.060  23.517  1.00  0.00     0.160 C 
HETATM    5  C12 UNL     1      -0.692  12.087  24.193  1.00  0.00     0.160 C 
ENDROOT
BRANCH   1   6
HETATM    6  N1  UNL     1       0.356  10.446  25.578  1.00  0.00    -0.328 N 
HETATM    7  C5  UNL     1       1.108   9.292  25.864  1.00  0.00     0.361 C 
HETATM    8  O2  UNL     1       1.496   8.552  24.929  1.00  0.00    -0.238 OA
ATOM      9  H1  UNL     1       0.039  11.052  26.334  1.00  0.00     0.165 HD
BRANCH   7  10
HETATM   10  O1  UNL     1       1.458   8.910  27.151  1.00  0.00    -0.294 OA
BRANCH  10  11
HETATM   11  C2  UNL     1       0.502   8.354  27.991  1.00  0.00     0.061 C 
HETATM   12  C1  UNL     1       1.201   8.038  29.320  1.00  0.00     0.046 C 
HETATM   13  C3  UNL     1      -0.625   9.325  28.296  1.00  0.00     0.046 C 
HETATM   14  C4  UNL     1      -0.074   7.060  27.490  1.00  0.00     0.046 C 
ENDBRANCH  10  11
ENDBRANCH   7  10
ENDBRANCH   1   6
BRANCH   5  15
HETATM   15  O4  UNL     1      -1.883  11.965  23.484  1.00  0.00    -0.392 OA
ATOM     16  H4  UNL     1      -2.610  12.271  24.014  1.00  0.00     0.210 HD
ENDBRANCH   5  15
BRANCH   3  17
HETATM   17  C8  UNL     1       2.751  13.074  24.143  1.00  0.00     0.227 A 
HETATM   18  N3  UNL     1       3.972  12.482  23.996  1.00  0.00    -0.329 N 
HETATM   19  C9  UNL     1       4.844  13.373  24.481  1.00  0.00     0.137 A 
ATOM     20  H3  UNL     1       4.174  11.563  23.603  1.00  0.00     0.168 HD
HETATM   21  C10 UNL     1       4.154  14.485  24.913  1.00  0.00     0.140 A 
HETATM   22 BR1  UNL     1       4.841  16.071  25.692  1.00  0.00    -0.021 Br
HETATM   23  O3  UNL     1       2.891  14.246  24.683  1.00  0.00    -0.270 OA
ENDBRANCH   3  17
TORSDOF 5
ENDMDL
MODEL 4
REMARK VINA RESULT: -6.454429303      3.074      4.384
REMARK  5 active torsions:
REMARK  status: ('A' for Active; 'I' for Inactive)
REMARK    1  A    between atoms: C2_2  and  O1_5 
REMARK    2  A    between atoms: O1_5  and  C5_6 
REMARK       I    between atoms: C5_6  and  N1_8 
REMARK    3  A    between atoms: N1_8  and  C6_10 
REMARK    4  A    between atoms: N2_12  and  C8_13 
REMARK    5  A    between atoms: C12_21  and  O4_22 
ROOT
HETATM    1  C6  UNL     1       0.639   8.384  25.433  1.00  0.00     0.135 C 
HETATM    2  C7  UNL     1       2.102   8.636  25.810  1.00  0.00     0.154 C 
HETATM    3  N2  UNL     1       2.790   7.775  24.865  1.00  0.00    -0.342 N 
HETATM    4  C11 UNL     1       2.061   6.532  24.867  1.00  0.00     0.160 C 
HETATM    5  C12 UNL     1       0.621   6.997  24.846  1.00  0.00     0.160 C 
ENDROOT
BRANCH   1   6
HETATM    6  N1  UNL     1       0.305   9.320  24.387  1.00  0.00    -0.328 N 
HETATM    7  C5  UNL     1      -0.027  10.647  24.719  1.00  0.00     0.361 C 
HETATM    8  O2  UNL     1      -0.029  11.008  25.920  1.00  0.00    -0.238 OA
ATOM      9  H1  UNL     1       0.309   9.022  23.412  1.00  0.00     0.165 HD
BRANCH   7  10
HETATM   10  O1  UNL     1      -0.360  11.608  23.776  1.00  0.00    -0.294 OA
BRANCH  10  11
HETATM   11  C2  UNL     1       0.613  12.475  23.298  1.00  0.00     0.061 C 
HETATM   12  C1  UNL     1       0.161  12.935  21.906  1.00  0.00     0.046 C 
HETATM   13  C3  UNL     1       0.747  13.717  24.161  1.00  0.00     0.046 C 
HETATM   14  C4  UNL     1       1.964  11.840  23.123  1.00  0.00     0.046 C 
ENDBRANCH  10  11
ENDBRANCH   7  10
ENDBRANCH   1   6
BRANCH   5  15
HETATM   15  O4  UNL     1      -0.187   6.166  25.617  1.00  0.00    -0.392 OA
ATOM     16  H4  UNL     1      -0.010   5.256  25.408  1.00  0.00     0.210 HD
ENDBRANCH   5  15
BRANCH   3  17
HETATM   17  C8  UNL     1       3.940   8.130  24.115  1.00  0.00     0.227 A 
HETATM   18  N3  UNL     1       3.897   8.444  22.788  1.00  0.00    -0.329 N 
HETATM   19  C9  UNL     1       5.165   8.714  22.459  1.00  0.00     0.137 A 
ATOM     20  H3  UNL     1       3.077   8.468  22.181  1.00  0.00     0.168 HD
HETATM   21  C10 UNL     1       5.958   8.563  23.576  1.00  0.00     0.140 A 
HETATM   22 BR1  UNL     1       7.832   8.806  23.735  1.00  0.00    -0.021 Br
HETATM   23  O3  UNL     1       5.162   8.208  24.548  1.00  0.00    -0.270 OA
ENDBRANCH   3  17
TORSDOF 5
ENDMDL
MODEL 5
REMARK VINA RESULT: -6.454031804      2.477      4.016
REMARK  5 active torsions:
REMARK  status: ('A' for Active; 'I' for Inactive)
REMARK    1  A    between atoms: C2_2  and  O1_5 
REMARK    2  A    between atoms: O1_5  and  C5_6 
REMARK       I    between atoms: C5_6  and  N1_8 
REMARK    3  A    between atoms: N1_8  and  C6_10 
REMARK    4  A    between atoms: N2_12  and  C8_13 
REMARK    5  A    between atoms: C12_21  and  O4_22 
ROOT
HETATM    1  C6  UNL     1       1.447   8.916  24.536  1.00  0.00     0.135 C 
HETATM    2  C7  UNL     1       2.425   9.577  23.559  1.00  0.00     0.154 C 
HETATM    3  N2  UNL     1       2.358  10.963  23.987  1.00  0.00    -0.342 N 
HETATM    4  C11 UNL     1       0.958  11.242  24.187  1.00  0.00     0.160 C 
HETATM    5  C12 UNL     1       0.478  10.005  24.914  1.00  0.00     0.160 C 
ENDROOT
BRANCH   1   6
HETATM    6  N1  UNL     1       2.202   8.555  25.711  1.00  0.00    -0.328 N 
HETATM    7  C5  UNL     1       1.884   7.376  26.409  1.00  0.00     0.361 C 
HETATM    8  O2  UNL     1       0.947   6.645  26.005  1.00  0.00    -0.238 OA
ATOM      9  H1  UNL     1       2.963   9.152  26.034  1.00  0.00     0.165 HD
BRANCH   7  10
HETATM   10  O1  UNL     1       2.558   6.957  27.546  1.00  0.00    -0.294 OA
BRANCH  10  11
HETATM   11  C2  UNL     1       2.314   7.580  28.763  1.00  0.00     0.061 C 
HETATM   12  C1  UNL     1       2.428   6.503  29.850  1.00  0.00     0.046 C 
HETATM   13  C3  UNL     1       3.348   8.647  29.077  1.00  0.00     0.046 C 
HETATM   14  C4  UNL     1       0.936   8.168  28.884  1.00  0.00     0.046 C 
ENDBRANCH  10  11
ENDBRANCH   7  10
ENDBRANCH   1   6
BRANCH   5  15
HETATM   15  O4  UNL     1      -0.809   9.656  24.516  1.00  0.00    -0.392 OA
ATOM     16  H4  UNL     1      -1.371  10.421  24.525  1.00  0.00     0.210 HD
ENDBRANCH   5  15
BRANCH   3  17
HETATM   17  C8  UNL     1       3.470  11.825  24.159  1.00  0.00     0.227 A 
HETATM   18  N3  UNL     1       4.754  11.450  23.885  1.00  0.00    -0.329 N 
HETATM   19  C9  UNL     1       5.493  12.526  24.174  1.00  0.00     0.137 A 
ATOM     20  H3  UNL     1       5.077  10.547  23.536  1.00  0.00     0.168 HD
HETATM   21  C10 UNL     1       4.663  13.534  24.616  1.00  0.00     0.140 A 
HETATM   22 BR1  UNL     1       5.126  15.287  25.169  1.00  0.00    -0.021 Br
HETATM   23  O3  UNL     1       3.450  13.051  24.585  1.00  0.00    -0.270 OA
ENDBRANCH   3  17
TORSDOF 5
ENDMDL
