MODEL 1
REMARK VINA RESULT: -8.168411858      0.000      0.000
REMARK  4 active torsions:
REMARK  status: ('A' for Active; 'I' for Inactive)
REMARK    1  A    between atoms: N1_2  and  C2_4 
REMARK    2  A    between atoms: N3_7  and  C3_8 
REMARK    3  A    between atoms: C6_11  and  O1_12 
REMARK    4  A    between atoms: C6_11  and  C7_14 
ROOT
HETATM    1  C3  UNL     1       5.249  11.267  23.397  1.00  0.00     0.125 C 
HETATM    2  C4  UNL     1       3.790  11.026  23.699  1.00  0.00     0.032 C 
HETATM    3  C5  UNL     1       3.461   9.554  23.759  1.00  0.00     0.040 C 
HETATM    4  C6  UNL     1       4.320   8.781  22.760  1.00  0.00     0.063 C 
HETATM    5  C12 UNL     1       5.779   8.928  23.030  1.00  0.00     0.059 C 
HETATM    6  C13 UNL     1       6.036  10.119  23.931  1.00  0.00     0.120 C 
HETATM    7  C14 UNL     1       7.491  10.367  23.853  1.00  0.00     0.066 C 
HETATM    8  N4  UNL     1       8.633  10.569  23.784  1.00  0.00    -0.197 NA
ENDROOT
BRANCH   1   9
HETATM    9  N3  UNL     1       5.659  12.545  23.920  1.00  0.00    -0.294 N 
HETATM   10  N2  UNL     1       6.879  13.057  24.004  1.00  0.00    -0.282 N 
HETATM   11  C2  UNL     1       6.827  14.268  24.552  1.00  0.00     0.139 A 
ATOM     12  H2  UNL     1       7.732  12.591  23.694  1.00  0.00     0.189 HD
HETATM   13  C16 UNL     1       5.510  14.555  24.840  1.00  0.00     0.096 A 
HETATM   14  C15 UNL     1       4.798  13.445  24.427  1.00  0.00     0.138 A 
HETATM   15 CL1  UNL     1       4.933  16.030  25.571  1.00  0.00    -0.079 Cl
BRANCH  11  16
HETATM   16  N1  UNL     1       7.839  15.033  24.775  1.00  0.00    -0.378 N 
HETATM   17  C1  UNL     1       8.674  14.931  25.937  1.00  0.00     0.147 C 
ATOM     18  H1  UNL     1       8.060  15.753  24.087  1.00  0.00     0.160 HD
ENDBRANCH  11  16
ENDBRANCH   1   9
BRANCH   4  19
HETATM   19  O1  UNL     1       4.052   9.361  21.508  1.00  0.00    -0.389 OA
ATOM     20  H1  UNL     1       3.907   8.632  20.917  1.00  0.00     0.210 HD
ENDBRANCH   4  19
BRANCH   4  21
HETATM   21  C7  UNL     1       3.861   7.353  22.685  1.00  0.00     0.024 C 
HETATM   22  C8  UNL     1       5.040   6.473  23.056  1.00  0.00     0.034 C 
HETATM   23  C9  UNL     1       4.450   5.196  23.642  1.00  0.00     0.168 C 
HETATM   24  O2  UNL     1       3.290   4.829  22.978  1.00  0.00    -0.391 OA
HETATM   25  C10 UNL     1       2.219   5.653  23.274  1.00  0.00     0.168 C 
HETATM   26  C11 UNL     1       2.750   7.042  23.653  1.00  0.00     0.034 C 
ENDBRANCH   4  21
TORSDOF 4
ENDMDL
MODEL 2
REMARK VINA RESULT: -7.442019330      3.921      5.923
REMARK  4 active torsions:
REMARK  status: ('A' for Active; 'I' for Inactive)
REMARK    1  A    between atoms: N1_2  and  C2_4 
REMARK    2  A    between atoms: N3_7  and  C3_8 
REMARK    3  A    between atoms: C6_11  and  O1_12 
REMARK    4  A    between atoms: C6_11  and  C7_14 
ROOT
HETATM    1  C3  UNL     1       2.239  10.606  23.417  1.00  0.00     0.125 C 
HETATM    2  C4  UNL     1       2.360   9.105  23.517  1.00  0.00     0.032 C 
HETATM    3  C5  UNL     1       3.786   8.667  23.747  1.00  0.00     0.040 C 
HETATM    4  C6  UNL     1       4.750   9.609  23.026  1.00  0.00     0.063 C 
HETATM    5  C12 UNL     1       4.630  11.017  23.499  1.00  0.00     0.059 C 
HETATM    6  C13 UNL     1       3.322  11.221  24.237  1.00  0.00     0.120 C 
HETATM    7  C14 UNL     1       3.159  12.685  24.355  1.00  0.00     0.066 C 
HETATM    8  N4  UNL     1       3.023  13.836  24.438  1.00  0.00    -0.197 NA
ENDROOT
BRANCH   1   9
HETATM    9  N3  UNL     1       0.915  11.024  23.798  1.00  0.00    -0.294 N 
HETATM   10  N2  UNL     1       0.091  11.854  23.173  1.00  0.00    -0.282 N 
HETATM   11  C2  UNL     1      -1.041  11.973  23.859  1.00  0.00     0.139 A 
ATOM     12  H2  UNL     1       0.297  12.331  22.295  1.00  0.00     0.189 HD
HETATM   13  C16 UNL     1      -0.949  11.184  24.985  1.00  0.00     0.096 A 
HETATM   14  C15 UNL     1       0.301  10.597  24.916  1.00  0.00     0.138 A 
HETATM   15 CL1  UNL     1      -2.187  11.007  26.202  1.00  0.00    -0.079 Cl
BRANCH  11  16
HETATM   16  N1  UNL     1      -2.047  12.705  23.524  1.00  0.00    -0.378 N 
HETATM   17  C1  UNL     1      -2.261  13.203  22.196  1.00  0.00     0.147 C 
ATOM     18  H1  UNL     1      -2.730  12.943  24.242  1.00  0.00     0.160 HD
ENDBRANCH  11  16
ENDBRANCH   1   9
BRANCH   4  19
HETATM   19  O1  UNL     1       4.367   9.572  21.674  1.00  0.00    -0.389 OA
ATOM     20  H1  UNL     1       3.716   8.884  21.614  1.00  0.00     0.210 HD
ENDBRANCH   4  19
BRANCH   4  21
HETATM   21  C7  UNL     1       6.148   9.065  23.097  1.00  0.00     0.024 C 
HETATM   22  C8  UNL     1       7.047  10.011  22.324  1.00  0.00     0.034 C 
HETATM   23  C9  UNL     1       8.433   9.885  22.944  1.00  0.00     0.168 C 
HETATM   24  O2  UNL     1       8.697   8.578  23.321  1.00  0.00    -0.391 OA
HETATM   25  C10 UNL     1       7.982   8.186  24.438  1.00  0.00     0.168 C 
HETATM   26  C11 UNL     1       6.680   8.996  24.505  1.00  0.00     0.034 C 
ENDBRANCH   4  21
TORSDOF 4
ENDMDL
MODEL 3
REMARK VINA RESULT: -7.349016563      4.440      7.721
REMARK  4 active torsions:
REMARK  status: ('A' for Active; 'I' for Inactive)
REMARK    1  A    between atoms: N1_2  and  C2_4 
REMARK    2  A    between atoms: N3_7  and  C3_8 
REMARK    3  A    between atoms: C6_11  and  O1_12 
REMARK    4  A    between atoms: C6_11  and  C7_14 
ROOT
HETATM    1  C3  UNL     1       3.728   8.727  22.997  1.00  0.00     0.125 C 
HETATM    2  C4  UNL     1       4.866   9.582  22.494  1.00  0.00     0.032 C 
HETATM    3  C5  UNL     1       5.110  10.777  23.382  1.00  0.00     0.040 C 
HETATM    4  C6  UNL     1       3.790  11.277  23.968  1.00  0.00     0.063 C 
HETATM    5  C12 UNL     1       3.103  10.240  24.788  1.00  0.00     0.059 C 
HETATM    6  C13 UNL     1       3.657   8.864  24.480  1.00  0.00     0.120 C 
HETATM    7  C14 UNL     1       2.699   7.909  25.076  1.00  0.00     0.066 C 
HETATM    8  N4  UNL     1       1.940   7.158  25.533  1.00  0.00    -0.197 NA
ENDROOT
BRANCH   1   9
HETATM    9  N3  UNL     1       3.891   7.368  22.547  1.00  0.00    -0.294 N 
HETATM   10  N2  UNL     1       3.104   6.653  21.756  1.00  0.00    -0.282 N 
HETATM   11  C2  UNL     1       3.614   5.437  21.586  1.00  0.00     0.139 A 
ATOM     12  H2  UNL     1       2.234   6.987  21.339  1.00  0.00     0.189 HD
HETATM   13  C16 UNL     1       4.789   5.358  22.302  1.00  0.00     0.096 A 
HETATM   14  C15 UNL     1       4.935   6.596  22.899  1.00  0.00     0.138 A 
HETATM   15 CL1  UNL     1       5.826   3.958  22.393  1.00  0.00    -0.079 Cl
BRANCH  11  16
HETATM   16  N1  UNL     1       3.093   4.499  20.873  1.00  0.00    -0.378 N 
HETATM   17  C1  UNL     1       3.509   4.190  19.536  1.00  0.00     0.147 C 
ATOM     18  H1  UNL     1       2.342   3.944  21.283  1.00  0.00     0.160 HD
ENDBRANCH  11  16
ENDBRANCH   1   9
BRANCH   4  19
HETATM   19  O1  UNL     1       2.974  11.564  22.860  1.00  0.00    -0.389 OA
ATOM     20  H1  UNL     1       2.332  10.864  22.831  1.00  0.00     0.210 HD
ENDBRANCH   4  19
BRANCH   4  21
HETATM   21  C7  UNL     1       4.009  12.574  24.693  1.00  0.00     0.024 C 
HETATM   22  C8  UNL     1       5.454  12.982  24.477  1.00  0.00     0.034 C 
HETATM   23  C9  UNL     1       5.488  14.502  24.576  1.00  0.00     0.168 C 
HETATM   24  O2  UNL     1       4.611  14.960  25.547  1.00  0.00    -0.391 OA
HETATM   25  C10 UNL     1       3.285  14.851  25.167  1.00  0.00     0.168 C 
HETATM   26  C11 UNL     1       3.147  13.692  24.170  1.00  0.00     0.034 C 
ENDBRANCH   4  21
TORSDOF 4
ENDMDL
MODEL 4
REMARK VINA RESULT: -7.317825144      4.058      5.747
REMARK  4 active torsions:
REMARK  status: ('A' for Active; 'I' for Inactive)
REMARK    1  A    between atoms: N1_2  and  C2_4 
REMARK    2  A    between atoms: N3_7  and  C3_8 
REMARK    3  A    between atoms: C6_11  and  O1_12 
REMARK    4  A    between atoms: C6_11  and  C7_14 
ROOT
HETATM    1  C3  UNL     1       1.448   8.126  23.687  1.00  0.00     0.125 C 
HETATM    2  C4  UNL     1       1.307   6.736  24.259  1.00  0.00     0.032 C 
HETATM    3  C5  UNL     1       2.543   5.902  24.026  1.00  0.00     0.040 C 
HETATM    4  C6  UNL     1       3.185   6.272  22.689  1.00  0.00     0.063 C 
HETATM    5  C12 UNL     1       3.592   7.704  22.631  1.00  0.00     0.059 C 
HETATM    6  C13 UNL     1       2.891   8.502  23.713  1.00  0.00     0.120 C 
HETATM    7  C14 UNL     1       3.097   9.920  23.354  1.00  0.00     0.066 C 
HETATM    8  N4  UNL     1       3.248  11.036  23.067  1.00  0.00    -0.197 NA
ENDROOT
BRANCH   1   9
HETATM    9  N3  UNL     1       0.598   9.045  24.400  1.00  0.00    -0.294 N 
HETATM   10  N2  UNL     1      -0.171  10.011  23.918  1.00  0.00    -0.282 N 
HETATM   11  C2  UNL     1      -0.798  10.632  24.913  1.00  0.00     0.139 A 
ATOM     12  H2  UNL     1      -0.268  10.245  22.930  1.00  0.00     0.189 HD
HETATM   13  C16 UNL     1      -0.417  10.041  26.099  1.00  0.00     0.096 A 
HETATM   14  C15 UNL     1       0.467   9.041  25.738  1.00  0.00     0.138 A 
HETATM   15 CL1  UNL     1      -0.971  10.506  27.686  1.00  0.00    -0.079 Cl
BRANCH  11  16
HETATM   16  N1  UNL     1      -1.618  11.617  24.784  1.00  0.00    -0.378 N 
HETATM   17  C1  UNL     1      -1.670  12.463  23.627  1.00  0.00     0.147 C 
ATOM     18  H1  UNL     1      -2.268  11.806  25.547  1.00  0.00     0.160 HD
ENDBRANCH  11  16
ENDBRANCH   1   9
BRANCH   4  19
HETATM   19  O1  UNL     1       2.184   6.067  21.724  1.00  0.00    -0.389 OA
ATOM     20  H1  UNL     1       2.446   5.288  21.249  1.00  0.00     0.210 HD
ENDBRANCH   4  19
BRANCH   4  21
HETATM   21  C7  UNL     1       4.298   5.315  22.371  1.00  0.00     0.024 C 
HETATM   22  C8  UNL     1       5.234   5.289  23.564  1.00  0.00     0.034 C 
HETATM   23  C9  UNL     1       5.894   3.916  23.559  1.00  0.00     0.168 C 
HETATM   24  O2  UNL     1       6.151   3.488  22.266  1.00  0.00    -0.391 OA
HETATM   25  C10 UNL     1       5.005   3.121  21.583  1.00  0.00     0.168 C 
HETATM   26  C11 UNL     1       3.815   3.905  22.153  1.00  0.00     0.034 C 
ENDBRANCH   4  21
TORSDOF 4
ENDMDL
MODEL 5
REMARK VINA RESULT: -7.176324084      1.839      2.892
REMARK  4 active torsions:
REMARK  status: ('A' for Active; 'I' for Inactive)
REMARK    1  A    between atoms: N1_2  and  C2_4 
REMARK    2  A    between atoms: N3_7  and  C3_8 
REMARK    3  A    between atoms: C6_11  and  O1_12 
REMARK    4  A    between atoms: C6_11  and  C7_14 
ROOT
HETATM    1  C3  UNL     1       4.612  11.245  24.204  1.00  0.00     0.125 C 
HETATM    2  C4  UNL     1       5.722  10.356  23.698  1.00  0.00     0.032 C 
HETATM    3  C5  UNL     1       5.191   9.191  22.898  1.00  0.00     0.040 C 
HETATM    4  C6  UNL     1       3.847   8.732  23.462  1.00  0.00     0.063 C 
HETATM    5  C12 UNL     1       2.817   9.810  23.425  1.00  0.00     0.059 C 
HETATM    6  C13 UNL     1       3.471  11.165  23.247  1.00  0.00     0.120 C 
HETATM    7  C14 UNL     1       2.420  12.155  23.561  1.00  0.00     0.066 C 
HETATM    8  N4  UNL     1       1.598  12.935  23.818  1.00  0.00    -0.197 NA
ENDROOT
BRANCH   1   9
HETATM    9  N3  UNL     1       5.104  12.584  24.409  1.00  0.00    -0.294 N 
HETATM   10  N2  UNL     1       4.441  13.663  24.803  1.00  0.00    -0.282 N 
HETATM   11  C2  UNL     1       5.266  14.704  24.867  1.00  0.00     0.139 A 
ATOM     12  H2  UNL     1       3.445  13.690  25.023  1.00  0.00     0.189 HD
HETATM   13  C16 UNL     1       6.524  14.282  24.496  1.00  0.00     0.096 A 
HETATM   14  C15 UNL     1       6.387  12.936  24.212  1.00  0.00     0.138 A 
HETATM   15 CL1  UNL     1       7.948  15.287  24.421  1.00  0.00    -0.079 Cl
BRANCH  11  16
HETATM   16  N1  UNL     1       4.937  15.900  25.215  1.00  0.00    -0.378 N 
HETATM   17  C1  UNL     1       4.234  16.212  26.425  1.00  0.00     0.147 C 
ATOM     18  H1  UNL     1       5.191  16.669  24.595  1.00  0.00     0.160 HD
ENDBRANCH  11  16
ENDBRANCH   1   9
BRANCH   4  19
HETATM   19  O1  UNL     1       4.094   8.417  24.810  1.00  0.00    -0.389 OA
ATOM     20  H1  UNL     1       3.652   7.590  24.961  1.00  0.00     0.210 HD
ENDBRANCH   4  19
BRANCH   4  21
HETATM   21  C7  UNL     1       3.415   7.461  22.790  1.00  0.00     0.024 C 
HETATM   22  C8  UNL     1       4.345   7.225  21.616  1.00  0.00     0.034 C 
HETATM   23  C9  UNL     1       4.378   5.718  21.394  1.00  0.00     0.168 C 
HETATM   24  O2  UNL     1       3.135   5.150  21.622  1.00  0.00    -0.391 OA
HETATM   25  C10 UNL     1       2.800   5.110  22.964  1.00  0.00     0.168 C 
HETATM   26  C11 UNL     1       3.517   6.257  23.690  1.00  0.00     0.034 C 
ENDBRANCH   4  21
TORSDOF 4
ENDMDL
