MODEL 1
REMARK VINA RESULT: -7.801304102      0.000      0.000
REMARK  2 active torsions:
REMARK  status: ('A' for Active; 'I' for Inactive)
REMARK    1  A    between atoms: N1_3  and  N2_4 
REMARK    2  A    between atoms: N2_4  and  C2_5 
ROOT
HETATM    1  C2  UNL     1       1.700  11.339  24.403  1.00  0.00     0.299 C 
HETATM    2  C3  UNL     1       1.788   9.924  24.811  1.00  0.00     0.063 C 
HETATM    3  C4  UNL     1       0.561   9.204  25.200  1.00  0.00    -0.015 C 
HETATM    4  C5  UNL     1      -0.711   9.958  25.118  1.00  0.00     0.039 C 
HETATM    5  C6  UNL     1      -0.616  10.875  23.898  1.00  0.00     0.235 C 
HETATM    6  N3  UNL     1       0.369  11.862  24.253  1.00  0.00    -0.056 N 
ATOM      7  H31 UNL     1       0.361  12.632  23.583  1.00  0.00     0.279 HD
ATOM      8  H32 UNL     1       0.086  12.362  25.096  1.00  0.00     0.279 HD
HETATM    9  C7  UNL     1       0.380   7.926  24.358  1.00  0.00     0.037 C 
HETATM   10  C8  UNL     1       1.301   6.836  24.894  1.00  0.00     0.168 C 
HETATM   11  O2  UNL     1       0.876   6.385  26.138  1.00  0.00    -0.390 OA
HETATM   12  C9  UNL     1       0.087   7.316  26.797  1.00  0.00     0.188 C 
HETATM   13  C10 UNL     1       0.694   8.684  26.627  1.00  0.00     0.114 C 
HETATM   14 CL1  UNL     1       0.075   9.854  27.780  1.00  0.00    -0.122 Cl
ENDROOT
BRANCH   1  15
HETATM   15  N2  UNL     1       2.428  11.510  23.136  1.00  0.00    -0.101 NA
BRANCH  15  16
HETATM   16  N1  UNL     1       3.751  11.147  23.211  1.00  0.00    -0.237 N 
HETATM   17  C1  UNL     1       4.526  10.158  22.565  1.00  0.00     0.272 C 
HETATM   18  O1  UNL     1       4.093   9.271  21.812  1.00  0.00    -0.268 OA
HETATM   19  C12 UNL     1       5.913  10.387  22.959  1.00  0.00     0.145 C 
HETATM   20  O3  UNL     1       5.945  11.670  23.514  1.00  0.00    -0.350 OA
HETATM   21  C13 UNL     1       6.367   9.437  24.082  1.00  0.00     0.048 C 
HETATM   22  C16 UNL     1       6.940  10.185  21.895  1.00  0.00     0.048 C 
HETATM   23  C11 UNL     1       4.694  11.838  24.110  1.00  0.00     0.317 C 
HETATM   24  C14 UNL     1       7.869   9.767  24.040  1.00  0.00     0.004 C 
HETATM   25  C15 UNL     1       8.161   9.556  22.570  1.00  0.00     0.004 C 
ENDBRANCH  15  16
ENDBRANCH   1  15
TORSDOF 2
ENDMDL
MODEL 2
REMARK VINA RESULT: -7.727095714      2.223      2.993
REMARK  2 active torsions:
REMARK  status: ('A' for Active; 'I' for Inactive)
REMARK    1  A    between atoms: N1_3  and  N2_4 
REMARK    2  A    between atoms: N2_4  and  C2_5 
ROOT
HETATM    1  C2  UNL     1       1.086   8.598  24.510  1.00  0.00     0.299 C 
HETATM    2  C3  UNL     1       1.846   8.657  25.774  1.00  0.00     0.063 C 
HETATM    3  C4  UNL     1       1.386   7.871  26.934  1.00  0.00    -0.015 C 
HETATM    4  C5  UNL     1       0.184   7.028  26.736  1.00  0.00     0.039 C 
HETATM    5  C6  UNL     1       0.245   6.479  25.310  1.00  0.00     0.235 C 
HETATM    6  N3  UNL     1       0.030   7.623  24.465  1.00  0.00    -0.056 N 
ATOM      7  H31 UNL     1      -0.143   7.329  23.503  1.00  0.00     0.279 HD
ATOM      8  H32 UNL     1      -0.868   8.060  24.676  1.00  0.00     0.279 HD
HETATM    9  C7  UNL     1       2.504   6.946  27.452  1.00  0.00     0.037 C 
HETATM   10  C8  UNL     1       3.491   7.762  28.278  1.00  0.00     0.168 C 
HETATM   11  O2  UNL     1       2.923   8.173  29.478  1.00  0.00    -0.390 OA
HETATM   12  C9  UNL     1       1.537   8.201  29.425  1.00  0.00     0.188 C 
HETATM   13  C10 UNL     1       1.106   8.799  28.111  1.00  0.00     0.114 C 
HETATM   14 CL1  UNL     1      -0.571   9.318  28.114  1.00  0.00    -0.122 Cl
ENDROOT
BRANCH   1  15
HETATM   15  N2  UNL     1       2.024   8.341  23.408  1.00  0.00    -0.101 NA
BRANCH  15  16
HETATM   16  N1  UNL     1       3.174   9.091  23.480  1.00  0.00    -0.237 N 
HETATM   17  C1  UNL     1       3.468  10.445  23.208  1.00  0.00     0.272 C 
HETATM   18  O1  UNL     1       2.693  11.271  22.701  1.00  0.00    -0.268 OA
HETATM   19  C12 UNL     1       4.846  10.670  23.637  1.00  0.00     0.145 C 
HETATM   20  O3  UNL     1       5.178   9.575  24.442  1.00  0.00    -0.350 OA
HETATM   21  C13 UNL     1       5.838  10.635  22.460  1.00  0.00     0.048 C 
HETATM   22  C16 UNL     1       5.126  11.982  24.291  1.00  0.00     0.048 C 
HETATM   23  C11 UNL     1       4.455   8.505  23.913  1.00  0.00     0.317 C 
HETATM   24  C14 UNL     1       7.075  11.155  23.214  1.00  0.00     0.004 C 
HETATM   25  C15 UNL     1       6.516  12.421  23.826  1.00  0.00     0.004 C 
ENDBRANCH  15  16
ENDBRANCH   1  15
TORSDOF 2
ENDMDL
MODEL 3
REMARK VINA RESULT: -7.493983383      2.606      6.830
REMARK  2 active torsions:
REMARK  status: ('A' for Active; 'I' for Inactive)
REMARK    1  A    between atoms: N1_3  and  N2_4 
REMARK    2  A    between atoms: N2_4  and  C2_5 
ROOT
HETATM    1  C2  UNL     1       3.796   8.805  23.045  1.00  0.00     0.299 C 
HETATM    2  C3  UNL     1       4.695   9.807  23.650  1.00  0.00     0.063 C 
HETATM    3  C4  UNL     1       6.015  10.057  23.044  1.00  0.00    -0.015 C 
HETATM    4  C5  UNL     1       6.344   9.293  21.819  1.00  0.00     0.039 C 
HETATM    5  C6  UNL     1       5.052   9.154  21.011  1.00  0.00     0.235 C 
HETATM    6  N3  UNL     1       4.227   8.265  21.785  1.00  0.00    -0.056 N 
ATOM      7  H31 UNL     1       3.425   7.955  21.236  1.00  0.00     0.279 HD
ATOM      8  H32 UNL     1       4.698   7.370  21.923  1.00  0.00     0.279 HD
HETATM    9  C7  UNL     1       6.194  11.550  22.704  1.00  0.00     0.037 C 
HETATM   10  C8  UNL     1       6.528  12.320  23.976  1.00  0.00     0.168 C 
HETATM   11  O2  UNL     1       7.803  12.007  24.432  1.00  0.00    -0.390 OA
HETATM   12  C9  UNL     1       8.243  10.776  23.970  1.00  0.00     0.188 C 
HETATM   13  C10 UNL     1       7.115   9.782  24.064  1.00  0.00     0.114 C 
HETATM   14 CL1  UNL     1       7.661   8.117  23.963  1.00  0.00    -0.122 Cl
ENDROOT
BRANCH   1  15
HETATM   15  N2  UNL     1       2.464   9.407  22.878  1.00  0.00    -0.101 NA
BRANCH  15  16
HETATM   16  N1  UNL     1       1.704   9.380  24.023  1.00  0.00    -0.237 N 
HETATM   17  C1  UNL     1       1.348  10.360  24.976  1.00  0.00     0.272 C 
HETATM   18  O1  UNL     1       1.785  11.521  25.025  1.00  0.00    -0.268 OA
HETATM   19  C12 UNL     1       0.381   9.739  25.877  1.00  0.00     0.145 C 
HETATM   20  O3  UNL     1      -0.049   8.575  25.231  1.00  0.00    -0.350 OA
HETATM   21  C13 UNL     1       1.026   9.269  27.193  1.00  0.00     0.048 C 
HETATM   22  C16 UNL     1      -0.746  10.606  26.330  1.00  0.00     0.048 C 
HETATM   23  C11 UNL     1       1.054   8.143  24.493  1.00  0.00     0.317 C 
HETATM   24  C14 UNL     1      -0.270   8.941  27.955  1.00  0.00     0.004 C 
HETATM   25  C15 UNL     1      -1.029  10.239  27.788  1.00  0.00     0.004 C 
ENDBRANCH  15  16
ENDBRANCH   1  15
TORSDOF 2
ENDMDL
MODEL 4
REMARK VINA RESULT: -7.418578063      3.184      6.616
REMARK  2 active torsions:
REMARK  status: ('A' for Active; 'I' for Inactive)
REMARK    1  A    between atoms: N1_3  and  N2_4 
REMARK    2  A    between atoms: N2_4  and  C2_5 
ROOT
HETATM    1  C2  UNL     1       4.730   7.543  23.256  1.00  0.00     0.299 C 
HETATM    2  C3  UNL     1       4.799   8.892  23.849  1.00  0.00     0.063 C 
HETATM    3  C4  UNL     1       5.348  10.006  23.054  1.00  0.00    -0.015 C 
HETATM    4  C5  UNL     1       5.769   9.695  21.669  1.00  0.00     0.039 C 
HETATM    5  C6  UNL     1       4.785   8.664  21.117  1.00  0.00     0.235 C 
HETATM    6  N3  UNL     1       5.056   7.461  21.858  1.00  0.00    -0.056 N 
ATOM      7  H31 UNL     1       4.587   6.663  21.428  1.00  0.00     0.279 HD
ATOM      8  H32 UNL     1       6.028   7.177  21.735  1.00  0.00     0.279 HD
HETATM    9  C7  UNL     1       4.342  11.171  22.967  1.00  0.00     0.037 C 
HETATM   10  C8  UNL     1       4.372  11.961  24.270  1.00  0.00     0.168 C 
HETATM   11  O2  UNL     1       5.564  12.663  24.403  1.00  0.00    -0.390 OA
HETATM   12  C9  UNL     1       6.589  12.115  23.646  1.00  0.00     0.188 C 
HETATM   13  C10 UNL     1       6.547  10.615  23.773  1.00  0.00     0.114 C 
HETATM   14 CL1  UNL     1       8.040   9.844  23.263  1.00  0.00    -0.122 Cl
ENDROOT
BRANCH   1  15
HETATM   15  N2  UNL     1       3.377   7.005  23.465  1.00  0.00    -0.101 NA
BRANCH  15  16
HETATM   16  N1  UNL     1       2.907   7.185  24.744  1.00  0.00    -0.237 N 
HETATM   17  C1  UNL     1       1.951   8.053  25.315  1.00  0.00     0.272 C 
HETATM   18  O1  UNL     1       1.374   8.984  24.732  1.00  0.00    -0.268 OA
HETATM   19  C12 UNL     1       1.786   7.641  26.706  1.00  0.00     0.145 C 
HETATM   20  O3  UNL     1       2.362   6.370  26.798  1.00  0.00    -0.350 OA
HETATM   21  C13 UNL     1       2.582   8.529  27.678  1.00  0.00     0.048 C 
HETATM   22  C16 UNL     1       0.395   7.691  27.246  1.00  0.00     0.048 C 
HETATM   23  C11 UNL     1       3.408   6.379  25.873  1.00  0.00     0.317 C 
HETATM   24  C14 UNL     1       1.978   7.997  28.990  1.00  0.00     0.004 C 
HETATM   25  C15 UNL     1       0.501   8.154  28.701  1.00  0.00     0.004 C 
ENDBRANCH  15  16
ENDBRANCH   1  15
TORSDOF 2
ENDMDL
MODEL 5
REMARK VINA RESULT: -7.284798122      3.028      6.581
REMARK  2 active torsions:
REMARK  status: ('A' for Active; 'I' for Inactive)
REMARK    1  A    between atoms: N1_3  and  N2_4 
REMARK    2  A    between atoms: N2_4  and  C2_5 
ROOT
HETATM    1  C2  UNL     1       4.463   7.602  23.250  1.00  0.00     0.299 C 
HETATM    2  C3  UNL     1       4.607   8.940  23.856  1.00  0.00     0.063 C 
HETATM    3  C4  UNL     1       5.312  10.000  23.112  1.00  0.00    -0.015 C 
HETATM    4  C5  UNL     1       5.809   9.653  21.761  1.00  0.00     0.039 C 
HETATM    5  C6  UNL     1       4.781   8.713  21.128  1.00  0.00     0.235 C 
HETATM    6  N3  UNL     1       4.886   7.491  21.880  1.00  0.00    -0.056 N 
ATOM      7  H31 UNL     1       4.381   6.738  21.411  1.00  0.00     0.279 HD
ATOM      8  H32 UNL     1       5.836   7.121  21.829  1.00  0.00     0.279 HD
HETATM    9  C7  UNL     1       4.424  11.250  22.957  1.00  0.00     0.037 C 
HETATM   10  C8  UNL     1       4.426  12.035  24.263  1.00  0.00     0.168 C 
HETATM   11  O2  UNL     1       5.662  12.627  24.491  1.00  0.00    -0.390 OA
HETATM   12  C9  UNL     1       6.688  11.990  23.810  1.00  0.00     0.188 C 
HETATM   13  C10 UNL     1       6.503  10.499  23.924  1.00  0.00     0.114 C 
HETATM   14 CL1  UNL     1       7.955   9.598  23.523  1.00  0.00    -0.122 Cl
ENDROOT
BRANCH   1  15
HETATM   15  N2  UNL     1       3.056   7.188  23.352  1.00  0.00    -0.101 NA
BRANCH  15  16
HETATM   16  N1  UNL     1       2.468   7.533  24.546  1.00  0.00    -0.237 N 
HETATM   17  C1  UNL     1       2.461   6.947  25.830  1.00  0.00     0.272 C 
HETATM   18  O1  UNL     1       2.944   5.843  26.130  1.00  0.00    -0.268 OA
HETATM   19  C12 UNL     1       1.781   7.887  26.717  1.00  0.00     0.145 C 
HETATM   20  O3  UNL     1       1.733   9.100  26.023  1.00  0.00    -0.350 OA
HETATM   21  C13 UNL     1       0.314   7.495  26.971  1.00  0.00     0.048 C 
HETATM   22  C16 UNL     1       2.348   8.022  28.091  1.00  0.00     0.048 C 
HETATM   23  C11 UNL     1       1.635   8.743  24.677  1.00  0.00     0.317 C 
HETATM   24  C14 UNL     1       0.022   8.499  28.100  1.00  0.00     0.004 C 
HETATM   25  C15 UNL     1       1.164   8.197  29.045  1.00  0.00     0.004 C 
ENDBRANCH  15  16
ENDBRANCH   1  15
TORSDOF 2
ENDMDL
