MODEL 1
REMARK VINA RESULT: -6.822945257      0.000      0.000
REMARK  2 active torsions:
REMARK  status: ('A' for Active; 'I' for Inactive)
REMARK    1  A    between atoms: C2_2  and  N1_3 
REMARK    2  A    between atoms: C14_22  and  C15_23 
ROOT
HETATM    1  N1  UNL     1       3.250   6.307  23.811  1.00  0.00    -0.352 N 
HETATM    2  C3  UNL     1       3.633   7.051  22.631  1.00  0.00     0.110 C 
HETATM    3  C4  UNL     1       4.522   6.100  21.815  1.00  0.00     0.034 C 
HETATM    4  C5  UNL     1       4.384   8.296  22.810  1.00  0.00     0.182 C 
HETATM    5  C6  UNL     1       4.717   8.790  21.447  1.00  0.00     0.073 C 
HETATM    6  N2  UNL     1       4.983   9.188  20.384  1.00  0.00    -0.196 NA
HETATM    7  C7  UNL     1       3.664   9.381  23.484  1.00  0.00     0.091 C 
HETATM    8  N3  UNL     1       3.700  10.535  22.922  1.00  0.00    -0.388 N 
ATOM      9  H31 UNL     1       3.199  11.290  23.392  1.00  0.00     0.157 HD
ATOM     10  H32 UNL     1       4.235  10.544  22.054  1.00  0.00     0.157 HD
HETATM   11  N4  UNL     1       2.918   9.369  24.695  1.00  0.00    -0.361 N 
ATOM     12  H4  UNL     1       2.778  10.244  25.199  1.00  0.00     0.162 HD
HETATM   13  C8  UNL     1       2.338   8.118  25.245  1.00  0.00     0.110 C 
HETATM   14  C9  UNL     1       0.957   8.110  24.677  1.00  0.00     0.047 C 
HETATM   15  C10 UNL     1       0.033   7.387  25.611  1.00  0.00     0.012 C 
HETATM   16  C11 UNL     1       0.710   7.602  26.954  1.00  0.00     0.035 C 
HETATM   17  C12 UNL     1       1.877   8.472  26.615  1.00  0.00     0.156 C 
HETATM   18  O1  UNL     1       1.262   9.729  26.320  1.00  0.00    -0.382 OA
HETATM   19  C13 UNL     1       0.623   9.580  25.088  1.00  0.00     0.176 C 
HETATM   20  C14 UNL     1       3.257   7.005  25.024  1.00  0.00     0.106 C 
ENDROOT
BRANCH   1  21
HETATM   21  C2  UNL     1       2.363   5.338  23.390  1.00  0.00     0.060 C 
HETATM   22  C1  UNL     1       2.422   3.923  23.750  1.00  0.00     0.055 C 
ENDBRANCH   1  21
BRANCH  20  23
HETATM   23  C15 UNL     1       3.786   6.258  26.187  1.00  0.00     0.267 C 
HETATM   24  O2  UNL     1       3.351   5.271  26.685  1.00  0.00    -0.273 OA
HETATM   25 CL1  UNL     1       5.224   6.851  26.973  1.00  0.00    -0.037 Cl
ENDBRANCH  20  23
TORSDOF 2
ENDMDL
MODEL 2
REMARK VINA RESULT: -6.665855929      2.855      4.500
REMARK  2 active torsions:
REMARK  status: ('A' for Active; 'I' for Inactive)
REMARK    1  A    between atoms: C2_2  and  N1_3 
REMARK    2  A    between atoms: C14_22  and  C15_23 
ROOT
HETATM    1  N1  UNL     1       5.000   7.818  23.450  1.00  0.00    -0.352 N 
HETATM    2  C3  UNL     1       4.211   6.676  23.854  1.00  0.00     0.110 C 
HETATM    3  C4  UNL     1       5.114   5.452  23.630  1.00  0.00     0.034 C 
HETATM    4  C5  UNL     1       2.952   6.417  23.151  1.00  0.00     0.182 C 
HETATM    5  C6  UNL     1       2.410   5.147  23.705  1.00  0.00     0.073 C 
HETATM    6  N2  UNL     1       1.975   4.154  24.132  1.00  0.00    -0.196 NA
HETATM    7  C7  UNL     1       1.908   7.429  23.326  1.00  0.00     0.091 C 
HETATM    8  N3  UNL     1       0.736   7.005  23.639  1.00  0.00    -0.388 N 
ATOM      9  H31 UNL     1       0.009   7.710  23.761  1.00  0.00     0.157 HD
ATOM     10  H32 UNL     1       0.689   5.990  23.733  1.00  0.00     0.157 HD
HETATM   11  N4  UNL     1       1.974   8.845  23.196  1.00  0.00    -0.361 N 
ATOM     12  H4  UNL     1       1.118   9.366  23.008  1.00  0.00     0.162 HD
HETATM   13  C8  UNL     1       3.255   9.583  23.324  1.00  0.00     0.110 C 
HETATM   14  C9  UNL     1       3.283   9.958  24.770  1.00  0.00     0.047 C 
HETATM   15  C10 UNL     1       4.058  11.230  24.946  1.00  0.00     0.012 C 
HETATM   16  C11 UNL     1       3.865  11.905  23.599  1.00  0.00     0.035 C 
HETATM   17  C12 UNL     1       2.954  10.969  22.873  1.00  0.00     0.156 C 
HETATM   18  O1  UNL     1       1.706  11.150  23.546  1.00  0.00    -0.382 OA
HETATM   19  C13 UNL     1       1.836  10.544  24.796  1.00  0.00     0.176 C 
HETATM   20  C14 UNL     1       4.337   8.812  22.718  1.00  0.00     0.106 C 
ENDROOT
BRANCH   1  21
HETATM   21  C2  UNL     1       5.979   7.976  24.408  1.00  0.00     0.060 C 
HETATM   22  C1  UNL     1       7.395   8.215  24.140  1.00  0.00     0.055 C 
ENDBRANCH   1  21
BRANCH  20  23
HETATM   23  C15 UNL     1       5.103   9.394  21.594  1.00  0.00     0.267 C 
HETATM   24  O2  UNL     1       4.900   9.277  20.429  1.00  0.00    -0.273 OA
HETATM   25 CL1  UNL     1       6.491  10.383  21.956  1.00  0.00    -0.037 Cl
ENDBRANCH  20  23
TORSDOF 2
ENDMDL
MODEL 3
REMARK VINA RESULT: -6.441046817      3.189      5.278
REMARK  2 active torsions:
REMARK  status: ('A' for Active; 'I' for Inactive)
REMARK    1  A    between atoms: C2_2  and  N1_3 
REMARK    2  A    between atoms: C14_22  and  C15_23 
ROOT
HETATM    1  N1  UNL     1       3.582   8.341  23.322  1.00  0.00    -0.352 N 
HETATM    2  C3  UNL     1       2.604   9.073  24.097  1.00  0.00     0.110 C 
HETATM    3  C4  UNL     1       1.351   8.183  24.125  1.00  0.00     0.034 C 
HETATM    4  C5  UNL     1       2.185  10.392  23.619  1.00  0.00     0.182 C 
HETATM    5  C6  UNL     1       1.122  10.863  24.546  1.00  0.00     0.073 C 
HETATM    6  N2  UNL     1       0.289  11.243  25.268  1.00  0.00    -0.196 NA
HETATM    7  C7  UNL     1       3.225  11.426  23.615  1.00  0.00     0.091 C 
HETATM    8  N3  UNL     1       2.920  12.555  24.145  1.00  0.00    -0.388 N 
ATOM      9  H31 UNL     1       3.643  13.275  24.143  1.00  0.00     0.157 HD
ATOM     10  H32 UNL     1       1.969  12.582  24.515  1.00  0.00     0.157 HD
HETATM   11  N4  UNL     1       4.550  11.388  23.100  1.00  0.00    -0.361 N 
ATOM     12  H4  UNL     1       5.015  12.264  22.864  1.00  0.00     0.162 HD
HETATM   13  C8  UNL     1       5.275  10.109  22.897  1.00  0.00     0.110 C 
HETATM   14  C9  UNL     1       6.026   9.941  24.176  1.00  0.00     0.047 C 
HETATM   15  C10 UNL     1       7.286   9.167  23.923  1.00  0.00     0.012 C 
HETATM   16  C11 UNL     1       7.575   9.501  22.470  1.00  0.00     0.035 C 
HETATM   17  C12 UNL     1       6.491  10.468  22.118  1.00  0.00     0.156 C 
HETATM   18  O1  UNL     1       6.869  11.645  22.837  1.00  0.00    -0.382 OA
HETATM   19  C13 UNL     1       6.621  11.385  24.185  1.00  0.00     0.176 C 
HETATM   20  C14 UNL     1       4.351   9.084  22.418  1.00  0.00     0.106 C 
ENDROOT
BRANCH   1  21
HETATM   21  C2  UNL     1       3.977   7.273  24.101  1.00  0.00     0.060 C 
HETATM   22  C1  UNL     1       4.344   7.345  25.513  1.00  0.00     0.055 C 
ENDBRANCH   1  21
BRANCH  20  23
HETATM   23  C15 UNL     1       4.594   8.440  21.109  1.00  0.00     0.267 C 
HETATM   24  O2  UNL     1       4.898   8.956  20.082  1.00  0.00    -0.273 OA
HETATM   25 CL1  UNL     1       4.428   6.710  20.987  1.00  0.00    -0.037 Cl
ENDBRANCH  20  23
TORSDOF 2
ENDMDL
MODEL 4
REMARK VINA RESULT: -6.407362437      2.677      5.087
REMARK  2 active torsions:
REMARK  status: ('A' for Active; 'I' for Inactive)
REMARK    1  A    between atoms: C2_2  and  N1_3 
REMARK    2  A    between atoms: C14_22  and  C15_23 
ROOT
HETATM    1  N1  UNL     1       1.982   8.355  25.894  1.00  0.00    -0.352 N 
HETATM    2  C3  UNL     1       1.021   9.093  26.683  1.00  0.00     0.110 C 
HETATM    3  C4  UNL     1       0.425   8.073  27.666  1.00  0.00     0.034 C 
HETATM    4  C5  UNL     1      -0.102   9.731  25.991  1.00  0.00     0.182 C 
HETATM    5  C6  UNL     1      -0.965  10.329  27.044  1.00  0.00     0.073 C 
HETATM    6  N2  UNL     1      -1.649  10.803  27.861  1.00  0.00    -0.196 NA
HETATM    7  C7  UNL     1       0.253  10.818  25.074  1.00  0.00     0.091 C 
HETATM    8  N3  UNL     1      -0.411  11.911  25.188  1.00  0.00    -0.388 N 
ATOM      9  H31 UNL     1      -0.164  12.668  24.550  1.00  0.00     0.157 HD
ATOM     10  H32 UNL     1      -1.114  11.880  25.927  1.00  0.00     0.157 HD
HETATM   11  N4  UNL     1       1.233  10.862  24.043  1.00  0.00    -0.361 N 
ATOM     12  H4  UNL     1       1.126  11.537  23.286  1.00  0.00     0.162 HD
HETATM   13  C8  UNL     1       2.406   9.953  24.039  1.00  0.00     0.110 C 
HETATM   14  C9  UNL     1       3.455  10.755  24.738  1.00  0.00     0.047 C 
HETATM   15  C10 UNL     1       4.811  10.358  24.235  1.00  0.00     0.012 C 
HETATM   16  C11 UNL     1       4.497   9.873  22.831  1.00  0.00     0.035 C 
HETATM   17  C12 UNL     1       3.030  10.127  22.700  1.00  0.00     0.156 C 
HETATM   18  O1  UNL     1       2.959  11.552  22.610  1.00  0.00    -0.382 OA
HETATM   19  C13 UNL     1       3.243  12.046  23.884  1.00  0.00     0.176 C 
HETATM   20  C14 UNL     1       2.013   8.632  24.522  1.00  0.00     0.106 C 
ENDROOT
BRANCH   1  21
HETATM   21  C2  UNL     1       3.042   8.076  26.731  1.00  0.00     0.060 C 
HETATM   22  C1  UNL     1       3.603   6.748  26.974  1.00  0.00     0.055 C 
ENDBRANCH   1  21
BRANCH  20  23
HETATM   23  C15 UNL     1       2.180   7.457  23.638  1.00  0.00     0.267 C 
HETATM   24  O2  UNL     1       1.363   6.932  22.953  1.00  0.00    -0.273 OA
HETATM   25 CL1  UNL     1       3.746   6.698  23.547  1.00  0.00    -0.037 Cl
ENDBRANCH  20  23
TORSDOF 2
ENDMDL
MODEL 5
REMARK VINA RESULT: -6.349963642      2.227      4.687
REMARK  2 active torsions:
REMARK  status: ('A' for Active; 'I' for Inactive)
REMARK    1  A    between atoms: C2_2  and  N1_3 
REMARK    2  A    between atoms: C14_22  and  C15_23 
ROOT
HETATM    1  N1  UNL     1       2.241   7.651  26.656  1.00  0.00    -0.352 N 
HETATM    2  C3  UNL     1       1.399   8.809  26.857  1.00  0.00     0.110 C 
HETATM    3  C4  UNL     1       0.650   8.550  28.174  1.00  0.00     0.034 C 
HETATM    4  C5  UNL     1       0.390   9.119  25.841  1.00  0.00     0.182 C 
HETATM    5  C6  UNL     1      -0.378  10.287  26.348  1.00  0.00     0.073 C 
HETATM    6  N2  UNL     1      -0.986  11.204  26.734  1.00  0.00    -0.196 NA
HETATM    7  C7  UNL     1       0.909   9.498  24.525  1.00  0.00     0.091 C 
HETATM    8  N3  UNL     1       0.418  10.559  23.992  1.00  0.00    -0.388 N 
ATOM      9  H31 UNL     1       0.780  10.823  23.076  1.00  0.00     0.157 HD
ATOM     10  H32 UNL     1      -0.284  11.013  24.576  1.00  0.00     0.157 HD
HETATM   11  N4  UNL     1       1.890   8.865  23.711  1.00  0.00    -0.361 N 
ATOM     12  H4  UNL     1       1.890   9.042  22.707  1.00  0.00     0.162 HD
HETATM   13  C8  UNL     1       2.912   7.953  24.283  1.00  0.00     0.110 C 
HETATM   14  C9  UNL     1       4.066   8.863  24.543  1.00  0.00     0.047 C 
HETATM   15  C10 UNL     1       5.349   8.092  24.440  1.00  0.00     0.012 C 
HETATM   16  C11 UNL     1       4.972   6.981  23.477  1.00  0.00     0.035 C 
HETATM   17  C12 UNL     1       3.561   7.309  23.109  1.00  0.00     0.156 C 
HETATM   18  O1  UNL     1       3.708   8.465  22.280  1.00  0.00    -0.382 OA
HETATM   19  C13 UNL     1       4.057   9.519  23.126  1.00  0.00     0.176 C 
HETATM   20  C14 UNL     1       2.320   7.151  25.350  1.00  0.00     0.106 C 
ENDROOT
BRANCH   1  21
HETATM   21  C2  UNL     1       3.242   7.727  27.601  1.00  0.00     0.060 C 
HETATM   22  C1  UNL     1       3.606   6.664  28.536  1.00  0.00     0.055 C 
ENDBRANCH   1  21
BRANCH  20  23
HETATM   23  C15 UNL     1       2.311   5.676  25.230  1.00  0.00     0.267 C 
HETATM   24  O2  UNL     1       1.417   4.973  24.886  1.00  0.00    -0.273 OA
HETATM   25 CL1  UNL     1       3.761   4.798  25.635  1.00  0.00    -0.037 Cl
ENDBRANCH  20  23
TORSDOF 2
ENDMDL
