MODEL 1
REMARK VINA RESULT: -7.142914729      0.000      0.000
REMARK  8 active torsions:
REMARK  status: ('A' for Active; 'I' for Inactive)
REMARK    1  A    between atoms: C2_2  and  C3_3 
REMARK    2  A    between atoms: C3_3  and  C4_4 
REMARK    3  A    between atoms: C13_14  and  O1_15 
REMARK    4  A    between atoms: C14_17  and  C15_18 
REMARK    5  A    between atoms: C15_18  and  O3_20 
REMARK    6  A    between atoms: O3_20  and  C16_21 
REMARK    7  A    between atoms: C18_23  and  O4_24 
REMARK    8  A    between atoms: C18_23  and  C19_26 
ROOT
HETATM    1  C4  UNL     1       1.161  10.844  24.875  1.00  0.00    -0.046 C 
HETATM    2  C5  UNL     1       1.485  11.978  24.278  1.00  0.00    -0.062 C 
HETATM    3  C6  UNL     1       0.492  13.134  24.256  1.00  0.00     0.045 C 
HETATM    4  C7  UNL     1       2.748  12.271  23.584  1.00  0.00     0.088 C 
HETATM    5  S1  UNL     1       3.608  13.555  24.561  1.00  0.00    -0.088 SA
HETATM    6  C8  UNL     1       3.621  11.078  23.351  1.00  0.00     0.029 C 
HETATM    7  C9  UNL     1       3.472   9.983  24.324  1.00  0.00     0.046 C 
HETATM    8  C10 UNL     1       2.135   9.702  24.874  1.00  0.00    -0.007 C 
HETATM    9  C11 UNL     1       2.343   9.345  26.362  1.00  0.00     0.021 C 
HETATM   10  C12 UNL     1       1.357   8.603  24.183  1.00  0.00     0.047 C 
HETATM   11  C13 UNL     1       2.137   7.525  23.549  1.00  0.00     0.136 C 
HETATM   12  C14 UNL     1       3.301   8.050  22.715  1.00  0.00     0.160 C 
HETATM   13  C18 UNL     1       4.159   8.765  23.738  1.00  0.00     0.165 C 
ENDROOT
BRANCH  12  14
HETATM   14  C15 UNL     1       4.066   6.876  22.234  1.00  0.00     0.269 C 
HETATM   15  O2  UNL     1       4.327   5.939  23.029  1.00  0.00    -0.265 OA
BRANCH  14  16
HETATM   16  O3  UNL     1       4.518   6.750  20.931  1.00  0.00    -0.321 OA
BRANCH  16  17
HETATM   17  C16 UNL     1       3.822   6.037  19.925  1.00  0.00     0.174 C 
HETATM   18  C17 UNL     1       4.057   6.613  18.546  1.00  0.00     0.034 C 
ENDBRANCH  16  17
ENDBRANCH  14  16
ENDBRANCH  12  14
BRANCH  11  19
HETATM   19  O1  UNL     1       1.300   6.769  22.756  1.00  0.00    -0.395 OA
ATOM     20  H1  UNL     1       1.817   6.136  22.272  1.00  0.00     0.210 HD
ENDBRANCH  11  19
BRANCH  13  21
HETATM   21  O4  UNL     1       4.380   7.792  24.729  1.00  0.00    -0.377 OA
ATOM     22  H4  UNL     1       5.238   7.397  24.628  1.00  0.00     0.211 HD
ENDBRANCH  13  21
BRANCH  13  23
HETATM   23  C19 UNL     1       5.481   9.154  23.233  1.00  0.00     0.210 C 
HETATM   24  O5  UNL     1       6.482   9.074  24.034  1.00  0.00    -0.646 OA
HETATM   25  O6  UNL     1       5.786   9.603  21.962  1.00  0.00    -0.646 OA
ENDBRANCH  13  23
BRANCH   1  26
HETATM   26  C3  UNL     1      -0.165  10.790  25.483  1.00  0.00     0.007 C 
BRANCH  26  27
HETATM   27  C2  UNL     1      -0.460  11.359  26.757  1.00  0.00    -0.010 C 
HETATM   28  C1  UNL     1      -0.815  10.593  27.779  1.00  0.00     0.011 C 
ENDBRANCH  26  27
ENDBRANCH   1  26
TORSDOF 8
ENDMDL
MODEL 2
REMARK VINA RESULT: -7.072509443      0.770      1.047
REMARK  8 active torsions:
REMARK  status: ('A' for Active; 'I' for Inactive)
REMARK    1  A    between atoms: C2_2  and  C3_3 
REMARK    2  A    between atoms: C3_3  and  C4_4 
REMARK    3  A    between atoms: C13_14  and  O1_15 
REMARK    4  A    between atoms: C14_17  and  C15_18 
REMARK    5  A    between atoms: C15_18  and  O3_20 
REMARK    6  A    between atoms: O3_20  and  C16_21 
REMARK    7  A    between atoms: C18_23  and  O4_24 
REMARK    8  A    between atoms: C18_23  and  C19_26 
ROOT
HETATM    1  C4  UNL     1       1.501  11.289  24.864  1.00  0.00    -0.046 C 
HETATM    2  C5  UNL     1       2.054  12.351  24.304  1.00  0.00    -0.062 C 
HETATM    3  C6  UNL     1       1.274  13.658  24.225  1.00  0.00     0.045 C 
HETATM    4  C7  UNL     1       3.394  12.426  23.704  1.00  0.00     0.088 C 
HETATM    5  S1  UNL     1       4.387  13.547  24.752  1.00  0.00    -0.088 SA
HETATM    6  C8  UNL     1       4.068  11.102  23.519  1.00  0.00     0.029 C 
HETATM    7  C9  UNL     1       3.667  10.049  24.467  1.00  0.00     0.046 C 
HETATM    8  C10 UNL     1       2.266   9.999  24.919  1.00  0.00    -0.007 C 
HETATM    9  C11 UNL     1       2.306   9.613  26.414  1.00  0.00     0.021 C 
HETATM   10  C12 UNL     1       1.365   9.047  24.163  1.00  0.00     0.047 C 
HETATM   11  C13 UNL     1       1.995   7.852  23.573  1.00  0.00     0.136 C 
HETATM   12  C14 UNL     1       3.287   8.171  22.828  1.00  0.00     0.160 C 
HETATM   13  C18 UNL     1       4.179   8.732  23.918  1.00  0.00     0.165 C 
ENDROOT
BRANCH  12  14
HETATM   14  C15 UNL     1       3.876   6.884  22.389  1.00  0.00     0.269 C 
HETATM   15  O2  UNL     1       3.869   5.901  23.172  1.00  0.00    -0.265 OA
BRANCH  14  16
HETATM   16  O3  UNL     1       4.442   6.700  21.140  1.00  0.00    -0.321 OA
BRANCH  16  17
HETATM   17  C16 UNL     1       3.817   5.980  20.093  1.00  0.00     0.174 C 
HETATM   18  C17 UNL     1       4.094   6.585  18.734  1.00  0.00     0.034 C 
ENDBRANCH  16  17
ENDBRANCH  14  16
ENDBRANCH  12  14
BRANCH  11  19
HETATM   19  O1  UNL     1       1.101   7.247  22.715  1.00  0.00    -0.395 OA
ATOM     20  H1  UNL     1       0.235   7.611  22.862  1.00  0.00     0.210 HD
ENDBRANCH  11  19
BRANCH  13  21
HETATM   21  O4  UNL     1       4.162   7.737  24.911  1.00  0.00    -0.377 OA
ATOM     22  H4  UNL     1       3.797   6.928  24.571  1.00  0.00     0.211 HD
ENDBRANCH  13  21
BRANCH  13  23
HETATM   23  C19 UNL     1       5.580   8.891  23.511  1.00  0.00     0.210 C 
HETATM   24  O5  UNL     1       6.495   8.614  24.369  1.00  0.00    -0.646 OA
HETATM   25  O6  UNL     1       6.045   9.311  22.279  1.00  0.00    -0.646 OA
ENDBRANCH  13  23
BRANCH   1  26
HETATM   26  C3  UNL     1       0.145  11.460  25.377  1.00  0.00     0.007 C 
BRANCH  26  27
HETATM   27  C2  UNL     1      -1.014  11.028  24.668  1.00  0.00    -0.010 C 
HETATM   28  C1  UNL     1      -1.612  11.825  23.793  1.00  0.00     0.011 C 
ENDBRANCH  26  27
ENDBRANCH   1  26
TORSDOF 8
ENDMDL
MODEL 3
REMARK VINA RESULT: -7.020486718      0.863      1.332
REMARK  8 active torsions:
REMARK  status: ('A' for Active; 'I' for Inactive)
REMARK    1  A    between atoms: C2_2  and  C3_3 
REMARK    2  A    between atoms: C3_3  and  C4_4 
REMARK    3  A    between atoms: C13_14  and  O1_15 
REMARK    4  A    between atoms: C14_17  and  C15_18 
REMARK    5  A    between atoms: C15_18  and  O3_20 
REMARK    6  A    between atoms: O3_20  and  C16_21 
REMARK    7  A    between atoms: C18_23  and  O4_24 
REMARK    8  A    between atoms: C18_23  and  C19_26 
ROOT
HETATM    1  C4  UNL     1       1.230  10.819  24.839  1.00  0.00    -0.046 C 
HETATM    2  C5  UNL     1       1.531  11.970  24.261  1.00  0.00    -0.062 C 
HETATM    3  C6  UNL     1       0.514  13.105  24.257  1.00  0.00     0.045 C 
HETATM    4  C7  UNL     1       2.787  12.301  23.574  1.00  0.00     0.088 C 
HETATM    5  S1  UNL     1       3.620  13.586  24.572  1.00  0.00    -0.088 SA
HETATM    6  C8  UNL     1       3.685  11.130  23.320  1.00  0.00     0.029 C 
HETATM    7  C9  UNL     1       3.559  10.016  24.275  1.00  0.00     0.046 C 
HETATM    8  C10 UNL     1       2.227   9.698  24.819  1.00  0.00    -0.007 C 
HETATM    9  C11 UNL     1       2.443   9.320  26.302  1.00  0.00     0.021 C 
HETATM   10  C12 UNL     1       1.473   8.595  24.109  1.00  0.00     0.047 C 
HETATM   11  C13 UNL     1       2.276   7.544  23.458  1.00  0.00     0.136 C 
HETATM   12  C14 UNL     1       3.429   8.107  22.633  1.00  0.00     0.160 C 
HETATM   13  C18 UNL     1       4.271   8.823  23.670  1.00  0.00     0.165 C 
ENDROOT
BRANCH  12  14
HETATM   14  C15 UNL     1       4.219   6.957  22.133  1.00  0.00     0.269 C 
HETATM   15  O2  UNL     1       4.574   6.928  20.929  1.00  0.00    -0.265 OA
BRANCH  14  16
HETATM   16  O3  UNL     1       4.595   5.894  22.935  1.00  0.00    -0.321 OA
BRANCH  16  17
HETATM   17  C16 UNL     1       4.680   4.557  22.476  1.00  0.00     0.174 C 
HETATM   18  C17 UNL     1       3.415   3.773  22.751  1.00  0.00     0.034 C 
ENDBRANCH  16  17
ENDBRANCH  14  16
ENDBRANCH  12  14
BRANCH  11  19
HETATM   19  O1  UNL     1       1.454   6.784  22.651  1.00  0.00    -0.395 OA
ATOM     20  H1  UNL     1       1.966   6.091  22.252  1.00  0.00     0.210 HD
ENDBRANCH  11  19
BRANCH  13  21
HETATM   21  O4  UNL     1       4.512   7.838  24.644  1.00  0.00    -0.377 OA
ATOM     22  H4  UNL     1       5.436   7.620  24.682  1.00  0.00     0.211 HD
ENDBRANCH  13  21
BRANCH  13  23
HETATM   23  C19 UNL     1       5.585   9.247  23.173  1.00  0.00     0.210 C 
HETATM   24  O5  UNL     1       6.590   9.163  23.969  1.00  0.00    -0.646 OA
HETATM   25  O6  UNL     1       5.878   9.736  21.913  1.00  0.00    -0.646 OA
ENDBRANCH  13  23
BRANCH   1  26
HETATM   26  C3  UNL     1      -0.096  10.727  25.444  1.00  0.00     0.007 C 
BRANCH  26  27
HETATM   27  C2  UNL     1      -0.416  11.312  26.705  1.00  0.00    -0.010 C 
HETATM   28  C1  UNL     1      -0.719  10.554  27.749  1.00  0.00     0.011 C 
ENDBRANCH  26  27
ENDBRANCH   1  26
TORSDOF 8
ENDMDL
MODEL 4
REMARK VINA RESULT: -6.954266708      1.264      1.935
REMARK  8 active torsions:
REMARK  status: ('A' for Active; 'I' for Inactive)
REMARK    1  A    between atoms: C2_2  and  C3_3 
REMARK    2  A    between atoms: C3_3  and  C4_4 
REMARK    3  A    between atoms: C13_14  and  O1_15 
REMARK    4  A    between atoms: C14_17  and  C15_18 
REMARK    5  A    between atoms: C15_18  and  O3_20 
REMARK    6  A    between atoms: O3_20  and  C16_21 
REMARK    7  A    between atoms: C18_23  and  O4_24 
REMARK    8  A    between atoms: C18_23  and  C19_26 
ROOT
HETATM    1  C4  UNL     1       1.499  11.395  24.872  1.00  0.00    -0.046 C 
HETATM    2  C5  UNL     1       2.075  12.447  24.315  1.00  0.00    -0.062 C 
HETATM    3  C6  UNL     1       1.306  13.757  24.196  1.00  0.00     0.045 C 
HETATM    4  C7  UNL     1       3.433  12.506  23.754  1.00  0.00     0.088 C 
HETATM    5  S1  UNL     1       4.401  13.634  24.817  1.00  0.00    -0.088 SA
HETATM    6  C8  UNL     1       4.103  11.176  23.605  1.00  0.00     0.029 C 
HETATM    7  C9  UNL     1       3.669  10.137  24.555  1.00  0.00     0.046 C 
HETATM    8  C10 UNL     1       2.254  10.101  24.965  1.00  0.00    -0.007 C 
HETATM    9  C11 UNL     1       2.247   9.735  26.466  1.00  0.00     0.021 C 
HETATM   10  C12 UNL     1       1.370   9.145  24.195  1.00  0.00     0.047 C 
HETATM   11  C13 UNL     1       2.010   7.939  23.639  1.00  0.00     0.136 C 
HETATM   12  C14 UNL     1       3.325   8.241  22.929  1.00  0.00     0.160 C 
HETATM   13  C18 UNL     1       4.188   8.811  24.037  1.00  0.00     0.165 C 
ENDROOT
BRANCH  12  14
HETATM   14  C15 UNL     1       3.918   6.945  22.524  1.00  0.00     0.269 C 
HETATM   15  O2  UNL     1       4.544   6.863  21.438  1.00  0.00    -0.265 OA
BRANCH  14  16
HETATM   16  O3  UNL     1       3.821   5.797  23.291  1.00  0.00    -0.321 OA
BRANCH  16  17
HETATM   17  C16 UNL     1       4.789   4.763  23.282  1.00  0.00     0.174 C 
HETATM   18  C17 UNL     1       5.633   4.756  24.539  1.00  0.00     0.034 C 
ENDBRANCH  16  17
ENDBRANCH  14  16
ENDBRANCH  12  14
BRANCH  11  19
HETATM   19  O1  UNL     1       1.137   7.329  22.762  1.00  0.00    -0.395 OA
ATOM     20  H1  UNL     1       0.449   6.900  23.257  1.00  0.00     0.210 HD
ENDBRANCH  11  19
BRANCH  13  21
HETATM   21  O4  UNL     1       4.135   7.828  25.042  1.00  0.00    -0.377 OA
ATOM     22  H4  UNL     1       3.244   7.528  25.174  1.00  0.00     0.211 HD
ENDBRANCH  13  21
BRANCH  13  23
HETATM   23  C19 UNL     1       5.601   8.956  23.670  1.00  0.00     0.210 C 
HETATM   24  O5  UNL     1       6.489   8.572  24.516  1.00  0.00    -0.646 OA
HETATM   25  O6  UNL     1       6.104   9.468  22.489  1.00  0.00    -0.646 OA
ENDBRANCH  13  23
BRANCH   1  26
HETATM   26  C3  UNL     1       0.130  11.581  25.342  1.00  0.00     0.007 C 
BRANCH  26  27
HETATM   27  C2  UNL     1      -1.010  11.131  24.612  1.00  0.00    -0.010 C 
HETATM   28  C1  UNL     1      -1.554  11.886  23.667  1.00  0.00     0.011 C 
ENDBRANCH  26  27
ENDBRANCH   1  26
TORSDOF 8
ENDMDL
MODEL 5
REMARK VINA RESULT: -6.798743339      2.560      5.643
REMARK  8 active torsions:
REMARK  status: ('A' for Active; 'I' for Inactive)
REMARK    1  A    between atoms: C2_2  and  C3_3 
REMARK    2  A    between atoms: C3_3  and  C4_4 
REMARK    3  A    between atoms: C13_14  and  O1_15 
REMARK    4  A    between atoms: C14_17  and  C15_18 
REMARK    5  A    between atoms: C15_18  and  O3_20 
REMARK    6  A    between atoms: O3_20  and  C16_21 
REMARK    7  A    between atoms: C18_23  and  O4_24 
REMARK    8  A    between atoms: C18_23  and  C19_26 
ROOT
HETATM    1  C4  UNL     1       5.452  11.226  23.685  1.00  0.00    -0.046 C 
HETATM    2  C5  UNL     1       5.176  12.346  24.331  1.00  0.00    -0.062 C 
HETATM    3  C6  UNL     1       6.190  13.484  24.344  1.00  0.00     0.045 C 
HETATM    4  C7  UNL     1       3.951  12.638  25.090  1.00  0.00     0.088 C 
HETATM    5  S1  UNL     1       3.071  13.967  24.194  1.00  0.00    -0.088 SA
HETATM    6  C8  UNL     1       3.068  11.453  25.326  1.00  0.00     0.029 C 
HETATM    7  C9  UNL     1       3.153  10.387  24.313  1.00  0.00     0.046 C 
HETATM    8  C10 UNL     1       4.459  10.101  23.695  1.00  0.00    -0.007 C 
HETATM    9  C11 UNL     1       4.177   9.796  22.207  1.00  0.00     0.021 C 
HETATM   10  C12 UNL     1       5.247   8.968  24.315  1.00  0.00     0.047 C 
HETATM   11  C13 UNL     1       4.477   7.884  24.950  1.00  0.00     0.136 C 
HETATM   12  C14 UNL     1       3.361   8.401  25.852  1.00  0.00     0.160 C 
HETATM   13  C18 UNL     1       2.471   9.163  24.891  1.00  0.00     0.165 C 
ENDROOT
BRANCH  12  14
HETATM   14  C15 UNL     1       2.597   7.225  26.331  1.00  0.00     0.269 C 
HETATM   15  O2  UNL     1       2.445   6.235  25.573  1.00  0.00    -0.265 OA
BRANCH  14  16
HETATM   16  O3  UNL     1       2.031   7.154  27.592  1.00  0.00    -0.321 OA
BRANCH  16  17
HETATM   17  C16 UNL     1       2.602   7.750  28.743  1.00  0.00     0.174 C 
HETATM   18  C17 UNL     1       1.621   7.836  29.892  1.00  0.00     0.034 C 
ENDBRANCH  16  17
ENDBRANCH  14  16
ENDBRANCH  12  14
BRANCH  11  19
HETATM   19  O1  UNL     1       5.335   7.089  25.681  1.00  0.00    -0.395 OA
ATOM     20  H1  UNL     1       5.364   7.404  26.577  1.00  0.00     0.210 HD
ENDBRANCH  11  19
BRANCH  13  21
HETATM   21  O4  UNL     1       2.188   8.226  23.882  1.00  0.00    -0.377 OA
ATOM     22  H4  UNL     1       1.310   8.350  23.543  1.00  0.00     0.211 HD
ENDBRANCH  13  21
BRANCH  13  23
HETATM   23  C19 UNL     1       1.180   9.557  25.468  1.00  0.00     0.210 C 
HETATM   24  O5  UNL     1       0.146   9.538  24.706  1.00  0.00    -0.646 OA
HETATM   25  O6  UNL     1       0.938   9.953  26.770  1.00  0.00    -0.646 OA
ENDBRANCH  13  23
BRANCH   1  26
HETATM   26  C3  UNL     1       6.749  11.169  23.016  1.00  0.00     0.007 C 
BRANCH  26  27
HETATM   27  C2  UNL     1       7.925  10.658  23.642  1.00  0.00    -0.010 C 
HETATM   28  C1  UNL     1       8.664   9.733  23.047  1.00  0.00     0.011 C 
ENDBRANCH  26  27
ENDBRANCH   1  26
TORSDOF 8
ENDMDL
