MODEL 1
REMARK VINA RESULT: -9.091073356      0.000      0.000
REMARK  11 active torsions:
REMARK  status: ('A' for Active; 'I' for Inactive)
REMARK    1  A    between atoms: C2_2  and  C3_3 
REMARK    2  A    between atoms: C4_4  and  C5_5 
REMARK    3  A    between atoms: C12_12  and  C13_13 
REMARK    4  A    between atoms: C13_13  and  C14_14 
REMARK    5  A    between atoms: C14_14  and  O2_16 
REMARK    6  A    between atoms: O2_16  and  C15_17 
REMARK    7  A    between atoms: C16_18  and  O3_19 
REMARK    8  A    between atoms: C17_21  and  O4_22 
REMARK    9  A    between atoms: C18_25  and  C19_26 
REMARK   10  A    between atoms: C19_26  and  O6_27 
REMARK   11  A    between atoms: C20_29  and  O7_30 
ROOT
HETATM    1  O2  UNL     1       1.985  13.127  24.653  1.00  0.00    -0.310 OA
ENDROOT
BRANCH   1   2
HETATM    2  C14 UNL     1       2.163  14.471  24.680  1.00  0.00     0.262 C 
HETATM    3  O1  UNL     1       1.241  15.242  24.435  1.00  0.00    -0.265 OA
BRANCH   2   4
HETATM    4  C13 UNL     1       3.533  15.007  25.023  1.00  0.00     0.138 C 
BRANCH   4   5
HETATM    5  C12 UNL     1       4.583  14.090  24.669  1.00  0.00    -0.010 C 
HETATM    6  C2  UNL     1       5.911  14.354  24.729  1.00  0.00    -0.066 C 
HETATM    7  C1  UNL     1       6.353  15.665  25.181  1.00  0.00     0.048 C 
BRANCH   6   8
HETATM    8  C3  UNL     1       6.776  13.285  24.327  1.00  0.00     0.003 C 
HETATM    9  C4  UNL     1       6.691  12.143  23.832  1.00  0.00    -0.021 C 
BRANCH   9  10
HETATM   10  C5  UNL     1       5.761  11.186  23.363  1.00  0.00     0.016 C 
HETATM   11  C6  UNL     1       4.585  10.675  24.051  1.00  0.00     0.009 C 
HETATM   12  C7  UNL     1       4.013   9.711  22.978  1.00  0.00     0.001 C 
HETATM   13  C8  UNL     1       5.297   9.005  22.530  1.00  0.00     0.009 C 
HETATM   14  C9  UNL     1       6.452   9.850  22.956  1.00  0.00    -0.041 C 
HETATM   15  C10 UNL     1       7.165   9.237  24.114  1.00  0.00     0.015 C 
HETATM   16  C11 UNL     1       7.412  10.166  21.846  1.00  0.00     0.015 C 
ENDBRANCH   9  10
ENDBRANCH   6   8
ENDBRANCH   4   5
ENDBRANCH   2   4
ENDBRANCH   1   2
BRANCH   1  17
HETATM   17  C15 UNL     1       1.284  12.415  23.658  1.00  0.00     0.196 C 
HETATM   18  C16 UNL     1       0.468  11.364  24.389  1.00  0.00     0.205 C 
HETATM   19  C17 UNL     1      -0.649  12.062  25.087  1.00  0.00     0.288 C 
HETATM   20  O5  UNL     1      -1.543  12.647  24.229  1.00  0.00    -0.349 OA
HETATM   21  C18 UNL     1      -1.041  12.673  22.951  1.00  0.00     0.179 C 
HETATM   22  C20 UNL     1       0.353  13.260  22.857  1.00  0.00     0.181 C 
BRANCH  18  23
HETATM   23  O3  UNL     1       1.290  10.804  25.392  1.00  0.00    -0.388 OA
ATOM     24  H3  UNL     1       1.012   9.906  25.526  1.00  0.00     0.210 HD
ENDBRANCH  18  23
BRANCH  19  25
HETATM   25  O4  UNL     1      -1.343  11.237  25.967  1.00  0.00    -0.369 OA
ATOM     26  H4  UNL     1      -2.188  11.589  26.221  1.00  0.00     0.212 HD
ENDBRANCH  19  25
BRANCH  21  27
HETATM   27  C19 UNL     1      -2.015  13.427  22.056  1.00  0.00     0.198 C 
BRANCH  27  28
HETATM   28  O6  UNL     1      -3.063  13.972  22.779  1.00  0.00    -0.398 OA
ATOM     29  H6  UNL     1      -3.330  14.815  22.432  1.00  0.00     0.209 HD
ENDBRANCH  27  28
ENDBRANCH  21  27
BRANCH  22  30
HETATM   30  O7  UNL     1       0.686  13.194  21.482  1.00  0.00    -0.390 OA
ATOM     31  H7  UNL     1       0.820  14.066  21.132  1.00  0.00     0.210 HD
ENDBRANCH  22  30
ENDBRANCH   1  17
TORSDOF 11
ENDMDL
MODEL 2
REMARK VINA RESULT: -8.880979368      1.593      2.945
REMARK  11 active torsions:
REMARK  status: ('A' for Active; 'I' for Inactive)
REMARK    1  A    between atoms: C2_2  and  C3_3 
REMARK    2  A    between atoms: C4_4  and  C5_5 
REMARK    3  A    between atoms: C12_12  and  C13_13 
REMARK    4  A    between atoms: C13_13  and  C14_14 
REMARK    5  A    between atoms: C14_14  and  O2_16 
REMARK    6  A    between atoms: O2_16  and  C15_17 
REMARK    7  A    between atoms: C16_18  and  O3_19 
REMARK    8  A    between atoms: C17_21  and  O4_22 
REMARK    9  A    between atoms: C18_25  and  C19_26 
REMARK   10  A    between atoms: C19_26  and  O6_27 
REMARK   11  A    between atoms: C20_29  and  O7_30 
ROOT
HETATM    1  O2  UNL     1       1.360  11.532  23.879  1.00  0.00    -0.310 OA
ENDROOT
BRANCH   1   2
HETATM    2  C14 UNL     1       1.462  12.863  23.646  1.00  0.00     0.262 C 
HETATM    3  O1  UNL     1       0.748  13.424  22.821  1.00  0.00    -0.265 OA
BRANCH   2   4
HETATM    4  C13 UNL     1       2.482  13.653  24.432  1.00  0.00     0.138 C 
BRANCH   4   5
HETATM    5  C12 UNL     1       3.819  13.154  24.248  1.00  0.00    -0.010 C 
HETATM    6  C2  UNL     1       4.957  13.818  24.566  1.00  0.00    -0.066 C 
HETATM    7  C1  UNL     1       4.862  15.153  25.139  1.00  0.00     0.048 C 
BRANCH   6   8
HETATM    8  C3  UNL     1       6.180  13.122  24.295  1.00  0.00     0.003 C 
HETATM    9  C4  UNL     1       6.553  12.020  23.842  1.00  0.00    -0.021 C 
BRANCH   9  10
HETATM   10  C5  UNL     1       6.074  10.795  23.325  1.00  0.00     0.016 C 
HETATM   11  C6  UNL     1       4.850  10.094  23.685  1.00  0.00     0.009 C 
HETATM   12  C7  UNL     1       4.922   8.870  22.733  1.00  0.00     0.001 C 
HETATM   13  C8  UNL     1       6.391   8.473  22.907  1.00  0.00     0.009 C 
HETATM   14  C9  UNL     1       7.113   9.646  23.485  1.00  0.00    -0.041 C 
HETATM   15  C10 UNL     1       7.445   9.415  24.921  1.00  0.00     0.015 C 
HETATM   16  C11 UNL     1       8.338  10.043  22.713  1.00  0.00     0.015 C 
ENDBRANCH   9  10
ENDBRANCH   6   8
ENDBRANCH   4   5
ENDBRANCH   2   4
ENDBRANCH   1   2
BRANCH   1  17
HETATM   17  C15 UNL     1       0.232  10.880  24.420  1.00  0.00     0.196 C 
HETATM   18  C16 UNL     1       0.678   9.463  24.737  1.00  0.00     0.205 C 
HETATM   19  C17 UNL     1       1.575   9.526  25.925  1.00  0.00     0.288 C 
HETATM   20  O5  UNL     1       0.939   9.943  27.065  1.00  0.00    -0.349 OA
HETATM   21  C18 UNL     1      -0.300  10.455  26.768  1.00  0.00     0.179 C 
HETATM   22  C20 UNL     1      -0.278  11.504  25.674  1.00  0.00     0.181 C 
BRANCH  18  23
HETATM   23  O3  UNL     1       1.463   9.009  23.655  1.00  0.00    -0.388 OA
ATOM     24  H3  UNL     1       2.362   8.951  23.955  1.00  0.00     0.210 HD
ENDBRANCH  18  23
BRANCH  19  25
HETATM   25  O4  UNL     1       2.222   8.320  26.186  1.00  0.00    -0.369 OA
ATOM     26  H4  UNL     1       2.695   7.982  25.435  1.00  0.00     0.212 HD
ENDBRANCH  19  25
BRANCH  21  27
HETATM   27  C19 UNL     1      -0.924  11.004  28.043  1.00  0.00     0.198 C 
BRANCH  27  28
HETATM   28  O6  UNL     1      -2.305  10.904  28.024  1.00  0.00    -0.398 OA
ATOM     29  H6  UNL     1      -2.711  11.520  28.622  1.00  0.00     0.209 HD
ENDBRANCH  27  28
ENDBRANCH  21  27
BRANCH  22  30
HETATM   30  O7  UNL     1      -1.629  11.896  25.516  1.00  0.00    -0.390 OA
ATOM     31  H7  UNL     1      -1.981  12.212  26.340  1.00  0.00     0.210 HD
ENDBRANCH  22  30
ENDBRANCH   1  17
TORSDOF 11
ENDMDL
MODEL 3
REMARK VINA RESULT: -8.670006238      0.903      1.328
REMARK  11 active torsions:
REMARK  status: ('A' for Active; 'I' for Inactive)
REMARK    1  A    between atoms: C2_2  and  C3_3 
REMARK    2  A    between atoms: C4_4  and  C5_5 
REMARK    3  A    between atoms: C12_12  and  C13_13 
REMARK    4  A    between atoms: C13_13  and  C14_14 
REMARK    5  A    between atoms: C14_14  and  O2_16 
REMARK    6  A    between atoms: O2_16  and  C15_17 
REMARK    7  A    between atoms: C16_18  and  O3_19 
REMARK    8  A    between atoms: C17_21  and  O4_22 
REMARK    9  A    between atoms: C18_25  and  C19_26 
REMARK   10  A    between atoms: C19_26  and  O6_27 
REMARK   11  A    between atoms: C20_29  and  O7_30 
ROOT
HETATM    1  O2  UNL     1       1.663  13.137  24.782  1.00  0.00    -0.310 OA
ENDROOT
BRANCH   1   2
HETATM    2  C14 UNL     1       2.348  14.298  24.641  1.00  0.00     0.262 C 
HETATM    3  O1  UNL     1       1.788  15.332  24.291  1.00  0.00    -0.265 OA
BRANCH   2   4
HETATM    4  C13 UNL     1       3.832  14.296  24.927  1.00  0.00     0.138 C 
BRANCH   4   5
HETATM    5  C12 UNL     1       4.488  13.128  24.403  1.00  0.00    -0.010 C 
HETATM    6  C2  UNL     1       5.821  13.001  24.199  1.00  0.00    -0.066 C 
HETATM    7  C1  UNL     1       6.698  14.118  24.521  1.00  0.00     0.048 C 
BRANCH   6   8
HETATM    8  C3  UNL     1       6.252  11.742  23.667  1.00  0.00     0.003 C 
HETATM    9  C4  UNL     1       5.765  10.632  23.369  1.00  0.00    -0.021 C 
BRANCH   9  10
HETATM   10  C5  UNL     1       4.554   9.902  23.351  1.00  0.00     0.016 C 
HETATM   11  C6  UNL     1       3.767   9.454  24.489  1.00  0.00     0.009 C 
HETATM   12  C7  UNL     1       2.575   8.767  23.770  1.00  0.00     0.001 C 
HETATM   13  C8  UNL     1       3.324   7.973  22.694  1.00  0.00     0.009 C 
HETATM   14  C9  UNL     1       4.686   8.569  22.556  1.00  0.00    -0.041 C 
HETATM   15  C10 UNL     1       5.722   7.682  23.161  1.00  0.00     0.015 C 
HETATM   16  C11 UNL     1       5.050   8.926  21.144  1.00  0.00     0.015 C 
ENDBRANCH   9  10
ENDBRANCH   6   8
ENDBRANCH   4   5
ENDBRANCH   2   4
ENDBRANCH   1   2
BRANCH   1  17
HETATM   17  C15 UNL     1       1.026  12.432  23.739  1.00  0.00     0.196 C 
HETATM   18  C16 UNL     1       0.058  11.474  24.411  1.00  0.00     0.205 C 
HETATM   19  C17 UNL     1      -1.074  12.279  24.951  1.00  0.00     0.288 C 
HETATM   20  O5  UNL     1      -1.822  12.887  23.977  1.00  0.00    -0.349 OA
HETATM   21  C18 UNL     1      -1.181  12.821  22.764  1.00  0.00     0.179 C 
HETATM   22  C20 UNL     1       0.255  13.303  22.808  1.00  0.00     0.181 C 
BRANCH  18  23
HETATM   23  O3  UNL     1       0.720  10.903  25.520  1.00  0.00    -0.388 OA
ATOM     24  H3  UNL     1       1.308  10.233  25.192  1.00  0.00     0.210 HD
ENDBRANCH  18  23
BRANCH  19  25
HETATM   25  O4  UNL     1      -1.921  11.544  25.776  1.00  0.00    -0.369 OA
ATOM     26  H4  UNL     1      -2.470  12.089  26.328  1.00  0.00     0.212 HD
ENDBRANCH  19  25
BRANCH  21  27
HETATM   27  C19 UNL     1      -1.991  13.600  21.738  1.00  0.00     0.198 C 
BRANCH  27  28
HETATM   28  O6  UNL     1      -3.183  14.066  22.267  1.00  0.00    -0.398 OA
ATOM     29  H6  UNL     1      -3.850  13.390  22.284  1.00  0.00     0.209 HD
ENDBRANCH  27  28
ENDBRANCH  21  27
BRANCH  22  30
HETATM   30  O7  UNL     1       0.732  13.154  21.483  1.00  0.00    -0.390 OA
ATOM     31  H7  UNL     1       1.582  12.729  21.482  1.00  0.00     0.210 HD
ENDBRANCH  22  30
ENDBRANCH   1  17
TORSDOF 11
ENDMDL
MODEL 4
REMARK VINA RESULT: -8.648126251      3.101      6.727
REMARK  11 active torsions:
REMARK  status: ('A' for Active; 'I' for Inactive)
REMARK    1  A    between atoms: C2_2  and  C3_3 
REMARK    2  A    between atoms: C4_4  and  C5_5 
REMARK    3  A    between atoms: C12_12  and  C13_13 
REMARK    4  A    between atoms: C13_13  and  C14_14 
REMARK    5  A    between atoms: C14_14  and  O2_16 
REMARK    6  A    between atoms: O2_16  and  C15_17 
REMARK    7  A    between atoms: C16_18  and  O3_19 
REMARK    8  A    between atoms: C17_21  and  O4_22 
REMARK    9  A    between atoms: C18_25  and  C19_26 
REMARK   10  A    between atoms: C19_26  and  O6_27 
REMARK   11  A    between atoms: C20_29  and  O7_30 
ROOT
HETATM    1  O2  UNL     1       3.184   8.370  23.632  1.00  0.00    -0.310 OA
ENDROOT
BRANCH   1   2
HETATM    2  C14 UNL     1       2.709   9.337  24.455  1.00  0.00     0.262 C 
HETATM    3  O1  UNL     1       2.991   9.355  25.649  1.00  0.00    -0.265 OA
BRANCH   2   4
HETATM    4  C13 UNL     1       1.814  10.403  23.868  1.00  0.00     0.138 C 
BRANCH   4   5
HETATM    5  C12 UNL     1       2.127  11.715  24.369  1.00  0.00    -0.010 C 
HETATM    6  C2  UNL     1       1.553  12.871  23.957  1.00  0.00    -0.066 C 
HETATM    7  C1  UNL     1       0.533  12.826  22.920  1.00  0.00     0.048 C 
BRANCH   6   8
HETATM    8  C3  UNL     1       2.023  14.063  24.600  1.00  0.00     0.003 C 
HETATM    9  C4  UNL     1       3.104  14.646  24.823  1.00  0.00    -0.021 C 
BRANCH   9  10
HETATM   10  C5  UNL     1       4.499  14.548  24.618  1.00  0.00     0.016 C 
HETATM   11  C6  UNL     1       5.343  13.374  24.780  1.00  0.00     0.009 C 
HETATM   12  C7  UNL     1       6.724  13.946  24.362  1.00  0.00     0.001 C 
HETATM   13  C8  UNL     1       6.708  15.280  25.115  1.00  0.00     0.009 C 
HETATM   14  C9  UNL     1       5.290  15.584  25.470  1.00  0.00    -0.041 C 
HETATM   15  C10 UNL     1       5.048  15.381  26.928  1.00  0.00     0.015 C 
HETATM   16  C11 UNL     1       4.839  16.950  25.041  1.00  0.00     0.015 C 
ENDBRANCH   9  10
ENDBRANCH   6   8
ENDBRANCH   4   5
ENDBRANCH   2   4
ENDBRANCH   1   2
BRANCH   1  17
HETATM   17  C15 UNL     1       4.542   8.020  23.480  1.00  0.00     0.196 C 
HETATM   18  C16 UNL     1       4.777   7.888  21.986  1.00  0.00     0.205 C 
HETATM   19  C17 UNL     1       4.763   9.259  21.401  1.00  0.00     0.288 C 
HETATM   20  O5  UNL     1       5.797  10.045  21.837  1.00  0.00    -0.349 OA
HETATM   21  C18 UNL     1       6.431   9.462  22.906  1.00  0.00     0.179 C 
HETATM   22  C20 UNL     1       5.489   9.039  24.016  1.00  0.00     0.181 C 
BRANCH  18  23
HETATM   23  O3  UNL     1       3.672   7.199  21.438  1.00  0.00    -0.388 OA
ATOM     24  H3  UNL     1       3.430   7.637  20.631  1.00  0.00     0.210 HD
ENDBRANCH  18  23
BRANCH  19  25
HETATM   25  O4  UNL     1       4.752   9.259  20.009  1.00  0.00    -0.369 OA
ATOM     26  H4  UNL     1       5.623   9.224  19.630  1.00  0.00     0.212 HD
ENDBRANCH  19  25
BRANCH  21  27
HETATM   27  C19 UNL     1       7.498  10.415  23.426  1.00  0.00     0.198 C 
BRANCH  27  28
HETATM   28  O6  UNL     1       8.620   9.738  23.873  1.00  0.00    -0.398 OA
ATOM     29  H6  UNL     1       9.073   9.298  23.164  1.00  0.00     0.209 HD
ENDBRANCH  27  28
ENDBRANCH  21  27
BRANCH  22  30
HETATM   30  O7  UNL     1       6.323   8.466  25.006  1.00  0.00    -0.390 OA
ATOM     31  H7  UNL     1       7.206   8.808  24.934  1.00  0.00     0.210 HD
ENDBRANCH  22  30
ENDBRANCH   1  17
TORSDOF 11
ENDMDL
MODEL 5
REMARK VINA RESULT: -8.630473369      3.645      6.233
REMARK  11 active torsions:
REMARK  status: ('A' for Active; 'I' for Inactive)
REMARK    1  A    between atoms: C2_2  and  C3_3 
REMARK    2  A    between atoms: C4_4  and  C5_5 
REMARK    3  A    between atoms: C12_12  and  C13_13 
REMARK    4  A    between atoms: C13_13  and  C14_14 
REMARK    5  A    between atoms: C14_14  and  O2_16 
REMARK    6  A    between atoms: O2_16  and  C15_17 
REMARK    7  A    between atoms: C16_18  and  O3_19 
REMARK    8  A    between atoms: C17_21  and  O4_22 
REMARK    9  A    between atoms: C18_25  and  C19_26 
REMARK   10  A    between atoms: C19_26  and  O6_27 
REMARK   11  A    between atoms: C20_29  and  O7_30 
ROOT
HETATM    1  O2  UNL     1       5.723  10.793  23.600  1.00  0.00    -0.310 OA
ENDROOT
BRANCH   1   2
HETATM    2  C14 UNL     1       6.540  11.826  23.922  1.00  0.00     0.262 C 
HETATM    3  O1  UNL     1       7.760  11.702  23.913  1.00  0.00    -0.265 OA
BRANCH   2   4
HETATM    4  C13 UNL     1       5.911  13.147  24.298  1.00  0.00     0.138 C 
BRANCH   4   5
HETATM    5  C12 UNL     1       4.475  13.110  24.225  1.00  0.00    -0.010 C 
HETATM    6  C2  UNL     1       3.640  14.075  24.679  1.00  0.00    -0.066 C 
HETATM    7  C1  UNL     1       4.203  15.263  25.305  1.00  0.00     0.048 C 
BRANCH   6   8
HETATM    8  C3  UNL     1       2.241  13.823  24.498  1.00  0.00     0.003 C 
HETATM    9  C4  UNL     1       1.447  12.860  24.534  1.00  0.00    -0.021 C 
BRANCH   9  10
HETATM   10  C5  UNL     1       1.378  11.466  24.759  1.00  0.00     0.016 C 
HETATM   11  C6  UNL     1       1.777  10.398  23.855  1.00  0.00     0.009 C 
HETATM   12  C7  UNL     1       1.477   9.149  24.727  1.00  0.00     0.001 C 
HETATM   13  C8  UNL     1       0.102   9.528  25.285  1.00  0.00     0.009 C 
HETATM   14  C9  UNL     1      -0.063  11.003  25.124  1.00  0.00    -0.041 C 
HETATM   15  C10 UNL     1      -1.025  11.317  24.027  1.00  0.00     0.015 C 
HETATM   16  C11 UNL     1      -0.451  11.710  26.390  1.00  0.00     0.015 C 
ENDBRANCH   9  10
ENDBRANCH   6   8
ENDBRANCH   4   5
ENDBRANCH   2   4
ENDBRANCH   1   2
BRANCH   1  17
HETATM   17  C15 UNL     1       6.070   9.704  22.773  1.00  0.00     0.196 C 
HETATM   18  C16 UNL     1       6.384   8.550  23.708  1.00  0.00     0.205 C 
HETATM   19  C17 UNL     1       5.097   8.074  24.289  1.00  0.00     0.288 C 
HETATM   20  O5  UNL     1       4.247   7.534  23.359  1.00  0.00    -0.349 OA
HETATM   21  C18 UNL     1       4.685   7.811  22.087  1.00  0.00     0.179 C 
HETATM   22  C20 UNL     1       4.979   9.279  21.851  1.00  0.00     0.181 C 
BRANCH  18  23
HETATM   23  O3  UNL     1       7.151   9.061  24.778  1.00  0.00    -0.388 OA
ATOM     24  H3  UNL     1       6.884   8.606  25.567  1.00  0.00     0.210 HD
ENDBRANCH  18  23
BRANCH  19  25
HETATM   25  O4  UNL     1       5.269   7.161  25.326  1.00  0.00    -0.369 OA
ATOM     26  H4  UNL     1       4.450   6.886  25.721  1.00  0.00     0.212 HD
ENDBRANCH  19  25
BRANCH  21  27
HETATM   27  C19 UNL     1       3.659   7.289  21.091  1.00  0.00     0.198 C 
BRANCH  27  28
HETATM   28  O6  UNL     1       4.231   7.009  19.861  1.00  0.00    -0.398 OA
ATOM     29  H6  UNL     1       4.861   7.672  19.606  1.00  0.00     0.209 HD
ENDBRANCH  27  28
ENDBRANCH  21  27
BRANCH  22  30
HETATM   30  O7  UNL     1       5.413   9.353  20.505  1.00  0.00    -0.390 OA
ATOM     31  H7  UNL     1       4.910   8.758  19.961  1.00  0.00     0.210 HD
ENDBRANCH  22  30
ENDBRANCH   1  17
TORSDOF 11
ENDMDL
