MODEL 1
REMARK VINA RESULT: -7.090106727      0.000      0.000
REMARK  8 active torsions:
REMARK  status: ('A' for Active; 'I' for Inactive)
REMARK    1  A    between atoms: C2_2  and  C3_3 
REMARK    2  A    between atoms: C3_3  and  O1_4 
REMARK    3  A    between atoms: O1_4  and  C4_5 
REMARK    4  A    between atoms: C5_6  and  C6_7 
REMARK    5  A    between atoms: C7_9  and  C8_10 
REMARK    6  A    between atoms: C11_15  and  O4_16 
REMARK    7  A    between atoms: C15_21  and  O5_22 
REMARK    8  A    between atoms: C16_25  and  O7_26 
ROOT
HETATM    1  C4  UNL     1       2.411   9.714  24.951  1.00  0.00     0.153 C 
HETATM    2  C5  UNL     1       2.215  11.169  24.692  1.00  0.00     0.055 C 
HETATM    3  C7  UNL     1       3.182  11.800  23.749  1.00  0.00     0.131 C 
HETATM    4  O2  UNL     1       3.579  10.966  22.721  1.00  0.00    -0.354 OA
HETATM    5  C10 UNL     1       4.159   9.798  23.115  1.00  0.00     0.286 C 
HETATM    6  O3  UNL     1       4.346   9.027  21.983  1.00  0.00    -0.318 OA
HETATM    7  C11 UNL     1       4.076   7.707  22.323  1.00  0.00     0.227 C 
HETATM    8  C12 UNL     1       5.361   7.142  22.887  1.00  0.00     0.055 C 
HETATM    9  C13 UNL     1       5.426   5.641  22.776  1.00  0.00     0.016 C 
HETATM   10  C14 UNL     1       5.513   7.638  24.286  1.00  0.00     0.079 C 
HETATM   11  C15 UNL     1       4.183   7.995  24.893  1.00  0.00     0.186 C 
HETATM   12  O6  UNL     1       3.278   7.011  24.499  1.00  0.00    -0.311 OA
HETATM   13  C16 UNL     1       2.992   7.778  23.398  1.00  0.00     0.243 C 
HETATM   14  C17 UNL     1       3.419   9.018  24.127  1.00  0.00     0.153 C 
ENDROOT
BRANCH   1  15
HETATM   15  O1  UNL     1       1.135   9.120  24.875  1.00  0.00    -0.380 OA
BRANCH  15  16
HETATM   16  C3  UNL     1       0.546   8.970  26.124  1.00  0.00     0.194 C 
BRANCH  16  17
HETATM   17  C2  UNL     1       0.699   7.588  26.645  1.00  0.00    -0.011 C 
HETATM   18  C1  UNL     1       0.370   6.534  25.929  1.00  0.00     0.009 C 
ENDBRANCH  16  17
ENDBRANCH  15  16
ENDBRANCH   1  15
BRANCH   2  19
HETATM   19  C6  UNL     1       0.800  11.464  24.172  1.00  0.00     0.096 C 
HETATM   20  S1  UNL     1       0.779  13.015  23.243  1.00  0.00    -0.097 SA
ENDBRANCH   2  19
BRANCH   3  21
HETATM   21  C8  UNL     1       4.398  12.386  24.482  1.00  0.00     0.028 C 
HETATM   22  C9  UNL     1       4.110  13.847  24.724  1.00  0.00     0.007 C 
ENDBRANCH   3  21
BRANCH  11  23
HETATM   23  O5  UNL     1       4.259   8.130  26.256  1.00  0.00    -0.364 OA
ATOM     24  H5  UNL     1       3.437   7.918  26.682  1.00  0.00     0.213 HD
ENDBRANCH  11  23
BRANCH  13  25
HETATM   25  O7  UNL     1       1.701   7.748  22.928  1.00  0.00    -0.360 OA
ATOM     26  H7  UNL     1       1.079   7.293  23.483  1.00  0.00     0.213 HD
ENDBRANCH  13  25
BRANCH   7  27
HETATM   27  O4  UNL     1       3.685   6.942  21.241  1.00  0.00    -0.361 OA
ATOM     28  H4  UNL     1       3.585   6.022  21.456  1.00  0.00     0.213 HD
ENDBRANCH   7  27
TORSDOF 8
ENDMDL
MODEL 2
REMARK VINA RESULT: -6.945620835      1.479      1.925
REMARK  8 active torsions:
REMARK  status: ('A' for Active; 'I' for Inactive)
REMARK    1  A    between atoms: C2_2  and  C3_3 
REMARK    2  A    between atoms: C3_3  and  O1_4 
REMARK    3  A    between atoms: O1_4  and  C4_5 
REMARK    4  A    between atoms: C5_6  and  C6_7 
REMARK    5  A    between atoms: C7_9  and  C8_10 
REMARK    6  A    between atoms: C11_15  and  O4_16 
REMARK    7  A    between atoms: C15_21  and  O5_22 
REMARK    8  A    between atoms: C16_25  and  O7_26 
ROOT
HETATM    1  C4  UNL     1       2.393  10.226  25.064  1.00  0.00     0.153 C 
HETATM    2  C5  UNL     1       2.766  11.457  24.310  1.00  0.00     0.055 C 
HETATM    3  C7  UNL     1       3.823  11.291  23.271  1.00  0.00     0.131 C 
HETATM    4  O2  UNL     1       3.775  10.073  22.620  1.00  0.00    -0.354 OA
HETATM    5  C10 UNL     1       3.878   8.980  23.428  1.00  0.00     0.286 C 
HETATM    6  O3  UNL     1       3.653   7.864  22.644  1.00  0.00    -0.318 OA
HETATM    7  C11 UNL     1       2.913   6.962  23.399  1.00  0.00     0.227 C 
HETATM    8  C12 UNL     1       3.913   6.161  24.204  1.00  0.00     0.055 C 
HETATM    9  C13 UNL     1       3.372   4.819  24.619  1.00  0.00     0.016 C 
HETATM   10  C14 UNL     1       4.362   6.999  25.354  1.00  0.00     0.079 C 
HETATM   11  C15 UNL     1       3.334   8.038  25.714  1.00  0.00     0.186 C 
HETATM   12  O6  UNL     1       2.086   7.424  25.625  1.00  0.00    -0.311 OA
HETATM   13  C16 UNL     1       2.036   7.817  24.311  1.00  0.00     0.243 C 
HETATM   14  C17 UNL     1       2.975   8.954  24.596  1.00  0.00     0.153 C 
ENDROOT
BRANCH   1  15
HETATM   15  O1  UNL     1       0.985  10.201  25.115  1.00  0.00    -0.380 OA
BRANCH  15  16
HETATM   16  C3  UNL     1       0.499  10.346  26.409  1.00  0.00     0.194 C 
BRANCH  16  17
HETATM   17  C2  UNL     1      -0.658  11.274  26.465  1.00  0.00    -0.011 C 
HETATM   18  C1  UNL     1      -1.422  11.497  25.416  1.00  0.00     0.009 C 
ENDBRANCH  16  17
ENDBRANCH  15  16
ENDBRANCH   1  15
BRANCH   2  19
HETATM   19  C6  UNL     1       1.544  12.094  23.630  1.00  0.00     0.096 C 
HETATM   20  S1  UNL     1       1.380  13.826  24.121  1.00  0.00    -0.097 SA
ENDBRANCH   2  19
BRANCH   3  21
HETATM   21  C8  UNL     1       5.227  11.557  23.836  1.00  0.00     0.028 C 
HETATM   22  C9  UNL     1       5.222  12.957  24.399  1.00  0.00     0.007 C 
ENDBRANCH   3  21
BRANCH  11  23
HETATM   23  O5  UNL     1       3.567   8.586  26.950  1.00  0.00    -0.364 OA
ATOM     24  H5  UNL     1       3.560   7.931  27.638  1.00  0.00     0.213 HD
ENDBRANCH  11  23
BRANCH  13  25
HETATM   25  O7  UNL     1       0.805   8.145  23.798  1.00  0.00    -0.360 OA
ATOM     26  H7  UNL     1       0.793   8.910  23.233  1.00  0.00     0.213 HD
ENDBRANCH  13  25
BRANCH   7  27
HETATM   27  O4  UNL     1       2.166   6.097  22.622  1.00  0.00    -0.361 OA
ATOM     28  H4  UNL     1       1.439   5.710  23.096  1.00  0.00     0.213 HD
ENDBRANCH   7  27
TORSDOF 8
ENDMDL
MODEL 3
REMARK VINA RESULT: -6.755266808      1.299      1.597
REMARK  8 active torsions:
REMARK  status: ('A' for Active; 'I' for Inactive)
REMARK    1  A    between atoms: C2_2  and  C3_3 
REMARK    2  A    between atoms: C3_3  and  O1_4 
REMARK    3  A    between atoms: O1_4  and  C4_5 
REMARK    4  A    between atoms: C5_6  and  C6_7 
REMARK    5  A    between atoms: C7_9  and  C8_10 
REMARK    6  A    between atoms: C11_15  and  O4_16 
REMARK    7  A    between atoms: C15_21  and  O5_22 
REMARK    8  A    between atoms: C16_25  and  O7_26 
ROOT
HETATM    1  C4  UNL     1       3.465   9.030  24.433  1.00  0.00     0.153 C 
HETATM    2  C5  UNL     1       3.721  10.468  24.132  1.00  0.00     0.055 C 
HETATM    3  C7  UNL     1       4.615  10.743  22.970  1.00  0.00     0.131 C 
HETATM    4  O2  UNL     1       4.472   9.838  21.935  1.00  0.00    -0.354 OA
HETATM    5  C10 UNL     1       4.694   8.536  22.270  1.00  0.00     0.286 C 
HETATM    6  O3  UNL     1       4.358   7.765  21.173  1.00  0.00    -0.318 OA
HETATM    7  C11 UNL     1       3.738   6.613  21.643  1.00  0.00     0.227 C 
HETATM    8  C12 UNL     1       4.847   5.633  21.958  1.00  0.00     0.055 C 
HETATM    9  C13 UNL     1       4.375   4.203  21.929  1.00  0.00     0.016 C 
HETATM   10  C14 UNL     1       5.459   6.025  23.261  1.00  0.00     0.079 C 
HETATM   11  C15 UNL     1       4.494   6.809  24.110  1.00  0.00     0.186 C 
HETATM   12  O6  UNL     1       3.247   6.201  23.976  1.00  0.00    -0.311 OA
HETATM   13  C16 UNL     1       3.004   7.036  22.914  1.00  0.00     0.243 C 
HETATM   14  C17 UNL     1       3.973   8.043  23.460  1.00  0.00     0.153 C 
ENDROOT
BRANCH   1  15
HETATM   15  O1  UNL     1       2.079   8.912  24.663  1.00  0.00    -0.380 OA
BRANCH  15  16
HETATM   16  C3  UNL     1       1.786   8.628  25.991  1.00  0.00     0.194 C 
BRANCH  16  17
HETATM   17  C2  UNL     1       0.525   7.857  26.126  1.00  0.00    -0.011 C 
HETATM   18  C1  UNL     1       0.478   6.558  25.921  1.00  0.00     0.009 C 
ENDBRANCH  16  17
ENDBRANCH  15  16
ENDBRANCH   1  15
BRANCH   2  19
HETATM   19  C6  UNL     1       2.412  11.239  23.903  1.00  0.00     0.096 C 
HETATM   20  S1  UNL     1       2.645  12.997  24.255  1.00  0.00    -0.097 SA
ENDBRANCH   2  19
BRANCH   3  21
HETATM   21  C8  UNL     1       6.086  10.865  23.395  1.00  0.00     0.028 C 
HETATM   22  C9  UNL     1       6.318  12.304  23.785  1.00  0.00     0.007 C 
ENDBRANCH   3  21
BRANCH  11  23
HETATM   23  O5  UNL     1       4.906   6.890  25.417  1.00  0.00    -0.364 OA
ATOM     24  H5  UNL     1       5.851   6.955  25.489  1.00  0.00     0.213 HD
ENDBRANCH  11  23
BRANCH  13  25
HETATM   25  O7  UNL     1       1.710   7.458  22.728  1.00  0.00    -0.360 OA
ATOM     26  H7  UNL     1       1.198   6.935  22.122  1.00  0.00     0.213 HD
ENDBRANCH  13  25
BRANCH   7  27
HETATM   27  O4  UNL     1       2.886   6.045  20.716  1.00  0.00    -0.361 OA
ATOM     28  H4  UNL     1       2.013   6.420  20.738  1.00  0.00     0.213 HD
ENDBRANCH   7  27
TORSDOF 8
ENDMDL
MODEL 4
REMARK VINA RESULT: -6.530777347      1.341      1.530
REMARK  8 active torsions:
REMARK  status: ('A' for Active; 'I' for Inactive)
REMARK    1  A    between atoms: C2_2  and  C3_3 
REMARK    2  A    between atoms: C3_3  and  O1_4 
REMARK    3  A    between atoms: O1_4  and  C4_5 
REMARK    4  A    between atoms: C5_6  and  C6_7 
REMARK    5  A    between atoms: C7_9  and  C8_10 
REMARK    6  A    between atoms: C11_15  and  O4_16 
REMARK    7  A    between atoms: C15_21  and  O5_22 
REMARK    8  A    between atoms: C16_25  and  O7_26 
ROOT
HETATM    1  C4  UNL     1       2.102   9.668  25.629  1.00  0.00     0.153 C 
HETATM    2  C5  UNL     1       2.116  11.018  24.997  1.00  0.00     0.055 C 
HETATM    3  C7  UNL     1       2.986  11.167  23.795  1.00  0.00     0.131 C 
HETATM    4  O2  UNL     1       3.035  10.036  23.002  1.00  0.00    -0.354 OA
HETATM    5  C10 UNL     1       3.467   8.907  23.632  1.00  0.00     0.286 C 
HETATM    6  O3  UNL     1       3.304   7.854  22.749  1.00  0.00    -0.318 OA
HETATM    7  C11 UNL     1       2.877   6.754  23.482  1.00  0.00     0.227 C 
HETATM    8  C12 UNL     1       4.127   6.083  24.009  1.00  0.00     0.055 C 
HETATM    9  C13 UNL     1       3.909   4.626  24.320  1.00  0.00     0.016 C 
HETATM   10  C14 UNL     1       4.619   6.869  25.178  1.00  0.00     0.079 C 
HETATM   11  C15 UNL     1       3.507   7.647  25.828  1.00  0.00     0.186 C 
HETATM   12  O6  UNL     1       2.388   6.816  25.851  1.00  0.00    -0.311 OA
HETATM   13  C16 UNL     1       2.040   7.325  24.625  1.00  0.00     0.243 C 
HETATM   14  C17 UNL     1       2.803   8.586  24.911  1.00  0.00     0.153 C 
ENDROOT
BRANCH   1  15
HETATM   15  O1  UNL     1       0.750   9.365  25.892  1.00  0.00    -0.380 OA
BRANCH  15  16
HETATM   16  C3  UNL     1       0.428   9.512  27.236  1.00  0.00     0.194 C 
BRANCH  16  17
HETATM   17  C2  UNL     1       0.348   8.203  27.931  1.00  0.00    -0.011 C 
HETATM   18  C1  UNL     1       1.059   7.943  29.008  1.00  0.00     0.009 C 
ENDBRANCH  16  17
ENDBRANCH  15  16
ENDBRANCH   1  15
BRANCH   2  19
HETATM   19  C6  UNL     1       0.702  11.473  24.605  1.00  0.00     0.096 C 
HETATM   20  S1  UNL     1       0.782  12.897  23.494  1.00  0.00    -0.097 SA
ENDBRANCH   2  19
BRANCH   3  21
HETATM   21  C8  UNL     1       4.400  11.639  24.166  1.00  0.00     0.028 C 
HETATM   22  C9  UNL     1       4.322  13.127  24.408  1.00  0.00     0.007 C 
ENDBRANCH   3  21
BRANCH  11  23
HETATM   23  O5  UNL     1       3.856   8.101  27.075  1.00  0.00    -0.364 OA
ATOM     24  H5  UNL     1       3.930   9.047  27.102  1.00  0.00     0.213 HD
ENDBRANCH  11  23
BRANCH  13  25
HETATM   25  O7  UNL     1       0.700   7.460  24.356  1.00  0.00    -0.360 OA
ATOM     26  H7  UNL     1       0.298   8.253  24.691  1.00  0.00     0.213 HD
ENDBRANCH  13  25
BRANCH   7  27
HETATM   27  O4  UNL     1       2.166   5.845  22.722  1.00  0.00    -0.361 OA
ATOM     28  H4  UNL     1       2.651   5.046  22.551  1.00  0.00     0.213 HD
ENDBRANCH   7  27
TORSDOF 8
ENDMDL
MODEL 5
REMARK VINA RESULT: -6.466665936      1.869      4.372
REMARK  8 active torsions:
REMARK  status: ('A' for Active; 'I' for Inactive)
REMARK    1  A    between atoms: C2_2  and  C3_3 
REMARK    2  A    between atoms: C3_3  and  O1_4 
REMARK    3  A    between atoms: O1_4  and  C4_5 
REMARK    4  A    between atoms: C5_6  and  C6_7 
REMARK    5  A    between atoms: C7_9  and  C8_10 
REMARK    6  A    between atoms: C11_15  and  O4_16 
REMARK    7  A    between atoms: C15_21  and  O5_22 
REMARK    8  A    between atoms: C16_25  and  O7_26 
ROOT
HETATM    1  C4  UNL     1       3.965  10.238  23.709  1.00  0.00     0.153 C 
HETATM    2  C5  UNL     1       3.714  11.702  23.838  1.00  0.00     0.055 C 
HETATM    3  C7  UNL     1       2.349  12.092  24.294  1.00  0.00     0.131 C 
HETATM    4  O2  UNL     1       1.798  11.217  25.210  1.00  0.00    -0.354 OA
HETATM    5  C10 UNL     1       1.689   9.927  24.784  1.00  0.00     0.286 C 
HETATM    6  O3  UNL     1       1.275   9.169  25.864  1.00  0.00    -0.318 OA
HETATM    7  C11 UNL     1       1.945   7.954  25.807  1.00  0.00     0.227 C 
HETATM    8  C12 UNL     1       1.128   7.060  24.901  1.00  0.00     0.055 C 
HETATM    9  C13 UNL     1       1.370   5.597  25.167  1.00  0.00     0.016 C 
HETATM   10  C14 UNL     1       1.399   7.456  23.489  1.00  0.00     0.079 C 
HETATM   11  C15 UNL     1       2.741   8.124  23.351  1.00  0.00     0.186 C 
HETATM   12  O6  UNL     1       3.632   7.418  24.157  1.00  0.00    -0.311 OA
HETATM   13  C16 UNL     1       3.304   8.267  25.184  1.00  0.00     0.243 C 
HETATM   14  C17 UNL     1       2.910   9.333  24.204  1.00  0.00     0.153 C 
ENDROOT
BRANCH   1  15
HETATM   15  O1  UNL     1       5.220   9.995  24.303  1.00  0.00    -0.380 OA
BRANCH  15  16
HETATM   16  C3  UNL     1       6.191   9.653  23.369  1.00  0.00     0.194 C 
BRANCH  16  17
HETATM   17  C2  UNL     1       7.556   9.993  23.841  1.00  0.00    -0.011 C 
HETATM   18  C1  UNL     1       8.619   9.807  23.087  1.00  0.00     0.009 C 
ENDBRANCH  16  17
ENDBRANCH  15  16
ENDBRANCH   1  15
BRANCH   2  19
HETATM   19  C6  UNL     1       4.726  12.367  24.783  1.00  0.00     0.096 C 
HETATM   20  S1  UNL     1       4.414  14.145  24.892  1.00  0.00    -0.097 SA
ENDBRANCH   2  19
BRANCH   3  21
HETATM   21  C8  UNL     1       1.395  12.323  23.112  1.00  0.00     0.028 C 
HETATM   22  C9  UNL     1       0.255  13.171  23.620  1.00  0.00     0.007 C 
ENDBRANCH   3  21
BRANCH  11  23
HETATM   23  O5  UNL     1       3.150   8.193  22.043  1.00  0.00    -0.364 OA
ATOM     24  H5  UNL     1       3.271   7.331  21.661  1.00  0.00     0.213 HD
ENDBRANCH  11  23
BRANCH  13  25
HETATM   25  O7  UNL     1       4.297   8.586  26.079  1.00  0.00    -0.360 OA
ATOM     26  H7  UNL     1       3.995   8.921  26.916  1.00  0.00     0.213 HD
ENDBRANCH  13  25
BRANCH   7  27
HETATM   27  O4  UNL     1       2.068   7.349  27.044  1.00  0.00    -0.361 OA
ATOM     28  H4  UNL     1       2.931   6.979  27.190  1.00  0.00     0.213 HD
ENDBRANCH   7  27
TORSDOF 8
ENDMDL
