MODEL 1
REMARK VINA RESULT: -8.032643864      0.000      0.000
REMARK  8 active torsions:
REMARK  status: ('A' for Active; 'I' for Inactive)
REMARK    1  A    between atoms: C2_2  and  C3_3 
REMARK    2  A    between atoms: C2_2  and  N1_6 
REMARK    3  A    between atoms: C3_3  and  O1_4 
REMARK    4  A    between atoms: N1_6  and  C4_7 
REMARK    5  A    between atoms: C5_8  and  C6_9 
REMARK    6  A    between atoms: N3_13  and  C8_14 
REMARK    7  A    between atoms: C8_14  and  C9_15 
REMARK    8  A    between atoms: C13_20  and  N5_21 
ROOT
HETATM    1  C9  UNL     1       4.934   8.224  22.460  1.00  0.00     0.155 C 
HETATM    2  C10 UNL     1       4.698   8.767  21.129  1.00  0.00     0.061 C 
HETATM    3  N4  UNL     1       4.492   9.198  20.086  1.00  0.00    -0.197 NA
ENDROOT
BRANCH   1   4
HETATM    4  C8  UNL     1       4.039   8.971  23.472  1.00  0.00     0.050 C 
HETATM    5  C11 UNL     1       2.710   9.071  22.753  1.00  0.00     0.034 C 
HETATM    6  C12 UNL     1       1.788   7.971  23.146  1.00  0.00     0.035 C 
HETATM    7  C13 UNL     1       2.364   6.604  23.299  1.00  0.00     0.183 C 
HETATM    8  C14 UNL     1       3.669   6.543  24.037  1.00  0.00     0.035 C 
HETATM    9  C15 UNL     1       3.897   7.975  24.570  1.00  0.00     0.034 C 
BRANCH   4  10
HETATM   10  N3  UNL     1       4.701  10.205  23.717  1.00  0.00    -0.335 N 
HETATM   11  C7  UNL     1       6.044  10.290  23.551  1.00  0.00     0.113 A 
HETATM   12  C5  UNL     1       6.808  11.431  23.776  1.00  0.00     0.086 A 
HETATM   13  C4  UNL     1       6.126  12.565  24.203  1.00  0.00     0.142 A 
HETATM   14  C18 UNL     1       4.724  12.454  24.371  1.00  0.00     0.112 A 
HETATM   15  C16 UNL     1       4.030  11.294  24.130  1.00  0.00     0.142 A 
HETATM   16 CL1  UNL     1       3.778  13.816  24.940  1.00  0.00    -0.077 Cl
HETATM   17  C17 UNL     1       2.579  11.309  24.298  1.00  0.00     0.119 C 
HETATM   18  N6  UNL     1       1.421  11.370  24.431  1.00  0.00    -0.190 NA
BRANCH  12  19
HETATM   19  C6  UNL     1       8.258  11.345  23.623  1.00  0.00     0.269 C 
HETATM   20  N2  UNL     1       8.766  10.281  22.816  1.00  0.00    -0.057 NA
HETATM   21  O2  UNL     1       9.133  12.073  24.097  1.00  0.00    -0.271 OA
ENDBRANCH  12  19
BRANCH  13  22
HETATM   22  N1  UNL     1       6.649  13.640  24.401  1.00  0.00    -0.438 NA
BRANCH  22  23
HETATM   23  C2  UNL     1       7.168  14.738  24.916  1.00  0.00     0.183 C 
HETATM   24  C1  UNL     1       6.130  15.703  25.586  1.00  0.00     0.049 C 
BRANCH  23  25
HETATM   25  C3  UNL     1       8.170  14.570  26.107  1.00  0.00     0.203 C 
BRANCH  25  26
HETATM   26  O1  UNL     1       9.451  14.440  25.636  1.00  0.00    -0.398 OA
ATOM     27  H1  UNL     1       9.593  15.028  24.904  1.00  0.00     0.209 HD
ENDBRANCH  25  26
ENDBRANCH  23  25
ENDBRANCH  22  23
ENDBRANCH  13  22
ENDBRANCH   4  10
BRANCH   7  28
HETATM   28  N5  UNL     1       1.341   5.817  24.012  1.00  0.00    -0.075 N 
ATOM     29  H53 UNL     1       1.724   5.213  24.739  1.00  0.00     0.274 HD
ATOM     30  H52 UNL     1       0.745   6.378  24.621  1.00  0.00     0.274 HD
ATOM     31  H51 UNL     1       0.827   5.314  23.289  1.00  0.00     0.274 HD
ENDBRANCH   7  28
ENDBRANCH   1   4
TORSDOF 8
ENDMDL
MODEL 2
REMARK VINA RESULT: -8.002031757      2.231      3.909
REMARK  8 active torsions:
REMARK  status: ('A' for Active; 'I' for Inactive)
REMARK    1  A    between atoms: C2_2  and  C3_3 
REMARK    2  A    between atoms: C2_2  and  N1_6 
REMARK    3  A    between atoms: C3_3  and  O1_4 
REMARK    4  A    between atoms: N1_6  and  C4_7 
REMARK    5  A    between atoms: C5_8  and  C6_9 
REMARK    6  A    between atoms: N3_13  and  C8_14 
REMARK    7  A    between atoms: C8_14  and  C9_15 
REMARK    8  A    between atoms: C13_20  and  N5_21 
ROOT
HETATM    1  C9  UNL     1       2.710   8.957  23.136  1.00  0.00     0.155 C 
HETATM    2  C10 UNL     1       2.194   8.625  24.458  1.00  0.00     0.061 C 
HETATM    3  N4  UNL     1       1.805   8.352  25.502  1.00  0.00    -0.197 NA
ENDROOT
BRANCH   1   4
HETATM    4  C8  UNL     1       4.245   9.101  23.220  1.00  0.00     0.050 C 
HETATM    5  C11 UNL     1       4.641   8.026  24.210  1.00  0.00     0.034 C 
HETATM    6  C12 UNL     1       5.057   6.772  23.524  1.00  0.00     0.035 C 
HETATM    7  C13 UNL     1       4.262   6.332  22.343  1.00  0.00     0.183 C 
HETATM    8  C14 UNL     1       3.908   7.419  21.372  1.00  0.00     0.035 C 
HETATM    9  C15 UNL     1       4.681   8.663  21.864  1.00  0.00     0.034 C 
BRANCH   4  10
HETATM   10  N3  UNL     1       4.473  10.440  23.638  1.00  0.00    -0.335 N 
HETATM   11  C7  UNL     1       3.418  11.254  23.885  1.00  0.00     0.113 A 
HETATM   12  C5  UNL     1       3.508  12.585  24.281  1.00  0.00     0.086 A 
HETATM   13  C4  UNL     1       4.789  13.105  24.433  1.00  0.00     0.142 A 
HETATM   14  C18 UNL     1       5.877  12.238  24.169  1.00  0.00     0.112 A 
HETATM   15  C16 UNL     1       5.716  10.931  23.780  1.00  0.00     0.142 A 
HETATM   16 CL1  UNL     1       7.530  12.807  24.296  1.00  0.00    -0.077 Cl
HETATM   17  C17 UNL     1       6.913  10.118  23.577  1.00  0.00     0.119 C 
HETATM   18  N6  UNL     1       7.894   9.502  23.437  1.00  0.00    -0.190 NA
BRANCH  12  19
HETATM   19  C6  UNL     1       2.278  13.355  24.438  1.00  0.00     0.269 C 
HETATM   20  N2  UNL     1       1.059  12.619  24.553  1.00  0.00    -0.057 NA
HETATM   21  O2  UNL     1       2.129  14.578  24.489  1.00  0.00    -0.271 OA
ENDBRANCH  12  19
BRANCH  13  22
HETATM   22  N1  UNL     1       5.026  14.232  24.809  1.00  0.00    -0.438 NA
BRANCH  22  23
HETATM   23  C2  UNL     1       5.493  15.316  25.398  1.00  0.00     0.183 C 
HETATM   24  C1  UNL     1       4.398  16.249  26.021  1.00  0.00     0.049 C 
BRANCH  23  25
HETATM   25  C3  UNL     1       6.405  15.115  26.655  1.00  0.00     0.203 C 
BRANCH  25  26
HETATM   26  O1  UNL     1       7.702  15.444  26.359  1.00  0.00    -0.398 OA
ATOM     27  H1  UNL     1       7.983  16.183  26.885  1.00  0.00     0.209 HD
ENDBRANCH  25  26
ENDBRANCH  23  25
ENDBRANCH  22  23
ENDBRANCH  13  22
ENDBRANCH   4  10
BRANCH   7  28
HETATM   28  N5  UNL     1       5.078   5.301  21.674  1.00  0.00    -0.075 N 
ATOM     29  H53 UNL     1       5.664   5.668  20.924  1.00  0.00     0.274 HD
ATOM     30  H52 UNL     1       5.836   4.940  22.254  1.00  0.00     0.274 HD
ATOM     31  H51 UNL     1       4.422   4.584  21.368  1.00  0.00     0.274 HD
ENDBRANCH   7  28
ENDBRANCH   1   4
TORSDOF 8
ENDMDL
MODEL 3
REMARK VINA RESULT: -7.768108170      2.223      3.822
REMARK  8 active torsions:
REMARK  status: ('A' for Active; 'I' for Inactive)
REMARK    1  A    between atoms: C2_2  and  C3_3 
REMARK    2  A    between atoms: C2_2  and  N1_6 
REMARK    3  A    between atoms: C3_3  and  O1_4 
REMARK    4  A    between atoms: N1_6  and  C4_7 
REMARK    5  A    between atoms: C5_8  and  C6_9 
REMARK    6  A    between atoms: N3_13  and  C8_14 
REMARK    7  A    between atoms: C8_14  and  C9_15 
REMARK    8  A    between atoms: C13_20  and  N5_21 
ROOT
HETATM    1  C9  UNL     1       3.396   9.902  23.273  1.00  0.00     0.155 C 
HETATM    2  C10 UNL     1       2.945   9.606  24.627  1.00  0.00     0.061 C 
HETATM    3  N4  UNL     1       2.604   9.358  25.694  1.00  0.00    -0.197 NA
ENDROOT
BRANCH   1   4
HETATM    4  C8  UNL     1       4.918   9.656  23.188  1.00  0.00     0.050 C 
HETATM    5  C11 UNL     1       5.118   8.416  24.035  1.00  0.00     0.034 C 
HETATM    6  C12 UNL     1       5.135   7.181  23.207  1.00  0.00     0.035 C 
HETATM    7  C13 UNL     1       4.148   7.077  22.095  1.00  0.00     0.183 C 
HETATM    8  C14 UNL     1       3.994   8.317  21.263  1.00  0.00     0.035 C 
HETATM    9  C15 UNL     1       5.101   9.274  21.759  1.00  0.00     0.034 C 
BRANCH   4  10
HETATM   10  N3  UNL     1       5.517  10.846  23.684  1.00  0.00    -0.335 N 
HETATM   11  C7  UNL     1       4.733  11.883  24.065  1.00  0.00     0.113 A 
HETATM   12  C5  UNL     1       5.197  13.103  24.548  1.00  0.00     0.086 A 
HETATM   13  C4  UNL     1       6.576  13.253  24.642  1.00  0.00     0.142 A 
HETATM   14  C18 UNL     1       7.377  12.157  24.238  1.00  0.00     0.112 A 
HETATM   15  C16 UNL     1       6.852  10.978  23.769  1.00  0.00     0.142 A 
HETATM   16 CL1  UNL     1       9.126  12.259  24.284  1.00  0.00    -0.077 Cl
HETATM   17  C17 UNL     1       7.775   9.901  23.421  1.00  0.00     0.119 C 
HETATM   18  N6  UNL     1       8.548   9.064  23.166  1.00  0.00    -0.190 NA
BRANCH  12  19
HETATM   19  C6  UNL     1       4.227  14.152  24.849  1.00  0.00     0.269 C 
HETATM   20  N2  UNL     1       2.858  13.882  24.541  1.00  0.00    -0.057 NA
HETATM   21  O2  UNL     1       4.416  15.266  25.344  1.00  0.00    -0.271 OA
ENDBRANCH  12  19
BRANCH  13  22
HETATM   22  N1  UNL     1       7.125  14.241  25.080  1.00  0.00    -0.438 NA
BRANCH  22  23
HETATM   23  C2  UNL     1       7.692  15.167  25.828  1.00  0.00     0.183 C 
HETATM   24  C1  UNL     1       7.576  14.926  27.373  1.00  0.00     0.049 C 
BRANCH  23  25
HETATM   25  C3  UNL     1       9.244  15.336  25.710  1.00  0.00     0.203 C 
BRANCH  25  26
HETATM   26  O1  UNL     1       9.717  16.112  26.737  1.00  0.00    -0.398 OA
ATOM     27  H1  UNL     1      10.055  15.564  27.434  1.00  0.00     0.209 HD
ENDBRANCH  25  26
ENDBRANCH  23  25
ENDBRANCH  22  23
ENDBRANCH  13  22
ENDBRANCH   4  10
BRANCH   7  28
HETATM   28  N5  UNL     1       4.609   5.957  21.254  1.00  0.00    -0.075 N 
ATOM     29  H53 UNL     1       4.925   6.244  20.328  1.00  0.00     0.274 HD
ATOM     30  H52 UNL     1       5.493   5.551  21.563  1.00  0.00     0.274 HD
ATOM     31  H51 UNL     1       3.838   5.290  21.236  1.00  0.00     0.274 HD
ENDBRANCH   7  28
ENDBRANCH   1   4
TORSDOF 8
ENDMDL
MODEL 4
REMARK VINA RESULT: -7.567688501      1.934      3.316
REMARK  8 active torsions:
REMARK  status: ('A' for Active; 'I' for Inactive)
REMARK    1  A    between atoms: C2_2  and  C3_3 
REMARK    2  A    between atoms: C2_2  and  N1_6 
REMARK    3  A    between atoms: C3_3  and  O1_4 
REMARK    4  A    between atoms: N1_6  and  C4_7 
REMARK    5  A    between atoms: C5_8  and  C6_9 
REMARK    6  A    between atoms: N3_13  and  C8_14 
REMARK    7  A    between atoms: C8_14  and  C9_15 
REMARK    8  A    between atoms: C13_20  and  N5_21 
ROOT
HETATM    1  C9  UNL     1       5.387   8.576  22.291  1.00  0.00     0.155 C 
HETATM    2  C10 UNL     1       4.768   8.950  21.026  1.00  0.00     0.061 C 
HETATM    3  N4  UNL     1       4.262   9.238  20.037  1.00  0.00    -0.197 NA
ENDROOT
BRANCH   1   4
HETATM    4  C8  UNL     1       4.394   8.865  23.438  1.00  0.00     0.050 C 
HETATM    5  C11 UNL     1       3.048   8.541  22.824  1.00  0.00     0.034 C 
HETATM    6  C12 UNL     1       2.615   7.156  23.148  1.00  0.00     0.035 C 
HETATM    7  C13 UNL     1       3.645   6.079  23.106  1.00  0.00     0.183 C 
HETATM    8  C14 UNL     1       4.957   6.428  23.745  1.00  0.00     0.035 C 
HETATM    9  C15 UNL     1       4.722   7.796  24.423  1.00  0.00     0.034 C 
BRANCH   4  10
HETATM   10  N3  UNL     1       4.605  10.229  23.779  1.00  0.00    -0.335 N 
HETATM   11  C7  UNL     1       3.540  11.043  23.979  1.00  0.00     0.113 A 
HETATM   12  C5  UNL     1       3.613  12.395  24.298  1.00  0.00     0.086 A 
HETATM   13  C4  UNL     1       4.887  12.939  24.419  1.00  0.00     0.142 A 
HETATM   14  C18 UNL     1       5.986  12.073  24.204  1.00  0.00     0.112 A 
HETATM   15  C16 UNL     1       5.841  10.743  23.891  1.00  0.00     0.142 A 
HETATM   16 CL1  UNL     1       7.632  12.669  24.297  1.00  0.00    -0.077 Cl
HETATM   17  C17 UNL     1       7.049   9.936  23.733  1.00  0.00     0.119 C 
HETATM   18  N6  UNL     1       8.038   9.325  23.629  1.00  0.00    -0.190 NA
BRANCH  12  19
HETATM   19  C6  UNL     1       2.372  13.157  24.411  1.00  0.00     0.269 C 
HETATM   20  N2  UNL     1       1.156  12.413  24.490  1.00  0.00    -0.057 NA
HETATM   21  O2  UNL     1       2.213  14.379  24.452  1.00  0.00    -0.271 OA
ENDBRANCH  12  19
BRANCH  13  22
HETATM   22  N1  UNL     1       5.109  14.090  24.729  1.00  0.00    -0.438 NA
BRANCH  22  23
HETATM   23  C2  UNL     1       5.543  15.210  25.274  1.00  0.00     0.183 C 
HETATM   24  C1  UNL     1       4.421  16.123  25.879  1.00  0.00     0.049 C 
BRANCH  23  25
HETATM   25  C3  UNL     1       6.477  15.087  26.525  1.00  0.00     0.203 C 
BRANCH  25  26
HETATM   26  O1  UNL     1       7.767  15.408  26.188  1.00  0.00    -0.398 OA
ATOM     27  H1  UNL     1       7.943  16.318  26.393  1.00  0.00     0.209 HD
ENDBRANCH  25  26
ENDBRANCH  23  25
ENDBRANCH  22  23
ENDBRANCH  13  22
ENDBRANCH   4  10
BRANCH   7  28
HETATM   28  N5  UNL     1       3.040   4.921  23.790  1.00  0.00    -0.075 N 
ATOM     29  H53 UNL     1       2.754   5.117  24.749  1.00  0.00     0.274 HD
ATOM     30  H52 UNL     1       2.116   4.673  23.436  1.00  0.00     0.274 HD
ATOM     31  H51 UNL     1       3.722   4.167  23.713  1.00  0.00     0.274 HD
ENDBRANCH   7  28
ENDBRANCH   1   4
TORSDOF 8
ENDMDL
MODEL 5
REMARK VINA RESULT: -7.290292451      1.402      2.180
REMARK  8 active torsions:
REMARK  status: ('A' for Active; 'I' for Inactive)
REMARK    1  A    between atoms: C2_2  and  C3_3 
REMARK    2  A    between atoms: C2_2  and  N1_6 
REMARK    3  A    between atoms: C3_3  and  O1_4 
REMARK    4  A    between atoms: N1_6  and  C4_7 
REMARK    5  A    between atoms: C5_8  and  C6_9 
REMARK    6  A    between atoms: N3_13  and  C8_14 
REMARK    7  A    between atoms: C8_14  and  C9_15 
REMARK    8  A    between atoms: C13_20  and  N5_21 
ROOT
HETATM    1  C9  UNL     1       4.281   8.317  24.429  1.00  0.00     0.155 C 
HETATM    2  C10 UNL     1       3.430   8.700  25.548  1.00  0.00     0.061 C 
HETATM    3  N4  UNL     1       2.761   9.021  26.423  1.00  0.00    -0.197 NA
ENDROOT
BRANCH   1   4
HETATM    4  C8  UNL     1       3.944   9.211  23.216  1.00  0.00     0.050 C 
HETATM    5  C11 UNL     1       4.747   8.590  22.092  1.00  0.00     0.034 C 
HETATM    6  C12 UNL     1       3.928   7.641  21.290  1.00  0.00     0.035 C 
HETATM    7  C13 UNL     1       2.996   6.738  22.024  1.00  0.00     0.183 C 
HETATM    8  C14 UNL     1       2.201   7.393  23.114  1.00  0.00     0.035 C 
HETATM    9  C15 UNL     1       2.505   8.902  22.982  1.00  0.00     0.034 C 
BRANCH   4  10
HETATM   10  N3  UNL     1       4.331  10.524  23.600  1.00  0.00    -0.335 N 
HETATM   11  C7  UNL     1       5.647  10.839  23.677  1.00  0.00     0.113 A 
HETATM   12  C5  UNL     1       6.153  12.078  24.056  1.00  0.00     0.086 A 
HETATM   13  C4  UNL     1       5.222  13.061  24.377  1.00  0.00     0.142 A 
HETATM   14  C18 UNL     1       3.853  12.710  24.291  1.00  0.00     0.112 A 
HETATM   15  C16 UNL     1       3.422  11.464  23.908  1.00  0.00     0.142 A 
HETATM   16 CL1  UNL     1       2.603  13.865  24.709  1.00  0.00    -0.077 Cl
HETATM   17  C17 UNL     1       1.983  11.229  23.815  1.00  0.00     0.119 C 
HETATM   18  N6  UNL     1       0.826  11.090  23.742  1.00  0.00    -0.190 NA
BRANCH  12  19
HETATM   19  C6  UNL     1       7.601  12.242  24.162  1.00  0.00     0.269 C 
HETATM   20  N2  UNL     1       8.414  11.157  23.713  1.00  0.00    -0.057 NA
HETATM   21  O2  UNL     1       8.244  13.203  24.590  1.00  0.00    -0.271 OA
ENDBRANCH  12  19
BRANCH  13  22
HETATM   22  N1  UNL     1       5.511  14.197  24.686  1.00  0.00    -0.438 NA
BRANCH  22  23
HETATM   23  C2  UNL     1       5.839  15.312  25.309  1.00  0.00     0.183 C 
HETATM   24  C1  UNL     1       4.623  16.172  25.799  1.00  0.00     0.049 C 
BRANCH  23  25
HETATM   25  C3  UNL     1       6.621  15.178  26.659  1.00  0.00     0.203 C 
BRANCH  25  26
HETATM   26  O1  UNL     1       7.965  15.351  26.448  1.00  0.00    -0.398 OA
ATOM     27  H1  UNL     1       8.110  15.921  25.702  1.00  0.00     0.209 HD
ENDBRANCH  25  26
ENDBRANCH  23  25
ENDBRANCH  22  23
ENDBRANCH  13  22
ENDBRANCH   4  10
BRANCH   7  28
HETATM   28  N5  UNL     1       2.092   6.181  21.001  1.00  0.00    -0.075 N 
ATOM     29  H53 UNL     1       2.550   5.993  20.109  1.00  0.00     0.274 HD
ATOM     30  H52 UNL     1       1.799   5.223  21.191  1.00  0.00     0.274 HD
ATOM     31  H51 UNL     1       1.316   6.839  20.931  1.00  0.00     0.274 HD
ENDBRANCH   7  28
ENDBRANCH   1   4
TORSDOF 8
ENDMDL
