MODEL 1
REMARK VINA RESULT: -7.819127339      0.000      0.000
REMARK  9 active torsions:
REMARK  status: ('A' for Active; 'I' for Inactive)
REMARK    1  A    between atoms: C2_2  and  O1_3 
REMARK    2  A    between atoms: O1_3  and  C3_4 
REMARK    3  A    between atoms: C3_4  and  C4_6 
REMARK    4  A    between atoms: C5_7  and  O3_8 
REMARK    5  A    between atoms: C6_10  and  O4_11 
REMARK    6  A    between atoms: C7_13  and  O5_14 
REMARK    7  A    between atoms: C8_16  and  S1_17 
REMARK    8  A    between atoms: C10_19  and  N1_20 
REMARK       I    between atoms: N1_20  and  C11_22 
REMARK    9  A    between atoms: C11_22  and  C12_24 
ROOT
HETATM    1  C4  UNL     1       2.568   8.434  26.072  1.00  0.00     0.140 C 
HETATM    2  C5  UNL     1       1.072   8.158  26.192  1.00  0.00     0.165 C 
HETATM    3  C6  UNL     1       0.722   7.282  25.006  1.00  0.00     0.177 C 
HETATM    4  C7  UNL     1       0.727   8.163  23.786  1.00  0.00     0.165 C 
HETATM    5  C8  UNL     1       1.805   9.202  23.803  1.00  0.00     0.102 C 
HETATM    6  C10 UNL     1       2.951   8.894  24.709  1.00  0.00     0.117 C 
ENDROOT
BRANCH   6   7
HETATM    7  N1  UNL     1       3.699  10.157  24.881  1.00  0.00    -0.350 N 
HETATM    8  C11 UNL     1       4.780  10.489  24.050  1.00  0.00     0.252 C 
HETATM    9  O6  UNL     1       5.175   9.726  23.111  1.00  0.00    -0.268 OA
ATOM     10  H1  UNL     1       3.423  10.803  25.621  1.00  0.00     0.163 HD
BRANCH   8  11
HETATM   11  C12 UNL     1       5.497  11.736  24.238  1.00  0.00     0.032 A 
HETATM   12  C13 UNL     1       4.925  12.911  24.692  1.00  0.00     0.018 A 
HETATM   13  C14 UNL     1       5.654  14.069  24.858  1.00  0.00     0.025 A 
HETATM   14  C15 UNL     1       6.996  14.081  24.569  1.00  0.00     0.034 A 
HETATM   15 CL1  UNL     1       7.980  15.525  24.760  1.00  0.00    -0.084 Cl
HETATM   16  C16 UNL     1       7.626  12.932  24.109  1.00  0.00     0.025 A 
HETATM   17  C17 UNL     1       6.862  11.804  23.959  1.00  0.00     0.018 A 
ENDBRANCH   8  11
ENDBRANCH   6   7
BRANCH   1  18
HETATM   18  C3  UNL     1       3.237   7.122  26.393  1.00  0.00     0.267 C 
HETATM   19  O2  UNL     1       3.419   6.765  27.582  1.00  0.00    -0.265 OA
BRANCH  18  20
HETATM   20  O1  UNL     1       3.664   6.287  25.378  1.00  0.00    -0.321 OA
BRANCH  20  21
HETATM   21  C2  UNL     1       4.970   5.719  25.360  1.00  0.00     0.174 C 
HETATM   22  C1  UNL     1       5.845   6.458  24.399  1.00  0.00     0.034 C 
ENDBRANCH  20  21
ENDBRANCH  18  20
ENDBRANCH   1  18
BRANCH   5  23
HETATM   23  S1  UNL     1       1.127  10.842  24.225  1.00  0.00    -0.164 SA
HETATM   24  C9  UNL     1      -0.704  10.778  24.185  1.00  0.00     0.090 C 
ENDBRANCH   5  23
BRANCH   2  25
HETATM   25  O3  UNL     1       0.833   7.509  27.401  1.00  0.00    -0.392 OA
ATOM     26  H3  UNL     1       0.757   8.162  28.087  1.00  0.00     0.210 HD
ENDBRANCH   2  25
BRANCH   4  27
HETATM   27  O5  UNL     1       0.774   7.354  22.664  1.00  0.00    -0.392 OA
ATOM     28  H5  UNL     1       1.454   7.681  22.087  1.00  0.00     0.210 HD
ENDBRANCH   4  27
BRANCH   3  29
HETATM   29  O4  UNL     1      -0.546   6.707  25.192  1.00  0.00    -0.390 OA
ATOM     30  H4  UNL     1      -0.701   6.043  24.530  1.00  0.00     0.210 HD
ENDBRANCH   3  29
TORSDOF 9
ENDMDL
MODEL 2
REMARK VINA RESULT: -7.495948907      2.019      2.758
REMARK  9 active torsions:
REMARK  status: ('A' for Active; 'I' for Inactive)
REMARK    1  A    between atoms: C2_2  and  O1_3 
REMARK    2  A    between atoms: O1_3  and  C3_4 
REMARK    3  A    between atoms: C3_4  and  C4_6 
REMARK    4  A    between atoms: C5_7  and  O3_8 
REMARK    5  A    between atoms: C6_10  and  O4_11 
REMARK    6  A    between atoms: C7_13  and  O5_14 
REMARK    7  A    between atoms: C8_16  and  S1_17 
REMARK    8  A    between atoms: C10_19  and  N1_20 
REMARK       I    between atoms: N1_20  and  C11_22 
REMARK    9  A    between atoms: C11_22  and  C12_24 
ROOT
HETATM    1  C4  UNL     1       4.059   7.314  24.059  1.00  0.00     0.140 C 
HETATM    2  C5  UNL     1       3.105   6.300  24.685  1.00  0.00     0.165 C 
HETATM    3  C6  UNL     1       2.137   5.917  23.585  1.00  0.00     0.177 C 
HETATM    4  C7  UNL     1       1.196   7.077  23.397  1.00  0.00     0.165 C 
HETATM    5  C8  UNL     1       1.858   8.412  23.536  1.00  0.00     0.102 C 
HETATM    6  C10 UNL     1       3.338   8.397  23.335  1.00  0.00     0.117 C 
ENDROOT
BRANCH   6   7
HETATM    7  N1  UNL     1       3.845   9.678  23.871  1.00  0.00    -0.350 N 
HETATM    8  C11 UNL     1       4.939  10.336  23.287  1.00  0.00     0.252 C 
HETATM    9  O6  UNL     1       5.551   9.869  22.273  1.00  0.00    -0.268 OA
ATOM     10  H1  UNL     1       3.391  10.093  24.684  1.00  0.00     0.163 HD
BRANCH   8  11
HETATM   11  C12 UNL     1       5.418  11.592  23.830  1.00  0.00     0.032 A 
HETATM   12  C13 UNL     1       6.748  11.968  23.888  1.00  0.00     0.018 A 
HETATM   13  C14 UNL     1       7.150  13.179  24.411  1.00  0.00     0.025 A 
HETATM   14  C15 UNL     1       6.215  14.058  24.900  1.00  0.00     0.034 A 
HETATM   15 CL1  UNL     1       6.663  15.615  25.579  1.00  0.00    -0.084 Cl
HETATM   16  C16 UNL     1       4.864  13.735  24.869  1.00  0.00     0.025 A 
HETATM   17  C17 UNL     1       4.511  12.522  24.339  1.00  0.00     0.018 A 
ENDBRANCH   8  11
ENDBRANCH   6   7
BRANCH   1  18
HETATM   18  C3  UNL     1       4.908   6.517  23.103  1.00  0.00     0.267 C 
HETATM   19  O2  UNL     1       5.901   5.867  23.511  1.00  0.00    -0.265 OA
BRANCH  18  20
HETATM   20  O1  UNL     1       4.606   6.488  21.755  1.00  0.00    -0.321 OA
BRANCH  20  21
HETATM   21  C2  UNL     1       4.299   5.278  21.070  1.00  0.00     0.174 C 
HETATM   22  C1  UNL     1       3.245   5.518  20.037  1.00  0.00     0.034 C 
ENDBRANCH  20  21
ENDBRANCH  18  20
ENDBRANCH   1  18
BRANCH   5  23
HETATM   23  S1  UNL     1       1.478   9.166  25.154  1.00  0.00    -0.164 SA
HETATM   24  C9  UNL     1       0.143   8.216  25.975  1.00  0.00     0.090 C 
ENDBRANCH   5  23
BRANCH   2  25
HETATM   25  O3  UNL     1       3.844   5.206  25.127  1.00  0.00    -0.392 OA
ATOM     26  H3  UNL     1       3.259   4.464  25.227  1.00  0.00     0.210 HD
ENDBRANCH   2  25
BRANCH   4  27
HETATM   27  O5  UNL     1       0.546   6.920  22.185  1.00  0.00    -0.392 OA
ATOM     28  H5  UNL     1       0.820   6.093  21.804  1.00  0.00     0.210 HD
ENDBRANCH   4  27
BRANCH   3  29
HETATM   29  O4  UNL     1       1.426   4.763  23.952  1.00  0.00    -0.390 OA
ATOM     30  H4  UNL     1       0.526   4.988  24.159  1.00  0.00     0.210 HD
ENDBRANCH   3  29
TORSDOF 9
ENDMDL
MODEL 3
REMARK VINA RESULT: -7.494541336      2.989      4.198
REMARK  9 active torsions:
REMARK  status: ('A' for Active; 'I' for Inactive)
REMARK    1  A    between atoms: C2_2  and  O1_3 
REMARK    2  A    between atoms: O1_3  and  C3_4 
REMARK    3  A    between atoms: C3_4  and  C4_6 
REMARK    4  A    between atoms: C5_7  and  O3_8 
REMARK    5  A    between atoms: C6_10  and  O4_11 
REMARK    6  A    between atoms: C7_13  and  O5_14 
REMARK    7  A    between atoms: C8_16  and  S1_17 
REMARK    8  A    between atoms: C10_19  and  N1_20 
REMARK       I    between atoms: N1_20  and  C11_22 
REMARK    9  A    between atoms: C11_22  and  C12_24 
ROOT
HETATM    1  C4  UNL     1       4.342   7.922  22.048  1.00  0.00     0.140 C 
HETATM    2  C5  UNL     1       4.120   6.476  22.481  1.00  0.00     0.165 C 
HETATM    3  C6  UNL     1       2.672   6.171  22.156  1.00  0.00     0.177 C 
HETATM    4  C7  UNL     1       1.827   6.882  23.179  1.00  0.00     0.165 C 
HETATM    5  C8  UNL     1       2.359   8.228  23.562  1.00  0.00     0.102 C 
HETATM    6  C10 UNL     1       3.287   8.837  22.564  1.00  0.00     0.117 C 
ENDROOT
BRANCH   6   7
HETATM    7  N1  UNL     1       3.984   9.940  23.260  1.00  0.00    -0.350 N 
HETATM    8  C11 UNL     1       3.478  11.249  23.252  1.00  0.00     0.252 C 
HETATM    9  O6  UNL     1       2.402  11.558  22.647  1.00  0.00    -0.268 OA
ATOM     10  H1  UNL     1       4.852   9.745  23.758  1.00  0.00     0.163 HD
BRANCH   8  11
HETATM   11  C12 UNL     1       4.179  12.313  23.943  1.00  0.00     0.032 A 
HETATM   12  C13 UNL     1       5.550  12.360  24.130  1.00  0.00     0.018 A 
HETATM   13  C14 UNL     1       6.168  13.399  24.791  1.00  0.00     0.025 A 
HETATM   14  C15 UNL     1       5.418  14.435  25.293  1.00  0.00     0.034 A 
HETATM   15 CL1  UNL     1       6.147  15.788  26.145  1.00  0.00    -0.084 Cl
HETATM   16  C16 UNL     1       4.038  14.442  25.136  1.00  0.00     0.025 A 
HETATM   17  C17 UNL     1       3.467  13.389  24.472  1.00  0.00     0.018 A 
ENDBRANCH   8  11
ENDBRANCH   6   7
BRANCH   1  18
HETATM   18  C3  UNL     1       4.319   7.889  20.541  1.00  0.00     0.267 C 
HETATM   19  O2  UNL     1       4.378   8.949  19.872  1.00  0.00    -0.265 OA
BRANCH  18  20
HETATM   20  O1  UNL     1       4.230   6.685  19.868  1.00  0.00    -0.321 OA
BRANCH  20  21
HETATM   21  C2  UNL     1       3.793   6.601  18.515  1.00  0.00     0.174 C 
HETATM   22  C1  UNL     1       2.639   5.658  18.399  1.00  0.00     0.034 C 
ENDBRANCH  20  21
ENDBRANCH  18  20
ENDBRANCH   1  18
BRANCH   5  23
HETATM   23  S1  UNL     1       3.180   8.167  25.190  1.00  0.00    -0.164 SA
HETATM   24  C9  UNL     1       2.286   9.250  26.369  1.00  0.00     0.090 C 
ENDBRANCH   5  23
BRANCH   2  25
HETATM   25  O3  UNL     1       4.993   5.657  21.770  1.00  0.00    -0.392 OA
ATOM     26  H3  UNL     1       4.684   5.588  20.875  1.00  0.00     0.210 HD
ENDBRANCH   2  25
BRANCH   4  27
HETATM   27  O5  UNL     1       0.524   6.929  22.711  1.00  0.00    -0.392 OA
ATOM     28  H5  UNL     1       0.128   7.739  23.011  1.00  0.00     0.210 HD
ENDBRANCH   4  27
BRANCH   3  29
HETATM   29  O4  UNL     1       2.449   4.785  22.213  1.00  0.00    -0.390 OA
ATOM     30  H4  UNL     1       1.547   4.591  21.988  1.00  0.00     0.210 HD
ENDBRANCH   3  29
TORSDOF 9
ENDMDL
MODEL 4
REMARK VINA RESULT: -7.441129387      1.815      2.567
REMARK  9 active torsions:
REMARK  status: ('A' for Active; 'I' for Inactive)
REMARK    1  A    between atoms: C2_2  and  O1_3 
REMARK    2  A    between atoms: O1_3  and  C3_4 
REMARK    3  A    between atoms: C3_4  and  C4_6 
REMARK    4  A    between atoms: C5_7  and  O3_8 
REMARK    5  A    between atoms: C6_10  and  O4_11 
REMARK    6  A    between atoms: C7_13  and  O5_14 
REMARK    7  A    between atoms: C8_16  and  S1_17 
REMARK    8  A    between atoms: C10_19  and  N1_20 
REMARK       I    between atoms: N1_20  and  C11_22 
REMARK    9  A    between atoms: C11_22  and  C12_24 
ROOT
HETATM    1  C4  UNL     1       4.219   7.393  24.423  1.00  0.00     0.140 C 
HETATM    2  C5  UNL     1       3.172   6.364  24.838  1.00  0.00     0.165 C 
HETATM    3  C6  UNL     1       2.645   5.772  23.547  1.00  0.00     0.177 C 
HETATM    4  C7  UNL     1       1.754   6.808  22.915  1.00  0.00     0.165 C 
HETATM    5  C8  UNL     1       2.255   8.209  23.080  1.00  0.00     0.102 C 
HETATM    6  C10 UNL     1       3.717   8.317  23.368  1.00  0.00     0.117 C 
ENDROOT
BRANCH   6   7
HETATM    7  N1  UNL     1       3.944   9.691  23.863  1.00  0.00    -0.350 N 
HETATM    8  C11 UNL     1       5.114  10.400  23.550  1.00  0.00     0.252 C 
HETATM    9  O6  UNL     1       6.039   9.902  22.831  1.00  0.00    -0.268 OA
ATOM     10  H1  UNL     1       3.234  10.135  24.446  1.00  0.00     0.163 HD
BRANCH   8  11
HETATM   11  C12 UNL     1       5.313  11.747  24.047  1.00  0.00     0.032 A 
HETATM   12  C13 UNL     1       6.548  12.352  24.207  1.00  0.00     0.018 A 
HETATM   13  C14 UNL     1       6.681  13.640  24.680  1.00  0.00     0.025 A 
HETATM   14  C15 UNL     1       5.564  14.368  25.011  1.00  0.00     0.034 A 
HETATM   15 CL1  UNL     1       5.668  16.014  25.618  1.00  0.00    -0.084 Cl
HETATM   16  C16 UNL     1       4.299  13.813  24.872  1.00  0.00     0.025 A 
HETATM   17  C17 UNL     1       4.214  12.530  24.398  1.00  0.00     0.018 A 
ENDBRANCH   8  11
ENDBRANCH   6   7
BRANCH   1  18
HETATM   18  C3  UNL     1       5.381   6.586  23.904  1.00  0.00     0.267 C 
HETATM   19  O2  UNL     1       6.505   6.645  24.459  1.00  0.00    -0.265 OA
BRANCH  18  20
HETATM   20  O1  UNL     1       5.227   5.763  22.805  1.00  0.00    -0.321 OA
BRANCH  20  21
HETATM   21  C2  UNL     1       6.058   4.627  22.584  1.00  0.00     0.174 C 
HETATM   22  C1  UNL     1       5.530   3.444  23.330  1.00  0.00     0.034 C 
ENDBRANCH  20  21
ENDBRANCH  18  20
ENDBRANCH   1  18
BRANCH   5  23
HETATM   23  S1  UNL     1       1.319   9.090  24.375  1.00  0.00    -0.164 SA
HETATM   24  C9  UNL     1      -0.023   8.011  25.003  1.00  0.00     0.090 C 
ENDBRANCH   5  23
BRANCH   2  25
HETATM   25  O3  UNL     1       3.785   5.400  25.635  1.00  0.00    -0.392 OA
ATOM     26  H3  UNL     1       4.096   5.816  26.430  1.00  0.00     0.210 HD
ENDBRANCH   2  25
BRANCH   4  27
HETATM   27  O5  UNL     1       1.552   6.459  21.590  1.00  0.00    -0.392 OA
ATOM     28  H5  UNL     1       1.225   5.567  21.562  1.00  0.00     0.210 HD
ENDBRANCH   4  27
BRANCH   3  29
HETATM   29  O4  UNL     1       1.921   4.600  23.816  1.00  0.00    -0.390 OA
ATOM     30  H4  UNL     1       1.227   4.783  24.439  1.00  0.00     0.210 HD
ENDBRANCH   3  29
TORSDOF 9
ENDMDL
MODEL 5
REMARK VINA RESULT: -7.350205427      2.403      3.668
REMARK  9 active torsions:
REMARK  status: ('A' for Active; 'I' for Inactive)
REMARK    1  A    between atoms: C2_2  and  O1_3 
REMARK    2  A    between atoms: O1_3  and  C3_4 
REMARK    3  A    between atoms: C3_4  and  C4_6 
REMARK    4  A    between atoms: C5_7  and  O3_8 
REMARK    5  A    between atoms: C6_10  and  O4_11 
REMARK    6  A    between atoms: C7_13  and  O5_14 
REMARK    7  A    between atoms: C8_16  and  S1_17 
REMARK    8  A    between atoms: C10_19  and  N1_20 
REMARK       I    between atoms: N1_20  and  C11_22 
REMARK    9  A    between atoms: C11_22  and  C12_24 
ROOT
HETATM    1  C4  UNL     1       0.590  10.031  25.945  1.00  0.00     0.140 C 
HETATM    2  C5  UNL     1      -0.592  10.867  26.425  1.00  0.00     0.165 C 
HETATM    3  C6  UNL     1      -1.646  10.743  25.343  1.00  0.00     0.177 C 
HETATM    4  C7  UNL     1      -1.189  11.582  24.180  1.00  0.00     0.165 C 
HETATM    5  C8  UNL     1       0.289  11.534  23.952  1.00  0.00     0.102 C 
HETATM    6  C10 UNL     1       0.971  10.343  24.540  1.00  0.00     0.117 C 
ENDROOT
BRANCH   6   7
HETATM    7  N1  UNL     1       2.417  10.652  24.549  1.00  0.00    -0.350 N 
HETATM    8  C11 UNL     1       3.290  10.109  23.593  1.00  0.00     0.252 C 
HETATM    9  O6  UNL     1       2.889   9.326  22.673  1.00  0.00    -0.268 OA
ATOM     10  H1  UNL     1       2.789  11.273  25.267  1.00  0.00     0.163 HD
BRANCH   8  11
HETATM   11  C12 UNL     1       4.704  10.428  23.623  1.00  0.00     0.032 A 
HETATM   12  C13 UNL     1       5.719   9.529  23.349  1.00  0.00     0.018 A 
HETATM   13  C14 UNL     1       7.050   9.886  23.386  1.00  0.00     0.025 A 
HETATM   14  C15 UNL     1       7.405  11.173  23.706  1.00  0.00     0.034 A 
HETATM   15 CL1  UNL     1       9.083  11.690  23.770  1.00  0.00    -0.084 Cl
HETATM   16  C16 UNL     1       6.430  12.120  23.991  1.00  0.00     0.025 A 
HETATM   17  C17 UNL     1       5.120  11.721  23.941  1.00  0.00     0.018 A 
ENDBRANCH   8  11
ENDBRANCH   6   7
BRANCH   1  18
HETATM   18  C3  UNL     1       0.133   8.600  26.061  1.00  0.00     0.267 C 
HETATM   19  O2  UNL     1      -0.329   7.988  25.067  1.00  0.00    -0.265 OA
BRANCH  18  20
HETATM   20  O1  UNL     1       0.214   7.934  27.269  1.00  0.00    -0.321 OA
BRANCH  20  21
HETATM   21  C2  UNL     1       1.381   7.976  28.083  1.00  0.00     0.174 C 
HETATM   22  C1  UNL     1       1.123   7.310  29.397  1.00  0.00     0.034 C 
ENDBRANCH  20  21
ENDBRANCH  18  20
ENDBRANCH   1  18
BRANCH   5  23
HETATM   23  S1  UNL     1       1.095  13.053  24.566  1.00  0.00    -0.164 SA
HETATM   24  C9  UNL     1       0.718  14.446  23.435  1.00  0.00     0.090 C 
ENDBRANCH   5  23
BRANCH   2  25
HETATM   25  O3  UNL     1      -1.037  10.354  27.640  1.00  0.00    -0.392 OA
ATOM     26  H3  UNL     1      -0.790   9.439  27.694  1.00  0.00     0.210 HD
ENDBRANCH   2  25
BRANCH   4  27
HETATM   27  O5  UNL     1      -1.920  11.213  23.063  1.00  0.00    -0.392 OA
ATOM     28  H5  UNL     1      -2.639  11.826  22.960  1.00  0.00     0.210 HD
ENDBRANCH   4  27
BRANCH   3  29
HETATM   29  O4  UNL     1      -2.883  11.202  25.824  1.00  0.00    -0.390 OA
ATOM     30  H4  UNL     1      -2.748  11.893  26.461  1.00  0.00     0.210 HD
ENDBRANCH   3  29
TORSDOF 9
ENDMDL
