MODEL 1
REMARK VINA RESULT: -7.922331786      0.000      0.000
REMARK  9 active torsions:
REMARK  status: ('A' for Active; 'I' for Inactive)
REMARK    1  A    between atoms: C2_2  and  C3_3 
REMARK    2  A    between atoms: C3_3  and  N1_4 
REMARK    3  A    between atoms: C5_6  and  C6_7 
REMARK    4  A    between atoms: C7_9  and  C8_10 
REMARK    5  A    between atoms: C8_10  and  O2_11 
REMARK    6  A    between atoms: C9_13  and  O3_14 
REMARK    7  A    between atoms: C10_16  and  O4_17 
REMARK    8  A    between atoms: C11_19  and  O5_20 
REMARK    9  A    between atoms: C12_22  and  C13_23 
ROOT
HETATM    1  N1  UNL     1       4.136   8.781  22.146  1.00  0.00    -0.302 N 
HETATM    2  C4  UNL     1       2.969   9.027  22.815  1.00  0.00     0.122 A 
HETATM    3  C5  UNL     1       3.174   9.991  23.767  1.00  0.00     0.015 A 
HETATM    4  C12 UNL     1       4.498  10.327  23.661  1.00  0.00     0.040 A 
HETATM    5  N2  UNL     1       5.033   9.566  22.666  1.00  0.00    -0.302 N 
ATOM      6  H2  UNL     1       6.008   9.606  22.369  1.00  0.00     0.186 HD
ENDROOT
BRANCH   3   7
HETATM    7  C6  UNL     1       2.200  10.581  24.757  1.00  0.00     0.190 C 
HETATM    8  O1  UNL     1       1.811   9.502  25.547  1.00  0.00    -0.368 OA
HETATM    9  C7  UNL     1       0.835   9.764  26.465  1.00  0.00     0.177 C 
HETATM   10  C9  UNL     1      -0.461  10.103  25.786  1.00  0.00     0.180 C 
HETATM   11  C10 UNL     1      -0.272  10.513  24.346  1.00  0.00     0.181 C 
HETATM   12  C11 UNL     1       1.032  11.240  24.127  1.00  0.00     0.183 C 
BRANCH   9  13
HETATM   13  C8  UNL     1       0.641   8.446  27.237  1.00  0.00     0.198 C 
BRANCH  13  14
HETATM   14  O2  UNL     1      -0.128   8.833  28.363  1.00  0.00    -0.398 OA
ATOM     15  H2  UNL     1       0.511   8.866  29.067  1.00  0.00     0.209 HD
ENDBRANCH  13  14
ENDBRANCH   9  13
BRANCH  10  16
HETATM   16  O3  UNL     1      -1.105  11.092  26.527  1.00  0.00    -0.390 OA
ATOM     17  H3  UNL     1      -1.905  10.728  26.886  1.00  0.00     0.210 HD
ENDBRANCH  10  16
BRANCH  11  18
HETATM   18  O4  UNL     1      -1.299  11.403  24.041  1.00  0.00    -0.390 OA
ATOM     19  H4  UNL     1      -1.132  11.728  23.164  1.00  0.00     0.210 HD
ENDBRANCH  11  18
BRANCH  12  20
HETATM   20  O5  UNL     1       0.942  12.578  24.575  1.00  0.00    -0.390 OA
ATOM     21  H5  UNL     1       0.044  12.776  24.811  1.00  0.00     0.210 HD
ENDBRANCH  12  20
ENDBRANCH   3   7
BRANCH   4  22
HETATM   22  C13 UNL     1       5.295  11.316  24.426  1.00  0.00     0.038 C 
HETATM   23  C14 UNL     1       6.670  11.498  23.796  1.00  0.00     0.011 C 
HETATM   24  C15 UNL     1       7.082  12.912  24.122  1.00  0.00     0.001 C 
HETATM   25  C16 UNL     1       5.835  13.629  24.544  1.00  0.00     0.001 C 
HETATM   26  C17 UNL     1       4.695  12.677  24.371  1.00  0.00     0.011 C 
ENDBRANCH   4  22
BRANCH   1  27
HETATM   27  C3  UNL     1       4.284   7.818  21.078  1.00  0.00     0.158 C 
BRANCH  27  28
HETATM   28  C2  UNL     1       4.201   6.408  21.548  1.00  0.00    -0.008 A 
HETATM   29  C1  UNL     1       5.142   5.920  22.642  1.00  0.00     0.018 C 
HETATM   30  C18 UNL     1       3.873   5.408  20.424  1.00  0.00     0.033 A 
HETATM   31  C19 UNL     1       2.878   5.668  21.471  1.00  0.00     0.093 A 
HETATM   32 CL1  UNL     1       2.621   4.358  22.660  1.00  0.00    -0.124 Cl
ENDBRANCH  27  28
ENDBRANCH   1  27
TORSDOF 9
ENDMDL
MODEL 2
REMARK VINA RESULT: -7.845640770      3.329      5.948
REMARK  9 active torsions:
REMARK  status: ('A' for Active; 'I' for Inactive)
REMARK    1  A    between atoms: C2_2  and  C3_3 
REMARK    2  A    between atoms: C3_3  and  N1_4 
REMARK    3  A    between atoms: C5_6  and  C6_7 
REMARK    4  A    between atoms: C7_9  and  C8_10 
REMARK    5  A    between atoms: C8_10  and  O2_11 
REMARK    6  A    between atoms: C9_13  and  O3_14 
REMARK    7  A    between atoms: C10_16  and  O4_17 
REMARK    8  A    between atoms: C11_19  and  O5_20 
REMARK    9  A    between atoms: C12_22  and  C13_23 
ROOT
HETATM    1  N1  UNL     1       4.272  13.205  24.494  1.00  0.00    -0.302 N 
HETATM    2  C4  UNL     1       2.914  13.044  24.460  1.00  0.00     0.122 A 
HETATM    3  C5  UNL     1       2.609  11.766  24.068  1.00  0.00     0.015 A 
HETATM    4  C12 UNL     1       3.818  11.153  23.864  1.00  0.00     0.040 A 
HETATM    5  N2  UNL     1       4.790  12.068  24.135  1.00  0.00    -0.302 N 
ATOM      6  H2  UNL     1       5.791  11.885  24.067  1.00  0.00     0.186 HD
ENDROOT
BRANCH   3   7
HETATM    7  C6  UNL     1       1.259  11.122  23.867  1.00  0.00     0.190 C 
HETATM    8  O1  UNL     1       0.505  12.093  23.212  1.00  0.00    -0.368 OA
HETATM    9  C7  UNL     1      -0.809  11.783  23.010  1.00  0.00     0.177 C 
HETATM   10  C9  UNL     1      -1.542  11.686  24.318  1.00  0.00     0.180 C 
HETATM   11  C10 UNL     1      -0.613  11.496  25.492  1.00  0.00     0.181 C 
HETATM   12  C11 UNL     1       0.610  10.690  25.127  1.00  0.00     0.183 C 
BRANCH   9  13
HETATM   13  C8  UNL     1      -1.389  12.972  22.223  1.00  0.00     0.198 C 
BRANCH  13  14
HETATM   14  O2  UNL     1      -2.572  12.442  21.649  1.00  0.00    -0.398 OA
ATOM     15  H2  UNL     1      -2.507  12.696  20.735  1.00  0.00     0.209 HD
ENDBRANCH  13  14
ENDBRANCH   9  13
BRANCH  10  16
HETATM   16  O3  UNL     1      -2.478  10.658  24.227  1.00  0.00    -0.390 OA
ATOM     17  H3  UNL     1      -3.243  10.900  24.735  1.00  0.00     0.210 HD
ENDBRANCH  10  16
BRANCH  11  18
HETATM   18  O4  UNL     1      -1.316  10.771  26.451  1.00  0.00    -0.390 OA
ATOM     19  H4  UNL     1      -0.911   9.913  26.500  1.00  0.00     0.210 HD
ENDBRANCH  11  18
BRANCH  12  20
HETATM   20  O5  UNL     1       0.299   9.313  25.053  1.00  0.00    -0.390 OA
ATOM     21  H5  UNL     1       0.002   9.006  25.902  1.00  0.00     0.210 HD
ENDBRANCH  12  20
ENDBRANCH   3   7
BRANCH   4  22
HETATM   22  C13 UNL     1       4.124   9.767  23.435  1.00  0.00     0.038 C 
HETATM   23  C14 UNL     1       5.628   9.571  23.290  1.00  0.00     0.011 C 
HETATM   24  C15 UNL     1       5.876   8.111  23.578  1.00  0.00     0.001 C 
HETATM   25  C16 UNL     1       4.646   7.600  24.265  1.00  0.00     0.001 C 
HETATM   26  C17 UNL     1       3.732   8.767  24.465  1.00  0.00     0.011 C 
ENDBRANCH   4  22
BRANCH   1  27
HETATM   27  C3  UNL     1       4.943  14.432  24.862  1.00  0.00     0.158 C 
BRANCH  27  28
HETATM   28  C2  UNL     1       6.380  14.233  25.194  1.00  0.00    -0.008 A 
HETATM   29  C1  UNL     1       7.202  13.216  24.412  1.00  0.00     0.018 C 
HETATM   30  C18 UNL     1       6.681  14.351  26.699  1.00  0.00     0.033 A 
HETATM   31  C19 UNL     1       7.181  15.381  25.780  1.00  0.00     0.093 A 
HETATM   32 CL1  UNL     1       8.941  15.374  25.468  1.00  0.00    -0.124 Cl
ENDBRANCH  27  28
ENDBRANCH   1  27
TORSDOF 9
ENDMDL
MODEL 3
REMARK VINA RESULT: -7.623591423      4.024      6.882
REMARK  9 active torsions:
REMARK  status: ('A' for Active; 'I' for Inactive)
REMARK    1  A    between atoms: C2_2  and  C3_3 
REMARK    2  A    between atoms: C3_3  and  N1_4 
REMARK    3  A    between atoms: C5_6  and  C6_7 
REMARK    4  A    between atoms: C7_9  and  C8_10 
REMARK    5  A    between atoms: C8_10  and  O2_11 
REMARK    6  A    between atoms: C9_13  and  O3_14 
REMARK    7  A    between atoms: C10_16  and  O4_17 
REMARK    8  A    between atoms: C11_19  and  O5_20 
REMARK    9  A    between atoms: C12_22  and  C13_23 
ROOT
HETATM    1  N1  UNL     1      -0.302  10.024  24.625  1.00  0.00    -0.302 N 
HETATM    2  C4  UNL     1       0.624   9.510  23.759  1.00  0.00     0.122 A 
HETATM    3  C5  UNL     1       1.491   8.694  24.439  1.00  0.00     0.015 A 
HETATM    4  C12 UNL     1       1.069   8.725  25.742  1.00  0.00     0.040 A 
HETATM    5  N2  UNL     1      -0.017   9.544  25.800  1.00  0.00    -0.302 N 
ATOM      6  H2  UNL     1      -0.539   9.753  26.651  1.00  0.00     0.186 HD
ENDROOT
BRANCH   3   7
HETATM    7  C6  UNL     1       2.680   7.921  23.924  1.00  0.00     0.190 C 
HETATM    8  O1  UNL     1       3.193   8.713  22.899  1.00  0.00    -0.368 OA
HETATM    9  C7  UNL     1       4.227   8.169  22.194  1.00  0.00     0.177 C 
HETATM   10  C9  UNL     1       3.773   6.963  21.423  1.00  0.00     0.180 C 
HETATM   11  C10 UNL     1       2.478   6.391  21.948  1.00  0.00     0.181 C 
HETATM   12  C11 UNL     1       2.345   6.560  23.442  1.00  0.00     0.183 C 
BRANCH   9  13
HETATM   13  C8  UNL     1       4.644   9.254  21.184  1.00  0.00     0.198 C 
BRANCH  13  14
HETATM   14  O2  UNL     1       4.276   8.698  19.933  1.00  0.00    -0.398 OA
ATOM     15  H2  UNL     1       5.086   8.317  19.613  1.00  0.00     0.209 HD
ENDBRANCH  13  14
ENDBRANCH   9  13
BRANCH  10  16
HETATM   16  O3  UNL     1       4.797   6.018  21.432  1.00  0.00    -0.390 OA
ATOM     17  H3  UNL     1       4.739   5.501  20.637  1.00  0.00     0.210 HD
ENDBRANCH  10  16
BRANCH  11  18
HETATM   18  O4  UNL     1       2.504   5.024  21.686  1.00  0.00    -0.390 OA
ATOM     19  H4  UNL     1       3.411   4.747  21.751  1.00  0.00     0.210 HD
ENDBRANCH  11  18
BRANCH  12  20
HETATM   20  O5  UNL     1       3.132   5.606  24.127  1.00  0.00    -0.390 OA
ATOM     21  H5  UNL     1       3.926   5.435  23.635  1.00  0.00     0.210 HD
ENDBRANCH  12  20
ENDBRANCH   3   7
BRANCH   4  22
HETATM   22  C13 UNL     1       1.613   8.036  26.937  1.00  0.00     0.038 C 
HETATM   23  C14 UNL     1       2.890   8.715  27.413  1.00  0.00     0.011 C 
HETATM   24  C15 UNL     1       2.948   8.473  28.901  1.00  0.00     0.001 C 
HETATM   25  C16 UNL     1       1.571   8.050  29.315  1.00  0.00     0.001 C 
HETATM   26  C17 UNL     1       0.696   8.140  28.105  1.00  0.00     0.011 C 
ENDBRANCH   4  22
BRANCH   1  27
HETATM   27  C3  UNL     1      -1.366  10.928  24.248  1.00  0.00     0.158 C 
BRANCH  27  28
HETATM   28  C2  UNL     1      -0.870  12.185  23.625  1.00  0.00    -0.008 A 
HETATM   29  C1  UNL     1       0.325  12.909  24.232  1.00  0.00     0.018 C 
HETATM   30  C18 UNL     1      -1.995  13.069  23.055  1.00  0.00     0.033 A 
HETATM   31  C19 UNL     1      -1.059  12.410  22.135  1.00  0.00     0.093 A 
HETATM   32 CL1  UNL     1       0.131  13.469  21.326  1.00  0.00    -0.124 Cl
ENDBRANCH  27  28
ENDBRANCH   1  27
TORSDOF 9
ENDMDL
MODEL 4
REMARK VINA RESULT: -7.574714466      3.639      6.140
REMARK  9 active torsions:
REMARK  status: ('A' for Active; 'I' for Inactive)
REMARK    1  A    between atoms: C2_2  and  C3_3 
REMARK    2  A    between atoms: C3_3  and  N1_4 
REMARK    3  A    between atoms: C5_6  and  C6_7 
REMARK    4  A    between atoms: C7_9  and  C8_10 
REMARK    5  A    between atoms: C8_10  and  O2_11 
REMARK    6  A    between atoms: C9_13  and  O3_14 
REMARK    7  A    between atoms: C10_16  and  O4_17 
REMARK    8  A    between atoms: C11_19  and  O5_20 
REMARK    9  A    between atoms: C12_22  and  C13_23 
ROOT
HETATM    1  N1  UNL     1       2.073  10.818  24.548  1.00  0.00    -0.302 N 
HETATM    2  C4  UNL     1       2.077   9.528  24.092  1.00  0.00     0.122 A 
HETATM    3  C5  UNL     1       3.358   9.152  23.777  1.00  0.00     0.015 A 
HETATM    4  C12 UNL     1       4.134  10.248  24.053  1.00  0.00     0.040 A 
HETATM    5  N2  UNL     1       3.307  11.226  24.516  1.00  0.00    -0.302 N 
ATOM      6  H2  UNL     1       3.615  12.157  24.800  1.00  0.00     0.186 HD
ENDROOT
BRANCH   3   7
HETATM    7  C6  UNL     1       3.862   7.842  23.225  1.00  0.00     0.190 C 
HETATM    8  O1  UNL     1       3.845   8.017  21.843  1.00  0.00    -0.368 OA
HETATM    9  C7  UNL     1       4.162   6.914  21.104  1.00  0.00     0.177 C 
HETATM   10  C9  UNL     1       3.123   5.842  21.270  1.00  0.00     0.180 C 
HETATM   11  C10 UNL     1       2.276   6.040  22.503  1.00  0.00     0.181 C 
HETATM   12  C11 UNL     1       3.052   6.670  23.634  1.00  0.00     0.183 C 
BRANCH   9  13
HETATM   13  C8  UNL     1       4.135   7.386  19.639  1.00  0.00     0.198 C 
BRANCH  13  14
HETATM   14  O2  UNL     1       4.239   8.795  19.745  1.00  0.00    -0.398 OA
ATOM     15  H2  UNL     1       3.652   9.112  19.068  1.00  0.00     0.209 HD
ENDBRANCH  13  14
ENDBRANCH   9  13
BRANCH  10  16
HETATM   16  O3  UNL     1       3.760   4.603  21.273  1.00  0.00    -0.390 OA
ATOM     17  H3  UNL     1       4.304   4.541  20.497  1.00  0.00     0.210 HD
ENDBRANCH  10  16
BRANCH  11  18
HETATM   18  O4  UNL     1       1.878   4.775  22.928  1.00  0.00    -0.390 OA
ATOM     19  H4  UNL     1       1.929   4.774  23.877  1.00  0.00     0.210 HD
ENDBRANCH  11  18
BRANCH  12  20
HETATM   20  O5  UNL     1       3.882   5.715  24.265  1.00  0.00    -0.390 OA
ATOM     21  H5  UNL     1       3.979   4.955  23.704  1.00  0.00     0.210 HD
ENDBRANCH  12  20
ENDBRANCH   3   7
BRANCH   4  22
HETATM   22  C13 UNL     1       5.597  10.439  23.916  1.00  0.00     0.038 C 
HETATM   23  C14 UNL     1       6.044  10.156  22.488  1.00  0.00     0.011 C 
HETATM   24  C15 UNL     1       7.260  11.020  22.264  1.00  0.00     0.001 C 
HETATM   25  C16 UNL     1       7.253  12.050  23.353  1.00  0.00     0.001 C 
HETATM   26  C17 UNL     1       5.998  11.855  24.141  1.00  0.00     0.011 C 
ENDBRANCH   4  22
BRANCH   1  27
HETATM   27  C3  UNL     1       0.890  11.537  24.967  1.00  0.00     0.158 C 
BRANCH  27  28
HETATM   28  C2  UNL     1       0.526  12.647  24.045  1.00  0.00    -0.008 A 
HETATM   29  C1  UNL     1       1.198  14.006  24.196  1.00  0.00     0.018 C 
HETATM   30  C18 UNL     1      -0.965  12.654  23.658  1.00  0.00     0.033 A 
HETATM   31  C19 UNL     1       0.043  12.329  22.641  1.00  0.00     0.093 A 
HETATM   32 CL1  UNL     1       0.335  13.574  21.392  1.00  0.00    -0.124 Cl
ENDBRANCH  27  28
ENDBRANCH   1  27
TORSDOF 9
ENDMDL
MODEL 5
REMARK VINA RESULT: -7.566436778      1.441      1.756
REMARK  9 active torsions:
REMARK  status: ('A' for Active; 'I' for Inactive)
REMARK    1  A    between atoms: C2_2  and  C3_3 
REMARK    2  A    between atoms: C3_3  and  N1_4 
REMARK    3  A    between atoms: C5_6  and  C6_7 
REMARK    4  A    between atoms: C7_9  and  C8_10 
REMARK    5  A    between atoms: C8_10  and  O2_11 
REMARK    6  A    between atoms: C9_13  and  O3_14 
REMARK    7  A    between atoms: C10_16  and  O4_17 
REMARK    8  A    between atoms: C11_19  and  O5_20 
REMARK    9  A    between atoms: C12_22  and  C13_23 
ROOT
HETATM    1  N1  UNL     1       4.063  10.230  22.803  1.00  0.00    -0.302 N 
HETATM    2  C4  UNL     1       2.732  10.289  23.108  1.00  0.00     0.122 A 
HETATM    3  C5  UNL     1       2.505  11.304  24.001  1.00  0.00     0.015 A 
HETATM    4  C12 UNL     1       3.734  11.862  24.233  1.00  0.00     0.040 A 
HETATM    5  N2  UNL     1       4.641  11.176  23.483  1.00  0.00    -0.302 N 
ATOM      6  H2  UNL     1       5.641  11.376  23.460  1.00  0.00     0.186 HD
ENDROOT
BRANCH   3   7
HETATM    7  C6  UNL     1       1.211  11.744  24.641  1.00  0.00     0.190 C 
HETATM    8  O1  UNL     1       0.924  10.747  25.569  1.00  0.00    -0.368 OA
HETATM    9  C7  UNL     1      -0.274  10.866  26.212  1.00  0.00     0.177 C 
HETATM   10  C9  UNL     1      -1.416  10.699  25.251  1.00  0.00     0.180 C 
HETATM   11  C10 UNL     1      -1.000  10.901  23.814  1.00  0.00     0.181 C 
HETATM   12  C11 UNL     1       0.100  11.926  23.677  1.00  0.00     0.183 C 
BRANCH   9  13
HETATM   13  C8  UNL     1      -0.315   9.696  27.212  1.00  0.00     0.198 C 
BRANCH  13  14
HETATM   14  O2  UNL     1      -1.477   9.958  27.979  1.00  0.00    -0.398 OA
ATOM     15  H2  UNL     1      -1.625   9.141  28.443  1.00  0.00     0.209 HD
ENDBRANCH  13  14
ENDBRANCH   9  13
BRANCH  10  16
HETATM   16  O3  UNL     1      -2.439  11.570  25.621  1.00  0.00    -0.390 OA
ATOM     17  H3  UNL     1      -3.262  11.226  25.296  1.00  0.00     0.210 HD
ENDBRANCH  10  16
BRANCH  11  18
HETATM   18  O4  UNL     1      -2.113  11.394  23.137  1.00  0.00    -0.390 OA
ATOM     19  H4  UNL     1      -2.878  10.999  23.539  1.00  0.00     0.210 HD
ENDBRANCH  11  18
BRANCH  12  20
HETATM   20  O5  UNL     1      -0.419  13.236  23.791  1.00  0.00    -0.390 OA
ATOM     21  H5  UNL     1      -0.401  13.510  24.700  1.00  0.00     0.210 HD
ENDBRANCH  12  20
ENDBRANCH   3   7
BRANCH   4  22
HETATM   22  C13 UNL     1       4.117  12.998  25.104  1.00  0.00     0.038 C 
HETATM   23  C14 UNL     1       5.546  13.438  24.816  1.00  0.00     0.011 C 
HETATM   24  C15 UNL     1       5.593  14.910  25.144  1.00  0.00     0.001 C 
HETATM   25  C16 UNL     1       4.169  15.374  25.207  1.00  0.00     0.001 C 
HETATM   26  C17 UNL     1       3.306  14.215  24.822  1.00  0.00     0.011 C 
ENDBRANCH   4  22
BRANCH   1  27
HETATM   27  C3  UNL     1       4.656   9.275  21.894  1.00  0.00     0.158 C 
BRANCH  27  28
HETATM   28  C2  UNL     1       4.516   7.867  22.354  1.00  0.00    -0.008 A 
HETATM   29  C1  UNL     1       5.380   7.357  23.501  1.00  0.00     0.018 C 
HETATM   30  C18 UNL     1       4.234   6.875  21.210  1.00  0.00     0.033 A 
HETATM   31  C19 UNL     1       3.184   7.155  22.197  1.00  0.00     0.093 A 
HETATM   32 CL1  UNL     1       2.830   5.849  23.365  1.00  0.00    -0.124 Cl
ENDBRANCH  27  28
ENDBRANCH   1  27
TORSDOF 9
ENDMDL
