MODEL 1
REMARK VINA RESULT: -7.580712878      0.000      0.000
REMARK  10 active torsions:
REMARK  status: ('A' for Active; 'I' for Inactive)
REMARK    1  A    between atoms: C2_2  and  C3_3 
REMARK    2  A    between atoms: C4_4  and  C5_5 
REMARK    3  A    between atoms: C5_5  and  O1_6 
REMARK    4  A    between atoms: C8_10  and  N1_11 
REMARK    5  A    between atoms: C10_13  and  C11_14 
REMARK    6  A    between atoms: C11_14  and  N2_15 
REMARK    7  A    between atoms: N2_15  and  N3_17 
REMARK    8  A    between atoms: C14_22  and  C15_23 
REMARK    9  A    between atoms: C15_23  and  C16_25 
REMARK   10  A    between atoms: C19_29  and  N4_31 
ROOT
HETATM    1  C5  UNL     1       3.727   7.299  22.222  1.00  0.00     0.153 C 
HETATM    2  C6  UNL     1       4.910   7.744  23.046  1.00  0.00     0.056 C 
HETATM    3  C7  UNL     1       4.596   9.202  23.412  1.00  0.00     0.030 C 
HETATM    4  C8  UNL     1       3.236   9.411  23.978  1.00  0.00     0.091 C 
HETATM    5  C18 UNL     1       2.110   8.753  23.259  1.00  0.00     0.068 C 
HETATM    6  C19 UNL     1       2.447   7.291  22.970  1.00  0.00     0.164 C 
HETATM    7  C20 UNL     1       2.450   6.540  24.268  1.00  0.00     0.050 C 
ENDROOT
BRANCH   4   8
HETATM    8  N1  UNL     1       2.956  10.830  24.103  1.00  0.00    -0.360 N 
HETATM    9  C9  UNL     1       1.713  11.268  23.845  1.00  0.00     0.103 A 
HETATM   10  C10 UNL     1       1.407  12.614  23.975  1.00  0.00     0.023 A 
HETATM   11  C13 UNL     1       2.374  13.523  24.361  1.00  0.00     0.196 A 
HETATM   12  O2  UNL     1       2.077  14.749  24.470  1.00  0.00    -0.287 OA
HETATM   13  C14 UNL     1       3.625  13.069  24.613  1.00  0.00     0.078 A 
HETATM   14  C17 UNL     1       3.892  11.721  24.477  1.00  0.00     0.110 A 
BRANCH  10  15
HETATM   15  C11 UNL     1       0.006  13.113  23.876  1.00  0.00     0.156 C 
BRANCH  15  16
HETATM   16  N2  UNL     1      -0.832  12.076  23.277  1.00  0.00    -0.238 NA
HETATM   17  C12 UNL     1      -1.598  12.745  22.170  1.00  0.00     0.136 C 
BRANCH  16  18
HETATM   18  N3  UNL     1      -1.822  11.626  24.180  1.00  0.00    -0.363 NA
ATOM     19  H32 UNL     1      -1.445  11.834  25.104  1.00  0.00     0.171 HD
ATOM     20  H31 UNL     1      -1.931  10.613  24.139  1.00  0.00     0.171 HD
ENDBRANCH  16  18
ENDBRANCH  15  16
ENDBRANCH  10  15
BRANCH  13  21
HETATM   21  C15 UNL     1       4.641  14.066  24.952  1.00  0.00     0.193 C 
HETATM   22  O3  UNL     1       5.853  13.839  24.597  1.00  0.00    -0.289 OA
BRANCH  21  23
HETATM   23  C16 UNL     1       4.227  15.298  25.673  1.00  0.00     0.306 C 
HETATM   24  F1  UNL     1       4.979  16.383  25.325  1.00  0.00    -0.247 F 
ENDBRANCH  21  23
ENDBRANCH  13  21
ENDBRANCH   4   8
BRANCH   6  25
HETATM   25  N4  UNL     1       1.422   6.703  22.126  1.00  0.00    -0.067 N 
ATOM     26  H43 UNL     1       1.499   6.999  21.153  1.00  0.00     0.275 HD
ATOM     27  H42 UNL     1       1.561   5.703  21.981  1.00  0.00     0.275 HD
ATOM     28  H41 UNL     1       0.508   6.916  22.528  1.00  0.00     0.275 HD
ENDBRANCH   6  25
BRANCH   1  29
HETATM   29  C4  UNL     1       3.977   6.019  21.541  1.00  0.00    -0.066 C 
HETATM   30  C3  UNL     1       4.134   4.974  20.990  1.00  0.00    -0.104 C 
BRANCH  30  31
HETATM   31  C2  UNL     1       4.297   3.676  20.297  1.00  0.00     0.089 C 
HETATM   32  C1  UNL     1       3.213   3.609  19.235  1.00  0.00     0.018 C 
ENDBRANCH  30  31
ENDBRANCH   1  29
BRANCH   1  33
HETATM   33  O1  UNL     1       3.576   8.325  21.256  1.00  0.00    -0.375 OA
ATOM     34  H1  UNL     1       2.703   8.285  20.886  1.00  0.00     0.211 HD
ENDBRANCH   1  33
TORSDOF 10
ENDMDL
MODEL 2
REMARK VINA RESULT: -7.496318075      1.674      1.977
REMARK  10 active torsions:
REMARK  status: ('A' for Active; 'I' for Inactive)
REMARK    1  A    between atoms: C2_2  and  C3_3 
REMARK    2  A    between atoms: C4_4  and  C5_5 
REMARK    3  A    between atoms: C5_5  and  O1_6 
REMARK    4  A    between atoms: C8_10  and  N1_11 
REMARK    5  A    between atoms: C10_13  and  C11_14 
REMARK    6  A    between atoms: C11_14  and  N2_15 
REMARK    7  A    between atoms: N2_15  and  N3_17 
REMARK    8  A    between atoms: C14_22  and  C15_23 
REMARK    9  A    between atoms: C15_23  and  C16_25 
REMARK   10  A    between atoms: C19_29  and  N4_31 
ROOT
HETATM    1  C5  UNL     1       4.664   7.193  23.555  1.00  0.00     0.153 C 
HETATM    2  C6  UNL     1       3.948   7.244  24.882  1.00  0.00     0.056 C 
HETATM    3  C7  UNL     1       3.487   8.703  25.014  1.00  0.00     0.030 C 
HETATM    4  C8  UNL     1       2.774   9.229  23.819  1.00  0.00     0.091 C 
HETATM    5  C18 UNL     1       3.401   8.951  22.497  1.00  0.00     0.068 C 
HETATM    6  C19 UNL     1       3.788   7.476  22.393  1.00  0.00     0.164 C 
HETATM    7  C20 UNL     1       2.532   6.662  22.304  1.00  0.00     0.050 C 
ENDROOT
BRANCH   4   8
HETATM    8  N1  UNL     1       2.558  10.658  23.951  1.00  0.00    -0.360 N 
HETATM    9  C9  UNL     1       1.331  11.150  23.714  1.00  0.00     0.103 A 
HETATM   10  C10 UNL     1       1.085  12.508  23.851  1.00  0.00     0.023 A 
HETATM   11  C13 UNL     1       2.096  13.373  24.225  1.00  0.00     0.196 A 
HETATM   12  O2  UNL     1       1.853  14.610  24.341  1.00  0.00    -0.287 OA
HETATM   13  C14 UNL     1       3.330  12.865  24.457  1.00  0.00     0.078 A 
HETATM   14  C17 UNL     1       3.536  11.507  24.314  1.00  0.00     0.110 A 
BRANCH  10  15
HETATM   15  C11 UNL     1      -0.295  13.066  23.776  1.00  0.00     0.156 C 
BRANCH  15  16
HETATM   16  N2  UNL     1      -1.194  12.053  23.227  1.00  0.00    -0.238 NA
HETATM   17  C12 UNL     1      -2.022  12.749  22.183  1.00  0.00     0.136 C 
BRANCH  16  18
HETATM   18  N3  UNL     1      -2.127  11.612  24.193  1.00  0.00    -0.363 NA
ATOM     19  H32 UNL     1      -1.598  10.983  24.797  1.00  0.00     0.171 HD
ATOM     20  H31 UNL     1      -2.862  11.046  23.770  1.00  0.00     0.171 HD
ENDBRANCH  16  18
ENDBRANCH  15  16
ENDBRANCH  10  15
BRANCH  13  21
HETATM   21  C15 UNL     1       4.392  13.817  24.782  1.00  0.00     0.193 C 
HETATM   22  O3  UNL     1       5.592  13.527  24.428  1.00  0.00    -0.289 OA
BRANCH  21  23
HETATM   23  C16 UNL     1       4.039  15.075  25.489  1.00  0.00     0.306 C 
HETATM   24  F1  UNL     1       4.966  16.059  25.295  1.00  0.00    -0.247 F 
ENDBRANCH  21  23
ENDBRANCH  13  21
ENDBRANCH   4   8
BRANCH   6  25
HETATM   25  N4  UNL     1       4.546   7.248  21.175  1.00  0.00    -0.067 N 
ATOM     26  H43 UNL     1       5.073   8.070  20.883  1.00  0.00     0.275 HD
ATOM     27  H42 UNL     1       5.336   6.618  21.319  1.00  0.00     0.275 HD
ATOM     28  H41 UNL     1       3.908   6.915  20.452  1.00  0.00     0.275 HD
ENDBRANCH   6  25
BRANCH   1  29
HETATM   29  C4  UNL     1       5.423   5.945  23.383  1.00  0.00    -0.066 C 
HETATM   30  C3  UNL     1       5.999   4.912  23.235  1.00  0.00    -0.104 C 
BRANCH  30  31
HETATM   31  C2  UNL     1       6.688   3.617  23.034  1.00  0.00     0.089 C 
HETATM   32  C1  UNL     1       6.779   2.953  24.397  1.00  0.00     0.018 C 
ENDBRANCH  30  31
ENDBRANCH   1  29
BRANCH   1  33
HETATM   33  O1  UNL     1       5.562   8.288  23.608  1.00  0.00    -0.375 OA
ATOM     34  H1  UNL     1       5.475   8.806  22.817  1.00  0.00     0.211 HD
ENDBRANCH   1  33
TORSDOF 10
ENDMDL
MODEL 3
REMARK VINA RESULT: -7.379484325      1.329      1.534
REMARK  10 active torsions:
REMARK  status: ('A' for Active; 'I' for Inactive)
REMARK    1  A    between atoms: C2_2  and  C3_3 
REMARK    2  A    between atoms: C4_4  and  C5_5 
REMARK    3  A    between atoms: C5_5  and  O1_6 
REMARK    4  A    between atoms: C8_10  and  N1_11 
REMARK    5  A    between atoms: C10_13  and  C11_14 
REMARK    6  A    between atoms: C11_14  and  N2_15 
REMARK    7  A    between atoms: N2_15  and  N3_17 
REMARK    8  A    between atoms: C14_22  and  C15_23 
REMARK    9  A    between atoms: C15_23  and  C16_25 
REMARK   10  A    between atoms: C19_29  and  N4_31 
ROOT
HETATM    1  C5  UNL     1       3.569   7.126  22.298  1.00  0.00     0.153 C 
HETATM    2  C6  UNL     1       4.346   7.954  21.304  1.00  0.00     0.056 C 
HETATM    3  C7  UNL     1       4.182   9.399  21.797  1.00  0.00     0.030 C 
HETATM    4  C8  UNL     1       4.479   9.588  23.243  1.00  0.00     0.091 C 
HETATM    5  C18 UNL     1       3.876   8.599  24.179  1.00  0.00     0.068 C 
HETATM    6  C19 UNL     1       4.116   7.177  23.675  1.00  0.00     0.164 C 
HETATM    7  C20 UNL     1       5.577   6.865  23.812  1.00  0.00     0.050 C 
ENDROOT
BRANCH   4   8
HETATM    8  N1  UNL     1       4.106  10.928  23.661  1.00  0.00    -0.360 N 
HETATM    9  C9  UNL     1       2.816  11.292  23.585  1.00  0.00     0.103 A 
HETATM   10  C10 UNL     1       2.423  12.557  23.996  1.00  0.00     0.023 A 
HETATM   11  C13 UNL     1       3.350  13.461  24.480  1.00  0.00     0.196 A 
HETATM   12  O2  UNL     1       2.973  14.613  24.845  1.00  0.00    -0.287 OA
HETATM   13  C14 UNL     1       4.649  13.082  24.545  1.00  0.00     0.078 A 
HETATM   14  C17 UNL     1       5.002  11.814  24.132  1.00  0.00     0.110 A 
BRANCH  10  15
HETATM   15  C11 UNL     1       0.986  12.936  24.100  1.00  0.00     0.156 C 
BRANCH  15  16
HETATM   16  N2  UNL     1       0.203  11.757  24.466  1.00  0.00    -0.238 NA
HETATM   17  C12 UNL     1      -1.058  11.822  23.649  1.00  0.00     0.136 C 
BRANCH  16  18
HETATM   18  N3  UNL     1      -0.234  11.822  25.808  1.00  0.00    -0.363 NA
ATOM     19  H32 UNL     1       0.615  11.717  26.363  1.00  0.00     0.171 HD
ATOM     20  H31 UNL     1      -0.828  11.028  26.046  1.00  0.00     0.171 HD
ENDBRANCH  16  18
ENDBRANCH  15  16
ENDBRANCH  10  15
BRANCH  13  21
HETATM   21  C15 UNL     1       5.614  14.086  24.996  1.00  0.00     0.193 C 
HETATM   22  O3  UNL     1       6.820  14.000  24.565  1.00  0.00    -0.289 OA
BRANCH  21  23
HETATM   23  C16 UNL     1       5.156  15.163  25.912  1.00  0.00     0.306 C 
HETATM   24  F1  UNL     1       5.414  16.411  25.418  1.00  0.00    -0.247 F 
ENDBRANCH  21  23
ENDBRANCH  13  21
ENDBRANCH   4   8
BRANCH   6  25
HETATM   25  N4  UNL     1       3.387   6.229  24.499  1.00  0.00    -0.067 N 
ATOM     26  H43 UNL     1       2.700   6.683  25.102  1.00  0.00     0.275 HD
ATOM     27  H42 UNL     1       2.740   5.656  23.956  1.00  0.00     0.275 HD
ATOM     28  H41 UNL     1       4.059   5.670  25.024  1.00  0.00     0.275 HD
ENDBRANCH   6  25
BRANCH   1  29
HETATM   29  C4  UNL     1       3.371   5.744  21.833  1.00  0.00    -0.066 C 
HETATM   30  C3  UNL     1       3.217   4.639  21.413  1.00  0.00    -0.104 C 
BRANCH  30  31
HETATM   31  C2  UNL     1       3.041   3.277  20.863  1.00  0.00     0.089 C 
HETATM   32  C1  UNL     1       3.281   3.374  19.367  1.00  0.00     0.018 C 
ENDBRANCH  30  31
ENDBRANCH   1  29
BRANCH   1  33
HETATM   33  O1  UNL     1       2.314   7.779  22.383  1.00  0.00    -0.375 OA
ATOM     34  H1  UNL     1       1.929   7.615  23.235  1.00  0.00     0.211 HD
ENDBRANCH   1  33
TORSDOF 10
ENDMDL
MODEL 4
REMARK VINA RESULT: -7.341640663      4.587      6.433
REMARK  10 active torsions:
REMARK  status: ('A' for Active; 'I' for Inactive)
REMARK    1  A    between atoms: C2_2  and  C3_3 
REMARK    2  A    between atoms: C4_4  and  C5_5 
REMARK    3  A    between atoms: C5_5  and  O1_6 
REMARK    4  A    between atoms: C8_10  and  N1_11 
REMARK    5  A    between atoms: C10_13  and  C11_14 
REMARK    6  A    between atoms: C11_14  and  N2_15 
REMARK    7  A    between atoms: N2_15  and  N3_17 
REMARK    8  A    between atoms: C14_22  and  C15_23 
REMARK    9  A    between atoms: C15_23  and  C16_25 
REMARK   10  A    between atoms: C19_29  and  N4_31 
ROOT
HETATM    1  C5  UNL     1       1.777   7.519  29.594  1.00  0.00     0.153 C 
HETATM    2  C6  UNL     1       0.518   7.186  28.832  1.00  0.00     0.056 C 
HETATM    3  C7  UNL     1       0.576   8.079  27.584  1.00  0.00     0.030 C 
HETATM    4  C8  UNL     1       1.869   8.021  26.851  1.00  0.00     0.091 C 
HETATM    5  C18 UNL     1       3.105   8.119  27.676  1.00  0.00     0.068 C 
HETATM    6  C19 UNL     1       3.023   7.171  28.871  1.00  0.00     0.164 C 
HETATM    7  C20 UNL     1       3.115   5.762  28.364  1.00  0.00     0.050 C 
ENDROOT
BRANCH   4   8
HETATM    8  N1  UNL     1       1.905   9.037  25.815  1.00  0.00    -0.360 N 
HETATM    9  C9  UNL     1       0.853   9.860  25.682  1.00  0.00     0.103 A 
HETATM   10  C10 UNL     1       0.864  10.856  24.716  1.00  0.00     0.023 A 
HETATM   11  C13 UNL     1       1.949  11.009  23.874  1.00  0.00     0.196 A 
HETATM   12  O2  UNL     1       1.939  11.920  22.995  1.00  0.00    -0.287 OA
HETATM   13  C14 UNL     1       3.001  10.168  24.016  1.00  0.00     0.078 A 
HETATM   14  C17 UNL     1       2.957   9.192  24.991  1.00  0.00     0.110 A 
BRANCH  10  15
HETATM   15  C11 UNL     1      -0.197  11.900  24.655  1.00  0.00     0.156 C 
BRANCH  15  16
HETATM   16  N2  UNL     1      -1.273  11.441  23.778  1.00  0.00    -0.238 NA
HETATM   17  C12 UNL     1      -1.616  12.606  22.891  1.00  0.00     0.136 C 
BRANCH  16  18
HETATM   18  N3  UNL     1      -2.457  11.180  24.505  1.00  0.00    -0.363 NA
ATOM     19  H32 UNL     1      -2.577  10.169  24.452  1.00  0.00     0.171 HD
ATOM     20  H31 UNL     1      -3.273  11.587  24.048  1.00  0.00     0.171 HD
ENDBRANCH  16  18
ENDBRANCH  15  16
ENDBRANCH  10  15
BRANCH  13  21
HETATM   21  C15 UNL     1       4.103  10.313  23.064  1.00  0.00     0.193 C 
HETATM   22  O3  UNL     1       3.964   9.797  21.897  1.00  0.00    -0.289 OA
BRANCH  21  23
HETATM   23  C16 UNL     1       5.319  11.058  23.479  1.00  0.00     0.306 C 
HETATM   24  F1  UNL     1       5.038  12.336  23.872  1.00  0.00    -0.247 F 
ENDBRANCH  21  23
ENDBRANCH  13  21
ENDBRANCH   4   8
BRANCH   6  25
HETATM   25  N4  UNL     1       4.151   7.392  29.758  1.00  0.00    -0.067 N 
ATOM     26  H43 UNL     1       4.079   8.272  30.269  1.00  0.00     0.275 HD
ATOM     27  H42 UNL     1       4.146   6.762  30.560  1.00  0.00     0.275 HD
ATOM     28  H41 UNL     1       5.011   7.325  29.213  1.00  0.00     0.275 HD
ENDBRANCH   6  25
BRANCH   1  29
HETATM   29  C4  UNL     1       1.759   6.972  30.960  1.00  0.00    -0.066 C 
HETATM   30  C3  UNL     1       1.735   6.487  32.049  1.00  0.00    -0.104 C 
BRANCH  30  31
HETATM   31  C2  UNL     1       1.710   5.855  33.386  1.00  0.00     0.089 C 
HETATM   32  C1  UNL     1       2.621   6.680  34.278  1.00  0.00     0.018 C 
ENDBRANCH  30  31
ENDBRANCH   1  29
BRANCH   1  33
HETATM   33  O1  UNL     1       1.777   8.935  29.654  1.00  0.00    -0.375 OA
ATOM     34  H1  UNL     1       0.944   9.265  29.337  1.00  0.00     0.211 HD
ENDBRANCH   1  33
TORSDOF 10
ENDMDL
MODEL 5
REMARK VINA RESULT: -7.328842857      3.443      4.679
REMARK  10 active torsions:
REMARK  status: ('A' for Active; 'I' for Inactive)
REMARK    1  A    between atoms: C2_2  and  C3_3 
REMARK    2  A    between atoms: C4_4  and  C5_5 
REMARK    3  A    between atoms: C5_5  and  O1_6 
REMARK    4  A    between atoms: C8_10  and  N1_11 
REMARK    5  A    between atoms: C10_13  and  C11_14 
REMARK    6  A    between atoms: C11_14  and  N2_15 
REMARK    7  A    between atoms: N2_15  and  N3_17 
REMARK    8  A    between atoms: C14_22  and  C15_23 
REMARK    9  A    between atoms: C15_23  and  C16_25 
REMARK   10  A    between atoms: C19_29  and  N4_31 
ROOT
HETATM    1  C5  UNL     1       2.866   6.005  21.747  1.00  0.00     0.153 C 
HETATM    2  C6  UNL     1       3.707   7.258  21.790  1.00  0.00     0.056 C 
HETATM    3  C7  UNL     1       2.953   8.194  22.746  1.00  0.00     0.030 C 
HETATM    4  C8  UNL     1       2.573   7.568  24.040  1.00  0.00     0.091 C 
HETATM    5  C18 UNL     1       1.953   6.215  23.967  1.00  0.00     0.068 C 
HETATM    6  C19 UNL     1       2.771   5.306  23.051  1.00  0.00     0.164 C 
HETATM    7  C20 UNL     1       4.074   5.000  23.729  1.00  0.00     0.050 C 
ENDROOT
BRANCH   4   8
HETATM    8  N1  UNL     1       1.698   8.452  24.788  1.00  0.00    -0.360 N 
HETATM    9  C9  UNL     1       1.324   8.094  26.027  1.00  0.00     0.103 A 
HETATM   10  C10 UNL     1       0.506   8.925  26.777  1.00  0.00     0.023 A 
HETATM   11  C13 UNL     1       0.057  10.126  26.260  1.00  0.00     0.196 A 
HETATM   12  O2  UNL     1      -0.694  10.870  26.957  1.00  0.00    -0.287 OA
HETATM   13  C14 UNL     1       0.437  10.472  25.007  1.00  0.00     0.078 A 
HETATM   14  C17 UNL     1       1.255   9.621  24.292  1.00  0.00     0.110 A 
BRANCH  10  15
HETATM   15  C11 UNL     1       0.218   8.655  28.214  1.00  0.00     0.156 C 
BRANCH  15  16
HETATM   16  N2  UNL     1       1.354   7.951  28.807  1.00  0.00    -0.238 NA
HETATM   17  C12 UNL     1       0.771   6.832  29.626  1.00  0.00     0.136 C 
BRANCH  16  18
HETATM   18  N3  UNL     1       2.036   8.764  29.740  1.00  0.00    -0.363 NA
ATOM     19  H32 UNL     1       2.862   9.096  29.241  1.00  0.00     0.171 HD
ATOM     20  H31 UNL     1       2.383   8.217  30.528  1.00  0.00     0.171 HD
ENDBRANCH  16  18
ENDBRANCH  15  16
ENDBRANCH  10  15
BRANCH  13  21
HETATM   21  C15 UNL     1      -0.112  11.715  24.463  1.00  0.00     0.193 C 
HETATM   22  O3  UNL     1       0.520  12.808  24.697  1.00  0.00    -0.289 OA
BRANCH  21  23
HETATM   23  C16 UNL     1      -1.359  11.659  23.658  1.00  0.00     0.306 C 
HETATM   24  F1  UNL     1      -2.277  10.792  24.179  1.00  0.00    -0.247 F 
ENDBRANCH  21  23
ENDBRANCH  13  21
ENDBRANCH   4   8
BRANCH   6  25
HETATM   25  N4  UNL     1       2.075   4.047  22.852  1.00  0.00    -0.067 N 
ATOM     26  H43 UNL     1       1.191   4.005  23.360  1.00  0.00     0.275 HD
ATOM     27  H42 UNL     1       1.698   3.954  21.908  1.00  0.00     0.275 HD
ATOM     28  H41 UNL     1       2.704   3.284  23.099  1.00  0.00     0.275 HD
ENDBRANCH   6  25
BRANCH   1  29
HETATM   29  C4  UNL     1       3.277   5.099  20.664  1.00  0.00    -0.066 C 
HETATM   30  C3  UNL     1       3.587   4.331  19.806  1.00  0.00    -0.104 C 
BRANCH  30  31
HETATM   31  C2  UNL     1       3.946   3.356  18.752  1.00  0.00     0.089 C 
HETATM   32  C1  UNL     1       5.041   2.474  19.325  1.00  0.00     0.018 C 
ENDBRANCH  30  31
ENDBRANCH   1  29
BRANCH   1  33
HETATM   33  O1  UNL     1       1.555   6.480  21.494  1.00  0.00    -0.375 OA
ATOM     34  H1  UNL     1       1.591   7.401  21.266  1.00  0.00     0.211 HD
ENDBRANCH   1  33
TORSDOF 10
ENDMDL
