MODEL 1
REMARK VINA RESULT: -5.741245639      0.000      0.000
REMARK  2 active torsions:
REMARK  status: ('A' for Active; 'I' for Inactive)
REMARK    1  A    between atoms: N1_1  and  N2_4 
REMARK       I    between atoms: N2_4  and  C1_6 
REMARK    2  A    between atoms: N4_8  and  N5_10 
ROOT
HETATM    1  N5  UNL     1      62.892  28.994  36.334  1.00  0.00    -0.279 N 
ATOM      2  H5  UNL     1      63.566  29.475  35.739  1.00  0.00     0.189 HD
HETATM    3  C2  UNL     1      63.031  28.990  37.613  1.00  0.00     0.190 A 
HETATM    4  N6  UNL     1      62.180  28.370  38.563  1.00  0.00    -0.333 N 
ATOM      5  H6  UNL     1      61.334  27.835  38.368  1.00  0.00     0.168 HD
HETATM    6  C3  UNL     1      62.741  28.640  39.838  1.00  0.00     0.185 A 
HETATM    7  N7  UNL     1      63.816  29.343  39.736  1.00  0.00    -0.316 N 
ATOM      8  H7  UNL     1      64.385  29.654  40.523  1.00  0.00     0.170 HD
HETATM    9  C4  UNL     1      64.095  29.625  38.375  1.00  0.00     0.291 A 
HETATM   10  O1  UNL     1      65.053  30.279  37.904  1.00  0.00    -0.264 OA
ENDROOT
BRANCH   1  11
HETATM   11  N4  UNL     1      61.806  28.331  35.781  1.00  0.00    -0.271 N 
HETATM   12  C1  UNL     1      61.577  28.283  34.520  1.00  0.00     0.221 C 
HETATM   13  N2  UNL     1      62.467  28.934  33.640  1.00  0.00    -0.279 N 
HETATM   14  N3  UNL     1      60.451  27.586  34.055  1.00  0.00    -0.061 NA
ATOM     15  H2  UNL     1      62.294  29.902  33.371  1.00  0.00     0.189 HD
ATOM     16  H4  UNL     1      61.157  27.856  36.409  1.00  0.00     0.189 HD
BRANCH  13  17
HETATM   17  N1  UNL     1      63.578  28.270  33.138  1.00  0.00    -0.343 N 
ATOM     18  H12 UNL     1      63.511  27.267  32.966  1.00  0.00     0.176 HD
ATOM     19  H11 UNL     1      64.443  28.775  32.946  1.00  0.00     0.176 HD
ENDBRANCH  13  17
ENDBRANCH   1  11
TORSDOF 2
ENDMDL
MODEL 2
REMARK VINA RESULT: -5.649753565      5.551      7.105
REMARK  2 active torsions:
REMARK  status: ('A' for Active; 'I' for Inactive)
REMARK    1  A    between atoms: N1_1  and  N2_4 
REMARK       I    between atoms: N2_4  and  C1_6 
REMARK    2  A    between atoms: N4_8  and  N5_10 
ROOT
HETATM    1  N5  UNL     1      66.757  28.860  32.583  1.00  0.00    -0.279 N 
ATOM      2  H5  UNL     1      66.134  29.482  32.068  1.00  0.00     0.189 HD
HETATM    3  C2  UNL     1      67.926  28.577  32.126  1.00  0.00     0.190 A 
HETATM    4  N6  UNL     1      68.897  27.734  32.726  1.00  0.00    -0.333 N 
ATOM      5  H6  UNL     1      68.807  27.229  33.607  1.00  0.00     0.168 HD
HETATM    6  C3  UNL     1      70.017  27.732  31.855  1.00  0.00     0.185 A 
HETATM    7  N7  UNL     1      69.808  28.475  30.823  1.00  0.00    -0.316 N 
ATOM      8  H7  UNL     1      70.475  28.621  30.066  1.00  0.00     0.170 HD
HETATM    9  C4  UNL     1      68.517  29.060  30.888  1.00  0.00     0.291 A 
HETATM   10  O1  UNL     1      67.980  29.833  30.064  1.00  0.00    -0.264 OA
ENDROOT
BRANCH   1  11
HETATM   11  N4  UNL     1      66.361  28.301  33.790  1.00  0.00    -0.271 N 
HETATM   12  C1  UNL     1      65.184  28.442  34.278  1.00  0.00     0.221 C 
HETATM   13  N2  UNL     1      64.234  29.200  33.562  1.00  0.00    -0.279 N 
HETATM   14  N3  UNL     1      64.877  27.837  35.508  1.00  0.00    -0.061 NA
ATOM     15  H2  UNL     1      64.145  30.199  33.743  1.00  0.00     0.189 HD
ATOM     16  H4  UNL     1      67.041  27.751  34.314  1.00  0.00     0.189 HD
BRANCH  13  17
HETATM   17  N1  UNL     1      63.420  28.598  32.612  1.00  0.00    -0.343 N 
ATOM     18  H12 UNL     1      63.431  27.581  32.532  1.00  0.00     0.176 HD
ATOM     19  H11 UNL     1      62.823  29.161  32.007  1.00  0.00     0.176 HD
ENDBRANCH  13  17
ENDBRANCH   1  11
TORSDOF 2
ENDMDL
MODEL 3
REMARK VINA RESULT: -5.524017986      5.358      6.752
REMARK  2 active torsions:
REMARK  status: ('A' for Active; 'I' for Inactive)
REMARK    1  A    between atoms: N1_1  and  N2_4 
REMARK       I    between atoms: N2_4  and  C1_6 
REMARK    2  A    between atoms: N4_8  and  N5_10 
ROOT
HETATM    1  N5  UNL     1      66.714  28.701  32.555  1.00  0.00    -0.279 N 
ATOM      2  H5  UNL     1      66.175  28.467  31.720  1.00  0.00     0.189 HD
HETATM    3  C2  UNL     1      67.790  29.400  32.466  1.00  0.00     0.190 A 
HETATM    4  N6  UNL     1      68.638  29.801  33.529  1.00  0.00    -0.333 N 
ATOM      5  H6  UNL     1      68.517  29.592  34.520  1.00  0.00     0.168 HD
HETATM    6  C3  UNL     1      69.690  30.551  32.941  1.00  0.00     0.185 A 
HETATM    7  N7  UNL     1      69.549  30.630  31.663  1.00  0.00    -0.316 N 
ATOM      8  H7  UNL     1      70.187  31.119  31.036  1.00  0.00     0.170 HD
HETATM    9  C4  UNL     1      68.381  29.939  31.251  1.00  0.00     0.291 A 
HETATM   10  O1  UNL     1      67.934  29.807  30.089  1.00  0.00    -0.264 OA
ENDROOT
BRANCH   1  11
HETATM   11  N4  UNL     1      66.301  28.271  33.807  1.00  0.00    -0.271 N 
HETATM   12  C1  UNL     1      65.127  28.490  34.276  1.00  0.00     0.221 C 
HETATM   13  N2  UNL     1      64.200  29.202  33.487  1.00  0.00    -0.279 N 
HETATM   14  N3  UNL     1      64.802  28.014  35.556  1.00  0.00    -0.061 NA
ATOM     15  H2  UNL     1      64.138  30.216  33.571  1.00  0.00     0.189 HD
ATOM     16  H4  UNL     1      66.965  27.755  34.385  1.00  0.00     0.189 HD
BRANCH  13  17
HETATM   17  N1  UNL     1      63.371  28.535  32.596  1.00  0.00    -0.343 N 
ATOM     18  H12 UNL     1      62.891  27.692  32.911  1.00  0.00     0.176 HD
ATOM     19  H11 UNL     1      63.244  28.881  31.644  1.00  0.00     0.176 HD
ENDBRANCH  13  17
ENDBRANCH   1  11
TORSDOF 2
ENDMDL
MODEL 4
REMARK VINA RESULT: -5.491912581      4.168      5.642
REMARK  2 active torsions:
REMARK  status: ('A' for Active; 'I' for Inactive)
REMARK    1  A    between atoms: N1_1  and  N2_4 
REMARK       I    between atoms: N2_4  and  C1_6 
REMARK    2  A    between atoms: N4_8  and  N5_10 
ROOT
HETATM    1  N5  UNL     1      65.790  28.795  33.207  1.00  0.00    -0.279 N 
ATOM      2  H5  UNL     1      65.675  28.173  32.406  1.00  0.00     0.189 HD
HETATM    3  C2  UNL     1      64.779  29.134  33.925  1.00  0.00     0.190 A 
HETATM    4  N6  UNL     1      64.785  29.985  35.060  1.00  0.00    -0.333 N 
ATOM      5  H6  UNL     1      65.594  30.452  35.470  1.00  0.00     0.168 HD
HETATM    6  C3  UNL     1      63.441  30.058  35.512  1.00  0.00     0.185 A 
HETATM    7  N7  UNL     1      62.660  29.350  34.770  1.00  0.00    -0.316 N 
ATOM      8  H7  UNL     1      61.655  29.256  34.908  1.00  0.00     0.170 HD
HETATM    9  C4  UNL     1      63.398  28.719  33.736  1.00  0.00     0.291 A 
HETATM   10  O1  UNL     1      62.969  27.962  32.836  1.00  0.00    -0.264 OA
ENDROOT
BRANCH   1  11
HETATM   11  N4  UNL     1      67.041  29.292  33.541  1.00  0.00    -0.271 N 
HETATM   12  C1  UNL     1      68.003  29.406  32.699  1.00  0.00     0.221 C 
HETATM   13  N2  UNL     1      67.788  29.010  31.362  1.00  0.00    -0.279 N 
HETATM   14  N3  UNL     1      69.234  29.921  33.133  1.00  0.00    -0.061 NA
ATOM     15  H2  UNL     1      68.001  28.054  31.078  1.00  0.00     0.189 HD
ATOM     16  H4  UNL     1      67.205  29.582  34.505  1.00  0.00     0.189 HD
BRANCH  13  17
HETATM   17  N1  UNL     1      67.291  29.909  30.429  1.00  0.00    -0.343 N 
ATOM     18  H12 UNL     1      66.588  30.585  30.727  1.00  0.00     0.176 HD
ATOM     19  H11 UNL     1      67.623  29.894  29.464  1.00  0.00     0.176 HD
ENDBRANCH  13  17
ENDBRANCH   1  11
TORSDOF 2
ENDMDL
MODEL 5
REMARK VINA RESULT: -5.379955994      2.183      5.210
REMARK  2 active torsions:
REMARK  status: ('A' for Active; 'I' for Inactive)
REMARK    1  A    between atoms: N1_1  and  N2_4 
REMARK       I    between atoms: N2_4  and  C1_6 
REMARK    2  A    between atoms: N4_8  and  N5_10 
ROOT
HETATM    1  N5  UNL     1      62.471  28.271  37.110  1.00  0.00    -0.279 N 
ATOM      2  H5  UNL     1      61.496  28.100  37.359  1.00  0.00     0.189 HD
HETATM    3  C2  UNL     1      62.826  28.358  35.877  1.00  0.00     0.190 A 
HETATM    4  N6  UNL     1      64.134  28.591  35.379  1.00  0.00    -0.333 N 
ATOM      5  H6  UNL     1      64.983  28.722  35.929  1.00  0.00     0.168 HD
HETATM    6  C3  UNL     1      64.027  28.603  33.964  1.00  0.00     0.185 A 
HETATM    7  N7  UNL     1      62.812  28.405  33.586  1.00  0.00    -0.316 N 
ATOM      8  H7  UNL     1      62.502  28.372  32.615  1.00  0.00     0.170 HD
HETATM    9  C4  UNL     1      61.964  28.238  34.711  1.00  0.00     0.291 A 
HETATM   10  O1  UNL     1      60.731  28.028  34.722  1.00  0.00    -0.264 OA
ENDROOT
BRANCH   1  11
HETATM   11  N4  UNL     1      63.438  28.414  38.093  1.00  0.00    -0.271 N 
HETATM   12  C1  UNL     1      63.215  28.972  39.226  1.00  0.00     0.221 C 
HETATM   13  N2  UNL     1      61.923  29.470  39.498  1.00  0.00    -0.279 N 
HETATM   14  N3  UNL     1      64.260  29.069  40.159  1.00  0.00    -0.061 NA
ATOM     15  H2  UNL     1      61.697  30.437  39.271  1.00  0.00     0.189 HD
ATOM     16  H4  UNL     1      64.375  28.056  37.906  1.00  0.00     0.189 HD
BRANCH  13  17
HETATM   17  N1  UNL     1      60.957  28.654  40.071  1.00  0.00    -0.343 N 
ATOM     18  H12 UNL     1      60.143  28.394  39.515  1.00  0.00     0.176 HD
ATOM     19  H11 UNL     1      61.061  28.321  41.030  1.00  0.00     0.176 HD
ENDBRANCH  13  17
ENDBRANCH   1  11
TORSDOF 2
ENDMDL
