MODEL 1
REMARK VINA RESULT: -5.574019225      0.000      0.000
REMARK  3 active torsions:
REMARK  status: ('A' for Active; 'I' for Inactive)
REMARK    1  A    between atoms: N1_1  and  C1_4 
REMARK    2  A    between atoms: C3_9  and  C4_10 
REMARK    3  A    between atoms: N4_13  and  O3_14 
ROOT
HETATM    1  C1  UNL     1      63.148  28.615  34.010  1.00  0.00     0.695 A 
HETATM    2  N2  UNL     1      63.441  29.851  34.450  1.00  0.00    -0.153 N 
ATOM      3  H2  UNL     1      63.566  30.595  33.764  1.00  0.00     0.187 HD
HETATM    4  C2  UNL     1      63.577  30.151  35.762  1.00  0.00     0.295 A 
HETATM    5  O1  UNL     1      63.851  31.311  36.139  1.00  0.00    -0.265 OA
HETATM    6  C3  UNL     1      63.406  29.145  36.687  1.00  0.00     0.214 A 
HETATM    7  N4  UNL     1      63.112  27.910  36.242  1.00  0.00    -0.138 N 
HETATM    8  N5  UNL     1      62.987  27.659  34.940  1.00  0.00    -0.105 N 
ATOM      9  H5  UNL     1      62.762  26.710  34.640  1.00  0.00     0.208 HD
ENDROOT
BRANCH   1  10
HETATM   10  N1  UNL     1      63.022  28.354  32.734  1.00  0.00    -0.233 N 
ATOM     11  H12 UNL     1      63.294  29.032  32.022  1.00  0.00     0.174 HD
ATOM     12  H11 UNL     1      62.650  27.464  32.405  1.00  0.00     0.174 HD
ENDBRANCH   1  10
BRANCH   7  13
HETATM   13  O3  UNL     1      62.946  26.929  37.183  1.00  0.00    -0.267 OA
ATOM     14  H3  UNL     1      63.662  26.316  37.301  1.00  0.00     0.247 HD
ENDBRANCH   7  13
BRANCH   6  15
HETATM   15  C4  UNL     1      63.538  29.405  38.110  1.00  0.00     0.291 C 
HETATM   16  N3  UNL     1      62.411  29.422  38.975  1.00  0.00    -0.056 NA
HETATM   17  O2  UNL     1      64.658  29.627  38.636  1.00  0.00    -0.269 OA
ENDBRANCH   6  15
TORSDOF 3
ENDMDL
MODEL 2
REMARK VINA RESULT: -5.447005811      6.907      8.155
REMARK  3 active torsions:
REMARK  status: ('A' for Active; 'I' for Inactive)
REMARK    1  A    between atoms: N1_1  and  C1_4 
REMARK    2  A    between atoms: C3_9  and  C4_10 
REMARK    3  A    between atoms: N4_13  and  O3_14 
ROOT
HETATM    1  C1  UNL     1      67.378  29.343  32.585  1.00  0.00     0.695 A 
HETATM    2  N2  UNL     1      68.401  29.818  33.317  1.00  0.00    -0.153 N 
ATOM      3  H2  UNL     1      68.382  29.680  34.328  1.00  0.00     0.187 HD
HETATM    4  C2  UNL     1      69.455  30.469  32.773  1.00  0.00     0.295 A 
HETATM    5  O1  UNL     1      70.390  30.899  33.481  1.00  0.00    -0.265 OA
HETATM    6  C3  UNL     1      69.479  30.653  31.408  1.00  0.00     0.214 A 
HETATM    7  N4  UNL     1      68.454  30.175  30.679  1.00  0.00    -0.138 N 
HETATM    8  N5  UNL     1      67.436  29.539  31.257  1.00  0.00    -0.105 N 
ATOM      9  H5  UNL     1      66.676  29.190  30.673  1.00  0.00     0.208 HD
ENDROOT
BRANCH   1  10
HETATM   10  N1  UNL     1      66.371  28.717  33.139  1.00  0.00    -0.233 N 
ATOM     11  H12 UNL     1      65.845  29.130  33.909  1.00  0.00     0.174 HD
ATOM     12  H11 UNL     1      66.077  27.794  32.822  1.00  0.00     0.174 HD
ENDBRANCH   1  10
BRANCH   7  13
HETATM   13  O3  UNL     1      68.504  30.371  29.325  1.00  0.00    -0.267 OA
ATOM     14  H3  UNL     1      68.764  31.231  29.020  1.00  0.00     0.247 HD
ENDBRANCH   7  13
BRANCH   6  15
HETATM   15  C4  UNL     1      70.584  31.343  30.765  1.00  0.00     0.291 C 
HETATM   16  N3  UNL     1      70.531  32.735  30.481  1.00  0.00    -0.056 NA
HETATM   17  O2  UNL     1      71.633  30.736  30.431  1.00  0.00    -0.269 OA
ENDBRANCH   6  15
TORSDOF 3
ENDMDL
MODEL 3
REMARK VINA RESULT: -5.264898157      1.093      2.492
REMARK  3 active torsions:
REMARK  status: ('A' for Active; 'I' for Inactive)
REMARK    1  A    between atoms: N1_1  and  C1_4 
REMARK    2  A    between atoms: C3_9  and  C4_10 
REMARK    3  A    between atoms: N4_13  and  O3_14 
ROOT
HETATM    1  C1  UNL     1      63.188  28.620  34.010  1.00  0.00     0.695 A 
HETATM    2  N2  UNL     1      63.109  27.662  34.952  1.00  0.00    -0.153 N 
ATOM      3  H2  UNL     1      62.906  26.707  34.659  1.00  0.00     0.187 HD
HETATM    4  C2  UNL     1      63.288  27.911  36.270  1.00  0.00     0.295 A 
HETATM    5  O1  UNL     1      63.207  26.999  37.120  1.00  0.00    -0.265 OA
HETATM    6  C3  UNL     1      63.563  29.202  36.663  1.00  0.00     0.214 A 
HETATM    7  N4  UNL     1      63.642  30.156  35.718  1.00  0.00    -0.138 N 
HETATM    8  N5  UNL     1      63.459  29.866  34.430  1.00  0.00    -0.105 N 
ATOM      9  H5  UNL     1      63.527  30.615  33.741  1.00  0.00     0.208 HD
ENDROOT
BRANCH   1  10
HETATM   10  N1  UNL     1      63.010  28.349  32.742  1.00  0.00    -0.233 N 
ATOM     11  H12 UNL     1      63.669  28.667  32.032  1.00  0.00     0.174 HD
ATOM     12  H11 UNL     1      62.207  27.810  32.419  1.00  0.00     0.174 HD
ENDBRANCH   1  10
BRANCH   7  13
HETATM   13  O3  UNL     1      63.918  31.430  36.136  1.00  0.00    -0.267 OA
ATOM     14  H3  UNL     1      64.776  31.588  36.511  1.00  0.00     0.247 HD
ENDBRANCH   7  13
BRANCH   6  15
HETATM   15  C4  UNL     1      63.766  29.532  38.063  1.00  0.00     0.291 C 
HETATM   16  N3  UNL     1      65.061  29.547  38.647  1.00  0.00    -0.056 NA
HETATM   17  O2  UNL     1      62.801  29.817  38.817  1.00  0.00    -0.269 OA
ENDBRANCH   6  15
TORSDOF 3
ENDMDL
MODEL 4
REMARK VINA RESULT: -5.112842536      2.177      3.006
REMARK  3 active torsions:
REMARK  status: ('A' for Active; 'I' for Inactive)
REMARK    1  A    between atoms: N1_1  and  C1_4 
REMARK    2  A    between atoms: C3_9  and  C4_10 
REMARK    3  A    between atoms: N4_13  and  O3_14 
ROOT
HETATM    1  C1  UNL     1      61.341  28.302  33.945  1.00  0.00     0.695 A 
HETATM    2  N2  UNL     1      61.432  28.286  35.287  1.00  0.00    -0.153 N 
ATOM      3  H2  UNL     1      60.575  28.201  35.833  1.00  0.00     0.187 HD
HETATM    4  C2  UNL     1      62.611  28.375  35.945  1.00  0.00     0.295 A 
HETATM    5  O1  UNL     1      62.662  28.357  37.193  1.00  0.00    -0.265 OA
HETATM    6  C3  UNL     1      63.768  28.486  35.206  1.00  0.00     0.214 A 
HETATM    7  N4  UNL     1      63.672  28.502  33.864  1.00  0.00    -0.138 N 
HETATM    8  N5  UNL     1      62.489  28.412  33.258  1.00  0.00    -0.105 N 
ATOM      9  H5  UNL     1      62.455  28.426  32.238  1.00  0.00     0.208 HD
ENDROOT
BRANCH   1  10
HETATM   10  N1  UNL     1      60.185  28.215  33.337  1.00  0.00    -0.233 N 
ATOM     11  H12 UNL     1      59.569  27.415  33.477  1.00  0.00     0.174 HD
ATOM     12  H11 UNL     1      59.860  28.943  32.702  1.00  0.00     0.174 HD
ENDBRANCH   1  10
BRANCH   7  13
HETATM   13  O3  UNL     1      64.837  28.614  33.154  1.00  0.00    -0.267 OA
ATOM     14  H3  UNL     1      65.622  28.250  33.547  1.00  0.00     0.247 HD
ENDBRANCH   7  13
BRANCH   6  15
HETATM   15  C4  UNL     1      65.065  28.585  35.854  1.00  0.00     0.291 C 
HETATM   16  N3  UNL     1      65.855  27.435  36.122  1.00  0.00    -0.056 NA
HETATM   17  O2  UNL     1      65.540  29.694  36.206  1.00  0.00    -0.269 OA
ENDBRANCH   6  15
TORSDOF 3
ENDMDL
MODEL 5
REMARK VINA RESULT: -5.039249874      1.501      1.569
REMARK  3 active torsions:
REMARK  status: ('A' for Active; 'I' for Inactive)
REMARK    1  A    between atoms: N1_1  and  C1_4 
REMARK    2  A    between atoms: C3_9  and  C4_10 
REMARK    3  A    between atoms: N4_13  and  O3_14 
ROOT
HETATM    1  C1  UNL     1      63.109  28.228  33.482  1.00  0.00     0.695 A 
HETATM    2  N2  UNL     1      64.186  29.025  33.599  1.00  0.00    -0.153 N 
ATOM      3  H2  UNL     1      64.642  29.355  32.749  1.00  0.00     0.187 HD
HETATM    4  C2  UNL     1      64.690  29.408  34.794  1.00  0.00     0.295 A 
HETATM    5  O1  UNL     1      65.694  30.149  34.869  1.00  0.00    -0.265 OA
HETATM    6  C3  UNL     1      64.072  28.963  35.942  1.00  0.00     0.214 A 
HETATM    7  N4  UNL     1      62.995  28.166  35.820  1.00  0.00    -0.138 N 
HETATM    8  N5  UNL     1      62.531  27.813  34.622  1.00  0.00    -0.105 N 
ATOM      9  H5  UNL     1      61.711  27.209  34.568  1.00  0.00     0.208 HD
ENDROOT
BRANCH   1  10
HETATM   10  N1  UNL     1      62.643  27.873  32.312  1.00  0.00    -0.233 N 
ATOM     11  H12 UNL     1      63.261  27.728  31.514  1.00  0.00     0.174 HD
ATOM     12  H11 UNL     1      61.646  27.729  32.156  1.00  0.00     0.174 HD
ENDBRANCH   1  10
BRANCH   7  13
HETATM   13  O3  UNL     1      62.399  27.738  36.976  1.00  0.00    -0.267 OA
ATOM     14  H3  UNL     1      61.468  27.553  36.942  1.00  0.00     0.247 HD
ENDBRANCH   7  13
BRANCH   6  15
HETATM   15  C4  UNL     1      64.566  29.340  37.254  1.00  0.00     0.291 C 
HETATM   16  N3  UNL     1      65.546  28.569  37.934  1.00  0.00    -0.056 NA
HETATM   17  O2  UNL     1      64.145  30.368  37.844  1.00  0.00    -0.269 OA
ENDBRANCH   6  15
TORSDOF 3
ENDMDL
