MODEL 1
REMARK VINA RESULT: -5.512608908      0.000      0.000
REMARK  3 active torsions:
REMARK  status: ('A' for Active; 'I' for Inactive)
REMARK       I    between atoms: C1_4  and  N3_6 
REMARK    1  A    between atoms: C2_8  and  C3_9 
REMARK    2  A    between atoms: C2_8  and  C4_12 
REMARK       I    between atoms: C4_12  and  N5_14 
REMARK    3  A    between atoms: N5_14  and  N6_16 
ROOT
HETATM    1  N1  UNL     1      65.714  29.644  35.386  1.00  0.00    -0.373 N 
ATOM      2  H11 UNL     1      65.877  28.791  34.852  1.00  0.00     0.158 HD
ATOM      3  H12 UNL     1      66.484  30.104  35.873  1.00  0.00     0.158 HD
HETATM    4  C1  UNL     1      64.500  30.095  35.416  1.00  0.00     0.186 C 
HETATM    5  N2  UNL     1      64.272  31.290  36.165  1.00  0.00    -0.064 NA
HETATM    6  N3  UNL     1      63.454  29.470  34.754  1.00  0.00    -0.322 N 
ATOM      7  H3  UNL     1      63.301  29.748  33.785  1.00  0.00     0.169 HD
HETATM    8  C2  UNL     1      62.639  28.561  35.235  1.00  0.00     0.170 C 
ENDROOT
BRANCH   8   9
HETATM    9  C3  UNL     1      61.640  28.097  34.287  1.00  0.00     0.287 C 
HETATM   10  N4  UNL     1      62.034  27.793  32.927  1.00  0.00    -0.056 NA
HETATM   11  O1  UNL     1      60.442  27.938  34.560  1.00  0.00    -0.269 OA
ENDBRANCH   8   9
BRANCH   8  12
HETATM   12  C4  UNL     1      62.748  28.085  36.586  1.00  0.00     0.291 C 
HETATM   13  O2  UNL     1      63.382  26.981  36.761  1.00  0.00    -0.264 OA
HETATM   14  N5  UNL     1      62.243  28.676  37.755  1.00  0.00    -0.271 N 
ATOM     15  H5  UNL     1      61.728  29.554  37.701  1.00  0.00     0.189 HD
BRANCH  14  16
HETATM   16  N6  UNL     1      62.453  28.048  39.021  1.00  0.00    -0.342 N 
ATOM     17  H62 UNL     1      63.280  28.293  39.564  1.00  0.00     0.176 HD
ATOM     18  H61 UNL     1      61.780  27.365  39.369  1.00  0.00     0.176 HD
ENDBRANCH  14  16
ENDBRANCH   8  12
TORSDOF 3
ENDMDL
MODEL 2
REMARK VINA RESULT: -5.488542838      2.236      4.126
REMARK  3 active torsions:
REMARK  status: ('A' for Active; 'I' for Inactive)
REMARK       I    between atoms: C1_4  and  N3_6 
REMARK    1  A    between atoms: C2_8  and  C3_9 
REMARK    2  A    between atoms: C2_8  and  C4_12 
REMARK       I    between atoms: C4_12  and  N5_14 
REMARK    3  A    between atoms: N5_14  and  N6_16 
ROOT
HETATM    1  N1  UNL     1      66.859  28.472  32.987  1.00  0.00    -0.373 N 
ATOM      2  H11 UNL     1      66.663  29.430  32.696  1.00  0.00     0.158 HD
ATOM      3  H12 UNL     1      67.276  27.808  32.334  1.00  0.00     0.158 HD
HETATM    4  C1  UNL     1      66.545  28.154  34.203  1.00  0.00     0.186 C 
HETATM    5  N2  UNL     1      66.818  26.811  34.610  1.00  0.00    -0.064 NA
HETATM    6  N3  UNL     1      65.978  29.056  35.089  1.00  0.00    -0.322 N 
ATOM      7  H3  UNL     1      66.626  29.621  35.637  1.00  0.00     0.169 HD
HETATM    8  C2  UNL     1      64.700  29.264  35.304  1.00  0.00     0.170 C 
ENDROOT
BRANCH   8   9
HETATM    9  C3  UNL     1      64.423  30.283  36.302  1.00  0.00     0.287 C 
HETATM   10  N4  UNL     1      64.916  30.111  37.653  1.00  0.00    -0.056 NA
HETATM   11  O1  UNL     1      63.777  31.317  36.081  1.00  0.00    -0.269 OA
ENDBRANCH   8   9
BRANCH   8  12
HETATM   12  C4  UNL     1      63.685  28.532  34.598  1.00  0.00     0.291 C 
HETATM   13  O2  UNL     1      63.070  27.615  35.256  1.00  0.00    -0.264 OA
HETATM   14  N5  UNL     1      63.273  28.690  33.266  1.00  0.00    -0.271 N 
ATOM     15  H5  UNL     1      63.713  29.396  32.676  1.00  0.00     0.189 HD
BRANCH  14  16
HETATM   16  N6  UNL     1      62.237  27.861  32.735  1.00  0.00    -0.342 N 
ATOM     17  H62 UNL     1      61.566  27.437  33.375  1.00  0.00     0.176 HD
ATOM     18  H61 UNL     1      62.178  27.700  31.730  1.00  0.00     0.176 HD
ENDBRANCH  14  16
ENDBRANCH   8  12
TORSDOF 3
ENDMDL
MODEL 3
REMARK VINA RESULT: -5.478464456      1.990      3.353
REMARK  3 active torsions:
REMARK  status: ('A' for Active; 'I' for Inactive)
REMARK       I    between atoms: C1_4  and  N3_6 
REMARK    1  A    between atoms: C2_8  and  C3_9 
REMARK    2  A    between atoms: C2_8  and  C4_12 
REMARK       I    between atoms: C4_12  and  N5_14 
REMARK    3  A    between atoms: N5_14  and  N6_16 
ROOT
HETATM    1  N1  UNL     1      64.172  31.246  36.160  1.00  0.00    -0.373 N 
ATOM      2  H11 UNL     1      63.768  31.721  35.353  1.00  0.00     0.158 HD
ATOM      3  H12 UNL     1      64.809  31.741  36.785  1.00  0.00     0.158 HD
HETATM    4  C1  UNL     1      63.842  30.006  36.336  1.00  0.00     0.186 C 
HETATM    5  N2  UNL     1      64.409  29.340  37.467  1.00  0.00    -0.064 NA
HETATM    6  N3  UNL     1      62.976  29.334  35.486  1.00  0.00    -0.322 N 
ATOM      7  H3  UNL     1      61.983  29.402  35.706  1.00  0.00     0.169 HD
HETATM    8  C2  UNL     1      63.292  28.622  34.431  1.00  0.00     0.170 C 
ENDROOT
BRANCH   8   9
HETATM    9  C3  UNL     1      62.150  28.040  33.743  1.00  0.00     0.287 C 
HETATM   10  N4  UNL     1      60.897  27.880  34.451  1.00  0.00    -0.056 NA
HETATM   11  O1  UNL     1      62.168  27.660  32.564  1.00  0.00    -0.269 OA
ENDBRANCH   8   9
BRANCH   8  12
HETATM   12  C4  UNL     1      64.656  28.447  34.015  1.00  0.00     0.291 C 
HETATM   13  O2  UNL     1      65.328  27.527  34.608  1.00  0.00    -0.264 OA
HETATM   14  N5  UNL     1      65.358  29.161  33.031  1.00  0.00    -0.271 N 
ATOM     15  H5  UNL     1      64.894  29.908  32.515  1.00  0.00     0.189 HD
BRANCH  14  16
HETATM   16  N6  UNL     1      66.722  28.841  32.754  1.00  0.00    -0.342 N 
ATOM     17  H62 UNL     1      67.459  29.349  33.243  1.00  0.00     0.176 HD
ATOM     18  H61 UNL     1      66.948  28.114  32.075  1.00  0.00     0.176 HD
ENDBRANCH  14  16
ENDBRANCH   8  12
TORSDOF 3
ENDMDL
MODEL 4
REMARK VINA RESULT: -5.354844606      2.126      3.527
REMARK  3 active torsions:
REMARK  status: ('A' for Active; 'I' for Inactive)
REMARK       I    between atoms: C1_4  and  N3_6 
REMARK    1  A    between atoms: C2_8  and  C3_9 
REMARK    2  A    between atoms: C2_8  and  C4_12 
REMARK       I    between atoms: C4_12  and  N5_14 
REMARK    3  A    between atoms: N5_14  and  N6_16 
ROOT
HETATM    1  N1  UNL     1      63.392  29.756  37.603  1.00  0.00    -0.373 N 
ATOM      2  H11 UNL     1      62.749  30.442  37.210  1.00  0.00     0.158 HD
ATOM      3  H12 UNL     1      63.975  29.994  38.407  1.00  0.00     0.158 HD
HETATM    4  C1  UNL     1      63.431  28.594  37.031  1.00  0.00     0.186 C 
HETATM    5  N2  UNL     1      64.333  27.632  37.583  1.00  0.00    -0.064 NA
HETATM    6  N3  UNL     1      62.640  28.271  35.940  1.00  0.00    -0.322 N 
ATOM      7  H3  UNL     1      61.715  27.895  36.146  1.00  0.00     0.169 HD
HETATM    8  C2  UNL     1      62.948  28.394  34.671  1.00  0.00     0.170 C 
ENDROOT
BRANCH   8   9
HETATM    9  C3  UNL     1      61.899  27.967  33.759  1.00  0.00     0.287 C 
HETATM   10  N4  UNL     1      60.545  27.815  34.252  1.00  0.00    -0.056 NA
HETATM   11  O1  UNL     1      62.078  27.715  32.560  1.00  0.00    -0.269 OA
ENDBRANCH   8   9
BRANCH   8  12
HETATM   12  C4  UNL     1      64.220  28.909  34.246  1.00  0.00     0.291 C 
HETATM   13  O2  UNL     1      64.544  30.076  34.675  1.00  0.00    -0.264 OA
HETATM   14  N5  UNL     1      65.168  28.295  33.412  1.00  0.00    -0.271 N 
ATOM     15  H5  UNL     1      64.985  27.368  33.029  1.00  0.00     0.189 HD
BRANCH  14  16
HETATM   16  N6  UNL     1      66.387  28.969  33.098  1.00  0.00    -0.342 N 
ATOM     17  H62 UNL     1      66.557  29.263  32.136  1.00  0.00     0.176 HD
ATOM     18  H61 UNL     1      67.073  29.150  33.831  1.00  0.00     0.176 HD
ENDBRANCH  14  16
ENDBRANCH   8  12
TORSDOF 3
ENDMDL
MODEL 5
REMARK VINA RESULT: -5.181623250      2.118      2.381
REMARK  3 active torsions:
REMARK  status: ('A' for Active; 'I' for Inactive)
REMARK       I    between atoms: C1_4  and  N3_6 
REMARK    1  A    between atoms: C2_8  and  C3_9 
REMARK    2  A    between atoms: C2_8  and  C4_12 
REMARK       I    between atoms: C4_12  and  N5_14 
REMARK    3  A    between atoms: N5_14  and  N6_16 
ROOT
HETATM    1  N1  UNL     1      66.540  27.643  35.031  1.00  0.00    -0.373 N 
ATOM      2  H11 UNL     1      66.072  26.805  35.374  1.00  0.00     0.158 HD
ATOM      3  H12 UNL     1      67.496  27.856  35.320  1.00  0.00     0.158 HD
HETATM    4  C1  UNL     1      65.864  28.407  34.233  1.00  0.00     0.186 C 
HETATM    5  N2  UNL     1      66.521  29.582  33.752  1.00  0.00    -0.064 NA
HETATM    6  N3  UNL     1      64.567  28.117  33.840  1.00  0.00    -0.322 N 
ATOM      7  H3  UNL     1      64.464  27.530  33.012  1.00  0.00     0.169 HD
HETATM    8  C2  UNL     1      63.455  28.513  34.415  1.00  0.00     0.170 C 
ENDROOT
BRANCH   8   9
HETATM    9  C3  UNL     1      62.246  28.038  33.762  1.00  0.00     0.287 C 
HETATM   10  N4  UNL     1      61.016  27.943  34.520  1.00  0.00    -0.056 NA
HETATM   11  O1  UNL     1      62.186  27.698  32.572  1.00  0.00    -0.269 OA
ENDBRANCH   8   9
BRANCH   8  12
HETATM   12  C4  UNL     1      63.463  29.343  35.587  1.00  0.00     0.291 C 
HETATM   13  O2  UNL     1      63.293  30.604  35.404  1.00  0.00    -0.264 OA
HETATM   14  N5  UNL     1      63.634  28.951  36.924  1.00  0.00    -0.271 N 
ATOM     15  H5  UNL     1      63.775  27.968  37.153  1.00  0.00     0.189 HD
BRANCH  14  16
HETATM   16  N6  UNL     1      63.611  29.930  37.964  1.00  0.00    -0.342 N 
ATOM     17  H62 UNL     1      63.622  29.620  38.936  1.00  0.00     0.176 HD
ATOM     18  H61 UNL     1      63.584  30.922  37.730  1.00  0.00     0.176 HD
ENDBRANCH  14  16
ENDBRANCH   8  12
TORSDOF 3
ENDMDL
