MODEL 1
REMARK VINA RESULT: -5.683571087      0.000      0.000
REMARK  2 active torsions:
REMARK  status: ('A' for Active; 'I' for Inactive)
REMARK    1  A    between atoms: C1_2  and  C2_4 
REMARK    2  A    between atoms: C2_4  and  N2_5 
ROOT
HETATM    1  C2  UNL     1      63.925  29.125  34.183  1.00  0.00     0.367 C 
HETATM    2  N3  UNL     1      63.450  30.337  34.710  1.00  0.00    -0.281 N 
ATOM      3  H3  UNL     1      62.999  31.033  34.117  1.00  0.00     0.184 HD
HETATM    4  N4  UNL     1      63.616  30.545  36.056  1.00  0.00    -0.253 N 
ATOM      5  H4  UNL     1      62.949  31.153  36.532  1.00  0.00     0.191 HD
HETATM    6  C3  UNL     1      64.646  29.975  36.817  1.00  0.00     0.341 C 
HETATM    7  O2  UNL     1      64.964  30.384  37.977  1.00  0.00    -0.245 OA
HETATM    8  N5  UNL     1      65.374  28.883  36.265  1.00  0.00    -0.274 N 
ATOM      9  H5  UNL     1      66.134  28.430  36.774  1.00  0.00     0.173 HD
HETATM   10  C4  UNL     1      64.984  28.458  34.964  1.00  0.00     0.293 C 
HETATM   11  O3  UNL     1      65.561  27.463  34.437  1.00  0.00    -0.268 OA
ENDROOT
BRANCH   1  12
HETATM   12  C1  UNL     1      62.847  28.105  33.967  1.00  0.00     0.299 C 
HETATM   13  N1  UNL     1      62.141  27.571  35.080  1.00  0.00    -0.058 NA
HETATM   14  O1  UNL     1      62.526  27.687  32.825  1.00  0.00    -0.271 OA
ENDBRANCH   1  12
BRANCH   1  15
HETATM   15  N2  UNL     1      64.477  29.413  32.854  1.00  0.00    -0.033 N 
ATOM     16  H23 UNL     1      65.491  29.317  32.804  1.00  0.00     0.278 HD
ATOM     17  H22 UNL     1      64.253  28.702  32.157  1.00  0.00     0.278 HD
ATOM     18  H21 UNL     1      64.142  30.344  32.609  1.00  0.00     0.278 HD
ENDBRANCH   1  15
TORSDOF 2
ENDMDL
MODEL 2
REMARK VINA RESULT: -5.337628688      1.716      3.779
REMARK  2 active torsions:
REMARK  status: ('A' for Active; 'I' for Inactive)
REMARK    1  A    between atoms: C1_2  and  C2_4 
REMARK    2  A    between atoms: C2_4  and  N2_5 
ROOT
HETATM    1  C2  UNL     1      63.949  29.447  35.305  1.00  0.00     0.367 C 
HETATM    2  N3  UNL     1      63.593  29.583  33.953  1.00  0.00    -0.281 N 
ATOM      3  H3  UNL     1      64.035  30.281  33.356  1.00  0.00     0.184 HD
HETATM    4  N4  UNL     1      62.627  28.737  33.470  1.00  0.00    -0.253 N 
ATOM      5  H4  UNL     1      62.648  28.506  32.476  1.00  0.00     0.191 HD
HETATM    6  C3  UNL     1      61.613  28.171  34.256  1.00  0.00     0.341 C 
HETATM    7  O2  UNL     1      60.574  27.629  33.768  1.00  0.00    -0.245 OA
HETATM    8  N5  UNL     1      61.755  28.205  35.672  1.00  0.00    -0.274 N 
ATOM      9  H5  UNL     1      61.048  27.809  36.293  1.00  0.00     0.173 HD
HETATM   10  C4  UNL     1      62.934  28.821  36.175  1.00  0.00     0.293 C 
HETATM   11  O3  UNL     1      63.141  28.841  37.423  1.00  0.00    -0.268 OA
ENDROOT
BRANCH   1  12
HETATM   12  C1  UNL     1      65.221  28.681  35.513  1.00  0.00     0.299 C 
HETATM   13  N1  UNL     1      65.550  27.602  34.648  1.00  0.00    -0.058 NA
HETATM   14  O1  UNL     1      66.033  28.951  36.435  1.00  0.00    -0.271 OA
ENDBRANCH   1  12
BRANCH   1  15
HETATM   15  N2  UNL     1      64.201  30.795  35.829  1.00  0.00    -0.033 N 
ATOM     16  H23 UNL     1      64.165  30.850  36.847  1.00  0.00     0.278 HD
ATOM     17  H22 UNL     1      65.169  31.098  35.724  1.00  0.00     0.278 HD
ATOM     18  H21 UNL     1      63.531  31.405  35.363  1.00  0.00     0.278 HD
ENDBRANCH   1  15
TORSDOF 2
ENDMDL
MODEL 3
REMARK VINA RESULT: -5.250855226      1.973      2.733
REMARK  2 active torsions:
REMARK  status: ('A' for Active; 'I' for Inactive)
REMARK    1  A    between atoms: C1_2  and  C2_4 
REMARK    2  A    between atoms: C2_4  and  N2_5 
ROOT
HETATM    1  C2  UNL     1      63.645  29.136  35.076  1.00  0.00     0.367 C 
HETATM    2  N3  UNL     1      64.691  29.619  35.878  1.00  0.00    -0.281 N 
ATOM      3  H3  UNL     1      64.545  30.383  36.537  1.00  0.00     0.184 HD
HETATM    4  N4  UNL     1      65.918  29.021  35.739  1.00  0.00    -0.253 N 
ATOM      5  H4  UNL     1      66.546  29.025  36.543  1.00  0.00     0.191 HD
HETATM    6  C3  UNL     1      66.362  28.404  34.561  1.00  0.00     0.341 C 
HETATM    7  O2  UNL     1      67.578  28.109  34.345  1.00  0.00    -0.245 OA
HETATM    8  N5  UNL     1      65.404  28.094  33.555  1.00  0.00    -0.274 N 
ATOM      9  H5  UNL     1      65.671  27.646  32.677  1.00  0.00     0.173 HD
HETATM   10  C4  UNL     1      64.054  28.442  33.839  1.00  0.00     0.293 C 
HETATM   11  O3  UNL     1      63.149  28.150  33.005  1.00  0.00    -0.268 OA
ENDROOT
BRANCH   1  12
HETATM   12  C1  UNL     1      62.717  28.207  35.800  1.00  0.00     0.299 C 
HETATM   13  N1  UNL     1      63.238  27.270  36.736  1.00  0.00    -0.058 NA
HETATM   14  O1  UNL     1      61.473  28.213  35.619  1.00  0.00    -0.271 OA
ENDBRANCH   1  12
BRANCH   1  15
HETATM   15  N2  UNL     1      62.829  30.290  34.680  1.00  0.00    -0.033 N 
ATOM     16  H23 UNL     1      61.957  30.033  34.217  1.00  0.00     0.278 HD
ATOM     17  H22 UNL     1      62.409  30.782  35.468  1.00  0.00     0.278 HD
ATOM     18  H21 UNL     1      63.435  30.877  34.109  1.00  0.00     0.278 HD
ENDBRANCH   1  15
TORSDOF 2
ENDMDL
MODEL 4
REMARK VINA RESULT: -5.205621213      1.868      2.841
REMARK  2 active torsions:
REMARK  status: ('A' for Active; 'I' for Inactive)
REMARK    1  A    between atoms: C1_2  and  C2_4 
REMARK    2  A    between atoms: C2_4  and  N2_5 
ROOT
HETATM    1  C2  UNL     1      63.292  29.244  35.586  1.00  0.00     0.367 C 
HETATM    2  N3  UNL     1      62.382  28.302  36.091  1.00  0.00    -0.281 N 
ATOM      3  H3  UNL     1      61.708  27.837  35.483  1.00  0.00     0.184 HD
HETATM    4  N4  UNL     1      62.436  28.032  37.435  1.00  0.00    -0.253 N 
ATOM      5  H4  UNL     1      62.132  27.110  37.750  1.00  0.00     0.191 HD
HETATM    6  C3  UNL     1      62.883  28.943  38.402  1.00  0.00     0.341 C 
HETATM    7  O2  UNL     1      62.670  28.800  39.646  1.00  0.00    -0.245 OA
HETATM    8  N5  UNL     1      63.612  30.087  37.970  1.00  0.00    -0.274 N 
ATOM      9  H5  UNL     1      63.961  30.784  38.629  1.00  0.00     0.173 HD
HETATM   10  C4  UNL     1      63.828  30.207  36.569  1.00  0.00     0.293 C 
HETATM   11  O3  UNL     1      64.508  31.177  36.126  1.00  0.00    -0.268 OA
ENDROOT
BRANCH   1  12
HETATM   12  C1  UNL     1      64.477  28.625  34.906  1.00  0.00     0.299 C 
HETATM   13  N1  UNL     1      65.344  27.764  35.634  1.00  0.00    -0.058 NA
HETATM   14  O1  UNL     1      64.749  28.832  33.696  1.00  0.00    -0.271 OA
ENDBRANCH   1  12
BRANCH   1  15
HETATM   15  N2  UNL     1      62.595  30.017  34.552  1.00  0.00    -0.033 N 
ATOM     16  H23 UNL     1      63.205  30.649  34.034  1.00  0.00     0.278 HD
ATOM     17  H22 UNL     1      62.296  29.455  33.755  1.00  0.00     0.278 HD
ATOM     18  H21 UNL     1      61.827  30.490  35.028  1.00  0.00     0.278 HD
ENDBRANCH   1  15
TORSDOF 2
ENDMDL
MODEL 5
REMARK VINA RESULT: -5.134736127      1.784      3.778
REMARK  2 active torsions:
REMARK  status: ('A' for Active; 'I' for Inactive)
REMARK    1  A    between atoms: C1_2  and  C2_4 
REMARK    2  A    between atoms: C2_4  and  N2_5 
ROOT
HETATM    1  C2  UNL     1      64.734  28.951  34.799  1.00  0.00     0.367 C 
HETATM    2  N3  UNL     1      64.579  27.992  33.786  1.00  0.00    -0.281 N 
ATOM      3  H3  UNL     1      65.378  27.646  33.256  1.00  0.00     0.184 HD
HETATM    4  N4  UNL     1      63.308  27.539  33.537  1.00  0.00    -0.253 N 
ATOM      5  H4  UNL     1      63.201  26.598  33.158  1.00  0.00     0.191 HD
HETATM    6  C3  UNL     1      62.147  28.289  33.773  1.00  0.00     0.341 C 
HETATM    7  O2  UNL     1      61.013  27.988  33.289  1.00  0.00    -0.245 OA
HETATM    8  N5  UNL     1      62.243  29.447  34.597  1.00  0.00    -0.274 N 
ATOM      9  H5  UNL     1      61.431  30.030  34.802  1.00  0.00     0.173 HD
HETATM   10  C4  UNL     1      63.532  29.746  35.119  1.00  0.00     0.293 C 
HETATM   11  O3  UNL     1      63.673  30.735  35.895  1.00  0.00    -0.268 OA
ENDROOT
BRANCH   1  12
HETATM   12  C1  UNL     1      65.223  28.377  36.095  1.00  0.00     0.299 C 
HETATM   13  N1  UNL     1      64.411  27.457  36.816  1.00  0.00    -0.058 NA
HETATM   14  O1  UNL     1      66.341  28.672  36.590  1.00  0.00    -0.271 OA
ENDBRANCH   1  12
BRANCH   1  15
HETATM   15  N2  UNL     1      65.774  29.889  34.359  1.00  0.00    -0.033 N 
ATOM     16  H23 UNL     1      65.983  30.616  35.043  1.00  0.00     0.278 HD
ATOM     17  H22 UNL     1      66.707  29.479  34.327  1.00  0.00     0.278 HD
ATOM     18  H21 UNL     1      65.458  30.254  33.461  1.00  0.00     0.278 HD
ENDBRANCH   1  15
TORSDOF 2
ENDMDL
