MODEL 1
REMARK VINA RESULT: -7.115633869      0.000      0.000
REMARK  15 active torsions:
REMARK  status: ('A' for Active; 'I' for Inactive)
REMARK    1  A    between atoms: C2_2  and  C4_4 
REMARK    2  A    between atoms: N1_6  and  C6_7 
REMARK    3  A    between atoms: C6_7  and  O1_8 
REMARK    4  A    between atoms: C6_7  and  N2_10 
REMARK    5  A    between atoms: C9_13  and  C11_15 
REMARK    6  A    between atoms: C11_15  and  C12_16 
REMARK    7  A    between atoms: C12_16  and  N3_17 
REMARK    8  A    between atoms: N3_17  and  C13_19 
REMARK    9  A    between atoms: C16_22  and  N4_23 
REMARK   10  A    between atoms: N4_23  and  N5_25 
REMARK   11  A    between atoms: N5_25  and  C17_26 
REMARK   12  A    between atoms: C17_26  and  C18_27 
REMARK   13  A    between atoms: C18_27  and  P1_28 
REMARK   14  A    between atoms: P1_28  and  O2_29 
REMARK   15  A    between atoms: P1_28  and  O3_31 
ROOT
HETATM    1  C12 UNL     1      -6.943  -6.573 -13.283  1.00  0.00     0.126 C 
ENDROOT
BRANCH   1   2
HETATM    2  C11 UNL     1      -6.449  -7.970 -12.967  1.00  0.00     0.081 C 
BRANCH   2   3
HETATM    3  C9  UNL     1      -7.445  -9.049 -13.295  1.00  0.00     0.147 C 
HETATM    4  N1  UNL     1      -7.730  -9.954 -12.161  1.00  0.00    -0.313 N 
HETATM    5  C5  UNL     1      -8.953 -10.019 -11.419  1.00  0.00     0.155 C 
HETATM    6  C4  UNL     1     -10.050 -10.773 -12.135  1.00  0.00     0.108 C 
HETATM    7  N8  UNL     1     -10.522  -9.935 -13.217  1.00  0.00    -0.330 N 
HETATM    8  C19 UNL     1      -9.937  -8.792 -13.773  1.00  0.00     0.363 C 
ATOM      9  H8  UNL     1     -11.408 -10.219 -13.634  1.00  0.00     0.165 HD
HETATM   10  O4  UNL     1      -8.634  -8.357 -13.660  1.00  0.00    -0.272 OA
HETATM   11  O5  UNL     1     -10.712  -8.067 -14.469  1.00  0.00    -0.238 OA
HETATM   12  C10 UNL     1      -6.970  -9.790 -14.507  1.00  0.00     0.072 C 
BRANCH   4  13
HETATM   13  C6  UNL     1      -6.703 -10.806 -11.837  1.00  0.00     0.218 C 
BRANCH  13  14
HETATM   14  O1  UNL     1      -6.967 -12.070 -12.150  1.00  0.00    -0.332 OA
ATOM     15  H1  UNL     1      -6.288 -12.669 -11.863  1.00  0.00     0.220 HD
ENDBRANCH  13  14
BRANCH  13  16
HETATM   16  N2  UNL     1      -5.444 -10.713 -11.262  1.00  0.00    -0.356 N 
HETATM   17  C7  UNL     1      -4.248 -11.166 -12.055  1.00  0.00     0.152 C 
HETATM   18  C8  UNL     1      -5.113 -10.236  -9.971  1.00  0.00     0.152 C 
ENDBRANCH  13  16
ENDBRANCH   4  13
BRANCH   6  19
HETATM   19  C2  UNL     1     -11.164 -10.985 -11.112  1.00  0.00     0.002 C 
HETATM   20  C1  UNL     1     -12.005  -9.752 -11.003  1.00  0.00     0.011 C 
HETATM   21  C3  UNL     1     -10.630 -11.478  -9.806  1.00  0.00     0.011 C 
ENDBRANCH   6  19
ENDBRANCH   2   3
ENDBRANCH   1   2
BRANCH   1  22
HETATM   22  N3  UNL     1      -7.108  -5.735 -12.129  1.00  0.00    -0.375 N 
ATOM     23  H3  UNL     1      -6.340  -5.110 -11.885  1.00  0.00     0.161 HD
BRANCH  22  24
HETATM   24  C13 UNL     1      -8.270  -5.714 -11.298  1.00  0.00     0.115 A 
HETATM   25  C14 UNL     1      -8.450  -6.612 -10.272  1.00  0.00     0.053 A 
HETATM   26  C15 UNL     1      -9.593  -6.515  -9.494  1.00  0.00     0.054 A 
HETATM   27  C16 UNL     1     -10.522  -5.545  -9.745  1.00  0.00     0.131 A 
HETATM   28  N6  UNL     1     -10.293  -4.699 -10.759  1.00  0.00    -0.283 N 
HETATM   29  N7  UNL     1      -9.222  -4.781 -11.494  1.00  0.00    -0.284 N 
ATOM     30  H6  UNL     1     -10.977  -3.970 -10.960  1.00  0.00     0.188 HD
ATOM     31  H7  UNL     1      -9.099  -4.110 -12.252  1.00  0.00     0.188 HD
BRANCH  27  32
HETATM   32  N4  UNL     1     -11.711  -5.420  -8.961  1.00  0.00    -0.288 N 
ATOM     33  H4  UNL     1     -11.669  -5.542  -7.949  1.00  0.00     0.184 HD
BRANCH  32  34
HETATM   34  N5  UNL     1     -12.917  -5.133  -9.570  1.00  0.00    -0.139 NA
BRANCH  34  35
HETATM   35  C17 UNL     1     -13.698  -6.328  -9.846  1.00  0.00     0.144 C 
BRANCH  35  36
HETATM   36  C18 UNL     1     -14.488  -6.169 -11.116  1.00  0.00     0.111 C 
BRANCH  36  37
HETATM   37  P1  UNL     1     -13.400  -5.526 -12.471  1.00  0.00     0.164 P 
BRANCH  37  38
HETATM   38  O2  UNL     1     -13.014  -3.861 -12.235  1.00  0.00    -0.350 OA
ATOM     39  H2  UNL     1     -12.189  -3.634 -12.649  1.00  0.00     0.217 HD
ENDBRANCH  37  38
BRANCH  37  40
HETATM   40  O3  UNL     1     -11.931  -6.469 -12.518  1.00  0.00    -0.350 OA
ATOM     41  H3  UNL     1     -11.805  -6.802 -13.399  1.00  0.00     0.217 HD
ENDBRANCH  37  40
ENDBRANCH  36  37
ENDBRANCH  35  36
ENDBRANCH  34  35
ENDBRANCH  32  34
ENDBRANCH  27  32
ENDBRANCH  22  24
ENDBRANCH   1  22
TORSDOF 15
ENDMDL
MODEL 2
REMARK VINA RESULT: -6.895410734      2.973      7.208
REMARK  15 active torsions:
REMARK  status: ('A' for Active; 'I' for Inactive)
REMARK    1  A    between atoms: C2_2  and  C4_4 
REMARK    2  A    between atoms: N1_6  and  C6_7 
REMARK    3  A    between atoms: C6_7  and  O1_8 
REMARK    4  A    between atoms: C6_7  and  N2_10 
REMARK    5  A    between atoms: C9_13  and  C11_15 
REMARK    6  A    between atoms: C11_15  and  C12_16 
REMARK    7  A    between atoms: C12_16  and  N3_17 
REMARK    8  A    between atoms: N3_17  and  C13_19 
REMARK    9  A    between atoms: C16_22  and  N4_23 
REMARK   10  A    between atoms: N4_23  and  N5_25 
REMARK   11  A    between atoms: N5_25  and  C17_26 
REMARK   12  A    between atoms: C17_26  and  C18_27 
REMARK   13  A    between atoms: C18_27  and  P1_28 
REMARK   14  A    between atoms: P1_28  and  O2_29 
REMARK   15  A    between atoms: P1_28  and  O3_31 
ROOT
HETATM    1  C12 UNL     1      -7.199  -5.124 -12.254  1.00  0.00     0.126 C 
ENDROOT
BRANCH   1   2
HETATM    2  C11 UNL     1      -8.501  -4.819 -11.541  1.00  0.00     0.081 C 
BRANCH   2   3
HETATM    3  C9  UNL     1      -8.945  -5.911 -10.608  1.00  0.00     0.147 C 
HETATM    4  N1  UNL     1     -10.181  -6.595 -11.044  1.00  0.00    -0.313 N 
HETATM    5  C5  UNL     1     -10.275  -7.937 -11.538  1.00  0.00     0.155 C 
HETATM    6  C4  UNL     1     -10.230  -8.982 -10.447  1.00  0.00     0.108 C 
HETATM    7  N8  UNL     1      -8.868  -9.047  -9.961  1.00  0.00    -0.330 N 
HETATM    8  C19 UNL     1      -7.812  -8.152 -10.159  1.00  0.00     0.363 C 
ATOM      9  H8  UNL     1      -8.647  -9.863  -9.391  1.00  0.00     0.165 HD
HETATM   10  O4  UNL     1      -7.869  -6.843 -10.587  1.00  0.00    -0.272 OA
HETATM   11  O5  UNL     1      -6.655  -8.610  -9.911  1.00  0.00    -0.238 OA
HETATM   12  C10 UNL     1      -9.069  -5.343  -9.227  1.00  0.00     0.072 C 
BRANCH   4  13
HETATM   13  C6  UNL     1     -11.323  -5.841 -10.931  1.00  0.00     0.218 C 
BRANCH  13  14
HETATM   14  O1  UNL     1     -11.507  -5.030 -11.968  1.00  0.00    -0.332 OA
ATOM     15  H1  UNL     1     -10.864  -4.332 -12.006  1.00  0.00     0.220 HD
ENDBRANCH  13  14
BRANCH  13  16
HETATM   16  N2  UNL     1     -12.357  -5.688 -10.019  1.00  0.00    -0.356 N 
HETATM   17  C7  UNL     1     -12.585  -4.337  -9.399  1.00  0.00     0.152 C 
HETATM   18  C8  UNL     1     -13.266  -6.674  -9.565  1.00  0.00     0.152 C 
ENDBRANCH  13  16
ENDBRANCH   4  13
BRANCH   6  19
HETATM   19  C2  UNL     1     -10.615 -10.305 -11.105  1.00  0.00     0.002 C 
HETATM   20  C1  UNL     1      -9.469 -11.265 -11.042  1.00  0.00     0.011 C 
HETATM   21  C3  UNL     1     -11.167 -10.100 -12.479  1.00  0.00     0.011 C 
ENDBRANCH   6  19
ENDBRANCH   2   3
ENDBRANCH   1   2
BRANCH   1  22
HETATM   22  N3  UNL     1      -7.341  -5.991 -13.389  1.00  0.00    -0.375 N 
ATOM     23  H3  UNL     1      -7.705  -5.585 -14.252  1.00  0.00     0.161 HD
BRANCH  22  24
HETATM   24  C13 UNL     1      -7.009  -7.380 -13.399  1.00  0.00     0.115 A 
HETATM   25  C14 UNL     1      -7.852  -8.328 -13.929  1.00  0.00     0.053 A 
HETATM   26  C15 UNL     1      -7.452  -9.655 -13.923  1.00  0.00     0.054 A 
HETATM   27  C16 UNL     1      -6.242 -10.011 -13.398  1.00  0.00     0.131 A 
HETATM   28  N6  UNL     1      -5.464  -9.044 -12.894  1.00  0.00    -0.283 N 
HETATM   29  N7  UNL     1      -5.830  -7.795 -12.896  1.00  0.00    -0.284 N 
ATOM     30  H6  UNL     1      -4.558  -9.294 -12.497  1.00  0.00     0.188 HD
ATOM     31  H7  UNL     1      -5.196  -7.101 -12.501  1.00  0.00     0.188 HD
BRANCH  27  32
HETATM   32  N4  UNL     1      -5.801 -11.372 -13.377  1.00  0.00    -0.288 N 
ATOM     33  H4  UNL     1      -6.004 -11.985 -14.166  1.00  0.00     0.184 HD
BRANCH  32  34
HETATM   34  N5  UNL     1      -5.101 -11.857 -12.289  1.00  0.00    -0.139 NA
BRANCH  34  35
HETATM   35  C17 UNL     1      -3.726 -12.194 -12.620  1.00  0.00     0.144 C 
BRANCH  35  36
HETATM   36  C18 UNL     1      -2.786 -11.110 -12.171  1.00  0.00     0.111 C 
BRANCH  36  37
HETATM   37  P1  UNL     1      -2.832 -10.947 -10.325  1.00  0.00     0.164 P 
BRANCH  37  38
HETATM   38  O2  UNL     1      -4.424 -10.596  -9.761  1.00  0.00    -0.350 OA
ATOM     39  H2  UNL     1      -4.550 -10.894  -8.867  1.00  0.00     0.217 HD
ENDBRANCH  37  38
BRANCH  37  40
HETATM   40  O3  UNL     1      -2.271 -12.437  -9.608  1.00  0.00    -0.350 OA
ATOM     41  H3  UNL     1      -1.588 -12.239  -8.978  1.00  0.00     0.217 HD
ENDBRANCH  37  40
ENDBRANCH  36  37
ENDBRANCH  35  36
ENDBRANCH  34  35
ENDBRANCH  32  34
ENDBRANCH  27  32
ENDBRANCH  22  24
ENDBRANCH   1  22
TORSDOF 15
ENDMDL
MODEL 3
REMARK VINA RESULT: -6.865814259      3.244      3.744
REMARK  15 active torsions:
REMARK  status: ('A' for Active; 'I' for Inactive)
REMARK    1  A    between atoms: C2_2  and  C4_4 
REMARK    2  A    between atoms: N1_6  and  C6_7 
REMARK    3  A    between atoms: C6_7  and  O1_8 
REMARK    4  A    between atoms: C6_7  and  N2_10 
REMARK    5  A    between atoms: C9_13  and  C11_15 
REMARK    6  A    between atoms: C11_15  and  C12_16 
REMARK    7  A    between atoms: C12_16  and  N3_17 
REMARK    8  A    between atoms: N3_17  and  C13_19 
REMARK    9  A    between atoms: C16_22  and  N4_23 
REMARK   10  A    between atoms: N4_23  and  N5_25 
REMARK   11  A    between atoms: N5_25  and  C17_26 
REMARK   12  A    between atoms: C17_26  and  C18_27 
REMARK   13  A    between atoms: C18_27  and  P1_28 
REMARK   14  A    between atoms: P1_28  and  O2_29 
REMARK   15  A    between atoms: P1_28  and  O3_31 
ROOT
HETATM    1  C12 UNL     1      -7.393  -5.745 -13.659  1.00  0.00     0.126 C 
ENDROOT
BRANCH   1   2
HETATM    2  C11 UNL     1      -6.736  -7.057 -13.282  1.00  0.00     0.081 C 
BRANCH   2   3
HETATM    3  C9  UNL     1      -7.687  -8.221 -13.253  1.00  0.00     0.147 C 
HETATM    4  N1  UNL     1      -8.193  -8.537 -11.900  1.00  0.00    -0.313 N 
HETATM    5  C5  UNL     1      -9.530  -8.330 -11.428  1.00  0.00     0.155 C 
HETATM    6  C4  UNL     1     -10.504  -9.383 -11.903  1.00  0.00     0.108 C 
HETATM    7  N8  UNL     1     -10.754  -9.145 -13.308  1.00  0.00    -0.330 N 
HETATM    8  C19 UNL     1     -10.049  -8.342 -14.211  1.00  0.00     0.363 C 
ATOM      9  H8  UNL     1     -11.560  -9.634 -13.697  1.00  0.00     0.165 HD
HETATM   10  O4  UNL     1      -8.774  -7.832 -14.086  1.00  0.00    -0.272 OA
HETATM   11  O5  UNL     1     -10.668  -8.049 -15.279  1.00  0.00    -0.238 OA
HETATM   12  C10 UNL     1      -7.028  -9.400 -13.901  1.00  0.00     0.072 C 
BRANCH   4  13
HETATM   13  C6  UNL     1      -7.265  -9.096 -11.057  1.00  0.00     0.218 C 
BRANCH  13  14
HETATM   14  O1  UNL     1      -6.906  -8.277 -10.073  1.00  0.00    -0.332 OA
ATOM     15  H1  UNL     1      -6.631  -8.742  -9.292  1.00  0.00     0.220 HD
ENDBRANCH  13  14
BRANCH  13  16
HETATM   16  N2  UNL     1      -6.583 -10.299 -10.946  1.00  0.00    -0.356 N 
HETATM   17  C7  UNL     1      -7.320 -11.580 -11.223  1.00  0.00     0.152 C 
HETATM   18  C8  UNL     1      -5.229 -10.498 -10.582  1.00  0.00     0.152 C 
ENDBRANCH  13  16
ENDBRANCH   4  13
BRANCH   6  19
HETATM   19  C2  UNL     1     -11.787  -9.175 -11.100  1.00  0.00     0.002 C 
HETATM   20  C1  UNL     1     -11.525  -8.275  -9.933  1.00  0.00     0.011 C 
HETATM   21  C3  UNL     1     -12.429 -10.475 -10.738  1.00  0.00     0.011 C 
ENDBRANCH   6  19
ENDBRANCH   2   3
ENDBRANCH   1   2
BRANCH   1  22
HETATM   22  N3  UNL     1      -7.399  -4.769 -12.606  1.00  0.00    -0.375 N 
ATOM     23  H3  UNL     1      -6.896  -3.896 -12.768  1.00  0.00     0.161 HD
BRANCH  22  24
HETATM   24  C13 UNL     1      -8.058  -4.931 -11.349  1.00  0.00     0.115 A 
HETATM   25  C14 UNL     1      -9.422  -4.804 -11.219  1.00  0.00     0.053 A 
HETATM   26  C15 UNL     1      -9.993  -4.998  -9.971  1.00  0.00     0.054 A 
HETATM   27  C16 UNL     1      -9.214  -5.309  -8.893  1.00  0.00     0.131 A 
HETATM   28  N6  UNL     1      -7.892  -5.419  -9.081  1.00  0.00    -0.283 N 
HETATM   29  N7  UNL     1      -7.346  -5.240 -10.249  1.00  0.00    -0.284 N 
ATOM     30  H6  UNL     1      -7.296  -5.650  -8.286  1.00  0.00     0.188 HD
ATOM     31  H7  UNL     1      -6.334  -5.338 -10.334  1.00  0.00     0.188 HD
BRANCH  27  32
HETATM   32  N4  UNL     1      -9.774  -5.515  -7.594  1.00  0.00    -0.288 N 
ATOM     33  H4  UNL     1      -9.961  -6.462  -7.264  1.00  0.00     0.184 HD
BRANCH  32  34
HETATM   34  N5  UNL     1     -10.062  -4.434  -6.783  1.00  0.00    -0.139 NA
BRANCH  34  35
HETATM   35  C17 UNL     1      -9.589  -4.619  -5.422  1.00  0.00     0.144 C 
BRANCH  35  36
HETATM   36  C18 UNL     1      -9.144  -3.311  -4.828  1.00  0.00     0.111 C 
BRANCH  36  37
HETATM   37  P1  UNL     1      -7.705  -2.633  -5.779  1.00  0.00     0.164 P 
BRANCH  37  38
HETATM   38  O2  UNL     1      -8.002  -2.658  -7.478  1.00  0.00    -0.350 OA
ATOM     39  H2  UNL     1      -7.659  -1.881  -7.903  1.00  0.00     0.217 HD
ENDBRANCH  37  38
BRANCH  37  40
HETATM   40  O3  UNL     1      -7.401  -0.994  -5.261  1.00  0.00    -0.350 OA
ATOM     41  H3  UNL     1      -7.115  -0.480  -6.007  1.00  0.00     0.217 HD
ENDBRANCH  37  40
ENDBRANCH  36  37
ENDBRANCH  35  36
ENDBRANCH  34  35
ENDBRANCH  32  34
ENDBRANCH  27  32
ENDBRANCH  22  24
ENDBRANCH   1  22
TORSDOF 15
ENDMDL
MODEL 4
REMARK VINA RESULT: -6.861489705      4.739      8.705
REMARK  15 active torsions:
REMARK  status: ('A' for Active; 'I' for Inactive)
REMARK    1  A    between atoms: C2_2  and  C4_4 
REMARK    2  A    between atoms: N1_6  and  C6_7 
REMARK    3  A    between atoms: C6_7  and  O1_8 
REMARK    4  A    between atoms: C6_7  and  N2_10 
REMARK    5  A    between atoms: C9_13  and  C11_15 
REMARK    6  A    between atoms: C11_15  and  C12_16 
REMARK    7  A    between atoms: C12_16  and  N3_17 
REMARK    8  A    between atoms: N3_17  and  C13_19 
REMARK    9  A    between atoms: C16_22  and  N4_23 
REMARK   10  A    between atoms: N4_23  and  N5_25 
REMARK   11  A    between atoms: N5_25  and  C17_26 
REMARK   12  A    between atoms: C17_26  and  C18_27 
REMARK   13  A    between atoms: C18_27  and  P1_28 
REMARK   14  A    between atoms: P1_28  and  O2_29 
REMARK   15  A    between atoms: P1_28  and  O3_31 
ROOT
HETATM    1  C12 UNL     1      -4.315 -10.824 -12.274  1.00  0.00     0.126 C 
ENDROOT
BRANCH   1   2
HETATM    2  C11 UNL     1      -5.075  -9.522 -12.419  1.00  0.00     0.081 C 
BRANCH   2   3
HETATM    3  C9  UNL     1      -6.525  -9.624 -12.034  1.00  0.00     0.147 C 
HETATM    4  N1  UNL     1      -7.413  -8.758 -12.838  1.00  0.00    -0.313 N 
HETATM    5  C5  UNL     1      -8.363  -9.197 -13.816  1.00  0.00     0.155 C 
HETATM    6  C4  UNL     1      -9.640  -9.735 -13.214  1.00  0.00     0.108 C 
HETATM    7  N8  UNL     1      -9.340 -11.029 -12.637  1.00  0.00    -0.330 N 
HETATM    8  C19 UNL     1      -8.098 -11.607 -12.354  1.00  0.00     0.363 C 
ATOM      9  H8  UNL     1     -10.151 -11.601 -12.404  1.00  0.00     0.165 HD
HETATM   10  O4  UNL     1      -6.871 -10.988 -12.251  1.00  0.00    -0.272 OA
HETATM   11  O5  UNL     1      -8.110 -12.863 -12.171  1.00  0.00    -0.238 OA
HETATM   12  C10 UNL     1      -6.653  -9.360 -10.565  1.00  0.00     0.072 C 
BRANCH   4  13
HETATM   13  C6  UNL     1      -7.294  -7.415 -12.576  1.00  0.00     0.218 C 
BRANCH  13  14
HETATM   14  O1  UNL     1      -6.230  -6.871 -13.157  1.00  0.00    -0.332 OA
ATOM     15  H1  UNL     1      -6.451  -6.126 -13.703  1.00  0.00     0.220 HD
ENDBRANCH  13  14
BRANCH  13  16
HETATM   16  N2  UNL     1      -7.988  -6.451 -11.859  1.00  0.00    -0.356 N 
HETATM   17  C7  UNL     1      -7.511  -5.026 -11.908  1.00  0.00     0.152 C 
HETATM   18  C8  UNL     1      -9.132  -6.632 -11.044  1.00  0.00     0.152 C 
ENDBRANCH  13  16
ENDBRANCH   4  13
BRANCH   6  19
HETATM   19  C2  UNL     1     -10.627  -9.892 -14.369  1.00  0.00     0.002 C 
HETATM   20  C1  UNL     1     -11.460  -8.657 -14.506  1.00  0.00     0.011 C 
HETATM   21  C3  UNL     1     -11.419 -11.155 -14.251  1.00  0.00     0.011 C 
ENDBRANCH   6  19
ENDBRANCH   2   3
ENDBRANCH   1   2
BRANCH   1  22
HETATM   22  N3  UNL     1      -3.124 -10.722 -11.479  1.00  0.00    -0.375 N 
ATOM     23  H3  UNL     1      -2.284 -10.358 -11.929  1.00  0.00     0.161 HD
BRANCH  22  24
HETATM   24  C13 UNL     1      -3.030 -11.094 -10.103  1.00  0.00     0.115 A 
HETATM   25  C14 UNL     1      -3.743 -10.446  -9.122  1.00  0.00     0.053 A 
HETATM   26  C15 UNL     1      -3.618 -10.878  -7.810  1.00  0.00     0.054 A 
HETATM   27  C16 UNL     1      -2.799 -11.927  -7.502  1.00  0.00     0.131 A 
HETATM   28  N6  UNL     1      -2.128 -12.518  -8.500  1.00  0.00    -0.283 N 
HETATM   29  N7  UNL     1      -2.240 -12.121  -9.734  1.00  0.00    -0.284 N 
ATOM     30  H6  UNL     1      -1.512 -13.302  -8.286  1.00  0.00     0.188 HD
ATOM     31  H7  UNL     1      -1.707 -12.609 -10.454  1.00  0.00     0.188 HD
BRANCH  27  32
HETATM   32  N4  UNL     1      -2.648 -12.395  -6.159  1.00  0.00    -0.288 N 
ATOM     33  H4  UNL     1      -3.417 -12.297  -5.496  1.00  0.00     0.184 HD
BRANCH  32  34
HETATM   34  N5  UNL     1      -1.463 -12.982  -5.759  1.00  0.00    -0.139 NA
BRANCH  34  35
HETATM   35  C17 UNL     1      -1.642 -13.883  -4.633  1.00  0.00     0.144 C 
BRANCH  35  36
HETATM   36  C18 UNL     1      -1.088 -15.246  -4.944  1.00  0.00     0.111 C 
BRANCH  36  37
HETATM   37  P1  UNL     1      -2.329 -16.238  -5.898  1.00  0.00     0.164 P 
BRANCH  37  38
HETATM   38  O2  UNL     1      -3.717 -16.603  -4.941  1.00  0.00    -0.350 OA
ATOM     39  H2  UNL     1      -4.420 -16.961  -5.471  1.00  0.00     0.217 HD
ENDBRANCH  37  38
BRANCH  37  40
HETATM   40  O3  UNL     1      -2.812 -15.337  -7.313  1.00  0.00    -0.350 OA
ATOM     41  H3  UNL     1      -3.299 -14.568  -7.041  1.00  0.00     0.217 HD
ENDBRANCH  37  40
ENDBRANCH  36  37
ENDBRANCH  35  36
ENDBRANCH  34  35
ENDBRANCH  32  34
ENDBRANCH  27  32
ENDBRANCH  22  24
ENDBRANCH   1  22
TORSDOF 15
ENDMDL
MODEL 5
REMARK VINA RESULT: -6.812594846      4.669      8.642
REMARK  15 active torsions:
REMARK  status: ('A' for Active; 'I' for Inactive)
REMARK    1  A    between atoms: C2_2  and  C4_4 
REMARK    2  A    between atoms: N1_6  and  C6_7 
REMARK    3  A    between atoms: C6_7  and  O1_8 
REMARK    4  A    between atoms: C6_7  and  N2_10 
REMARK    5  A    between atoms: C9_13  and  C11_15 
REMARK    6  A    between atoms: C11_15  and  C12_16 
REMARK    7  A    between atoms: C12_16  and  N3_17 
REMARK    8  A    between atoms: N3_17  and  C13_19 
REMARK    9  A    between atoms: C16_22  and  N4_23 
REMARK   10  A    between atoms: N4_23  and  N5_25 
REMARK   11  A    between atoms: N5_25  and  C17_26 
REMARK   12  A    between atoms: C17_26  and  C18_27 
REMARK   13  A    between atoms: C18_27  and  P1_28 
REMARK   14  A    between atoms: P1_28  and  O2_29 
REMARK   15  A    between atoms: P1_28  and  O3_31 
ROOT
HETATM    1  C12 UNL     1      -6.522 -10.000 -10.541  1.00  0.00     0.126 C 
ENDROOT
BRANCH   1   2
HETATM    2  C11 UNL     1      -7.115  -9.174 -11.664  1.00  0.00     0.081 C 
BRANCH   2   3
HETATM    3  C9  UNL     1      -8.590  -9.392 -11.858  1.00  0.00     0.147 C 
HETATM    4  N1  UNL     1      -9.237  -8.352 -12.687  1.00  0.00    -0.313 N 
HETATM    5  C5  UNL     1      -9.745  -8.525 -14.015  1.00  0.00     0.155 C 
HETATM    6  C4  UNL     1     -11.087  -9.219 -14.059  1.00  0.00     0.108 C 
HETATM    7  N8  UNL     1     -10.867 -10.616 -13.749  1.00  0.00    -0.330 N 
HETATM    8  C19 UNL     1      -9.742 -11.235 -13.193  1.00  0.00     0.363 C 
ATOM      9  H8  UNL     1     -11.644 -11.239 -13.968  1.00  0.00     0.165 HD
HETATM   10  O4  UNL     1      -8.696 -10.652 -12.511  1.00  0.00    -0.272 OA
HETATM   11  O5  UNL     1      -9.684 -12.494 -13.341  1.00  0.00    -0.238 OA
HETATM   12  C10 UNL     1      -9.237  -9.530 -10.514  1.00  0.00     0.072 C 
BRANCH   4  13
HETATM   13  C6  UNL     1      -9.356  -7.127 -12.078  1.00  0.00     0.218 C 
BRANCH  13  14
HETATM   14  O1  UNL     1     -10.610  -6.690 -12.048  1.00  0.00    -0.332 OA
ATOM     15  H1  UNL     1     -11.071  -6.950 -11.258  1.00  0.00     0.220 HD
ENDBRANCH  13  14
BRANCH  13  16
HETATM   16  N2  UNL     1      -8.516  -6.202 -11.475  1.00  0.00    -0.356 N 
HETATM   17  C7  UNL     1      -7.562  -5.418 -12.334  1.00  0.00     0.152 C 
HETATM   18  C8  UNL     1      -8.422  -5.884 -10.099  1.00  0.00     0.152 C 
ENDBRANCH  13  16
ENDBRANCH   4  13
BRANCH   6  19
HETATM   19  C2  UNL     1     -11.599  -9.073 -15.489  1.00  0.00     0.002 C 
HETATM   20  C1  UNL     1     -12.596  -7.960 -15.569  1.00  0.00     0.011 C 
HETATM   21  C3  UNL     1     -12.091 -10.375 -16.036  1.00  0.00     0.011 C 
ENDBRANCH   6  19
ENDBRANCH   2   3
ENDBRANCH   1   2
BRANCH   1  22
HETATM   22  N3  UNL     1      -5.247  -9.531 -10.077  1.00  0.00    -0.375 N 
ATOM     23  H3  UNL     1      -5.006  -8.556 -10.261  1.00  0.00     0.161 HD
BRANCH  22  24
HETATM   24  C13 UNL     1      -4.291 -10.329  -9.377  1.00  0.00     0.115 A 
HETATM   25  C14 UNL     1      -3.233 -10.930 -10.019  1.00  0.00     0.053 A 
HETATM   26  C15 UNL     1      -2.333 -11.671  -9.269  1.00  0.00     0.054 A 
HETATM   27  C16 UNL     1      -2.497 -11.802  -7.920  1.00  0.00     0.131 A 
HETATM   28  N6  UNL     1      -3.547 -11.195  -7.351  1.00  0.00    -0.283 N 
HETATM   29  N7  UNL     1      -4.397 -10.495  -8.045  1.00  0.00    -0.284 N 
ATOM     30  H6  UNL     1      -3.685 -11.283  -6.344  1.00  0.00     0.188 HD
ATOM     31  H7  UNL     1      -5.178 -10.054  -7.559  1.00  0.00     0.188 HD
BRANCH  27  32
HETATM   32  N4  UNL     1      -1.586 -12.560  -7.120  1.00  0.00    -0.288 N 
ATOM     33  H4  UNL     1      -0.659 -12.786  -7.480  1.00  0.00     0.184 HD
BRANCH  32  34
HETATM   34  N5  UNL     1      -1.959 -12.987  -5.860  1.00  0.00    -0.139 NA
BRANCH  34  35
HETATM   35  C17 UNL     1      -0.889 -13.690  -5.172  1.00  0.00     0.144 C 
BRANCH  35  36
HETATM   36  C18 UNL     1      -1.157 -15.170  -5.138  1.00  0.00     0.111 C 
BRANCH  36  37
HETATM   37  P1  UNL     1      -2.821 -15.536  -5.867  1.00  0.00     0.164 P 
BRANCH  37  38
HETATM   38  O2  UNL     1      -2.801 -15.401  -7.587  1.00  0.00    -0.350 OA
ATOM     39  H2  UNL     1      -3.143 -14.562  -7.874  1.00  0.00     0.217 HD
ENDBRANCH  37  38
BRANCH  37  40
HETATM   40  O3  UNL     1      -3.300 -17.152  -5.411  1.00  0.00    -0.350 OA
ATOM     41  H3  UNL     1      -2.865 -17.776  -5.979  1.00  0.00     0.217 HD
ENDBRANCH  37  40
ENDBRANCH  36  37
ENDBRANCH  35  36
ENDBRANCH  34  35
ENDBRANCH  32  34
ENDBRANCH  27  32
ENDBRANCH  22  24
ENDBRANCH   1  22
TORSDOF 15
ENDMDL
