MODEL 1
REMARK VINA RESULT: -7.412263880      0.000      0.000
REMARK  15 active torsions:
REMARK  status: ('A' for Active; 'I' for Inactive)
REMARK    1  A    between atoms: C2_2  and  C3_3 
REMARK    2  A    between atoms: C2_2  and  N8_31 
REMARK    3  A    between atoms: C3_3  and  C4_4 
REMARK    4  A    between atoms: C4_4  and  N1_5 
REMARK       I    between atoms: N1_5  and  C5_7 
REMARK    5  A    between atoms: C5_7  and  C6_9 
REMARK    6  A    between atoms: C6_9  and  O2_10 
REMARK    7  A    between atoms: C6_9  and  C7_12 
REMARK    8  A    between atoms: C7_12  and  N2_13 
REMARK    9  A    between atoms: C10_18  and  N4_19 
REMARK   10  A    between atoms: N8_31  and  C16_33 
REMARK   11  A    between atoms: C16_33  and  C17_34 
REMARK   12  A    between atoms: C17_34  and  C18_35 
REMARK   13  A    between atoms: C18_35  and  P1_36 
REMARK   14  A    between atoms: P1_36  and  O4_37 
REMARK   15  A    between atoms: P1_36  and  O5_39 
ROOT
HETATM    1  C6  UNL     1      -8.723 -11.903 -13.173  1.00  0.00     0.228 C 
ENDROOT
BRANCH   1   2
HETATM    2  C5  UNL     1     -10.137 -11.592 -12.898  1.00  0.00     0.248 C 
HETATM    3  N1  UNL     1     -10.513 -11.016 -11.669  1.00  0.00    -0.359 N 
ATOM      4  H1  UNL     1      -9.807 -10.807 -10.963  1.00  0.00     0.162 HD
HETATM    5  O1  UNL     1     -11.001 -11.843 -13.764  1.00  0.00    -0.271 OA
BRANCH   3   6
HETATM    6  C4  UNL     1     -11.906 -10.722 -11.415  1.00  0.00     0.124 C 
BRANCH   6   7
HETATM    7  C3  UNL     1     -12.083  -9.896 -10.170  1.00  0.00     0.044 C 
BRANCH   7   8
HETATM    8  C2  UNL     1     -10.799  -9.760  -9.352  1.00  0.00     0.078 C 
HETATM    9  C1  UNL     1     -10.795 -10.601  -8.130  1.00  0.00     0.032 C 
BRANCH   8  10
HETATM   10  N8  UNL     1     -10.568  -8.391  -9.108  1.00  0.00    -0.398 N 
ATOM     11  H8  UNL     1     -10.188  -8.110  -8.205  1.00  0.00     0.159 HD
BRANCH  10  12
HETATM   12  C16 UNL     1     -10.842  -7.408 -10.057  1.00  0.00     0.056 C 
BRANCH  12  13
HETATM   13  C17 UNL     1      -9.851  -7.039 -11.091  1.00  0.00     0.053 C 
BRANCH  13  14
HETATM   14  C18 UNL     1      -8.454  -6.747 -10.548  1.00  0.00     0.098 C 
BRANCH  14  15
HETATM   15  P1  UNL     1      -8.019  -5.040 -11.198  1.00  0.00     0.163 P 
BRANCH  15  16
HETATM   16  O4  UNL     1      -6.710  -5.209 -12.335  1.00  0.00    -0.350 OA
ATOM     17  H4  UNL     1      -6.406  -4.340 -12.569  1.00  0.00     0.217 HD
ENDBRANCH  15  16
BRANCH  15  18
HETATM   18  O5  UNL     1      -9.354  -4.346 -12.035  1.00  0.00    -0.350 OA
ATOM     19  H5  UNL     1      -9.502  -3.451 -11.751  1.00  0.00     0.217 HD
ENDBRANCH  15  18
ENDBRANCH  14  15
ENDBRANCH  13  14
ENDBRANCH  12  13
ENDBRANCH  10  12
ENDBRANCH   8  10
ENDBRANCH   7   8
ENDBRANCH   6   7
ENDBRANCH   3   6
ENDBRANCH   1   2
BRANCH   1  20
HETATM   20  O2  UNL     1      -8.560 -13.301 -13.051  1.00  0.00    -0.384 OA
ATOM     21  H2  UNL     1      -8.458 -13.657 -13.927  1.00  0.00     0.210 HD
ENDBRANCH   1  20
BRANCH   1  22
HETATM   22  C7  UNL     1      -7.817 -11.309 -12.113  1.00  0.00     0.172 C 
BRANCH  22  23
HETATM   23  N2  UNL     1      -7.277 -10.063 -12.635  1.00  0.00    -0.325 N 
HETATM   24  C8  UNL     1      -7.913  -9.115 -13.339  1.00  0.00     0.184 A 
HETATM   25  N3  UNL     1      -7.075  -8.102 -13.638  1.00  0.00    -0.358 N 
HETATM   26  C9  UNL     1      -5.885  -8.388 -13.128  1.00  0.00     0.138 A 
ATOM     27  H3  UNL     1      -7.315  -7.262 -14.164  1.00  0.00     0.166 HD
HETATM   28  C10 UNL     1      -6.006  -9.609 -12.501  1.00  0.00     0.135 A 
BRANCH  28  29
HETATM   29  N4  UNL     1      -4.963 -10.307 -11.817  1.00  0.00    -0.242 N 
HETATM   30  C11 UNL     1      -4.178 -11.145 -12.551  1.00  0.00     0.212 A 
HETATM   31  N5  UNL     1      -3.180 -11.821 -11.942  1.00  0.00    -0.186 N 
HETATM   32  C12 UNL     1      -2.936 -11.693 -10.627  1.00  0.00     0.693 A 
ATOM     33  H5  UNL     1      -2.596 -12.448 -12.496  1.00  0.00     0.185 HD
HETATM   34  N6  UNL     1      -2.033 -12.231  -9.779  1.00  0.00    -0.200 N 
HETATM   35  N7  UNL     1      -3.714 -10.858  -9.882  1.00  0.00    -0.105 N 
HETATM   36  C13 UNL     1      -2.216 -11.762  -8.527  1.00  0.00     0.124 A 
ATOM     37  H6  UNL     1      -1.312 -12.899 -10.048  1.00  0.00     0.183 HD
HETATM   38  C14 UNL     1      -3.279 -10.900  -8.614  1.00  0.00     0.137 A 
HETATM   39  C15 UNL     1      -4.709 -10.189 -10.513  1.00  0.00     0.354 A 
HETATM   40  O3  UNL     1      -5.444  -9.405  -9.829  1.00  0.00    -0.245 OA
ENDBRANCH  28  29
ENDBRANCH  22  23
ENDBRANCH   1  22
TORSDOF 15
ENDMDL
MODEL 2
REMARK VINA RESULT: -7.244375193      0.845      1.168
REMARK  15 active torsions:
REMARK  status: ('A' for Active; 'I' for Inactive)
REMARK    1  A    between atoms: C2_2  and  C3_3 
REMARK    2  A    between atoms: C2_2  and  N8_31 
REMARK    3  A    between atoms: C3_3  and  C4_4 
REMARK    4  A    between atoms: C4_4  and  N1_5 
REMARK       I    between atoms: N1_5  and  C5_7 
REMARK    5  A    between atoms: C5_7  and  C6_9 
REMARK    6  A    between atoms: C6_9  and  O2_10 
REMARK    7  A    between atoms: C6_9  and  C7_12 
REMARK    8  A    between atoms: C7_12  and  N2_13 
REMARK    9  A    between atoms: C10_18  and  N4_19 
REMARK   10  A    between atoms: N8_31  and  C16_33 
REMARK   11  A    between atoms: C16_33  and  C17_34 
REMARK   12  A    between atoms: C17_34  and  C18_35 
REMARK   13  A    between atoms: C18_35  and  P1_36 
REMARK   14  A    between atoms: P1_36  and  O4_37 
REMARK   15  A    between atoms: P1_36  and  O5_39 
ROOT
HETATM    1  C6  UNL     1      -8.950 -11.564 -13.224  1.00  0.00     0.228 C 
ENDROOT
BRANCH   1   2
HETATM    2  C5  UNL     1     -10.354 -11.370 -12.820  1.00  0.00     0.248 C 
HETATM    3  N1  UNL     1     -10.662 -10.748 -11.594  1.00  0.00    -0.359 N 
ATOM      4  H1  UNL     1      -9.914 -10.425 -10.981  1.00  0.00     0.162 HD
HETATM    5  O1  UNL     1     -11.270 -11.762 -13.572  1.00  0.00    -0.271 OA
BRANCH   3   6
HETATM    6  C4  UNL     1     -12.045 -10.570 -11.212  1.00  0.00     0.124 C 
BRANCH   6   7
HETATM    7  C3  UNL     1     -12.207 -10.518  -9.717  1.00  0.00     0.044 C 
BRANCH   7   8
HETATM    8  C2  UNL     1     -12.602  -9.134  -9.204  1.00  0.00     0.078 C 
HETATM    9  C1  UNL     1     -13.609  -8.460 -10.060  1.00  0.00     0.032 C 
BRANCH   8  10
HETATM   10  N8  UNL     1     -11.427  -8.382  -8.998  1.00  0.00    -0.398 N 
ATOM     11  H8  UNL     1     -10.731  -8.729  -8.338  1.00  0.00     0.159 HD
BRANCH  10  12
HETATM   12  C16 UNL     1     -11.185  -7.182  -9.662  1.00  0.00     0.056 C 
BRANCH  12  13
HETATM   13  C17 UNL     1     -10.198  -7.096 -10.760  1.00  0.00     0.053 C 
BRANCH  13  14
HETATM   14  C18 UNL     1      -9.820  -5.670 -11.155  1.00  0.00     0.098 C 
BRANCH  14  15
HETATM   15  P1  UNL     1      -8.060  -5.438 -10.542  1.00  0.00     0.163 P 
BRANCH  15  16
HETATM   16  O4  UNL     1      -7.510  -6.953  -9.882  1.00  0.00    -0.350 OA
ATOM     17  H4  UNL     1      -6.714  -6.791  -9.389  1.00  0.00     0.217 HD
ENDBRANCH  15  16
BRANCH  15  18
HETATM   18  O5  UNL     1      -7.010  -5.019 -11.840  1.00  0.00    -0.350 OA
ATOM     19  H5  UNL     1      -6.206  -4.635 -11.513  1.00  0.00     0.217 HD
ENDBRANCH  15  18
ENDBRANCH  14  15
ENDBRANCH  13  14
ENDBRANCH  12  13
ENDBRANCH  10  12
ENDBRANCH   8  10
ENDBRANCH   7   8
ENDBRANCH   6   7
ENDBRANCH   3   6
ENDBRANCH   1   2
BRANCH   1  20
HETATM   20  O2  UNL     1      -8.712 -12.955 -13.291  1.00  0.00    -0.384 OA
ATOM     21  H2  UNL     1      -8.425 -13.156 -14.175  1.00  0.00     0.210 HD
ENDBRANCH   1  20
BRANCH   1  22
HETATM   22  C7  UNL     1      -7.999 -11.055 -12.160  1.00  0.00     0.172 C 
BRANCH  22  23
HETATM   23  N2  UNL     1      -7.463  -9.781 -12.613  1.00  0.00    -0.325 N 
HETATM   24  C8  UNL     1      -8.109  -8.787 -13.241  1.00  0.00     0.184 A 
HETATM   25  N3  UNL     1      -7.272  -7.761 -13.493  1.00  0.00    -0.358 N 
HETATM   26  C9  UNL     1      -6.072  -8.085 -13.030  1.00  0.00     0.138 A 
ATOM     27  H3  UNL     1      -7.517  -6.888 -13.960  1.00  0.00     0.166 HD
HETATM   28  C10 UNL     1      -6.187  -9.343 -12.479  1.00  0.00     0.135 A 
BRANCH  28  29
HETATM   29  N4  UNL     1      -5.134 -10.087 -11.864  1.00  0.00    -0.242 N 
HETATM   30  C11 UNL     1      -4.385 -10.898 -12.663  1.00  0.00     0.212 A 
HETATM   31  N5  UNL     1      -3.379 -11.617 -12.120  1.00  0.00    -0.186 N 
HETATM   32  C12 UNL     1      -3.092 -11.557 -10.809  1.00  0.00     0.693 A 
ATOM     33  H5  UNL     1      -2.821 -12.223 -12.723  1.00  0.00     0.185 HD
HETATM   34  N6  UNL     1      -2.170 -12.149 -10.018  1.00  0.00    -0.200 N 
HETATM   35  N7  UNL     1      -3.833 -10.751  -9.999  1.00  0.00    -0.105 N 
HETATM   36  C13 UNL     1      -2.307 -11.741  -8.739  1.00  0.00     0.124 A 
ATOM     37  H6  UNL     1      -1.468 -12.813 -10.343  1.00  0.00     0.183 HD
HETATM   38  C14 UNL     1      -3.359 -10.862  -8.749  1.00  0.00     0.137 A 
HETATM   39  C15 UNL     1      -4.838 -10.038 -10.565  1.00  0.00     0.354 A 
HETATM   40  O3  UNL     1      -5.538  -9.279  -9.819  1.00  0.00    -0.245 OA
ENDBRANCH  28  29
ENDBRANCH  22  23
ENDBRANCH   1  22
TORSDOF 15
ENDMDL
MODEL 3
REMARK VINA RESULT: -7.151331332      2.822      5.850
REMARK  15 active torsions:
REMARK  status: ('A' for Active; 'I' for Inactive)
REMARK    1  A    between atoms: C2_2  and  C3_3 
REMARK    2  A    between atoms: C2_2  and  N8_31 
REMARK    3  A    between atoms: C3_3  and  C4_4 
REMARK    4  A    between atoms: C4_4  and  N1_5 
REMARK       I    between atoms: N1_5  and  C5_7 
REMARK    5  A    between atoms: C5_7  and  C6_9 
REMARK    6  A    between atoms: C6_9  and  O2_10 
REMARK    7  A    between atoms: C6_9  and  C7_12 
REMARK    8  A    between atoms: C7_12  and  N2_13 
REMARK    9  A    between atoms: C10_18  and  N4_19 
REMARK   10  A    between atoms: N8_31  and  C16_33 
REMARK   11  A    between atoms: C16_33  and  C17_34 
REMARK   12  A    between atoms: C17_34  and  C18_35 
REMARK   13  A    between atoms: C18_35  and  P1_36 
REMARK   14  A    between atoms: P1_36  and  O4_37 
REMARK   15  A    between atoms: P1_36  and  O5_39 
ROOT
HETATM    1  C6  UNL     1      -7.020  -6.417 -13.068  1.00  0.00     0.228 C 
ENDROOT
BRANCH   1   2
HETATM    2  C5  UNL     1      -7.669  -5.663 -11.981  1.00  0.00     0.248 C 
HETATM    3  N1  UNL     1      -8.993  -5.962 -11.601  1.00  0.00    -0.359 N 
ATOM      4  H1  UNL     1      -9.508  -6.704 -12.075  1.00  0.00     0.162 HD
HETATM    5  O1  UNL     1      -7.038  -4.758 -11.399  1.00  0.00    -0.271 OA
BRANCH   3   6
HETATM    6  C4  UNL     1      -9.616  -5.209 -10.535  1.00  0.00     0.124 C 
BRANCH   6   7
HETATM    7  C3  UNL     1     -11.063  -5.583 -10.362  1.00  0.00     0.044 C 
BRANCH   7   8
HETATM    8  C2  UNL     1     -11.746  -5.963 -11.675  1.00  0.00     0.078 C 
HETATM    9  C1  UNL     1     -12.855  -5.048 -12.040  1.00  0.00     0.032 C 
BRANCH   8  10
HETATM   10  N8  UNL     1     -12.121  -7.320 -11.607  1.00  0.00    -0.398 N 
ATOM     11  H8  UNL     1     -12.846  -7.598 -10.945  1.00  0.00     0.159 HD
BRANCH  10  12
HETATM   12  C16 UNL     1     -11.536  -8.296 -12.411  1.00  0.00     0.056 C 
BRANCH  12  13
HETATM   13  C17 UNL     1     -11.544  -8.184 -13.886  1.00  0.00     0.053 C 
BRANCH  13  14
HETATM   14  C18 UNL     1     -11.161  -9.469 -14.616  1.00  0.00     0.098 C 
BRANCH  14  15
HETATM   15  P1  UNL     1     -12.274  -9.530 -16.127  1.00  0.00     0.163 P 
BRANCH  15  16
HETATM   16  O4  UNL     1     -11.621  -8.448 -17.327  1.00  0.00    -0.350 OA
ATOM     17  H4  UNL     1     -12.346  -8.046 -17.789  1.00  0.00     0.217 HD
ENDBRANCH  15  16
BRANCH  15  18
HETATM   18  O5  UNL     1     -12.299 -11.112 -16.805  1.00  0.00    -0.350 OA
ATOM     19  H5  UNL     1     -13.122 -11.275 -17.250  1.00  0.00     0.217 HD
ENDBRANCH  15  18
ENDBRANCH  14  15
ENDBRANCH  13  14
ENDBRANCH  12  13
ENDBRANCH  10  12
ENDBRANCH   8  10
ENDBRANCH   7   8
ENDBRANCH   6   7
ENDBRANCH   3   6
ENDBRANCH   1   2
BRANCH   1  20
HETATM   20  O2  UNL     1      -7.380  -5.804 -14.290  1.00  0.00    -0.384 OA
ATOM     21  H2  UNL     1      -6.635  -5.869 -14.876  1.00  0.00     0.210 HD
ENDBRANCH   1  20
BRANCH   1  22
HETATM   22  C7  UNL     1      -7.568  -7.826 -13.161  1.00  0.00     0.172 C 
BRANCH  22  23
HETATM   23  N2  UNL     1      -6.577  -8.729 -12.596  1.00  0.00    -0.325 N 
HETATM   24  C8  UNL     1      -5.328  -8.963 -13.028  1.00  0.00     0.184 A 
HETATM   25  N3  UNL     1      -4.713  -9.864 -12.236  1.00  0.00    -0.358 N 
HETATM   26  C9  UNL     1      -5.561 -10.220 -11.281  1.00  0.00     0.138 A 
ATOM     27  H3  UNL     1      -3.760 -10.210 -12.351  1.00  0.00     0.166 HD
HETATM   28  C10 UNL     1      -6.724  -9.515 -11.501  1.00  0.00     0.135 A 
BRANCH  28  29
HETATM   29  N4  UNL     1      -7.912  -9.592 -10.712  1.00  0.00    -0.242 N 
HETATM   30  C11 UNL     1      -8.786 -10.602 -10.984  1.00  0.00     0.212 A 
HETATM   31  N5  UNL     1      -9.920 -10.711 -10.259  1.00  0.00    -0.186 N 
HETATM   32  C12 UNL     1     -10.216  -9.848  -9.271  1.00  0.00     0.693 A 
ATOM     33  H5  UNL     1     -10.571 -11.468 -10.467  1.00  0.00     0.185 HD
HETATM   34  N6  UNL     1     -11.248  -9.720  -8.409  1.00  0.00    -0.200 N 
HETATM   35  N7  UNL     1      -9.351  -8.834  -8.989  1.00  0.00    -0.105 N 
HETATM   36  C13 UNL     1     -11.061  -8.662  -7.595  1.00  0.00     0.124 A 
ATOM     37  H6  UNL     1     -12.057 -10.340  -8.378  1.00  0.00     0.183 HD
HETATM   38  C14 UNL     1      -9.861  -8.117  -7.977  1.00  0.00     0.137 A 
HETATM   39  C15 UNL     1      -8.219  -8.744  -9.729  1.00  0.00     0.354 A 
HETATM   40  O3  UNL     1      -7.401  -7.801  -9.476  1.00  0.00    -0.245 OA
ENDBRANCH  28  29
ENDBRANCH  22  23
ENDBRANCH   1  22
TORSDOF 15
ENDMDL
MODEL 4
REMARK VINA RESULT: -7.123539382      2.999      5.207
REMARK  15 active torsions:
REMARK  status: ('A' for Active; 'I' for Inactive)
REMARK    1  A    between atoms: C2_2  and  C3_3 
REMARK    2  A    between atoms: C2_2  and  N8_31 
REMARK    3  A    between atoms: C3_3  and  C4_4 
REMARK    4  A    between atoms: C4_4  and  N1_5 
REMARK       I    between atoms: N1_5  and  C5_7 
REMARK    5  A    between atoms: C5_7  and  C6_9 
REMARK    6  A    between atoms: C6_9  and  O2_10 
REMARK    7  A    between atoms: C6_9  and  C7_12 
REMARK    8  A    between atoms: C7_12  and  N2_13 
REMARK    9  A    between atoms: C10_18  and  N4_19 
REMARK   10  A    between atoms: N8_31  and  C16_33 
REMARK   11  A    between atoms: C16_33  and  C17_34 
REMARK   12  A    between atoms: C17_34  and  C18_35 
REMARK   13  A    between atoms: C18_35  and  P1_36 
REMARK   14  A    between atoms: P1_36  and  O4_37 
REMARK   15  A    between atoms: P1_36  and  O5_39 
ROOT
HETATM    1  C6  UNL     1      -7.388  -6.593 -12.251  1.00  0.00     0.228 C 
ENDROOT
BRANCH   1   2
HETATM    2  C5  UNL     1      -8.004  -5.515 -11.457  1.00  0.00     0.248 C 
HETATM    3  N1  UNL     1      -7.639  -5.327 -10.109  1.00  0.00    -0.359 N 
ATOM      4  H1  UNL     1      -6.943  -5.935  -9.677  1.00  0.00     0.162 HD
HETATM    5  O1  UNL     1      -8.852  -4.768 -11.988  1.00  0.00    -0.271 OA
BRANCH   3   6
HETATM    6  C4  UNL     1      -8.257  -4.267  -9.344  1.00  0.00     0.124 C 
BRANCH   6   7
HETATM    7  C3  UNL     1      -7.384  -3.824  -8.202  1.00  0.00     0.044 C 
BRANCH   7   8
HETATM    8  C2  UNL     1      -8.115  -3.804  -6.860  1.00  0.00     0.078 C 
HETATM    9  C1  UNL     1      -7.540  -2.832  -5.898  1.00  0.00     0.032 C 
BRANCH   8  10
HETATM   10  N8  UNL     1      -8.186  -5.124  -6.370  1.00  0.00    -0.398 N 
ATOM     11  H8  UNL     1      -7.430  -5.772  -6.591  1.00  0.00     0.159 HD
BRANCH  10  12
HETATM   12  C16 UNL     1      -9.251  -5.575  -5.594  1.00  0.00     0.056 C 
BRANCH  12  13
HETATM   13  C17 UNL     1      -9.672  -6.992  -5.612  1.00  0.00     0.053 C 
BRANCH  13  14
HETATM   14  C18 UNL     1      -8.526  -7.990  -5.456  1.00  0.00     0.098 C 
BRANCH  14  15
HETATM   15  P1  UNL     1      -8.396  -8.856  -7.117  1.00  0.00     0.163 P 
BRANCH  15  16
HETATM   16  O4  UNL     1      -8.291  -7.639  -8.359  1.00  0.00    -0.350 OA
ATOM     17  H4  UNL     1      -9.174  -7.373  -8.588  1.00  0.00     0.217 HD
ENDBRANCH  15  16
BRANCH  15  18
HETATM   18  O5  UNL     1      -6.966  -9.812  -7.198  1.00  0.00    -0.350 OA
ATOM     19  H5  UNL     1      -7.123 -10.613  -7.682  1.00  0.00     0.217 HD
ENDBRANCH  15  18
ENDBRANCH  14  15
ENDBRANCH  13  14
ENDBRANCH  12  13
ENDBRANCH  10  12
ENDBRANCH   8  10
ENDBRANCH   7   8
ENDBRANCH   6   7
ENDBRANCH   3   6
ENDBRANCH   1   2
BRANCH   1  20
HETATM   20  O2  UNL     1      -6.661  -5.990 -13.302  1.00  0.00    -0.384 OA
ATOM     21  H2  UNL     1      -7.098  -6.209 -14.118  1.00  0.00     0.210 HD
ENDBRANCH   1  20
BRANCH   1  22
HETATM   22  C7  UNL     1      -8.443  -7.437 -12.939  1.00  0.00     0.172 C 
BRANCH  22  23
HETATM   23  N2  UNL     1      -9.097  -8.248 -11.924  1.00  0.00    -0.325 N 
HETATM   24  C8  UNL     1     -10.257  -8.008 -11.293  1.00  0.00     0.184 A 
HETATM   25  N3  UNL     1     -10.535  -8.997 -10.421  1.00  0.00    -0.358 N 
HETATM   26  C9  UNL     1      -9.555  -9.888 -10.479  1.00  0.00     0.138 A 
ATOM     27  H3  UNL     1     -11.358  -9.052  -9.820  1.00  0.00     0.166 HD
HETATM   28  C10 UNL     1      -8.656  -9.425 -11.416  1.00  0.00     0.135 A 
BRANCH  28  29
HETATM   29  N4  UNL     1      -7.440 -10.070 -11.800  1.00  0.00    -0.242 N 
HETATM   30  C11 UNL     1      -7.474 -10.877 -12.898  1.00  0.00     0.212 A 
HETATM   31  N5  UNL     1      -6.346 -11.504 -13.295  1.00  0.00    -0.186 N 
HETATM   32  C12 UNL     1      -5.183 -11.355 -12.638  1.00  0.00     0.693 A 
ATOM     33  H5  UNL     1      -6.377 -12.107 -14.117  1.00  0.00     0.185 HD
HETATM   34  N6  UNL     1      -3.936 -11.846 -12.806  1.00  0.00    -0.200 N 
HETATM   35  N7  UNL     1      -5.136 -10.551 -11.539  1.00  0.00    -0.105 N 
HETATM   36  C13 UNL     1      -3.107 -11.378 -11.851  1.00  0.00     0.124 A 
ATOM     37  H6  UNL     1      -3.660 -12.483 -13.552  1.00  0.00     0.183 HD
HETATM   38  C14 UNL     1      -3.882 -10.565 -11.063  1.00  0.00     0.137 A 
HETATM   39  C15 UNL     1      -6.280  -9.932 -11.158  1.00  0.00     0.354 A 
HETATM   40  O3  UNL     1      -6.249  -9.177 -10.132  1.00  0.00    -0.245 OA
ENDBRANCH  28  29
ENDBRANCH  22  23
ENDBRANCH   1  22
TORSDOF 15
ENDMDL
MODEL 5
REMARK VINA RESULT: -7.067886903      3.111      7.735
REMARK  15 active torsions:
REMARK  status: ('A' for Active; 'I' for Inactive)
REMARK    1  A    between atoms: C2_2  and  C3_3 
REMARK    2  A    between atoms: C2_2  and  N8_31 
REMARK    3  A    between atoms: C3_3  and  C4_4 
REMARK    4  A    between atoms: C4_4  and  N1_5 
REMARK       I    between atoms: N1_5  and  C5_7 
REMARK    5  A    between atoms: C5_7  and  C6_9 
REMARK    6  A    between atoms: C6_9  and  O2_10 
REMARK    7  A    between atoms: C6_9  and  C7_12 
REMARK    8  A    between atoms: C7_12  and  N2_13 
REMARK    9  A    between atoms: C10_18  and  N4_19 
REMARK   10  A    between atoms: N8_31  and  C16_33 
REMARK   11  A    between atoms: C16_33  and  C17_34 
REMARK   12  A    between atoms: C17_34  and  C18_35 
REMARK   13  A    between atoms: C18_35  and  P1_36 
REMARK   14  A    between atoms: P1_36  and  O4_37 
REMARK   15  A    between atoms: P1_36  and  O5_39 
ROOT
HETATM    1  C6  UNL     1      -8.959  -5.788 -10.766  1.00  0.00     0.228 C 
ENDROOT
BRANCH   1   2
HETATM    2  C5  UNL     1      -8.015  -6.846 -11.166  1.00  0.00     0.248 C 
HETATM    3  N1  UNL     1      -7.811  -7.138 -12.530  1.00  0.00    -0.359 N 
ATOM      4  H1  UNL     1      -8.314  -6.617 -13.247  1.00  0.00     0.162 HD
HETATM    5  O1  UNL     1      -7.396  -7.482 -10.289  1.00  0.00    -0.271 OA
BRANCH   3   6
HETATM    6  C4  UNL     1      -6.885  -8.184 -12.904  1.00  0.00     0.124 C 
BRANCH   6   7
HETATM    7  C3  UNL     1      -7.524  -9.194 -13.816  1.00  0.00     0.044 C 
BRANCH   7   8
HETATM    8  C2  UNL     1      -7.404 -10.628 -13.302  1.00  0.00     0.078 C 
HETATM    9  C1  UNL     1      -7.936 -10.801 -11.929  1.00  0.00     0.032 C 
BRANCH   8  10
HETATM   10  N8  UNL     1      -6.067 -11.048 -13.458  1.00  0.00    -0.398 N 
ATOM     11  H8  UNL     1      -5.627 -10.959 -14.374  1.00  0.00     0.159 HD
BRANCH  10  12
HETATM   12  C16 UNL     1      -5.326 -11.580 -12.405  1.00  0.00     0.056 C 
BRANCH  12  13
HETATM   13  C17 UNL     1      -4.487 -10.721 -11.543  1.00  0.00     0.053 C 
BRANCH  13  14
HETATM   14  C18 UNL     1      -3.016 -10.667 -11.949  1.00  0.00     0.098 C 
BRANCH  14  15
HETATM   15  P1  UNL     1      -2.553 -12.439 -12.363  1.00  0.00     0.163 P 
BRANCH  15  16
HETATM   16  O4  UNL     1      -1.123 -12.409 -13.358  1.00  0.00    -0.350 OA
ATOM     17  H4  UNL     1      -0.966 -13.290 -13.677  1.00  0.00     0.217 HD
ENDBRANCH  15  16
BRANCH  15  18
HETATM   18  O5  UNL     1      -2.179 -13.323 -10.934  1.00  0.00    -0.350 OA
ATOM     19  H5  UNL     1      -2.961 -13.717 -10.566  1.00  0.00     0.217 HD
ENDBRANCH  15  18
ENDBRANCH  14  15
ENDBRANCH  13  14
ENDBRANCH  12  13
ENDBRANCH  10  12
ENDBRANCH   8  10
ENDBRANCH   7   8
ENDBRANCH   6   7
ENDBRANCH   3   6
ENDBRANCH   1   2
BRANCH   1  20
HETATM   20  O2  UNL     1      -8.201  -4.652 -10.401  1.00  0.00    -0.384 OA
ATOM     21  H2  UNL     1      -8.797  -3.914 -10.343  1.00  0.00     0.210 HD
ENDBRANCH   1  20
BRANCH   1  22
HETATM   22  C7  UNL     1      -9.714  -6.174  -9.510  1.00  0.00     0.172 C 
BRANCH  22  23
HETATM   23  N2  UNL     1     -11.101  -5.771  -9.681  1.00  0.00    -0.325 N 
HETATM   24  C8  UNL     1     -11.694  -4.644  -9.258  1.00  0.00     0.184 A 
HETATM   25  N3  UNL     1     -12.994  -4.629  -9.614  1.00  0.00    -0.358 N 
HETATM   26  C9  UNL     1     -13.254  -5.750 -10.271  1.00  0.00     0.138 A 
ATOM     27  H3  UNL     1     -13.661  -3.884  -9.413  1.00  0.00     0.166 HD
HETATM   28  C10 UNL     1     -12.077  -6.465 -10.316  1.00  0.00     0.135 A 
BRANCH  28  29
HETATM   29  N4  UNL     1     -11.896  -7.744 -10.928  1.00  0.00    -0.242 N 
HETATM   30  C11 UNL     1     -12.015  -8.845 -10.134  1.00  0.00     0.212 A 
HETATM   31  N5  UNL     1     -11.853 -10.072 -10.675  1.00  0.00    -0.186 N 
HETATM   32  C12 UNL     1     -11.576 -10.242 -11.979  1.00  0.00     0.693 A 
ATOM     33  H5  UNL     1     -11.942 -10.893 -10.076  1.00  0.00     0.185 HD
HETATM   34  N6  UNL     1     -11.369 -11.320 -12.766  1.00  0.00    -0.200 N 
HETATM   35  N7  UNL     1     -11.454  -9.148 -12.783  1.00  0.00    -0.105 N 
HETATM   36  C13 UNL     1     -11.121 -10.942 -14.037  1.00  0.00     0.124 A 
ATOM     37  H6  UNL     1     -11.395 -12.286 -12.443  1.00  0.00     0.183 HD
HETATM   38  C14 UNL     1     -11.179  -9.571 -14.026  1.00  0.00     0.137 A 
HETATM   39  C15 UNL     1     -11.621  -7.927 -12.220  1.00  0.00     0.354 A 
HETATM   40  O3  UNL     1     -11.511  -6.896 -12.961  1.00  0.00    -0.245 OA
ENDBRANCH  28  29
ENDBRANCH  22  23
ENDBRANCH   1  22
TORSDOF 15
ENDMDL
