MODEL 1
REMARK VINA RESULT: -7.507111122      0.000      0.000
REMARK  3 active torsions:
REMARK  status: ('A' for Active; 'I' for Inactive)
REMARK       I    between atoms: C1_2  and  N2_4 
REMARK       I    between atoms: N2_4  and  C2_6 
REMARK    1  A    between atoms: C2_6  and  C3_8 
REMARK    2  A    between atoms: N5_17  and  N6_19 
REMARK       I    between atoms: C5_21  and  N8_23 
REMARK    3  A    between atoms: N8_23  and  N9_25 
ROOT
HETATM    1  C3  UNL     1       5.118 -11.865   5.263  1.00  0.00     0.256 C 
HETATM    2  N3  UNL     1       5.984 -10.669   5.487  1.00  0.00    -0.281 N 
ATOM      3  H3  UNL     1       6.060  -9.773   5.007  1.00  0.00     0.175 HD
HETATM    4  S1  UNL     1       6.831 -11.353   6.881  1.00  0.00     0.321 S 
HETATM    5  O3  UNL     1       7.361 -10.294   7.761  1.00  0.00    -0.182 OA
HETATM    6  O4  UNL     1       7.858 -12.267   6.327  1.00  0.00    -0.182 OA
HETATM    7  N4  UNL     1       5.474 -12.183   7.549  1.00  0.00    -0.253 N 
ATOM      8  H4  UNL     1       5.428 -12.709   8.421  1.00  0.00     0.181 HD
HETATM    9  C4  UNL     1       4.440 -11.965   6.610  1.00  0.00     0.140 C 
HETATM   10  N5  UNL     1       3.162 -11.854   6.840  1.00  0.00    -0.284 N 
ATOM     11  H5  UNL     1       2.524 -11.683   6.063  1.00  0.00     0.188 HD
ENDROOT
BRANCH   1  12
HETATM   12  C2  UNL     1       4.196 -11.659   4.178  1.00  0.00     0.256 C 
HETATM   13  N2  UNL     1       4.146 -12.504   3.054  1.00  0.00    -0.280 N 
HETATM   14  C1  UNL     1       4.999 -13.586   2.767  1.00  0.00     0.335 C 
ATOM     15  H2  UNL     1       3.411 -12.312   2.373  1.00  0.00     0.173 HD
HETATM   16  N1  UNL     1       4.821 -14.342   1.577  1.00  0.00    -0.040 NA
HETATM   17  O1  UNL     1       5.935 -13.932   3.520  1.00  0.00    -0.251 OA
HETATM   18  O2  UNL     1       3.394 -10.683   4.226  1.00  0.00    -0.270 OA
ENDBRANCH   1  12
BRANCH  10  19
HETATM   19  N6  UNL     1       2.655 -11.967   8.133  1.00  0.00    -0.271 N 
HETATM   20  C5  UNL     1       2.511 -13.110   8.680  1.00  0.00     0.226 C 
HETATM   21  N7  UNL     1       2.878 -14.283   7.947  1.00  0.00    -0.060 NA
HETATM   22  N8  UNL     1       1.988 -13.214  10.009  1.00  0.00    -0.212 N 
ATOM     23  H8  UNL     1       2.596 -13.016  10.804  1.00  0.00     0.196 HD
ATOM     24  H6  UNL     1       2.397 -11.125   8.648  1.00  0.00     0.189 HD
BRANCH  22  25
HETATM   25  N9  UNL     1       0.663 -13.579  10.232  1.00  0.00    -0.036 N 
HETATM   26  O5  UNL     1       0.139 -13.256  11.314  1.00  0.00    -0.516 OA
HETATM   27  O6  UNL     1      -0.023 -14.273   9.279  1.00  0.00    -0.516 OA
ENDBRANCH  22  25
ENDBRANCH  10  19
TORSDOF 3
ENDMDL
MODEL 2
REMARK VINA RESULT: -7.502281752      1.896      2.288
REMARK  3 active torsions:
REMARK  status: ('A' for Active; 'I' for Inactive)
REMARK       I    between atoms: C1_2  and  N2_4 
REMARK       I    between atoms: N2_4  and  C2_6 
REMARK    1  A    between atoms: C2_6  and  C3_8 
REMARK    2  A    between atoms: N5_17  and  N6_19 
REMARK       I    between atoms: C5_21  and  N8_23 
REMARK    3  A    between atoms: N8_23  and  N9_25 
ROOT
HETATM    1  C3  UNL     1       4.620 -11.962   4.110  1.00  0.00     0.256 C 
HETATM    2  N3  UNL     1       3.944 -10.779   3.498  1.00  0.00    -0.281 N 
ATOM      3  H3  UNL     1       3.325 -10.678   2.694  1.00  0.00     0.175 HD
HETATM    4  S1  UNL     1       4.597  -9.614   4.658  1.00  0.00     0.321 S 
HETATM    5  O3  UNL     1       3.730  -8.424   4.769  1.00  0.00    -0.182 OA
HETATM    6  O4  UNL     1       5.982  -9.329   4.215  1.00  0.00    -0.182 OA
HETATM    7  N4  UNL     1       4.524 -10.646   6.037  1.00  0.00    -0.253 N 
ATOM      8  H4  UNL     1       4.750 -10.417   7.005  1.00  0.00     0.181 HD
HETATM    9  C4  UNL     1       4.078 -11.884   5.519  1.00  0.00     0.140 C 
HETATM   10  N5  UNL     1       3.339 -12.779   6.111  1.00  0.00    -0.284 N 
ATOM     11  H5  UNL     1       3.079 -13.628   5.610  1.00  0.00     0.188 HD
ENDROOT
BRANCH   1  12
HETATM   12  C2  UNL     1       4.270 -13.183   3.435  1.00  0.00     0.256 C 
HETATM   13  N2  UNL     1       4.735 -13.497   2.145  1.00  0.00    -0.280 N 
HETATM   14  C1  UNL     1       5.508 -12.679   1.298  1.00  0.00     0.335 C 
ATOM     15  H2  UNL     1       4.485 -14.417   1.782  1.00  0.00     0.173 HD
HETATM   16  N1  UNL     1       5.892 -13.142   0.011  1.00  0.00    -0.040 NA
HETATM   17  O1  UNL     1       5.887 -11.533   1.623  1.00  0.00    -0.251 OA
HETATM   18  O2  UNL     1       3.515 -14.016   4.015  1.00  0.00    -0.270 OA
ENDBRANCH   1  12
BRANCH  10  19
HETATM   19  N6  UNL     1       2.900 -12.592   7.421  1.00  0.00    -0.271 N 
HETATM   20  C5  UNL     1       2.740 -13.587   8.203  1.00  0.00     0.226 C 
HETATM   21  N7  UNL     1       3.020 -14.905   7.720  1.00  0.00    -0.060 NA
HETATM   22  N8  UNL     1       2.288 -13.382   9.546  1.00  0.00    -0.212 N 
ATOM     23  H8  UNL     1       2.946 -13.054  10.253  1.00  0.00     0.196 HD
ATOM     24  H6  UNL     1       2.705 -11.649   7.757  1.00  0.00     0.189 HD
BRANCH  22  25
HETATM   25  N9  UNL     1       0.963 -13.626   9.902  1.00  0.00    -0.036 N 
HETATM   26  O5  UNL     1       0.595 -13.309  11.048  1.00  0.00    -0.516 OA
HETATM   27  O6  UNL     1       0.110 -14.196   9.004  1.00  0.00    -0.516 OA
ENDBRANCH  22  25
ENDBRANCH  10  19
TORSDOF 3
ENDMDL
MODEL 3
REMARK VINA RESULT: -7.315994484      2.417      4.177
REMARK  3 active torsions:
REMARK  status: ('A' for Active; 'I' for Inactive)
REMARK       I    between atoms: C1_2  and  N2_4 
REMARK       I    between atoms: N2_4  and  C2_6 
REMARK    1  A    between atoms: C2_6  and  C3_8 
REMARK    2  A    between atoms: N5_17  and  N6_19 
REMARK       I    between atoms: C5_21  and  N8_23 
REMARK    3  A    between atoms: N8_23  and  N9_25 
ROOT
HETATM    1  C3  UNL     1       5.723 -10.780   4.088  1.00  0.00     0.256 C 
HETATM    2  N3  UNL     1       6.470 -12.000   3.657  1.00  0.00    -0.281 N 
ATOM      3  H3  UNL     1       7.400 -12.354   3.880  1.00  0.00     0.175 HD
HETATM    4  S1  UNL     1       5.172 -12.615   2.624  1.00  0.00     0.321 S 
HETATM    5  O3  UNL     1       5.264 -14.079   2.461  1.00  0.00    -0.182 OA
HETATM    6  O4  UNL     1       5.258 -11.847   1.360  1.00  0.00    -0.182 OA
HETATM    7  N4  UNL     1       3.865 -12.119   3.633  1.00  0.00    -0.253 N 
ATOM      8  H4  UNL     1       2.869 -12.292   3.499  1.00  0.00     0.181 HD
HETATM    9  C4  UNL     1       4.490 -11.415   4.688  1.00  0.00     0.140 C 
HETATM   10  N5  UNL     1       4.107 -11.333   5.930  1.00  0.00    -0.284 N 
ATOM     11  H5  UNL     1       4.666 -10.798   6.595  1.00  0.00     0.188 HD
ENDROOT
BRANCH   1  12
HETATM   12  C2  UNL     1       6.477 -10.002   5.034  1.00  0.00     0.256 C 
HETATM   13  N2  UNL     1       6.454  -8.595   5.049  1.00  0.00    -0.280 N 
HETATM   14  C1  UNL     1       5.796  -7.747   4.138  1.00  0.00     0.335 C 
ATOM     15  H2  UNL     1       6.969  -8.139   5.803  1.00  0.00     0.173 HD
HETATM   16  N1  UNL     1       5.876  -6.336   4.286  1.00  0.00    -0.040 NA
HETATM   17  O1  UNL     1       5.125  -8.176   3.174  1.00  0.00    -0.251 OA
HETATM   18  O2  UNL     1       7.193 -10.594   5.891  1.00  0.00    -0.270 OA
ENDBRANCH   1  12
BRANCH  10  19
HETATM   19  N6  UNL     1       2.944 -11.966   6.365  1.00  0.00    -0.271 N 
HETATM   20  C5  UNL     1       2.640 -11.992   7.603  1.00  0.00     0.226 C 
HETATM   21  N7  UNL     1       3.510 -11.360   8.547  1.00  0.00    -0.060 NA
HETATM   22  N8  UNL     1       1.442 -12.646   8.038  1.00  0.00    -0.212 N 
ATOM     23  H8  UNL     1       0.544 -12.176   7.925  1.00  0.00     0.196 HD
ATOM     24  H6  UNL     1       2.329 -12.412   5.684  1.00  0.00     0.189 HD
BRANCH  22  25
HETATM   25  N9  UNL     1       1.486 -13.915   8.612  1.00  0.00    -0.036 N 
HETATM   26  O5  UNL     1       2.402 -14.684   8.267  1.00  0.00    -0.516 OA
HETATM   27  O6  UNL     1       0.542 -14.283   9.524  1.00  0.00    -0.516 OA
ENDBRANCH  22  25
ENDBRANCH  10  19
TORSDOF 3
ENDMDL
MODEL 4
REMARK VINA RESULT: -7.194378984      2.581      3.005
REMARK  3 active torsions:
REMARK  status: ('A' for Active; 'I' for Inactive)
REMARK       I    between atoms: C1_2  and  N2_4 
REMARK       I    between atoms: N2_4  and  C2_6 
REMARK    1  A    between atoms: C2_6  and  C3_8 
REMARK    2  A    between atoms: N5_17  and  N6_19 
REMARK       I    between atoms: C5_21  and  N8_23 
REMARK    3  A    between atoms: N8_23  and  N9_25 
ROOT
HETATM    1  C3  UNL     1       4.833 -11.940   3.749  1.00  0.00     0.256 C 
HETATM    2  N3  UNL     1       3.813 -10.890   3.450  1.00  0.00    -0.281 N 
ATOM      3  H3  UNL     1       2.903 -10.923   2.992  1.00  0.00     0.175 HD
HETATM    4  S1  UNL     1       4.741  -9.568   4.173  1.00  0.00     0.321 S 
HETATM    5  O3  UNL     1       3.858  -8.469   4.609  1.00  0.00    -0.182 OA
HETATM    6  O4  UNL     1       5.755  -9.182   3.165  1.00  0.00    -0.182 OA
HETATM    7  N4  UNL     1       5.397 -10.480   5.482  1.00  0.00    -0.253 N 
ATOM      8  H4  UNL     1       5.982 -10.146   6.247  1.00  0.00     0.181 HD
HETATM    9  C4  UNL     1       4.938 -11.797   5.249  1.00  0.00     0.140 C 
HETATM   10  N5  UNL     1       4.645 -12.709   6.133  1.00  0.00    -0.284 N 
ATOM     11  H5  UNL     1       4.309 -13.620   5.823  1.00  0.00     0.188 HD
ENDROOT
BRANCH   1  12
HETATM   12  C2  UNL     1       4.391 -13.244   3.333  1.00  0.00     0.256 C 
HETATM   13  N2  UNL     1       4.682 -13.776   2.063  1.00  0.00    -0.280 N 
HETATM   14  C1  UNL     1       5.345 -13.127   1.003  1.00  0.00     0.335 C 
ATOM     15  H2  UNL     1       4.382 -14.735   1.892  1.00  0.00     0.173 HD
HETATM   16  N1  UNL     1       5.557 -13.803  -0.228  1.00  0.00    -0.040 NA
HETATM   17  O1  UNL     1       5.770 -11.955   1.084  1.00  0.00    -0.251 OA
HETATM   18  O2  UNL     1       3.712 -13.951   4.133  1.00  0.00    -0.270 OA
ENDBRANCH   1  12
BRANCH  10  19
HETATM   19  N6  UNL     1       4.785 -12.455   7.496  1.00  0.00    -0.271 N 
HETATM   20  C5  UNL     1       3.877 -12.804   8.321  1.00  0.00     0.226 C 
HETATM   21  N7  UNL     1       2.706 -13.464   7.829  1.00  0.00    -0.060 NA
HETATM   22  N8  UNL     1       4.031 -12.539   9.719  1.00  0.00    -0.212 N 
ATOM     23  H8  UNL     1       4.638 -13.137  10.281  1.00  0.00     0.196 HD
ATOM     24  H6  UNL     1       5.624 -11.986   7.838  1.00  0.00     0.189 HD
BRANCH  22  25
HETATM   25  N9  UNL     1       3.367 -11.474  10.325  1.00  0.00    -0.036 N 
HETATM   26  O5  UNL     1       2.843 -10.615   9.591  1.00  0.00    -0.516 OA
HETATM   27  O6  UNL     1       3.304 -11.395  11.684  1.00  0.00    -0.516 OA
ENDBRANCH  22  25
ENDBRANCH  10  19
TORSDOF 3
ENDMDL
MODEL 5
REMARK VINA RESULT: -7.144609297      2.903      5.826
REMARK  3 active torsions:
REMARK  status: ('A' for Active; 'I' for Inactive)
REMARK       I    between atoms: C1_2  and  N2_4 
REMARK       I    between atoms: N2_4  and  C2_6 
REMARK    1  A    between atoms: C2_6  and  C3_8 
REMARK    2  A    between atoms: N5_17  and  N6_19 
REMARK       I    between atoms: C5_21  and  N8_23 
REMARK    3  A    between atoms: N8_23  and  N9_25 
ROOT
HETATM    1  C3  UNL     1       4.413 -12.987   6.317  1.00  0.00     0.256 C 
HETATM    2  N3  UNL     1       4.539 -13.026   7.805  1.00  0.00    -0.281 N 
ATOM      3  H3  UNL     1       5.299 -13.302   8.425  1.00  0.00     0.175 HD
HETATM    4  S1  UNL     1       2.903 -12.426   8.111  1.00  0.00     0.321 S 
HETATM    5  O3  UNL     1       2.811 -11.769   9.430  1.00  0.00    -0.182 OA
HETATM    6  O4  UNL     1       2.003 -13.589   7.937  1.00  0.00    -0.182 OA
HETATM    7  N4  UNL     1       2.848 -11.320   6.789  1.00  0.00    -0.253 N 
ATOM      8  H4  UNL     1       2.104 -10.665   6.550  1.00  0.00     0.181 HD
HETATM    9  C4  UNL     1       4.071 -11.530   6.111  1.00  0.00     0.140 C 
HETATM   10  N5  UNL     1       4.780 -10.657   5.454  1.00  0.00    -0.284 N 
ATOM     11  H5  UNL     1       5.658 -10.944   5.022  1.00  0.00     0.188 HD
ENDROOT
BRANCH   1  12
HETATM   12  C2  UNL     1       5.636 -13.380   5.669  1.00  0.00     0.256 C 
HETATM   13  N2  UNL     1       5.689 -13.768   4.318  1.00  0.00    -0.280 N 
HETATM   14  C1  UNL     1       4.602 -13.919   3.435  1.00  0.00     0.335 C 
ATOM     15  H2  UNL     1       6.614 -13.962   3.935  1.00  0.00     0.173 HD
HETATM   16  N1  UNL     1       4.822 -14.329   2.092  1.00  0.00    -0.040 NA
HETATM   17  O1  UNL     1       3.417 -13.707   3.773  1.00  0.00    -0.251 OA
HETATM   18  O2  UNL     1       6.714 -13.379   6.330  1.00  0.00    -0.270 OA
ENDBRANCH   1  12
BRANCH  10  19
HETATM   19  N6  UNL     1       4.356  -9.335   5.334  1.00  0.00    -0.271 N 
HETATM   20  C5  UNL     1       4.288  -8.773   4.191  1.00  0.00     0.226 C 
HETATM   21  N7  UNL     1       4.653  -9.520   3.026  1.00  0.00    -0.060 NA
HETATM   22  N8  UNL     1       3.852  -7.414   4.079  1.00  0.00    -0.212 N 
ATOM     23  H8  UNL     1       2.856  -7.200   4.138  1.00  0.00     0.196 HD
ATOM     24  H6  UNL     1       4.097  -8.811   6.170  1.00  0.00     0.189 HD
BRANCH  22  25
HETATM   25  N9  UNL     1       4.766  -6.380   3.892  1.00  0.00    -0.036 N 
HETATM   26  O5  UNL     1       4.367  -5.335   3.347  1.00  0.00    -0.516 OA
HETATM   27  O6  UNL     1       6.058  -6.530   4.302  1.00  0.00    -0.516 OA
ENDBRANCH  22  25
ENDBRANCH  10  19
TORSDOF 3
ENDMDL
