MODEL 1
REMARK VINA RESULT: -7.540440242      0.000      0.000
REMARK  4 active torsions:
REMARK  status: ('A' for Active; 'I' for Inactive)
REMARK    1  A    between atoms: N1_1  and  N2_4 
REMARK    2  A    between atoms: N2_4  and  C1_5 
REMARK    3  A    between atoms: C1_5  and  C2_6 
REMARK       I    between atoms: C2_6  and  N3_8 
REMARK       I    between atoms: N3_8  and  C3_10 
REMARK       I    between atoms: C3_10  and  N4_11 
REMARK       I    between atoms: C3_10  and  N5_15 
REMARK    4  A    between atoms: N5_15  and  C4_17 
ROOT
HETATM    1  C4  UNL     1       3.147 -12.757   8.245  1.00  0.00     0.124 A 
HETATM    2  N6  UNL     1       1.964 -13.379   8.130  1.00  0.00    -0.338 N 
ATOM      3  H6  UNL     1       1.640 -13.680   7.211  1.00  0.00     0.168 HD
HETATM    4  C5  UNL     1       1.197 -13.612   9.218  1.00  0.00     0.183 A 
HETATM    5  N7  UNL     1       1.589 -13.231  10.448  1.00  0.00    -0.338 N 
ATOM      6  H7  UNL     1       0.990 -13.420  11.251  1.00  0.00     0.168 HD
HETATM    7  C6  UNL     1       2.769 -12.601  10.627  1.00  0.00     0.128 A 
HETATM    8  N8  UNL     1       2.962 -12.311  11.924  1.00  0.00    -0.304 N 
ATOM      9  H8  UNL     1       2.186 -12.508  12.556  1.00  0.00     0.171 HD
HETATM   10  C7  UNL     1       4.078 -11.783  12.482  1.00  0.00     0.315 C 
HETATM   11  O2  UNL     1       4.109 -11.725  13.724  1.00  0.00    -0.262 OA
HETATM   12  C8  UNL     1       5.185 -11.302  11.799  1.00  0.00     0.316 C 
HETATM   13  O3  UNL     1       5.994 -10.639  12.518  1.00  0.00    -0.262 OA
HETATM   14  N9  UNL     1       5.546 -11.419  10.519  1.00  0.00    -0.285 N 
ATOM     15  H9  UNL     1       6.528 -11.237  10.307  1.00  0.00     0.172 HD
HETATM   16  C9  UNL     1       4.762 -11.748   9.475  1.00  0.00     0.266 C 
HETATM   17  O4  UNL     1       5.190 -11.456   8.311  1.00  0.00    -0.267 OA
HETATM   18  C10 UNL     1       3.538 -12.372   9.505  1.00  0.00     0.120 A 
ENDROOT
BRANCH   1  19
HETATM   19  N5  UNL     1       3.949 -12.487   7.283  1.00  0.00    -0.332 N 
HETATM   20  C3  UNL     1       3.417 -12.146   6.006  1.00  0.00     0.390 C 
HETATM   21  N3  UNL     1       4.388 -12.165   4.938  1.00  0.00    -0.316 N 
HETATM   22  N4  UNL     1       2.818 -10.805   5.984  1.00  0.00    -0.041 N 
HETATM   23  C2  UNL     1       4.258 -12.940   3.767  1.00  0.00     0.236 C 
ATOM     24  H3  UNL     1       5.220 -11.582   5.036  1.00  0.00     0.166 HD
HETATM   25  O1  UNL     1       3.285 -13.690   3.536  1.00  0.00    -0.272 OA
ATOM     26  H43 UNL     1       3.504 -10.052   6.045  1.00  0.00     0.279 HD
ATOM     27  H42 UNL     1       2.431 -10.546   5.077  1.00  0.00     0.279 HD
ATOM     28  H41 UNL     1       2.132 -10.792   6.738  1.00  0.00     0.279 HD
ATOM     29  H5  UNL     1       4.958 -12.516   7.429  1.00  0.00     0.165 HD
BRANCH  23  30
HETATM   30  C1  UNL     1       5.322 -12.883   2.731  1.00  0.00     0.237 C 
BRANCH  30  31
HETATM   31  N2  UNL     1       5.409 -14.134   1.997  1.00  0.00    -0.139 NA
BRANCH  31  32
HETATM   32  N1  UNL     1       4.680 -14.093   0.824  1.00  0.00    -0.348 N 
ATOM     33  H12 UNL     1       4.310 -13.231   0.426  1.00  0.00     0.172 HD
ATOM     34  H11 UNL     1       4.564 -15.021   0.417  1.00  0.00     0.172 HD
ENDBRANCH  31  32
ENDBRANCH  30  31
ENDBRANCH  23  30
ENDBRANCH   1  19
TORSDOF 4
ENDMDL
MODEL 2
REMARK VINA RESULT: -7.413287354      2.592      3.861
REMARK  4 active torsions:
REMARK  status: ('A' for Active; 'I' for Inactive)
REMARK    1  A    between atoms: N1_1  and  N2_4 
REMARK    2  A    between atoms: N2_4  and  C1_5 
REMARK    3  A    between atoms: C1_5  and  C2_6 
REMARK       I    between atoms: C2_6  and  N3_8 
REMARK       I    between atoms: N3_8  and  C3_10 
REMARK       I    between atoms: C3_10  and  N4_11 
REMARK       I    between atoms: C3_10  and  N5_15 
REMARK    4  A    between atoms: N5_15  and  C4_17 
ROOT
HETATM    1  C4  UNL     1       4.860 -11.989   8.565  1.00  0.00     0.124 A 
HETATM    2  N6  UNL     1       5.624 -11.228   9.363  1.00  0.00    -0.338 N 
ATOM      3  H6  UNL     1       6.510 -10.863   9.014  1.00  0.00     0.168 HD
HETATM    4  C5  UNL     1       5.235 -10.940  10.624  1.00  0.00     0.183 A 
HETATM    5  N7  UNL     1       4.073 -11.402  11.122  1.00  0.00    -0.338 N 
ATOM      6  H7  UNL     1       3.804 -11.169  12.078  1.00  0.00     0.168 HD
HETATM    7  C6  UNL     1       3.261 -12.173  10.368  1.00  0.00     0.128 A 
HETATM    8  N8  UNL     1       2.162 -12.524  11.057  1.00  0.00    -0.304 N 
ATOM      9  H8  UNL     1       2.135 -12.256  12.040  1.00  0.00     0.171 HD
HETATM   10  C7  UNL     1       1.087 -13.196  10.583  1.00  0.00     0.315 C 
HETATM   11  O2  UNL     1       0.108 -13.296  11.344  1.00  0.00    -0.262 OA
HETATM   12  C8  UNL     1       0.975 -13.783   9.330  1.00  0.00     0.316 C 
HETATM   13  O3  UNL     1      -0.021 -14.559   9.206  1.00  0.00    -0.262 OA
HETATM   14  N9  UNL     1       1.733 -13.671   8.237  1.00  0.00    -0.285 N 
ATOM     15  H9  UNL     1       1.304 -13.960   7.358  1.00  0.00     0.172 HD
HETATM   16  C9  UNL     1       2.999 -13.219   8.163  1.00  0.00     0.266 C 
HETATM   17  O4  UNL     1       3.665 -13.523   7.121  1.00  0.00    -0.267 OA
HETATM   18  C10 UNL     1       3.676 -12.456   9.084  1.00  0.00     0.120 A 
ENDROOT
BRANCH   1  19
HETATM   19  N5  UNL     1       5.134 -12.322   7.358  1.00  0.00    -0.332 N 
HETATM   20  C3  UNL     1       6.344 -11.858   6.765  1.00  0.00     0.390 C 
HETATM   21  N3  UNL     1       6.402 -12.031   5.333  1.00  0.00    -0.316 N 
HETATM   22  N4  UNL     1       7.531 -12.535   7.302  1.00  0.00    -0.041 N 
HETATM   23  C2  UNL     1       6.626 -10.980   4.419  1.00  0.00     0.236 C 
ATOM     24  H3  UNL     1       6.273 -12.971   4.958  1.00  0.00     0.166 HD
HETATM   25  O1  UNL     1       6.798  -9.790   4.761  1.00  0.00    -0.272 OA
ATOM     26  H43 UNL     1       7.610 -13.510   7.013  1.00  0.00     0.279 HD
ATOM     27  H42 UNL     1       8.406 -12.213   6.889  1.00  0.00     0.279 HD
ATOM     28  H41 UNL     1       7.490 -12.413   8.314  1.00  0.00     0.279 HD
ATOM     29  H5  UNL     1       4.494 -12.912   6.828  1.00  0.00     0.165 HD
BRANCH  23  30
HETATM   30  C1  UNL     1       6.666 -11.272   2.963  1.00  0.00     0.237 C 
BRANCH  30  31
HETATM   31  N2  UNL     1       5.328 -11.313   2.399  1.00  0.00    -0.139 NA
BRANCH  31  32
HETATM   32  N1  UNL     1       4.434 -10.567   3.143  1.00  0.00    -0.348 N 
ATOM     33  H12 UNL     1       3.433 -10.540   2.951  1.00  0.00     0.172 HD
ATOM     34  H11 UNL     1       4.898 -10.058   3.894  1.00  0.00     0.172 HD
ENDBRANCH  31  32
ENDBRANCH  30  31
ENDBRANCH  23  30
ENDBRANCH   1  19
TORSDOF 4
ENDMDL
MODEL 3
REMARK VINA RESULT: -7.359837992      2.318      3.492
REMARK  4 active torsions:
REMARK  status: ('A' for Active; 'I' for Inactive)
REMARK    1  A    between atoms: N1_1  and  N2_4 
REMARK    2  A    between atoms: N2_4  and  C1_5 
REMARK    3  A    between atoms: C1_5  and  C2_6 
REMARK       I    between atoms: C2_6  and  N3_8 
REMARK       I    between atoms: N3_8  and  C3_10 
REMARK       I    between atoms: C3_10  and  N4_11 
REMARK       I    between atoms: C3_10  and  N5_15 
REMARK    4  A    between atoms: N5_15  and  C4_17 
ROOT
HETATM    1  C4  UNL     1       4.919 -12.026   8.673  1.00  0.00     0.124 A 
HETATM    2  N6  UNL     1       5.631 -11.220   9.475  1.00  0.00    -0.338 N 
ATOM      3  H6  UNL     1       6.530 -10.857   9.157  1.00  0.00     0.168 HD
HETATM    4  C5  UNL     1       5.172 -10.882  10.700  1.00  0.00     0.183 A 
HETATM    5  N7  UNL     1       3.991 -11.340  11.157  1.00  0.00    -0.338 N 
ATOM      6  H7  UNL     1       3.669 -11.069  12.086  1.00  0.00     0.168 HD
HETATM    7  C6  UNL     1       3.230 -12.155  10.396  1.00  0.00     0.128 A 
HETATM    8  N8  UNL     1       2.101 -12.491  11.041  1.00  0.00    -0.304 N 
ATOM      9  H8  UNL     1       2.018 -12.181  12.009  1.00  0.00     0.171 HD
HETATM   10  C7  UNL     1       1.060 -13.200  10.542  1.00  0.00     0.315 C 
HETATM   11  O2  UNL     1       0.044 -13.281  11.255  1.00  0.00    -0.262 OA
HETATM   12  C8  UNL     1       1.022 -13.843   9.313  1.00  0.00     0.316 C 
HETATM   13  O3  UNL     1       0.044 -14.638   9.171  1.00  0.00    -0.262 OA
HETATM   14  N9  UNL     1       1.835 -13.767   8.257  1.00  0.00    -0.285 N 
ATOM     15  H9  UNL     1       1.457 -14.101   7.370  1.00  0.00     0.172 HD
HETATM   16  C9  UNL     1       3.098 -13.300   8.229  1.00  0.00     0.266 C 
HETATM   17  O4  UNL     1       3.822 -13.640   7.237  1.00  0.00    -0.267 OA
HETATM   18  C10 UNL     1       3.716 -12.488   9.150  1.00  0.00     0.120 A 
ENDROOT
BRANCH   1  19
HETATM   19  N5  UNL     1       5.262 -12.407   7.498  1.00  0.00    -0.332 N 
HETATM   20  C3  UNL     1       5.511 -11.429   6.493  1.00  0.00     0.390 C 
HETATM   21  N3  UNL     1       5.584 -11.965   5.154  1.00  0.00    -0.316 N 
HETATM   22  N4  UNL     1       6.772 -10.707   6.709  1.00  0.00    -0.041 N 
HETATM   23  C2  UNL     1       4.775 -11.529   4.084  1.00  0.00     0.236 C 
ATOM     24  H3  UNL     1       6.263 -12.704   4.970  1.00  0.00     0.166 HD
HETATM   25  O1  UNL     1       3.911 -10.632   4.189  1.00  0.00    -0.272 OA
ATOM     26  H43 UNL     1       7.601 -11.277   6.544  1.00  0.00     0.279 HD
ATOM     27  H42 UNL     1       6.964 -10.002   5.998  1.00  0.00     0.279 HD
ATOM     28  H41 UNL     1       6.719 -10.328   7.654  1.00  0.00     0.279 HD
ATOM     29  H5  UNL     1       5.354 -13.400   7.285  1.00  0.00     0.165 HD
BRANCH  23  30
HETATM   30  C1  UNL     1       4.935 -12.152   2.745  1.00  0.00     0.237 C 
BRANCH  30  31
HETATM   31  N2  UNL     1       4.584 -13.562   2.776  1.00  0.00    -0.139 NA
BRANCH  31  32
HETATM   32  N1  UNL     1       3.356 -13.772   3.375  1.00  0.00    -0.348 N 
ATOM     33  H12 UNL     1       3.246 -13.967   4.370  1.00  0.00     0.172 HD
ATOM     34  H11 UNL     1       2.591 -13.708   2.704  1.00  0.00     0.172 HD
ENDBRANCH  31  32
ENDBRANCH  30  31
ENDBRANCH  23  30
ENDBRANCH   1  19
TORSDOF 4
ENDMDL
MODEL 4
REMARK VINA RESULT: -7.017046104      2.635      7.898
REMARK  4 active torsions:
REMARK  status: ('A' for Active; 'I' for Inactive)
REMARK    1  A    between atoms: N1_1  and  N2_4 
REMARK    2  A    between atoms: N2_4  and  C1_5 
REMARK    3  A    between atoms: C1_5  and  C2_6 
REMARK       I    between atoms: C2_6  and  N3_8 
REMARK       I    between atoms: N3_8  and  C3_10 
REMARK       I    between atoms: C3_10  and  N4_11 
REMARK       I    between atoms: C3_10  and  N5_15 
REMARK    4  A    between atoms: N5_15  and  C4_17 
ROOT
HETATM    1  C4  UNL     1       3.222 -12.027  10.938  1.00  0.00     0.124 A 
HETATM    2  N6  UNL     1       2.122 -12.674  11.352  1.00  0.00    -0.338 N 
ATOM      3  H6  UNL     1       1.900 -12.706  12.347  1.00  0.00     0.168 HD
HETATM    4  C5  UNL     1       1.305 -13.285  10.466  1.00  0.00     0.183 A 
HETATM    5  N7  UNL     1       1.563 -13.266   9.145  1.00  0.00    -0.338 N 
ATOM      6  H7  UNL     1       0.928 -13.735   8.499  1.00  0.00     0.168 HD
HETATM    7  C6  UNL     1       2.654 -12.631   8.668  1.00  0.00     0.128 A 
HETATM    8  N8  UNL     1       2.720 -12.736   7.330  1.00  0.00    -0.304 N 
ATOM      9  H8  UNL     1       2.024 -13.334   6.885  1.00  0.00     0.171 HD
HETATM   10  C7  UNL     1       3.613 -12.132   6.510  1.00  0.00     0.315 C 
HETATM   11  O2  UNL     1       3.414 -12.243   5.287  1.00  0.00    -0.262 OA
HETATM   12  C8  UNL     1       4.725 -11.404   6.907  1.00  0.00     0.316 C 
HETATM   13  O3  UNL     1       5.539 -11.144   5.968  1.00  0.00    -0.262 OA
HETATM   14  N9  UNL     1       5.084 -10.929   8.102  1.00  0.00    -0.285 N 
ATOM     15  H9  UNL     1       5.783 -10.186   8.102  1.00  0.00     0.172 HD
HETATM   16  C9  UNL     1       4.629 -11.320   9.307  1.00  0.00     0.266 C 
HETATM   17  O4  UNL     1       5.338 -11.020  10.322  1.00  0.00    -0.267 OA
HETATM   18  C10 UNL     1       3.476 -12.014   9.587  1.00  0.00     0.120 A 
ENDROOT
BRANCH   1  19
HETATM   19  N5  UNL     1       4.061 -11.417  11.691  1.00  0.00    -0.332 N 
HETATM   20  C3  UNL     1       4.699 -12.132  12.745  1.00  0.00     0.390 C 
HETATM   21  N3  UNL     1       5.375 -11.289  13.703  1.00  0.00    -0.316 N 
HETATM   22  N4  UNL     1       5.710 -13.078  12.255  1.00  0.00    -0.041 N 
HETATM   23  C2  UNL     1       5.111 -11.300  15.089  1.00  0.00     0.236 C 
ATOM     24  H3  UNL     1       6.089 -10.647  13.358  1.00  0.00     0.166 HD
HETATM   25  O1  UNL     1       4.262 -12.043  15.627  1.00  0.00    -0.272 OA
ATOM     26  H43 UNL     1       6.544 -12.626  11.882  1.00  0.00     0.279 HD
ATOM     27  H42 UNL     1       6.175 -13.599  12.998  1.00  0.00     0.279 HD
ATOM     28  H41 UNL     1       5.232 -13.674  11.579  1.00  0.00     0.279 HD
ATOM     29  H5  UNL     1       4.271 -10.431  11.536  1.00  0.00     0.165 HD
BRANCH  23  30
HETATM   30  C1  UNL     1       5.867 -10.388  15.985  1.00  0.00     0.237 C 
BRANCH  30  31
HETATM   31  N2  UNL     1       5.244 -10.301  17.294  1.00  0.00    -0.139 NA
BRANCH  31  32
HETATM   32  N1  UNL     1       4.028  -9.648  17.241  1.00  0.00    -0.348 N 
ATOM     33  H12 UNL     1       3.132 -10.135  17.227  1.00  0.00     0.172 HD
ATOM     34  H11 UNL     1       4.142  -8.635  17.219  1.00  0.00     0.172 HD
ENDBRANCH  31  32
ENDBRANCH  30  31
ENDBRANCH  23  30
ENDBRANCH   1  19
TORSDOF 4
ENDMDL
MODEL 5
REMARK VINA RESULT: -6.986814002      2.126      7.643
REMARK  4 active torsions:
REMARK  status: ('A' for Active; 'I' for Inactive)
REMARK    1  A    between atoms: N1_1  and  N2_4 
REMARK    2  A    between atoms: N2_4  and  C1_5 
REMARK    3  A    between atoms: C1_5  and  C2_6 
REMARK       I    between atoms: C2_6  and  N3_8 
REMARK       I    between atoms: N3_8  and  C3_10 
REMARK       I    between atoms: C3_10  and  N4_11 
REMARK       I    between atoms: C3_10  and  N5_15 
REMARK    4  A    between atoms: N5_15  and  C4_17 
ROOT
HETATM    1  C4  UNL     1       3.891 -11.877   6.176  1.00  0.00     0.124 A 
HETATM    2  N6  UNL     1       2.850 -11.039   6.063  1.00  0.00    -0.338 N 
ATOM      3  H6  UNL     1       2.330 -10.766   6.897  1.00  0.00     0.168 HD
HETATM    4  C5  UNL     1       2.482 -10.551   4.858  1.00  0.00     0.183 A 
HETATM    5  N7  UNL     1       3.142 -10.887   3.735  1.00  0.00    -0.338 N 
ATOM      6  H7  UNL     1       2.843 -10.504   2.838  1.00  0.00     0.168 HD
HETATM    7  C6  UNL     1       4.198 -11.727   3.784  1.00  0.00     0.128 A 
HETATM    8  N8  UNL     1       4.706 -11.927   2.556  1.00  0.00    -0.304 N 
ATOM      9  H8  UNL     1       4.192 -11.515   1.777  1.00  0.00     0.171 HD
HETATM   10  C7  UNL     1       5.828 -12.618   2.243  1.00  0.00     0.315 C 
HETATM   11  O2  UNL     1       6.207 -12.564   1.060  1.00  0.00    -0.262 OA
HETATM   12  C8  UNL     1       6.591 -13.378   3.118  1.00  0.00     0.316 C 
HETATM   13  O3  UNL     1       7.447 -14.123   2.549  1.00  0.00    -0.262 OA
HETATM   14  N9  UNL     1       6.580 -13.460   4.450  1.00  0.00    -0.285 N 
ATOM     15  H9  UNL     1       7.412 -13.859   4.885  1.00  0.00     0.172 HD
HETATM   16  C9  UNL     1       5.596 -13.076   5.285  1.00  0.00     0.266 C 
HETATM   17  O4  UNL     1       5.611 -13.559   6.463  1.00  0.00    -0.267 OA
HETATM   18  C10 UNL     1       4.558 -12.214   5.022  1.00  0.00     0.120 A 
ENDROOT
BRANCH   1  19
HETATM   19  N5  UNL     1       4.322 -12.396   7.266  1.00  0.00    -0.332 N 
HETATM   20  C3  UNL     1       3.423 -12.570   8.358  1.00  0.00     0.390 C 
HETATM   21  N3  UNL     1       4.072 -12.869   9.613  1.00  0.00    -0.316 N 
HETATM   22  N4  UNL     1       2.463 -13.658   8.131  1.00  0.00    -0.041 N 
HETATM   23  C2  UNL     1       3.906 -12.106  10.789  1.00  0.00     0.236 C 
ATOM     24  H3  UNL     1       4.688 -13.681   9.653  1.00  0.00     0.166 HD
HETATM   25  O1  UNL     1       3.177 -11.094  10.860  1.00  0.00    -0.272 OA
ATOM     26  H43 UNL     1       2.884 -14.586   8.160  1.00  0.00     0.279 HD
ATOM     27  H42 UNL     1       1.811 -13.794   8.903  1.00  0.00     0.279 HD
ATOM     28  H41 UNL     1       2.004 -13.446   7.245  1.00  0.00     0.279 HD
ATOM     29  H5  UNL     1       5.297 -12.682   7.351  1.00  0.00     0.165 HD
BRANCH  23  30
HETATM   30  C1  UNL     1       4.624 -12.505  12.026  1.00  0.00     0.237 C 
BRANCH  30  31
HETATM   31  N2  UNL     1       4.889 -11.356  12.874  1.00  0.00    -0.139 NA
BRANCH  31  32
HETATM   32  N1  UNL     1       3.904 -11.184  13.828  1.00  0.00    -0.348 N 
ATOM     33  H12 UNL     1       3.237 -11.912  14.081  1.00  0.00     0.172 HD
ATOM     34  H11 UNL     1       3.932 -10.250  14.237  1.00  0.00     0.172 HD
ENDBRANCH  31  32
ENDBRANCH  30  31
ENDBRANCH  23  30
ENDBRANCH   1  19
TORSDOF 4
ENDMDL
