MODEL 1
REMARK VINA RESULT: -5.972607106      0.000      0.000
REMARK  6 active torsions:
REMARK  status: ('A' for Active; 'I' for Inactive)
REMARK    1  A    between atoms: N1_1  and  O1_4 
REMARK    2  A    between atoms: O1_4  and  C1_5 
REMARK    3  A    between atoms: C1_5  and  C2_7 
REMARK    4  A    between atoms: C3_8  and  S1_9 
REMARK    5  A    between atoms: S1_9  and  N2_12 
REMARK    6  A    between atoms: N2_12  and  N3_14 
ROOT
HETATM    1  C2  UNL     1       5.522 -12.562   5.858  1.00  0.00     0.149 A 
HETATM    2  C3  UNL     1       5.421 -11.862   7.034  1.00  0.00     0.176 A 
HETATM    3  N6  UNL     1       6.475 -11.160   7.537  1.00  0.00    -0.296 N 
ATOM      4  H6  UNL     1       6.371 -10.649   8.414  1.00  0.00     0.171 HD
HETATM    5  C5  UNL     1       7.649 -11.137   6.886  1.00  0.00     0.328 A 
HETATM    6  O5  UNL     1       8.638 -10.480   7.355  1.00  0.00    -0.247 OA
HETATM    7  N7  UNL     1       7.763 -11.817   5.733  1.00  0.00    -0.275 N 
ATOM      8  H7  UNL     1       8.655 -11.798   5.238  1.00  0.00     0.173 HD
HETATM    9  C6  UNL     1       6.732 -12.529   5.200  1.00  0.00     0.268 A 
HETATM   10  O6  UNL     1       6.833 -13.159   4.134  1.00  0.00    -0.267 OA
ENDROOT
BRANCH   2  11
HETATM   11  S1  UNL     1       3.923 -11.866   7.906  1.00  0.00     0.293 S 
HETATM   12  O3  UNL     1       4.140 -11.084   9.183  1.00  0.00    -0.197 OA
HETATM   13  O4  UNL     1       2.788 -11.278   7.107  1.00  0.00    -0.197 OA
BRANCH  11  14
HETATM   14  N2  UNL     1       3.502 -13.492   8.375  1.00  0.00    -0.220 N 
ATOM     15  H2  UNL     1       4.236 -14.154   8.627  1.00  0.00     0.200 HD
BRANCH  14  16
HETATM   16  N3  UNL     1       2.186 -13.884   8.404  1.00  0.00    -0.266 N 
HETATM   17  C4  UNL     1       1.395 -13.781   9.419  1.00  0.00     0.216 C 
HETATM   18  N4  UNL     1       1.792 -13.238  10.663  1.00  0.00    -0.065 NA
HETATM   19  N5  UNL     1       0.052 -14.264   9.207  1.00  0.00    -0.065 NA
ATOM     20  H3  UNL     1       1.801 -14.292   7.552  1.00  0.00     0.190 HD
ENDBRANCH  14  16
ENDBRANCH  11  14
ENDBRANCH   2  11
BRANCH   1  21
HETATM   21  C1  UNL     1       4.349 -13.281   5.398  1.00  0.00     0.323 C 
HETATM   22  O2  UNL     1       4.174 -14.463   5.839  1.00  0.00    -0.257 OA
BRANCH  21  23
HETATM   23  O1  UNL     1       3.420 -12.786   4.527  1.00  0.00    -0.202 OA
BRANCH  23  24
HETATM   24  N1  UNL     1       3.814 -11.990   3.481  1.00  0.00    -0.302 N 
ATOM     25  H12 UNL     1       4.583 -11.336   3.621  1.00  0.00     0.184 HD
ATOM     26  H11 UNL     1       3.340 -12.059   2.581  1.00  0.00     0.184 HD
ENDBRANCH  23  24
ENDBRANCH  21  23
ENDBRANCH   1  21
TORSDOF 6
ENDMDL
MODEL 2
REMARK VINA RESULT: -5.882023737      1.043      1.043
REMARK  6 active torsions:
REMARK  status: ('A' for Active; 'I' for Inactive)
REMARK    1  A    between atoms: N1_1  and  O1_4 
REMARK    2  A    between atoms: O1_4  and  C1_5 
REMARK    3  A    between atoms: C1_5  and  C2_7 
REMARK    4  A    between atoms: C3_8  and  S1_9 
REMARK    5  A    between atoms: S1_9  and  N2_12 
REMARK    6  A    between atoms: N2_12  and  N3_14 
ROOT
HETATM    1  C2  UNL     1       5.029 -11.930   5.108  1.00  0.00     0.149 A 
HETATM    2  C3  UNL     1       5.180 -11.429   6.377  1.00  0.00     0.176 A 
HETATM    3  N6  UNL     1       6.303 -10.752   6.745  1.00  0.00    -0.296 N 
ATOM      4  H6  UNL     1       6.388 -10.391   7.695  1.00  0.00     0.171 HD
HETATM    5  C5  UNL     1       7.299 -10.557   5.864  1.00  0.00     0.328 A 
HETATM    6  O5  UNL     1       8.352  -9.923   6.207  1.00  0.00    -0.247 OA
HETATM    7  N7  UNL     1       7.164 -11.041   4.619  1.00  0.00    -0.275 N 
ATOM      8  H7  UNL     1       7.921 -10.892   3.950  1.00  0.00     0.173 HD
HETATM    9  C6  UNL     1       6.057 -11.723   4.215  1.00  0.00     0.268 A 
HETATM   10  O6  UNL     1       5.929 -12.172   3.063  1.00  0.00    -0.267 OA
ENDROOT
BRANCH   2  11
HETATM   11  S1  UNL     1       3.919 -11.659   7.544  1.00  0.00     0.293 S 
HETATM   12  O3  UNL     1       4.423 -11.126   8.867  1.00  0.00    -0.197 OA
HETATM   13  O4  UNL     1       2.634 -10.976   7.147  1.00  0.00    -0.197 OA
BRANCH  11  14
HETATM   14  N2  UNL     1       3.608 -13.360   7.769  1.00  0.00    -0.220 N 
ATOM     15  H2  UNL     1       4.375 -14.029   7.706  1.00  0.00     0.200 HD
BRANCH  14  16
HETATM   16  N3  UNL     1       2.333 -13.802   8.029  1.00  0.00    -0.266 N 
HETATM   17  C4  UNL     1       1.762 -13.803   9.186  1.00  0.00     0.216 C 
HETATM   18  N4  UNL     1       2.390 -13.339  10.365  1.00  0.00    -0.065 NA
HETATM   19  N5  UNL     1       0.415 -14.318   9.209  1.00  0.00    -0.065 NA
ATOM     20  H3  UNL     1       1.794 -14.160   7.242  1.00  0.00     0.190 HD
ENDBRANCH  14  16
ENDBRANCH  11  14
ENDBRANCH   2  11
BRANCH   1  21
HETATM   21  C1  UNL     1       3.799 -12.639   4.804  1.00  0.00     0.323 C 
HETATM   22  O2  UNL     1       3.776 -13.893   5.022  1.00  0.00    -0.257 OA
BRANCH  21  23
HETATM   23  O1  UNL     1       2.667 -12.062   4.302  1.00  0.00    -0.202 OA
BRANCH  23  24
HETATM   24  N1  UNL     1       2.623 -10.706   4.090  1.00  0.00    -0.302 N 
ATOM     25  H12 UNL     1       3.490 -10.210   3.888  1.00  0.00     0.184 HD
ATOM     26  H11 UNL     1       1.733 -10.212   4.137  1.00  0.00     0.184 HD
ENDBRANCH  23  24
ENDBRANCH  21  23
ENDBRANCH   1  21
TORSDOF 6
ENDMDL
MODEL 3
REMARK VINA RESULT: -5.855323222      2.260      5.193
REMARK  6 active torsions:
REMARK  status: ('A' for Active; 'I' for Inactive)
REMARK    1  A    between atoms: N1_1  and  O1_4 
REMARK    2  A    between atoms: O1_4  and  C1_5 
REMARK    3  A    between atoms: C1_5  and  C2_7 
REMARK    4  A    between atoms: C3_8  and  S1_9 
REMARK    5  A    between atoms: S1_9  and  N2_12 
REMARK    6  A    between atoms: N2_12  and  N3_14 
ROOT
HETATM    1  C2  UNL     1       3.406 -12.383   7.622  1.00  0.00     0.149 A 
HETATM    2  C3  UNL     1       4.506 -11.816   8.217  1.00  0.00     0.176 A 
HETATM    3  N6  UNL     1       4.595 -11.687   9.570  1.00  0.00    -0.296 N 
ATOM      4  H6  UNL     1       5.424 -11.261   9.985  1.00  0.00     0.171 HD
HETATM    5  C5  UNL     1       3.598 -12.116  10.361  1.00  0.00     0.328 A 
HETATM    6  O5  UNL     1       3.679 -11.995  11.629  1.00  0.00    -0.247 OA
HETATM    7  N7  UNL     1       2.516 -12.673   9.793  1.00  0.00    -0.275 N 
ATOM      8  H7  UNL     1       1.759 -12.999  10.394  1.00  0.00     0.173 HD
HETATM    9  C6  UNL     1       2.391 -12.818   8.445  1.00  0.00     0.268 A 
HETATM   10  O6  UNL     1       1.392 -13.334   7.916  1.00  0.00    -0.267 OA
ENDROOT
BRANCH   2  11
HETATM   11  S1  UNL     1       5.815 -11.249   7.232  1.00  0.00     0.293 S 
HETATM   12  O3  UNL     1       6.571 -10.213   8.035  1.00  0.00    -0.197 OA
HETATM   13  O4  UNL     1       6.735 -12.363   6.797  1.00  0.00    -0.197 OA
BRANCH  11  14
HETATM   14  N2  UNL     1       5.198 -10.441   5.816  1.00  0.00    -0.220 N 
ATOM     15  H2  UNL     1       4.442  -9.762   5.907  1.00  0.00     0.200 HD
BRANCH  14  16
HETATM   16  N3  UNL     1       5.727 -10.714   4.577  1.00  0.00    -0.266 N 
HETATM   17  C4  UNL     1       5.326 -10.203   3.462  1.00  0.00     0.216 C 
HETATM   18  N4  UNL     1       4.264  -9.275   3.368  1.00  0.00    -0.065 NA
HETATM   19  N5  UNL     1       6.040 -10.646   2.289  1.00  0.00    -0.065 NA
ATOM     20  H3  UNL     1       6.501 -11.377   4.536  1.00  0.00     0.190 HD
ENDBRANCH  14  16
ENDBRANCH  11  14
ENDBRANCH   2  11
BRANCH   1  21
HETATM   21  C1  UNL     1       3.397 -12.480   6.174  1.00  0.00     0.323 C 
HETATM   22  O2  UNL     1       4.079 -13.415   5.644  1.00  0.00    -0.257 OA
BRANCH  21  23
HETATM   23  O1  UNL     1       2.714 -11.642   5.338  1.00  0.00    -0.202 OA
BRANCH  23  24
HETATM   24  N1  UNL     1       2.426 -12.037   4.056  1.00  0.00    -0.302 N 
ATOM     25  H12 UNL     1       1.593 -11.667   3.600  1.00  0.00     0.184 HD
ATOM     26  H11 UNL     1       3.042 -12.692   3.574  1.00  0.00     0.184 HD
ENDBRANCH  23  24
ENDBRANCH  21  23
ENDBRANCH   1  21
TORSDOF 6
ENDMDL
MODEL 4
REMARK VINA RESULT: -5.854571925      2.552      2.950
REMARK  6 active torsions:
REMARK  status: ('A' for Active; 'I' for Inactive)
REMARK    1  A    between atoms: N1_1  and  O1_4 
REMARK    2  A    between atoms: O1_4  and  C1_5 
REMARK    3  A    between atoms: C1_5  and  C2_7 
REMARK    4  A    between atoms: C3_8  and  S1_9 
REMARK    5  A    between atoms: S1_9  and  N2_12 
REMARK    6  A    between atoms: N2_12  and  N3_14 
ROOT
HETATM    1  C2  UNL     1       5.566 -12.549   4.081  1.00  0.00     0.149 A 
HETATM    2  C3  UNL     1       4.982 -11.309   4.013  1.00  0.00     0.176 A 
HETATM    3  N6  UNL     1       5.518 -10.310   3.256  1.00  0.00    -0.296 N 
ATOM      4  H6  UNL     1       5.062  -9.398   3.224  1.00  0.00     0.171 HD
HETATM    5  C5  UNL     1       6.643 -10.519   2.553  1.00  0.00     0.328 A 
HETATM    6  O5  UNL     1       7.147  -9.586   1.844  1.00  0.00    -0.247 OA
HETATM    7  N7  UNL     1       7.226 -11.728   2.610  1.00  0.00    -0.275 N 
ATOM      8  H7  UNL     1       8.080 -11.886   2.075  1.00  0.00     0.173 HD
HETATM    9  C6  UNL     1       6.720 -12.750   3.355  1.00  0.00     0.268 A 
HETATM   10  O6  UNL     1       7.256 -13.869   3.409  1.00  0.00    -0.267 OA
ENDROOT
BRANCH   2  11
HETATM   11  S1  UNL     1       3.529 -10.997   4.905  1.00  0.00     0.293 S 
HETATM   12  O3  UNL     1       3.382  -9.496   5.022  1.00  0.00    -0.197 OA
HETATM   13  O4  UNL     1       2.311 -11.604   4.255  1.00  0.00    -0.197 OA
BRANCH  11  14
HETATM   14  N2  UNL     1       3.673 -11.619   6.528  1.00  0.00    -0.220 N 
ATOM     15  H2  UNL     1       4.467 -11.347   7.107  1.00  0.00     0.200 HD
BRANCH  14  16
HETATM   16  N3  UNL     1       2.721 -12.474   7.028  1.00  0.00    -0.266 N 
HETATM   17  C4  UNL     1       2.674 -12.917   8.239  1.00  0.00     0.216 C 
HETATM   18  N4  UNL     1       3.620 -12.573   9.231  1.00  0.00    -0.065 NA
HETATM   19  N5  UNL     1       1.575 -13.807   8.528  1.00  0.00    -0.065 NA
ATOM     20  H3  UNL     1       1.990 -12.784   6.388  1.00  0.00     0.190 HD
ENDBRANCH  14  16
ENDBRANCH  11  14
ENDBRANCH   2  11
BRANCH   1  21
HETATM   21  C1  UNL     1       4.926 -13.552   4.911  1.00  0.00     0.323 C 
HETATM   22  O2  UNL     1       5.440 -13.783   6.053  1.00  0.00    -0.257 OA
BRANCH  21  23
HETATM   23  O1  UNL     1       3.816 -14.266   4.560  1.00  0.00    -0.202 OA
BRANCH  23  24
HETATM   24  N1  UNL     1       3.376 -14.255   3.260  1.00  0.00    -0.302 N 
ATOM     25  H12 UNL     1       4.003 -14.577   2.524  1.00  0.00     0.184 HD
ATOM     26  H11 UNL     1       2.434 -13.929   3.043  1.00  0.00     0.184 HD
ENDBRANCH  23  24
ENDBRANCH  21  23
ENDBRANCH   1  21
TORSDOF 6
ENDMDL
MODEL 5
REMARK VINA RESULT: -5.840957628      1.240      1.350
REMARK  6 active torsions:
REMARK  status: ('A' for Active; 'I' for Inactive)
REMARK    1  A    between atoms: N1_1  and  O1_4 
REMARK    2  A    between atoms: O1_4  and  C1_5 
REMARK    3  A    between atoms: C1_5  and  C2_7 
REMARK    4  A    between atoms: C3_8  and  S1_9 
REMARK    5  A    between atoms: S1_9  and  N2_12 
REMARK    6  A    between atoms: N2_12  and  N3_14 
ROOT
HETATM    1  C2  UNL     1       5.808 -12.362   5.357  1.00  0.00     0.149 A 
HETATM    2  C3  UNL     1       5.054 -11.561   6.178  1.00  0.00     0.176 A 
HETATM    3  N6  UNL     1       5.587 -10.465   6.788  1.00  0.00    -0.296 N 
ATOM      4  H6  UNL     1       5.002  -9.888   7.393  1.00  0.00     0.171 HD
HETATM    5  C5  UNL     1       6.877 -10.141   6.598  1.00  0.00     0.328 A 
HETATM    6  O5  UNL     1       7.378  -9.116   7.169  1.00  0.00    -0.247 OA
HETATM    7  N7  UNL     1       7.627 -10.916   5.798  1.00  0.00    -0.275 N 
ATOM      8  H7  UNL     1       8.606 -10.669   5.654  1.00  0.00     0.173 HD
HETATM    9  C6  UNL     1       7.129 -12.018   5.172  1.00  0.00     0.268 A 
HETATM   10  O6  UNL     1       7.820 -12.736   4.430  1.00  0.00    -0.267 OA
ENDROOT
BRANCH   2  11
HETATM   11  S1  UNL     1       3.385 -11.944   6.449  1.00  0.00     0.293 S 
HETATM   12  O3  UNL     1       2.806 -10.853   7.324  1.00  0.00    -0.197 OA
HETATM   13  O4  UNL     1       2.605 -12.068   5.165  1.00  0.00    -0.197 OA
BRANCH  11  14
HETATM   14  N2  UNL     1       3.246 -13.435   7.342  1.00  0.00    -0.220 N 
ATOM     15  H2  UNL     1       4.032 -14.084   7.372  1.00  0.00     0.200 HD
BRANCH  14  16
HETATM   16  N3  UNL     1       2.082 -13.738   8.005  1.00  0.00    -0.266 N 
HETATM   17  C4  UNL     1       1.920 -13.712   9.285  1.00  0.00     0.216 C 
HETATM   18  N4  UNL     1       2.945 -13.360  10.193  1.00  0.00    -0.065 NA
HETATM   19  N5  UNL     1       0.601 -14.072   9.748  1.00  0.00    -0.065 NA
ATOM     20  H3  UNL     1       1.278 -14.007   7.438  1.00  0.00     0.190 HD
ENDBRANCH  14  16
ENDBRANCH  11  14
ENDBRANCH   2  11
BRANCH   1  21
HETATM   21  C1  UNL     1       5.158 -13.507   4.749  1.00  0.00     0.323 C 
HETATM   22  O2  UNL     1       5.080 -14.574   5.441  1.00  0.00    -0.257 OA
BRANCH  21  23
HETATM   23  O1  UNL     1       4.625 -13.528   3.492  1.00  0.00    -0.202 OA
BRANCH  23  24
HETATM   24  N1  UNL     1       3.376 -14.058   3.284  1.00  0.00    -0.302 N 
ATOM     25  H12 UNL     1       3.085 -14.867   3.832  1.00  0.00     0.184 HD
ATOM     26  H11 UNL     1       2.754 -13.642   2.591  1.00  0.00     0.184 HD
ENDBRANCH  23  24
ENDBRANCH  21  23
ENDBRANCH   1  21
TORSDOF 6
ENDMDL
