MODEL 1
REMARK VINA RESULT: -6.664808648      0.000      0.000
REMARK  8 active torsions:
REMARK  status: ('A' for Active; 'I' for Inactive)
REMARK    1  A    between atoms: C3_3  and  N1_4 
REMARK    2  A    between atoms: C6_11  and  N3_12 
REMARK       I    between atoms: N3_12  and  C7_14 
REMARK       I    between atoms: C7_14  and  N8_31 
REMARK    3  A    between atoms: N4_15  and  N5_17 
REMARK       I    between atoms: N5_17  and  C8_19 
REMARK    4  A    between atoms: C8_19  and  C9_21 
REMARK    5  A    between atoms: C9_21  and  N6_22 
REMARK    6  A    between atoms: C9_21  and  C10_26 
REMARK    7  A    between atoms: C10_26  and  N7_27 
REMARK    8  A    between atoms: N8_31  and  N9_33 
ROOT
HETATM    1  C1  UNL     1       6.730 -12.122   6.831  1.00  0.00     0.014 C 
HETATM    2  C2  UNL     1       6.263 -12.935   6.066  1.00  0.00    -0.097 C 
HETATM    3  C3  UNL     1       5.677 -13.925   5.154  1.00  0.00     0.244 C 
ENDROOT
BRANCH   3   4
HETATM    4  N1  UNL     1       5.633 -13.396   3.797  1.00  0.00    -0.131 N 
HETATM    5  C4  UNL     1       6.603 -13.636   2.777  1.00  0.00     0.331 A 
HETATM    6  O1  UNL     1       7.657 -14.345   2.884  1.00  0.00    -0.261 OA
HETATM    7  C5  UNL     1       6.129 -12.904   1.610  1.00  0.00     0.328 A 
HETATM    8  O2  UNL     1       6.689 -12.849   0.496  1.00  0.00    -0.261 OA
HETATM    9  N2  UNL     1       4.911 -12.277   2.011  1.00  0.00    -0.150 N 
HETATM   10  C6  UNL     1       4.644 -12.563   3.244  1.00  0.00     0.706 A 
ATOM     11  H2  UNL     1       4.333 -11.689   1.410  1.00  0.00     0.188 HD
BRANCH  10  12
HETATM   12  N3  UNL     1       3.502 -12.102   3.966  1.00  0.00    -0.019 N 
HETATM   13  C7  UNL     1       3.609 -10.872   4.646  1.00  0.00     0.725 C 
HETATM   14  N4  UNL     1       3.225 -10.781   5.866  1.00  0.00    -0.128 N 
HETATM   15  N8  UNL     1       4.140  -9.712   4.004  1.00  0.00    -0.137 N 
ATOM     16  H4  UNL     1       3.294  -9.899   6.374  1.00  0.00     0.205 HD
ATOM     17  H8  UNL     1       4.963  -9.796   3.408  1.00  0.00     0.205 HD
ATOM     18  H3  UNL     1       2.638 -12.644   3.988  1.00  0.00     0.203 HD
BRANCH  14  19
HETATM   19  N5  UNL     1       2.708 -11.924   6.479  1.00  0.00    -0.254 N 
HETATM   20  C8  UNL     1       2.972 -12.134   7.848  1.00  0.00     0.268 C 
HETATM   21  O3  UNL     1       3.654 -11.294   8.481  1.00  0.00    -0.269 OA
ATOM     22  H5  UNL     1       2.151 -12.593   5.947  1.00  0.00     0.190 HD
BRANCH  20  23
HETATM   23  C9  UNL     1       2.443 -13.332   8.521  1.00  0.00     0.301 C 
BRANCH  23  24
HETATM   24  N6  UNL     1       0.997 -13.336   8.306  1.00  0.00    -0.065 N 
ATOM     25  H63 UNL     1       0.499 -12.691   8.919  1.00  0.00     0.275 HD
ATOM     26  H62 UNL     1       0.722 -12.912   7.420  1.00  0.00     0.275 HD
ATOM     27  H61 UNL     1       0.686 -14.302   8.402  1.00  0.00     0.275 HD
ENDBRANCH  23  24
BRANCH  23  28
HETATM   28  C10 UNL     1       2.739 -13.376  10.011  1.00  0.00     0.272 C 
BRANCH  28  29
HETATM   29  N7  UNL     1       1.860 -12.559  10.766  1.00  0.00    -0.077 N 
ATOM     30  H73 UNL     1       2.190 -11.594  10.793  1.00  0.00     0.274 HD
ATOM     31  H72 UNL     1       0.978 -12.417  10.274  1.00  0.00     0.274 HD
ATOM     32  H71 UNL     1       1.701 -12.918  11.708  1.00  0.00     0.274 HD
ENDBRANCH  28  29
ENDBRANCH  23  28
ENDBRANCH  20  23
ENDBRANCH  14  19
BRANCH  15  33
HETATM   33  N9  UNL     1       3.537  -8.455   4.189  1.00  0.00    -0.331 N 
ATOM     34  H92 UNL     1       2.532  -8.413   4.361  1.00  0.00     0.177 HD
ATOM     35  H91 UNL     1       4.095  -7.602   4.152  1.00  0.00     0.177 HD
ENDBRANCH  15  33
ENDBRANCH  10  12
ENDBRANCH   3   4
TORSDOF 8
ENDMDL
MODEL 2
REMARK VINA RESULT: -6.611263691      2.825      7.267
REMARK  8 active torsions:
REMARK  status: ('A' for Active; 'I' for Inactive)
REMARK    1  A    between atoms: C3_3  and  N1_4 
REMARK    2  A    between atoms: C6_11  and  N3_12 
REMARK       I    between atoms: N3_12  and  C7_14 
REMARK       I    between atoms: C7_14  and  N8_31 
REMARK    3  A    between atoms: N4_15  and  N5_17 
REMARK       I    between atoms: N5_17  and  C8_19 
REMARK    4  A    between atoms: C8_19  and  C9_21 
REMARK    5  A    between atoms: C9_21  and  N6_22 
REMARK    6  A    between atoms: C9_21  and  C10_26 
REMARK    7  A    between atoms: C10_26  and  N7_27 
REMARK    8  A    between atoms: N8_31  and  N9_33 
ROOT
HETATM    1  C1  UNL     1       7.125  -8.691   9.524  1.00  0.00     0.014 C 
HETATM    2  C2  UNL     1       6.500  -9.727   9.470  1.00  0.00    -0.097 C 
HETATM    3  C3  UNL     1       5.764 -10.995   9.398  1.00  0.00     0.244 C 
ENDROOT
BRANCH   3   4
HETATM    4  N1  UNL     1       4.927 -11.159  10.578  1.00  0.00    -0.131 N 
HETATM    5  C4  UNL     1       5.395 -11.292  11.921  1.00  0.00     0.331 A 
HETATM    6  O1  UNL     1       6.610 -11.288  12.304  1.00  0.00    -0.261 OA
HETATM    7  C5  UNL     1       4.197 -11.430  12.738  1.00  0.00     0.328 A 
HETATM    8  O2  UNL     1       4.162 -11.570  13.978  1.00  0.00    -0.261 OA
HETATM    9  N2  UNL     1       3.096 -11.371  11.831  1.00  0.00    -0.150 N 
HETATM   10  C6  UNL     1       3.522 -11.219  10.619  1.00  0.00     0.706 A 
ATOM     11  H2  UNL     1       2.115 -11.438  12.101  1.00  0.00     0.188 HD
BRANCH  10  12
HETATM   12  N3  UNL     1       2.691 -11.122   9.462  1.00  0.00    -0.019 N 
HETATM   13  C7  UNL     1       2.258 -12.323   8.864  1.00  0.00     0.725 C 
HETATM   14  N4  UNL     1       2.367 -12.481   7.596  1.00  0.00    -0.128 N 
HETATM   15  N8  UNL     1       1.696 -13.379   9.643  1.00  0.00    -0.137 N 
ATOM     16  H4  UNL     1       2.059 -13.343   7.146  1.00  0.00     0.205 HD
ATOM     17  H8  UNL     1       2.116 -13.626  10.539  1.00  0.00     0.205 HD
ATOM     18  H3  UNL     1       2.419 -10.215   9.082  1.00  0.00     0.203 HD
BRANCH  14  19
HETATM   19  N5  UNL     1       2.918 -11.438   6.850  1.00  0.00    -0.254 N 
HETATM   20  C8  UNL     1       3.501 -11.737   5.601  1.00  0.00     0.268 C 
HETATM   21  O3  UNL     1       3.506 -12.921   5.189  1.00  0.00    -0.269 OA
ATOM     22  H5  UNL     1       2.900 -10.480   7.201  1.00  0.00     0.190 HD
BRANCH  20  23
HETATM   23  C9  UNL     1       4.093 -10.658   4.792  1.00  0.00     0.301 C 
BRANCH  23  24
HETATM   24  N6  UNL     1       2.998 -10.026   4.060  1.00  0.00    -0.065 N 
ATOM     25  H63 UNL     1       3.257  -9.744   3.115  1.00  0.00     0.275 HD
ATOM     26  H62 UNL     1       2.258 -10.679   3.802  1.00  0.00     0.275 HD
ATOM     27  H61 UNL     1       2.667  -9.250   4.633  1.00  0.00     0.275 HD
ENDBRANCH  23  24
BRANCH  23  28
HETATM   28  C10 UNL     1       5.152 -11.139   3.815  1.00  0.00     0.272 C 
BRANCH  28  29
HETATM   29  N7  UNL     1       4.599 -11.833   2.709  1.00  0.00    -0.077 N 
ATOM     30  H73 UNL     1       4.327 -12.781   2.970  1.00  0.00     0.274 HD
ATOM     31  H72 UNL     1       3.681 -11.460   2.465  1.00  0.00     0.274 HD
ATOM     32  H71 UNL     1       5.219 -11.840   1.899  1.00  0.00     0.274 HD
ENDBRANCH  28  29
ENDBRANCH  23  28
ENDBRANCH  20  23
ENDBRANCH  14  19
BRANCH  15  33
HETATM   33  N9  UNL     1       0.568 -14.083   9.183  1.00  0.00    -0.331 N 
ATOM     34  H92 UNL     1       0.349 -14.062   8.187  1.00  0.00     0.177 HD
ATOM     35  H91 UNL     1      -0.018 -14.604   9.835  1.00  0.00     0.177 HD
ENDBRANCH  15  33
ENDBRANCH  10  12
ENDBRANCH   3   4
TORSDOF 8
ENDMDL
MODEL 3
REMARK VINA RESULT: -6.270320280      2.573      3.788
REMARK  8 active torsions:
REMARK  status: ('A' for Active; 'I' for Inactive)
REMARK    1  A    between atoms: C3_3  and  N1_4 
REMARK    2  A    between atoms: C6_11  and  N3_12 
REMARK       I    between atoms: N3_12  and  C7_14 
REMARK       I    between atoms: C7_14  and  N8_31 
REMARK    3  A    between atoms: N4_15  and  N5_17 
REMARK       I    between atoms: N5_17  and  C8_19 
REMARK    4  A    between atoms: C8_19  and  C9_21 
REMARK    5  A    between atoms: C9_21  and  N6_22 
REMARK    6  A    between atoms: C9_21  and  C10_26 
REMARK    7  A    between atoms: C10_26  and  N7_27 
REMARK    8  A    between atoms: N8_31  and  N9_33 
ROOT
HETATM    1  C1  UNL     1       6.462 -12.324   1.351  1.00  0.00     0.014 C 
HETATM    2  C2  UNL     1       6.759 -11.737   2.367  1.00  0.00    -0.097 C 
HETATM    3  C3  UNL     1       7.143 -11.024   3.591  1.00  0.00     0.244 C 
ENDROOT
BRANCH   3   4
HETATM    4  N1  UNL     1       6.238  -9.909   3.830  1.00  0.00    -0.131 N 
HETATM    5  C4  UNL     1       6.317  -8.623   3.215  1.00  0.00     0.331 A 
HETATM    6  O1  UNL     1       7.186  -8.242   2.364  1.00  0.00    -0.261 OA
HETATM    7  C5  UNL     1       5.207  -7.858   3.768  1.00  0.00     0.328 A 
HETATM    8  O2  UNL     1       4.916  -6.676   3.491  1.00  0.00    -0.261 OA
HETATM    9  N2  UNL     1       4.540  -8.736   4.674  1.00  0.00    -0.150 N 
HETATM   10  C6  UNL     1       5.131  -9.887   4.699  1.00  0.00     0.706 A 
ATOM     11  H2  UNL     1       3.716  -8.492   5.222  1.00  0.00     0.188 HD
BRANCH  10  12
HETATM   12  N3  UNL     1       4.728 -11.001   5.497  1.00  0.00    -0.019 N 
HETATM   13  C7  UNL     1       3.642 -11.775   5.039  1.00  0.00     0.725 C 
HETATM   14  N4  UNL     1       2.689 -12.077   5.842  1.00  0.00    -0.128 N 
HETATM   15  N8  UNL     1       3.576 -12.236   3.690  1.00  0.00    -0.137 N 
ATOM     16  H4  UNL     1       1.896 -12.636   5.529  1.00  0.00     0.205 HD
ATOM     17  H8  UNL     1       3.839 -11.611   2.928  1.00  0.00     0.205 HD
ATOM     18  H3  UNL     1       5.209 -11.228   6.367  1.00  0.00     0.203 HD
BRANCH  14  19
HETATM   19  N5  UNL     1       2.770 -11.617   7.158  1.00  0.00    -0.254 N 
HETATM   20  C8  UNL     1       2.940 -12.561   8.192  1.00  0.00     0.268 C 
HETATM   21  O3  UNL     1       3.021 -13.780   7.910  1.00  0.00    -0.269 OA
ATOM     22  H5  UNL     1       2.707 -10.621   7.367  1.00  0.00     0.190 HD
BRANCH  20  23
HETATM   23  C9  UNL     1       3.026 -12.107   9.591  1.00  0.00     0.301 C 
BRANCH  23  24
HETATM   24  N6  UNL     1       4.442 -12.108   9.952  1.00  0.00    -0.065 N 
ATOM     25  H63 UNL     1       4.748 -12.985  10.372  1.00  0.00     0.275 HD
ATOM     26  H62 UNL     1       5.062 -12.128   9.143  1.00  0.00     0.275 HD
ATOM     27  H61 UNL     1       4.595 -11.300  10.555  1.00  0.00     0.275 HD
ENDBRANCH  23  24
BRANCH  23  28
HETATM   28  C10 UNL     1       2.249 -12.978  10.564  1.00  0.00     0.272 C 
BRANCH  28  29
HETATM   29  N7  UNL     1       1.009 -13.416  10.033  1.00  0.00    -0.077 N 
ATOM     30  H73 UNL     1       0.335 -12.652   9.997  1.00  0.00     0.274 HD
ATOM     31  H72 UNL     1       1.088 -13.613   9.035  1.00  0.00     0.274 HD
ATOM     32  H71 UNL     1       0.628 -14.218  10.536  1.00  0.00     0.274 HD
ENDBRANCH  28  29
ENDBRANCH  23  28
ENDBRANCH  20  23
ENDBRANCH  14  19
BRANCH  15  33
HETATM   33  N9  UNL     1       3.149 -13.546   3.403  1.00  0.00    -0.331 N 
ATOM     34  H92 UNL     1       3.269 -13.904   2.456  1.00  0.00     0.177 HD
ATOM     35  H91 UNL     1       2.728 -14.124   4.130  1.00  0.00     0.177 HD
ENDBRANCH  15  33
ENDBRANCH  10  12
ENDBRANCH   3   4
TORSDOF 8
ENDMDL
MODEL 4
REMARK VINA RESULT: -6.221195437      3.130      4.980
REMARK  8 active torsions:
REMARK  status: ('A' for Active; 'I' for Inactive)
REMARK    1  A    between atoms: C3_3  and  N1_4 
REMARK    2  A    between atoms: C6_11  and  N3_12 
REMARK       I    between atoms: N3_12  and  C7_14 
REMARK       I    between atoms: C7_14  and  N8_31 
REMARK    3  A    between atoms: N4_15  and  N5_17 
REMARK       I    between atoms: N5_17  and  C8_19 
REMARK    4  A    between atoms: C8_19  and  C9_21 
REMARK    5  A    between atoms: C9_21  and  N6_22 
REMARK    6  A    between atoms: C9_21  and  C10_26 
REMARK    7  A    between atoms: C10_26  and  N7_27 
REMARK    8  A    between atoms: N8_31  and  N9_33 
ROOT
HETATM    1  C1  UNL     1       6.217  -9.787   9.570  1.00  0.00     0.014 C 
HETATM    2  C2  UNL     1       6.258 -10.525   8.612  1.00  0.00    -0.097 C 
HETATM    3  C3  UNL     1       6.320 -11.440   7.465  1.00  0.00     0.244 C 
ENDROOT
BRANCH   3   4
HETATM    4  N1  UNL     1       5.039 -11.465   6.772  1.00  0.00    -0.131 N 
HETATM    5  C4  UNL     1       4.710 -10.713   5.603  1.00  0.00     0.331 A 
HETATM    6  O1  UNL     1       5.473  -9.905   4.981  1.00  0.00    -0.261 OA
HETATM    7  C5  UNL     1       3.332 -11.069   5.288  1.00  0.00     0.328 A 
HETATM    8  O2  UNL     1       2.658 -10.632   4.333  1.00  0.00    -0.261 OA
HETATM    9  N2  UNL     1       2.933 -12.007   6.287  1.00  0.00    -0.150 N 
HETATM   10  C6  UNL     1       3.903 -12.220   7.115  1.00  0.00     0.706 A 
ATOM     11  H2  UNL     1       2.014 -12.446   6.339  1.00  0.00     0.188 HD
BRANCH  10  12
HETATM   12  N3  UNL     1       3.848 -13.102   8.237  1.00  0.00    -0.019 N 
HETATM   13  C7  UNL     1       2.674 -13.095   9.018  1.00  0.00     0.725 C 
HETATM   14  N4  UNL     1       2.757 -13.019  10.295  1.00  0.00    -0.128 N 
HETATM   15  N8  UNL     1       1.381 -13.170   8.416  1.00  0.00    -0.137 N 
ATOM     16  H4  UNL     1       1.918 -13.013  10.876  1.00  0.00     0.205 HD
ATOM     17  H8  UNL     1       1.183 -12.630   7.574  1.00  0.00     0.205 HD
ATOM     18  H3  UNL     1       4.629 -13.715   8.465  1.00  0.00     0.203 HD
BRANCH  14  19
HETATM   19  N5  UNL     1       4.028 -12.946  10.867  1.00  0.00    -0.254 N 
HETATM   20  C8  UNL     1       4.273 -11.958  11.843  1.00  0.00     0.268 C 
HETATM   21  O3  UNL     1       3.350 -11.177  12.177  1.00  0.00    -0.269 OA
ATOM     22  H5  UNL     1       4.764 -13.593  10.585  1.00  0.00     0.190 HD
BRANCH  20  23
HETATM   23  C9  UNL     1       5.605 -11.854  12.463  1.00  0.00     0.301 C 
BRANCH  23  24
HETATM   24  N6  UNL     1       6.141 -13.211  12.547  1.00  0.00    -0.065 N 
ATOM     25  H63 UNL     1       6.025 -13.631  13.469  1.00  0.00     0.275 HD
ATOM     26  H62 UNL     1       5.592 -13.892  12.024  1.00  0.00     0.275 HD
ATOM     27  H61 UNL     1       7.114 -13.164  12.247  1.00  0.00     0.275 HD
ENDBRANCH  23  24
BRANCH  23  28
HETATM   28  C10 UNL     1       5.587 -11.223  13.845  1.00  0.00     0.272 C 
BRANCH  28  29
HETATM   29  N7  UNL     1       4.535 -11.716  14.656  1.00  0.00    -0.077 N 
ATOM     30  H73 UNL     1       3.674 -11.817  14.119  1.00  0.00     0.274 HD
ATOM     31  H72 UNL     1       4.690 -12.694  14.903  1.00  0.00     0.274 HD
ATOM     32  H71 UNL     1       4.382 -11.148  15.490  1.00  0.00     0.274 HD
ENDBRANCH  28  29
ENDBRANCH  23  28
ENDBRANCH  20  23
ENDBRANCH  14  19
BRANCH  15  33
HETATM   33  N9  UNL     1       0.379 -13.983   8.977  1.00  0.00    -0.331 N 
ATOM     34  H92 UNL     1       0.536 -14.390   9.899  1.00  0.00     0.177 HD
ATOM     35  H91 UNL     1      -0.487 -14.161   8.469  1.00  0.00     0.177 HD
ENDBRANCH  15  33
ENDBRANCH  10  12
ENDBRANCH   3   4
TORSDOF 8
ENDMDL
MODEL 5
REMARK VINA RESULT: -6.217891953      2.651      3.961
REMARK  8 active torsions:
REMARK  status: ('A' for Active; 'I' for Inactive)
REMARK    1  A    between atoms: C3_3  and  N1_4 
REMARK    2  A    between atoms: C6_11  and  N3_12 
REMARK       I    between atoms: N3_12  and  C7_14 
REMARK       I    between atoms: C7_14  and  N8_31 
REMARK    3  A    between atoms: N4_15  and  N5_17 
REMARK       I    between atoms: N5_17  and  C8_19 
REMARK    4  A    between atoms: C8_19  and  C9_21 
REMARK    5  A    between atoms: C9_21  and  N6_22 
REMARK    6  A    between atoms: C9_21  and  C10_26 
REMARK    7  A    between atoms: C10_26  and  N7_27 
REMARK    8  A    between atoms: N8_31  and  N9_33 
ROOT
HETATM    1  C1  UNL     1       6.548 -11.989   1.752  1.00  0.00     0.014 C 
HETATM    2  C2  UNL     1       6.744 -11.252   2.692  1.00  0.00    -0.097 C 
HETATM    3  C3  UNL     1       7.006 -10.351   3.821  1.00  0.00     0.244 C 
ENDROOT
BRANCH   3   4
HETATM    4  N1  UNL     1       5.850  -9.500   4.065  1.00  0.00    -0.131 N 
HETATM    5  C4  UNL     1       5.651  -8.191   3.530  1.00  0.00     0.331 A 
HETATM    6  O1  UNL     1       6.444  -7.558   2.759  1.00  0.00    -0.261 OA
HETATM    7  C5  UNL     1       4.364  -7.749   4.052  1.00  0.00     0.328 A 
HETATM    8  O2  UNL     1       3.814  -6.652   3.825  1.00  0.00    -0.261 OA
HETATM    9  N2  UNL     1       3.883  -8.821   4.862  1.00  0.00    -0.150 N 
HETATM   10  C6  UNL     1       4.729  -9.799   4.860  1.00  0.00     0.706 A 
ATOM     11  H2  UNL     1       2.998  -8.816   5.369  1.00  0.00     0.188 HD
BRANCH  10  12
HETATM   12  N3  UNL     1       4.564 -11.030   5.566  1.00  0.00    -0.019 N 
HETATM   13  C7  UNL     1       3.589 -11.931   5.092  1.00  0.00     0.725 C 
HETATM   14  N4  UNL     1       2.753 -12.456   5.910  1.00  0.00    -0.128 N 
HETATM   15  N8  UNL     1       3.507 -12.277   3.710  1.00  0.00    -0.137 N 
ATOM     16  H4  UNL     1       2.040 -13.110   5.586  1.00  0.00     0.205 HD
ATOM     17  H8  UNL     1       3.615 -11.553   2.999  1.00  0.00     0.205 HD
ATOM     18  H3  UNL     1       5.133 -11.249   6.383  1.00  0.00     0.203 HD
BRANCH  14  19
HETATM   19  N5  UNL     1       2.847 -12.106   7.259  1.00  0.00    -0.254 N 
HETATM   20  C8  UNL     1       2.834 -13.134   8.224  1.00  0.00     0.268 C 
HETATM   21  O3  UNL     1       2.746 -14.329   7.854  1.00  0.00    -0.269 OA
ATOM     22  H5  UNL     1       2.923 -11.129   7.539  1.00  0.00     0.190 HD
BRANCH  20  23
HETATM   23  C9  UNL     1       2.929 -12.797   9.655  1.00  0.00     0.301 C 
BRANCH  23  24
HETATM   24  N6  UNL     1       1.691 -13.255  10.282  1.00  0.00    -0.065 N 
ATOM     25  H63 UNL     1       1.411 -12.684  11.079  1.00  0.00     0.275 HD
ATOM     26  H62 UNL     1       0.865 -13.090   9.707  1.00  0.00     0.275 HD
ATOM     27  H61 UNL     1       1.825 -14.237  10.519  1.00  0.00     0.275 HD
ENDBRANCH  23  24
BRANCH  23  28
HETATM   28  C10 UNL     1       3.120 -11.313   9.921  1.00  0.00     0.272 C 
BRANCH  28  29
HETATM   29  N7  UNL     1       2.368 -10.857  11.033  1.00  0.00    -0.077 N 
ATOM     30  H73 UNL     1       1.537 -11.432  11.174  1.00  0.00     0.274 HD
ATOM     31  H72 UNL     1       2.854 -11.054  11.909  1.00  0.00     0.274 HD
ATOM     32  H71 UNL     1       2.123  -9.869  10.964  1.00  0.00     0.274 HD
ENDBRANCH  28  29
ENDBRANCH  23  28
ENDBRANCH  20  23
ENDBRANCH  14  19
BRANCH  15  33
HETATM   33  N9  UNL     1       3.278 -13.609   3.319  1.00  0.00    -0.331 N 
ATOM     34  H92 UNL     1       2.498 -14.115   3.737  1.00  0.00     0.177 HD
ATOM     35  H91 UNL     1       3.882 -14.058   2.631  1.00  0.00     0.177 HD
ENDBRANCH  15  33
ENDBRANCH  10  12
ENDBRANCH   3   4
TORSDOF 8
ENDMDL
