MODEL 1
REMARK VINA RESULT: -4.295432589      0.000      0.000
REMARK  8 active torsions:
REMARK  status: ('A' for Active; 'I' for Inactive)
REMARK    1  A    between atoms: N1_1  and  C1_4 
REMARK    2  A    between atoms: C2_7  and  N3_8 
REMARK    3  A    between atoms: C3_13  and  N5_14 
REMARK    4  A    between atoms: N5_14  and  C4_16 
REMARK    5  A    between atoms: C4_16  and  C5_17 
REMARK    6  A    between atoms: C5_17  and  N6_18 
REMARK    7  A    between atoms: N6_18  and  C6_20 
REMARK    8  A    between atoms: C6_20  and  C7_21 
ROOT
HETATM    1  N5  UNL     1      38.418  12.789  28.582  1.00  0.00    -0.224 N 
ATOM      2  H5  UNL     1      38.667  13.778  28.560  1.00  0.00     0.177 HD
ENDROOT
BRANCH   1   3
HETATM    3  C3  UNL     1      38.247  12.190  27.464  1.00  0.00     0.707 A 
HETATM    4  N4  UNL     1      36.983  12.061  26.990  1.00  0.00    -0.022 N 
HETATM    5  C2  UNL     1      36.811  11.438  25.817  1.00  0.00     0.705 A 
ATOM      6  H4  UNL     1      36.187  12.427  27.511  1.00  0.00     0.203 HD
HETATM    7  N2  UNL     1      37.852  10.944  25.110  1.00  0.00    -0.022 N 
HETATM    8  C1  UNL     1      39.095  11.086  25.602  1.00  0.00     0.705 A 
ATOM      9  H2  UNL     1      37.698  10.473  24.220  1.00  0.00     0.203 HD
HETATM   10  N8  UNL     1      39.295  11.709  26.780  1.00  0.00    -0.022 N 
ATOM     11  H8  UNL     1      40.240  11.814  27.149  1.00  0.00     0.203 HD
BRANCH   5  12
HETATM   12  N3  UNL     1      35.619  11.286  25.306  1.00  0.00    -0.234 N 
ATOM     13  H32 UNL     1      35.385  10.458  24.758  1.00  0.00     0.174 HD
ATOM     14  H31 UNL     1      34.940  12.026  25.482  1.00  0.00     0.174 HD
ENDBRANCH   5  12
BRANCH   8  15
HETATM   15  N1  UNL     1      40.142  10.649  24.982  1.00  0.00    -0.234 N 
ATOM     16  H12 UNL     1      40.167   9.655  24.754  1.00  0.00     0.174 HD
ATOM     17  H11 UNL     1      40.922  11.256  24.729  1.00  0.00     0.174 HD
ENDBRANCH   8  15
ENDBRANCH   1   3
BRANCH   1  18
HETATM   18  C4  UNL     1      38.281  12.161  29.855  1.00  0.00     0.157 C 
BRANCH  18  19
HETATM   19  C5  UNL     1      38.337  13.213  30.979  1.00  0.00     0.139 C 
BRANCH  19  20
HETATM   20  N6  UNL     1      39.680  13.631  31.106  1.00  0.00    -0.397 N 
ATOM     21  H6  UNL     1      40.061  14.355  30.496  1.00  0.00     0.158 HD
BRANCH  20  22
HETATM   22  C6  UNL     1      40.473  13.034  32.080  1.00  0.00     0.109 C 
BRANCH  22  23
HETATM   23  C7  UNL     1      41.516  12.103  31.481  1.00  0.00     0.268 C 
HETATM   24  N7  UNL     1      41.918  12.586  30.175  1.00  0.00    -0.323 N 
HETATM   25  C8  UNL     1      41.870  11.919  28.923  1.00  0.00     0.293 C 
ATOM     26  H7  UNL     1      42.286  13.538  30.153  1.00  0.00     0.165 HD
HETATM   27  O1  UNL     1      41.759  12.646  27.900  1.00  0.00    -0.264 OA
HETATM   28  C9  UNL     1      41.931  10.486  28.656  1.00  0.00     0.240 C 
HETATM   29  O2  UNL     1      41.950  10.075  27.471  1.00  0.00    -0.282 OA
HETATM   30  C10 UNL     1      41.977   9.457  29.709  1.00  0.00     0.085 C 
HETATM   31  C11 UNL     1      41.650   9.592  30.974  1.00  0.00     0.142 C 
HETATM   32  O3  UNL     1      41.189  10.763  31.556  1.00  0.00    -0.333 OA
ENDBRANCH  22  23
ENDBRANCH  20  22
ENDBRANCH  19  20
ENDBRANCH  18  19
ENDBRANCH   1  18
TORSDOF 8
ENDMDL
MODEL 2
REMARK VINA RESULT: -4.260251841      4.886      6.142
REMARK  8 active torsions:
REMARK  status: ('A' for Active; 'I' for Inactive)
REMARK    1  A    between atoms: N1_1  and  C1_4 
REMARK    2  A    between atoms: C2_7  and  N3_8 
REMARK    3  A    between atoms: C3_13  and  N5_14 
REMARK    4  A    between atoms: N5_14  and  C4_16 
REMARK    5  A    between atoms: C4_16  and  C5_17 
REMARK    6  A    between atoms: C5_17  and  N6_18 
REMARK    7  A    between atoms: N6_18  and  C6_20 
REMARK    8  A    between atoms: C6_20  and  C7_21 
ROOT
HETATM    1  N5  UNL     1      41.743  13.025  30.556  1.00  0.00    -0.224 N 
ATOM      2  H5  UNL     1      42.179  13.927  30.364  1.00  0.00     0.177 HD
ENDROOT
BRANCH   1   3
HETATM    3  C3  UNL     1      41.762  12.141  29.630  1.00  0.00     0.707 A 
HETATM    4  N4  UNL     1      41.757  12.562  28.340  1.00  0.00    -0.022 N 
HETATM    5  C2  UNL     1      41.783  11.634  27.375  1.00  0.00     0.705 A 
ATOM      6  H4  UNL     1      41.736  13.556  28.112  1.00  0.00     0.203 HD
HETATM    7  N2  UNL     1      41.811  10.312  27.656  1.00  0.00    -0.022 N 
HETATM    8  C1  UNL     1      41.815   9.922  28.942  1.00  0.00     0.705 A 
ATOM      9  H2  UNL     1      41.829   9.623  26.905  1.00  0.00     0.203 HD
HETATM   10  N8  UNL     1      41.790  10.835  29.931  1.00  0.00    -0.022 N 
ATOM     11  H8  UNL     1      41.793  10.535  30.906  1.00  0.00     0.203 HD
BRANCH   5  12
HETATM   12  N3  UNL     1      41.785  11.976  26.116  1.00  0.00    -0.234 N 
ATOM     13  H32 UNL     1      41.023  12.529  25.721  1.00  0.00     0.174 HD
ATOM     14  H31 UNL     1      42.577  11.670  25.552  1.00  0.00     0.174 HD
ENDBRANCH   5  12
BRANCH   8  15
HETATM   15  N1  UNL     1      41.850   8.677  29.291  1.00  0.00    -0.234 N 
ATOM     16  H12 UNL     1      41.470   7.999  28.630  1.00  0.00     0.174 HD
ATOM     17  H11 UNL     1      42.231   8.369  30.185  1.00  0.00     0.174 HD
ENDBRANCH   8  15
ENDBRANCH   1   3
BRANCH   1  18
HETATM   18  C4  UNL     1      41.152  12.826  31.839  1.00  0.00     0.157 C 
BRANCH  18  19
HETATM   19  C5  UNL     1      42.221  12.935  32.943  1.00  0.00     0.139 C 
BRANCH  19  20
HETATM   20  N6  UNL     1      43.213  13.832  32.489  1.00  0.00    -0.397 N 
ATOM     21  H6  UNL     1      43.129  14.285  31.579  1.00  0.00     0.158 HD
BRANCH  20  22
HETATM   22  C6  UNL     1      44.308  14.083  33.310  1.00  0.00     0.109 C 
BRANCH  22  23
HETATM   23  C7  UNL     1      45.325  14.998  32.646  1.00  0.00     0.268 C 
HETATM   24  N7  UNL     1      46.150  14.238  31.729  1.00  0.00    -0.323 N 
HETATM   25  C8  UNL     1      47.562  14.095  31.707  1.00  0.00     0.293 C 
ATOM     26  H7  UNL     1      45.645  13.735  30.998  1.00  0.00     0.165 HD
HETATM   27  O1  UNL     1      48.015  13.033  31.204  1.00  0.00    -0.264 OA
HETATM   28  C9  UNL     1      48.575  15.027  32.194  1.00  0.00     0.240 C 
HETATM   29  O2  UNL     1      49.790  14.767  32.023  1.00  0.00    -0.282 OA
HETATM   30  C10 UNL     1      48.264  16.287  32.890  1.00  0.00     0.085 C 
HETATM   31  C11 UNL     1      47.131  16.623  33.467  1.00  0.00     0.142 C 
HETATM   32  O3  UNL     1      45.999  15.826  33.523  1.00  0.00    -0.333 OA
ENDBRANCH  22  23
ENDBRANCH  20  22
ENDBRANCH  19  20
ENDBRANCH  18  19
ENDBRANCH   1  18
TORSDOF 8
ENDMDL
MODEL 3
REMARK VINA RESULT: -4.256083325      4.896      6.167
REMARK  8 active torsions:
REMARK  status: ('A' for Active; 'I' for Inactive)
REMARK    1  A    between atoms: N1_1  and  C1_4 
REMARK    2  A    between atoms: C2_7  and  N3_8 
REMARK    3  A    between atoms: C3_13  and  N5_14 
REMARK    4  A    between atoms: N5_14  and  C4_16 
REMARK    5  A    between atoms: C4_16  and  C5_17 
REMARK    6  A    between atoms: C5_17  and  N6_18 
REMARK    7  A    between atoms: N6_18  and  C6_20 
REMARK    8  A    between atoms: C6_20  and  C7_21 
ROOT
HETATM    1  N5  UNL     1      41.756  13.019  30.542  1.00  0.00    -0.224 N 
ATOM      2  H5  UNL     1      42.167  13.933  30.352  1.00  0.00     0.177 HD
ENDROOT
BRANCH   1   3
HETATM    3  C3  UNL     1      41.783  12.144  29.608  1.00  0.00     0.707 A 
HETATM    4  N4  UNL     1      41.810  10.833  29.956  1.00  0.00    -0.022 N 
HETATM    5  C2  UNL     1      41.833   9.921  28.975  1.00  0.00     0.705 A 
ATOM      6  H4  UNL     1      41.812  10.549  30.936  1.00  0.00     0.203 HD
HETATM    7  N2  UNL     1      41.831  10.276  27.671  1.00  0.00    -0.022 N 
HETATM    8  C1  UNL     1      41.804  11.581  27.353  1.00  0.00     0.705 A 
ATOM      9  H2  UNL     1      41.849   9.565  26.940  1.00  0.00     0.203 HD
HETATM   10  N8  UNL     1      41.780  12.518  28.321  1.00  0.00    -0.022 N 
ATOM     11  H8  UNL     1      41.759  13.508  28.076  1.00  0.00     0.203 HD
BRANCH   5  12
HETATM   12  N3  UNL     1      41.854   8.645  29.245  1.00  0.00    -0.234 N 
ATOM     13  H32 UNL     1      42.447   8.277  29.990  1.00  0.00     0.174 HD
ATOM     14  H31 UNL     1      41.254   8.040  28.686  1.00  0.00     0.174 HD
ENDBRANCH   5  12
BRANCH   8  15
HETATM   15  N1  UNL     1      41.790  11.999  26.129  1.00  0.00    -0.234 N 
ATOM     16  H12 UNL     1      41.890  11.296  25.397  1.00  0.00     0.174 HD
ATOM     17  H11 UNL     1      41.693  12.985  25.887  1.00  0.00     0.174 HD
ENDBRANCH   8  15
ENDBRANCH   1   3
BRANCH   1  18
HETATM   18  C4  UNL     1      41.187  12.796  31.831  1.00  0.00     0.157 C 
BRANCH  18  19
HETATM   19  C5  UNL     1      42.274  12.894  32.919  1.00  0.00     0.139 C 
BRANCH  19  20
HETATM   20  N6  UNL     1      43.227  13.841  32.485  1.00  0.00    -0.397 N 
ATOM     21  H6  UNL     1      43.119  14.317  31.589  1.00  0.00     0.158 HD
BRANCH  20  22
HETATM   22  C6  UNL     1      44.317  14.112  33.306  1.00  0.00     0.109 C 
BRANCH  22  23
HETATM   23  C7  UNL     1      45.335  15.018  32.630  1.00  0.00     0.268 C 
HETATM   24  N7  UNL     1      46.155  14.246  31.719  1.00  0.00    -0.323 N 
HETATM   25  C8  UNL     1      47.567  14.100  31.694  1.00  0.00     0.293 C 
ATOM     26  H7  UNL     1      45.648  13.736  30.994  1.00  0.00     0.165 HD
HETATM   27  O1  UNL     1      48.016  13.032  31.201  1.00  0.00    -0.264 OA
HETATM   28  C9  UNL     1      48.583  15.034  32.169  1.00  0.00     0.240 C 
HETATM   29  O2  UNL     1      49.797  14.770  31.997  1.00  0.00    -0.282 OA
HETATM   30  C10 UNL     1      48.277  16.302  32.852  1.00  0.00     0.085 C 
HETATM   31  C11 UNL     1      47.147  16.648  33.428  1.00  0.00     0.142 C 
HETATM   32  O3  UNL     1      46.013  15.853  33.496  1.00  0.00    -0.333 OA
ENDBRANCH  22  23
ENDBRANCH  20  22
ENDBRANCH  19  20
ENDBRANCH  18  19
ENDBRANCH   1  18
TORSDOF 8
ENDMDL
MODEL 4
REMARK VINA RESULT: -4.214189894      4.479      6.341
REMARK  8 active torsions:
REMARK  status: ('A' for Active; 'I' for Inactive)
REMARK    1  A    between atoms: N1_1  and  C1_4 
REMARK    2  A    between atoms: C2_7  and  N3_8 
REMARK    3  A    between atoms: C3_13  and  N5_14 
REMARK    4  A    between atoms: N5_14  and  C4_16 
REMARK    5  A    between atoms: C4_16  and  C5_17 
REMARK    6  A    between atoms: C5_17  and  N6_18 
REMARK    7  A    between atoms: N6_18  and  C6_20 
REMARK    8  A    between atoms: C6_20  and  C7_21 
ROOT
HETATM    1  N5  UNL     1      42.592  13.499  33.612  1.00  0.00    -0.224 N 
ATOM      2  H5  UNL     1      42.030  13.757  34.423  1.00  0.00     0.177 HD
ENDROOT
BRANCH   1   3
HETATM    3  C3  UNL     1      41.979  13.151  32.544  1.00  0.00     0.707 A 
HETATM    4  N4  UNL     1      40.698  13.562  32.376  1.00  0.00    -0.022 N 
HETATM    5  C2  UNL     1      40.062  13.199  31.254  1.00  0.00     0.705 A 
ATOM      6  H4  UNL     1      40.231  14.130  33.083  1.00  0.00     0.203 HD
HETATM    7  N2  UNL     1      40.663  12.446  30.305  1.00  0.00    -0.022 N 
HETATM    8  C1  UNL     1      41.933  12.052  30.496  1.00  0.00     0.705 A 
ATOM      9  H2  UNL     1      40.160  12.182  29.458  1.00  0.00     0.203 HD
HETATM   10  N8  UNL     1      42.594  12.404  31.616  1.00  0.00    -0.022 N 
ATOM     11  H8  UNL     1      43.558  12.103  31.757  1.00  0.00     0.203 HD
BRANCH   5  12
HETATM   12  N3  UNL     1      38.830  13.567  31.031  1.00  0.00    -0.234 N 
ATOM     13  H32 UNL     1      38.592  14.141  30.222  1.00  0.00     0.174 HD
ATOM     14  H31 UNL     1      38.124  13.254  31.696  1.00  0.00     0.174 HD
ENDBRANCH   5  12
BRANCH   8  15
HETATM   15  N1  UNL     1      42.578  11.339  29.631  1.00  0.00    -0.234 N 
ATOM     16  H12 UNL     1      42.156  11.236  28.708  1.00  0.00     0.174 HD
ATOM     17  H11 UNL     1      43.466  10.887  29.847  1.00  0.00     0.174 HD
ENDBRANCH   8  15
ENDBRANCH   1   3
BRANCH   1  18
HETATM   18  C4  UNL     1      44.012  13.548  33.740  1.00  0.00     0.157 C 
BRANCH  18  19
HETATM   19  C5  UNL     1      44.537  14.940  33.340  1.00  0.00     0.139 C 
BRANCH  19  20
HETATM   20  N6  UNL     1      45.357  14.776  32.202  1.00  0.00    -0.397 N 
ATOM     21  H6  UNL     1      44.953  14.769  31.265  1.00  0.00     0.158 HD
BRANCH  20  22
HETATM   22  C6  UNL     1      46.728  14.625  32.386  1.00  0.00     0.109 C 
BRANCH  22  23
HETATM   23  C7  UNL     1      47.295  13.478  31.565  1.00  0.00     0.268 C 
HETATM   24  N7  UNL     1      46.234  12.559  31.202  1.00  0.00    -0.323 N 
HETATM   25  C8  UNL     1      46.131  11.168  31.465  1.00  0.00     0.293 C 
ATOM     26  H7  UNL     1      45.455  12.969  30.686  1.00  0.00     0.165 HD
HETATM   27  O1  UNL     1      44.967  10.693  31.542  1.00  0.00    -0.264 OA
HETATM   28  C9  UNL     1      47.205  10.199  31.661  1.00  0.00     0.240 C 
HETATM   29  O2  UNL     1      46.927   8.986  31.810  1.00  0.00    -0.282 OA
HETATM   30  C10 UNL     1      48.634  10.555  31.694  1.00  0.00     0.085 C 
HETATM   31  C11 UNL     1      49.158  11.745  31.886  1.00  0.00     0.142 C 
HETATM   32  O3  UNL     1      48.434  12.908  32.098  1.00  0.00    -0.333 OA
ENDBRANCH  22  23
ENDBRANCH  20  22
ENDBRANCH  19  20
ENDBRANCH  18  19
ENDBRANCH   1  18
TORSDOF 8
ENDMDL
MODEL 5
REMARK VINA RESULT: -4.207367746      3.694      4.659
REMARK  8 active torsions:
REMARK  status: ('A' for Active; 'I' for Inactive)
REMARK    1  A    between atoms: N1_1  and  C1_4 
REMARK    2  A    between atoms: C2_7  and  N3_8 
REMARK    3  A    between atoms: C3_13  and  N5_14 
REMARK    4  A    between atoms: N5_14  and  C4_16 
REMARK    5  A    between atoms: C4_16  and  C5_17 
REMARK    6  A    between atoms: C5_17  and  N6_18 
REMARK    7  A    between atoms: N6_18  and  C6_20 
REMARK    8  A    between atoms: C6_20  and  C7_21 
ROOT
HETATM    1  N5  UNL     1      41.660  12.352  29.500  1.00  0.00    -0.224 N 
ATOM      2  H5  UNL     1      42.333  13.085  29.725  1.00  0.00     0.177 HD
ENDROOT
BRANCH   1   3
HETATM    3  C3  UNL     1      41.776  11.758  28.372  1.00  0.00     0.707 A 
HETATM    4  N4  UNL     1      41.881  10.406  28.365  1.00  0.00    -0.022 N 
HETATM    5  C2  UNL     1      41.997   9.790  27.181  1.00  0.00     0.705 A 
ATOM      6  H4  UNL     1      41.872   9.874  29.235  1.00  0.00     0.203 HD
HETATM    7  N2  UNL     1      42.011  10.476  26.017  1.00  0.00    -0.022 N 
HETATM    8  C1  UNL     1      41.906  11.816  26.052  1.00  0.00     0.705 A 
ATOM      9  H2  UNL     1      42.101   9.987  25.127  1.00  0.00     0.203 HD
HETATM   10  N8  UNL     1      41.788  12.459  27.229  1.00  0.00    -0.022 N 
ATOM     11  H8  UNL     1      41.708  13.476  27.252  1.00  0.00     0.203 HD
BRANCH   5  12
HETATM   12  N3  UNL     1      42.096   8.491  27.108  1.00  0.00    -0.234 N 
ATOM     13  H32 UNL     1      41.376   7.935  26.647  1.00  0.00     0.174 HD
ATOM     14  H31 UNL     1      42.922   8.063  27.527  1.00  0.00     0.174 HD
ENDBRANCH   5  12
BRANCH   8  15
HETATM   15  N1  UNL     1      41.903  12.541  24.982  1.00  0.00    -0.234 N 
ATOM     16  H12 UNL     1      41.382  13.418  25.016  1.00  0.00     0.174 HD
ATOM     17  H11 UNL     1      42.388  12.262  24.129  1.00  0.00     0.174 HD
ENDBRANCH   8  15
ENDBRANCH   1   3
BRANCH   1  18
HETATM   18  C4  UNL     1      40.650  12.052  30.462  1.00  0.00     0.157 C 
BRANCH  18  19
HETATM   19  C5  UNL     1      40.777  12.988  31.679  1.00  0.00     0.139 C 
BRANCH  19  20
HETATM   20  N6  UNL     1      42.143  13.314  31.827  1.00  0.00    -0.397 N 
ATOM     21  H6  UNL     1      42.717  13.534  31.012  1.00  0.00     0.158 HD
BRANCH  20  22
HETATM   22  C6  UNL     1      42.689  13.329  33.106  1.00  0.00     0.109 C 
BRANCH  22  23
HETATM   23  C7  UNL     1      44.088  12.733  33.140  1.00  0.00     0.268 C 
HETATM   24  N7  UNL     1      45.073  13.789  33.254  1.00  0.00    -0.323 N 
HETATM   25  C8  UNL     1      46.165  14.087  32.397  1.00  0.00     0.293 C 
ATOM     26  H7  UNL     1      44.966  14.405  34.061  1.00  0.00     0.165 HD
HETATM   27  O1  UNL     1      46.549  15.286  32.368  1.00  0.00    -0.264 OA
HETATM   28  C9  UNL     1      46.914  13.179  31.534  1.00  0.00     0.240 C 
HETATM   29  O2  UNL     1      47.906  13.606  30.897  1.00  0.00    -0.282 OA
HETATM   30  C10 UNL     1      46.580  11.756  31.354  1.00  0.00     0.085 C 
HETATM   31  C11 UNL     1      45.442  11.160  31.634  1.00  0.00     0.142 C 
HETATM   32  O3  UNL     1      44.325  11.787  32.162  1.00  0.00    -0.333 OA
ENDBRANCH  22  23
ENDBRANCH  20  22
ENDBRANCH  19  20
ENDBRANCH  18  19
ENDBRANCH   1  18
TORSDOF 8
ENDMDL
