MODEL 1
REMARK VINA RESULT: -4.471868059      0.000      0.000
REMARK  9 active torsions:
REMARK  status: ('A' for Active; 'I' for Inactive)
REMARK    1  A    between atoms: N1_1  and  C1_4 
REMARK    2  A    between atoms: C2_7  and  N3_8 
REMARK    3  A    between atoms: N5_14  and  C6_16 
REMARK    4  A    between atoms: C6_16  and  C7_17 
REMARK    5  A    between atoms: C7_17  and  O1_18 
REMARK    6  A    between atoms: O1_18  and  C8_19 
REMARK    7  A    between atoms: C8_19  and  C9_20 
REMARK    8  A    between atoms: C9_20  and  N6_21 
REMARK    9  A    between atoms: C11_30  and  N9_31 
ROOT
HETATM    1  N3  UNL     1      41.406  20.242  36.219  1.00  0.00    -0.121 N 
HETATM    2  C3  UNL     1      42.234  19.244  36.897  1.00  0.00     0.187 C 
HETATM    3  C4  UNL     1      43.048  18.566  35.852  1.00  0.00     0.143 C 
HETATM    4  N4  UNL     1      44.049  19.434  35.272  1.00  0.00    -0.374 N 
ATOM      5  H4  UNL     1      45.026  19.183  35.421  1.00  0.00     0.161 HD
HETATM    6  C5  UNL     1      43.793  20.595  34.519  1.00  0.00     0.114 C 
HETATM    7  N5  UNL     1      44.695  20.939  33.695  1.00  0.00    -0.373 N 
ATOM      8  H5  UNL     1      44.580  21.769  33.113  1.00  0.00     0.161 HD
HETATM    9  C10 UNL     1      42.627  21.453  34.563  1.00  0.00     0.155 C 
HETATM   10  N7  UNL     1      41.848  21.448  35.736  1.00  0.00    -0.292 N 
ATOM     11  H7  UNL     1      41.617  22.319  36.214  1.00  0.00     0.186 HD
ENDROOT
BRANCH   1  12
HETATM   12  C2  UNL     1      40.024  19.919  36.063  1.00  0.00     0.728 A 
HETATM   13  N2  UNL     1      39.660  18.672  36.395  1.00  0.00    -0.020 N 
HETATM   14  C1  UNL     1      38.365  18.336  36.265  1.00  0.00     0.705 A 
ATOM     15  H2  UNL     1      40.346  17.998  36.735  1.00  0.00     0.203 HD
HETATM   16  N10 UNL     1      37.480  19.251  35.812  1.00  0.00    -0.022 N 
HETATM   17  C11 UNL     1      37.859  20.499  35.483  1.00  0.00     0.705 A 
ATOM     18  H10 UNL     1      36.500  18.989  35.717  1.00  0.00     0.203 HD
HETATM   19  N8  UNL     1      39.173  20.839  35.615  1.00  0.00    -0.020 N 
ATOM     20  H8  UNL     1      39.496  21.777  35.375  1.00  0.00     0.203 HD
BRANCH  14  21
HETATM   21  N1  UNL     1      37.962  17.146  36.566  1.00  0.00    -0.234 N 
ATOM     22  H12 UNL     1      37.218  17.022  37.253  1.00  0.00     0.174 HD
ATOM     23  H11 UNL     1      38.378  16.329  36.120  1.00  0.00     0.174 HD
ENDBRANCH  14  21
BRANCH  17  24
HETATM   24  N9  UNL     1      36.984  21.351  35.057  1.00  0.00    -0.234 N 
ATOM     25  H92 UNL     1      36.626  21.283  34.105  1.00  0.00     0.174 HD
ATOM     26  H91 UNL     1      36.634  22.098  35.658  1.00  0.00     0.174 HD
ENDBRANCH  17  24
ENDBRANCH   1  12
BRANCH   7  27
HETATM   27  C6  UNL     1      45.910  20.111  33.595  1.00  0.00     0.147 C 
BRANCH  27  28
HETATM   28  C7  UNL     1      45.867  19.266  32.368  1.00  0.00     0.187 C 
BRANCH  28  29
HETATM   29  O1  UNL     1      45.109  18.147  32.542  1.00  0.00    -0.388 OA
BRANCH  29  30
HETATM   30  C8  UNL     1      45.801  17.072  33.031  1.00  0.00     0.195 C 
BRANCH  30  31
HETATM   31  C9  UNL     1      44.820  15.956  33.466  1.00  0.00     0.255 C 
BRANCH  31  32
HETATM   32  N6  UNL     1      44.612  15.102  32.331  1.00  0.00    -0.077 N 
ATOM     33  H63 UNL     1      43.962  15.495  31.650  1.00  0.00     0.274 HD
ATOM     34  H62 UNL     1      45.426  15.046  31.720  1.00  0.00     0.274 HD
ATOM     35  H61 UNL     1      44.316  14.192  32.685  1.00  0.00     0.274 HD
ENDBRANCH  31  32
ENDBRANCH  30  31
ENDBRANCH  29  30
ENDBRANCH  28  29
ENDBRANCH  27  28
ENDBRANCH   7  27
TORSDOF 9
ENDMDL
MODEL 2
REMARK VINA RESULT: -4.413756384      1.852      2.986
REMARK  9 active torsions:
REMARK  status: ('A' for Active; 'I' for Inactive)
REMARK    1  A    between atoms: N1_1  and  C1_4 
REMARK    2  A    between atoms: C2_7  and  N3_8 
REMARK    3  A    between atoms: N5_14  and  C6_16 
REMARK    4  A    between atoms: C6_16  and  C7_17 
REMARK    5  A    between atoms: C7_17  and  O1_18 
REMARK    6  A    between atoms: O1_18  and  C8_19 
REMARK    7  A    between atoms: C8_19  and  C9_20 
REMARK    8  A    between atoms: C9_20  and  N6_21 
REMARK    9  A    between atoms: C11_30  and  N9_31 
ROOT
HETATM    1  N3  UNL     1      43.640  21.215  35.467  1.00  0.00    -0.121 N 
HETATM    2  C3  UNL     1      44.852  21.299  36.282  1.00  0.00     0.187 C 
HETATM    3  C4  UNL     1      45.662  20.085  35.990  1.00  0.00     0.143 C 
HETATM    4  N4  UNL     1      46.207  20.085  34.651  1.00  0.00    -0.374 N 
ATOM      5  H4  UNL     1      47.223  20.117  34.562  1.00  0.00     0.161 HD
HETATM    6  C5  UNL     1      45.460  20.044  33.460  1.00  0.00     0.114 C 
HETATM    7  N5  UNL     1      46.048  19.557  32.446  1.00  0.00    -0.373 N 
ATOM      8  H5  UNL     1      45.569  19.493  31.547  1.00  0.00     0.161 HD
HETATM    9  C10 UNL     1      44.098  20.487  33.241  1.00  0.00     0.155 C 
HETATM   10  N7  UNL     1      43.569  21.453  34.117  1.00  0.00    -0.292 N 
ATOM     11  H7  UNL     1      43.144  22.308  33.759  1.00  0.00     0.186 HD
ENDROOT
BRANCH   1  12
HETATM   12  C2  UNL     1      42.438  20.861  36.152  1.00  0.00     0.728 A 
HETATM   13  N2  UNL     1      41.295  20.996  35.464  1.00  0.00    -0.020 N 
HETATM   14  C1  UNL     1      40.145  20.668  36.077  1.00  0.00     0.705 A 
ATOM     15  H2  UNL     1      41.299  21.338  34.503  1.00  0.00     0.203 HD
HETATM   16  N10 UNL     1      40.174  20.216  37.350  1.00  0.00    -0.022 N 
HETATM   17  C11 UNL     1      41.327  20.085  38.030  1.00  0.00     0.705 A 
ATOM     18  H10 UNL     1      39.297  19.969  37.809  1.00  0.00     0.203 HD
HETATM   19  N8  UNL     1      42.493  20.419  37.406  1.00  0.00    -0.020 N 
ATOM     20  H8  UNL     1      43.387  20.332  37.890  1.00  0.00     0.203 HD
BRANCH  14  21
HETATM   21  N1  UNL     1      39.016  20.783  35.461  1.00  0.00    -0.234 N 
ATOM     22  H12 UNL     1      38.982  21.226  34.542  1.00  0.00     0.174 HD
ATOM     23  H11 UNL     1      38.156  20.433  35.884  1.00  0.00     0.174 HD
ENDBRANCH  14  21
BRANCH  17  24
HETATM   24  N9  UNL     1      41.317  19.645  39.246  1.00  0.00    -0.234 N 
ATOM     25  H92 UNL     1      42.153  19.214  39.640  1.00  0.00     0.174 HD
ATOM     26  H91 UNL     1      40.485  19.722  39.830  1.00  0.00     0.174 HD
ENDBRANCH  17  24
ENDBRANCH   1  12
BRANCH   7  27
HETATM   27  C6  UNL     1      47.435  19.083  32.595  1.00  0.00     0.147 C 
BRANCH  27  28
HETATM   28  C7  UNL     1      47.475  17.595  32.664  1.00  0.00     0.187 C 
BRANCH  28  29
HETATM   29  O1  UNL     1      47.141  17.129  33.901  1.00  0.00    -0.388 OA
BRANCH  29  30
HETATM   30  C8  UNL     1      46.089  16.251  33.902  1.00  0.00     0.195 C 
BRANCH  30  31
HETATM   31  C9  UNL     1      46.027  15.488  32.557  1.00  0.00     0.255 C 
BRANCH  31  32
HETATM   32  N6  UNL     1      44.661  15.097  32.349  1.00  0.00    -0.077 N 
ATOM     33  H63 UNL     1      43.992  15.771  32.722  1.00  0.00     0.274 HD
ATOM     34  H62 UNL     1      44.375  15.153  31.372  1.00  0.00     0.274 HD
ATOM     35  H61 UNL     1      44.548  14.163  32.745  1.00  0.00     0.274 HD
ENDBRANCH  31  32
ENDBRANCH  30  31
ENDBRANCH  29  30
ENDBRANCH  28  29
ENDBRANCH  27  28
ENDBRANCH   7  27
TORSDOF 9
ENDMDL
MODEL 3
REMARK VINA RESULT: -4.384352009      1.829      2.641
REMARK  9 active torsions:
REMARK  status: ('A' for Active; 'I' for Inactive)
REMARK    1  A    between atoms: N1_1  and  C1_4 
REMARK    2  A    between atoms: C2_7  and  N3_8 
REMARK    3  A    between atoms: N5_14  and  C6_16 
REMARK    4  A    between atoms: C6_16  and  C7_17 
REMARK    5  A    between atoms: C7_17  and  O1_18 
REMARK    6  A    between atoms: O1_18  and  C8_19 
REMARK    7  A    between atoms: C8_19  and  C9_20 
REMARK    8  A    between atoms: C9_20  and  N6_21 
REMARK    9  A    between atoms: C11_30  and  N9_31 
ROOT
HETATM    1  N3  UNL     1      43.594  21.190  35.458  1.00  0.00    -0.121 N 
HETATM    2  C3  UNL     1      44.779  21.235  36.314  1.00  0.00     0.187 C 
HETATM    3  C4  UNL     1      45.574  20.010  36.027  1.00  0.00     0.143 C 
HETATM    4  N4  UNL     1      46.163  20.021  34.707  1.00  0.00    -0.374 N 
ATOM      5  H4  UNL     1      47.182  20.034  34.653  1.00  0.00     0.161 HD
HETATM    6  C5  UNL     1      45.456  20.017  33.491  1.00  0.00     0.114 C 
HETATM    7  N5  UNL     1      46.067  19.535  32.489  1.00  0.00    -0.373 N 
ATOM      8  H5  UNL     1      45.618  19.498  31.574  1.00  0.00     0.161 HD
HETATM    9  C10 UNL     1      44.112  20.492  33.235  1.00  0.00     0.155 C 
HETATM   10  N7  UNL     1      43.573  21.453  34.111  1.00  0.00    -0.292 N 
ATOM     11  H7  UNL     1      43.177  22.323  33.755  1.00  0.00     0.186 HD
ENDROOT
BRANCH   1  12
HETATM   12  C2  UNL     1      42.363  20.849  36.096  1.00  0.00     0.728 A 
HETATM   13  N2  UNL     1      42.445  20.423  37.365  1.00  0.00    -0.020 N 
HETATM   14  C1  UNL     1      41.305  20.099  37.998  1.00  0.00     0.705 A 
ATOM     15  H2  UNL     1      43.346  20.348  37.836  1.00  0.00     0.203 HD
HETATM   16  N10 UNL     1      40.125  20.210  37.348  1.00  0.00    -0.022 N 
HETATM   17  C11 UNL     1      40.057  20.639  36.074  1.00  0.00     0.705 A 
ATOM     18  H10 UNL     1      39.264  19.963  37.835  1.00  0.00     0.203 HD
HETATM   19  N8  UNL     1      41.215  20.968  35.434  1.00  0.00    -0.020 N 
ATOM     20  H8  UNL     1      41.201  21.297  34.468  1.00  0.00     0.203 HD
BRANCH  14  21
HETATM   21  N1  UNL     1      41.328  19.679  39.220  1.00  0.00    -0.234 N 
ATOM     22  H12 UNL     1      41.131  20.327  39.983  1.00  0.00     0.174 HD
ATOM     23  H11 UNL     1      41.537  18.703  39.429  1.00  0.00     0.174 HD
ENDBRANCH  14  21
BRANCH  17  24
HETATM   24  N9  UNL     1      38.910  20.738  35.485  1.00  0.00    -0.234 N 
ATOM     25  H92 UNL     1      38.274  19.941  35.468  1.00  0.00     0.174 HD
ATOM     26  H91 UNL     1      38.620  21.605  35.033  1.00  0.00     0.174 HD
ENDBRANCH  17  24
ENDBRANCH   1  12
BRANCH   7  27
HETATM   27  C6  UNL     1      47.439  19.031  32.676  1.00  0.00     0.147 C 
BRANCH  27  28
HETATM   28  C7  UNL     1      47.449  17.541  32.700  1.00  0.00     0.187 C 
BRANCH  28  29
HETATM   29  O1  UNL     1      47.119  17.044  33.925  1.00  0.00    -0.388 OA
BRANCH  29  30
HETATM   30  C8  UNL     1      46.042  16.199  33.915  1.00  0.00     0.195 C 
BRANCH  30  31
HETATM   31  C9  UNL     1      46.007  15.391  32.595  1.00  0.00     0.255 C 
BRANCH  31  32
HETATM   32  N6  UNL     1      44.633  15.071  32.324  1.00  0.00    -0.077 N 
ATOM     33  H63 UNL     1      44.063  15.017  33.168  1.00  0.00     0.274 HD
ATOM     34  H62 UNL     1      44.129  15.834  31.871  1.00  0.00     0.274 HD
ATOM     35  H61 UNL     1      44.623  14.208  31.780  1.00  0.00     0.274 HD
ENDBRANCH  31  32
ENDBRANCH  30  31
ENDBRANCH  29  30
ENDBRANCH  28  29
ENDBRANCH  27  28
ENDBRANCH   7  27
TORSDOF 9
ENDMDL
MODEL 4
REMARK VINA RESULT: -4.273312987      1.730      2.973
REMARK  9 active torsions:
REMARK  status: ('A' for Active; 'I' for Inactive)
REMARK    1  A    between atoms: N1_1  and  C1_4 
REMARK    2  A    between atoms: C2_7  and  N3_8 
REMARK    3  A    between atoms: N5_14  and  C6_16 
REMARK    4  A    between atoms: C6_16  and  C7_17 
REMARK    5  A    between atoms: C7_17  and  O1_18 
REMARK    6  A    between atoms: O1_18  and  C8_19 
REMARK    7  A    between atoms: C8_19  and  C9_20 
REMARK    8  A    between atoms: C9_20  and  N6_21 
REMARK    9  A    between atoms: C11_30  and  N9_31 
ROOT
HETATM    1  N3  UNL     1      43.550  20.463  35.067  1.00  0.00    -0.121 N 
HETATM    2  C3  UNL     1      44.604  20.466  36.082  1.00  0.00     0.187 C 
HETATM    3  C4  UNL     1      45.480  19.294  35.809  1.00  0.00     0.143 C 
HETATM    4  N4  UNL     1      46.244  19.439  34.590  1.00  0.00    -0.374 N 
ATOM      5  H4  UNL     1      47.259  19.485  34.680  1.00  0.00     0.161 HD
HETATM    6  C5  UNL     1      45.711  19.522  33.291  1.00  0.00     0.114 C 
HETATM    7  N5  UNL     1      46.474  19.148  32.347  1.00  0.00    -0.373 N 
ATOM      8  H5  UNL     1      46.156  19.179  31.378  1.00  0.00     0.161 HD
HETATM    9  C10 UNL     1      44.397  19.979  32.889  1.00  0.00     0.155 C 
HETATM   10  N7  UNL     1      43.704  20.843  33.758  1.00  0.00    -0.292 N 
ATOM     11  H7  UNL     1      43.326  21.729  33.423  1.00  0.00     0.186 HD
ENDROOT
BRANCH   1  12
HETATM   12  C2  UNL     1      42.258  20.032  35.496  1.00  0.00     0.728 A 
HETATM   13  N2  UNL     1      41.244  20.885  35.287  1.00  0.00    -0.020 N 
HETATM   14  C1  UNL     1      40.013  20.509  35.674  1.00  0.00     0.705 A 
ATOM     15  H2  UNL     1      41.402  21.791  34.848  1.00  0.00     0.203 HD
HETATM   16  N10 UNL     1      39.834  19.301  36.253  1.00  0.00    -0.022 N 
HETATM   17  C11 UNL     1      40.861  18.455  36.456  1.00  0.00     0.705 A 
ATOM     18  H10 UNL     1      38.897  19.023  36.543  1.00  0.00     0.203 HD
HETATM   19  N8  UNL     1      42.109  18.837  36.063  1.00  0.00    -0.020 N 
ATOM     20  H8  UNL     1      42.911  18.221  36.201  1.00  0.00     0.203 HD
BRANCH  14  21
HETATM   21  N1  UNL     1      39.001  21.294  35.501  1.00  0.00    -0.234 N 
ATOM     22  H12 UNL     1      39.147  22.235  35.134  1.00  0.00     0.174 HD
ATOM     23  H11 UNL     1      38.057  20.980  35.725  1.00  0.00     0.174 HD
ENDBRANCH  14  21
BRANCH  17  24
HETATM   24  N9  UNL     1      40.652  17.304  37.008  1.00  0.00    -0.234 N 
ATOM     25  H92 UNL     1      40.083  16.605  36.531  1.00  0.00     0.174 HD
ATOM     26  H91 UNL     1      41.051  17.073  37.918  1.00  0.00     0.174 HD
ENDBRANCH  17  24
ENDBRANCH   1  12
BRANCH   7  27
HETATM   27  C6  UNL     1      47.826  18.669  32.682  1.00  0.00     0.147 C 
BRANCH  27  28
HETATM   28  C7  UNL     1      47.872  17.180  32.661  1.00  0.00     0.187 C 
BRANCH  28  29
HETATM   29  O1  UNL     1      47.581  16.639  33.878  1.00  0.00    -0.388 OA
BRANCH  29  30
HETATM   30  C8  UNL     1      46.429  15.898  33.901  1.00  0.00     0.195 C 
BRANCH  30  31
HETATM   31  C9  UNL     1      46.197  15.226  32.526  1.00  0.00     0.255 C 
BRANCH  31  32
HETATM   32  N6  UNL     1      44.780  15.186  32.302  1.00  0.00    -0.077 N 
ATOM     33  H63 UNL     1      44.296  16.009  32.661  1.00  0.00     0.274 HD
ATOM     34  H62 UNL     1      44.528  15.302  31.320  1.00  0.00     0.274 HD
ATOM     35  H61 UNL     1      44.433  14.314  32.702  1.00  0.00     0.274 HD
ENDBRANCH  31  32
ENDBRANCH  30  31
ENDBRANCH  29  30
ENDBRANCH  28  29
ENDBRANCH  27  28
ENDBRANCH   7  27
TORSDOF 9
ENDMDL
MODEL 5
REMARK VINA RESULT: -4.183266897      1.630      2.137
REMARK  9 active torsions:
REMARK  status: ('A' for Active; 'I' for Inactive)
REMARK    1  A    between atoms: N1_1  and  C1_4 
REMARK    2  A    between atoms: C2_7  and  N3_8 
REMARK    3  A    between atoms: N5_14  and  C6_16 
REMARK    4  A    between atoms: C6_16  and  C7_17 
REMARK    5  A    between atoms: C7_17  and  O1_18 
REMARK    6  A    between atoms: O1_18  and  C8_19 
REMARK    7  A    between atoms: C8_19  and  C9_20 
REMARK    8  A    between atoms: C9_20  and  N6_21 
REMARK    9  A    between atoms: C11_30  and  N9_31 
ROOT
HETATM    1  N3  UNL     1      41.966  20.421  36.727  1.00  0.00    -0.121 N 
HETATM    2  C3  UNL     1      42.457  19.114  37.165  1.00  0.00     0.187 C 
HETATM    3  C4  UNL     1      42.553  18.253  35.955  1.00  0.00     0.143 C 
HETATM    4  N4  UNL     1      43.601  18.673  35.052  1.00  0.00    -0.374 N 
ATOM      5  H4  UNL     1      44.376  18.026  34.906  1.00  0.00     0.161 HD
HETATM    6  C5  UNL     1      43.648  19.896  34.358  1.00  0.00     0.114 C 
HETATM    7  N5  UNL     1      44.316  19.903  33.280  1.00  0.00    -0.373 N 
ATOM      8  H5  UNL     1      44.394  20.754  32.721  1.00  0.00     0.161 HD
HETATM    9  C10 UNL     1      43.025  21.154  34.717  1.00  0.00     0.155 C 
HETATM   10  N7  UNL     1      42.708  21.371  36.071  1.00  0.00    -0.292 N 
ATOM     11  H7  UNL     1      43.022  22.213  36.553  1.00  0.00     0.186 HD
ENDROOT
BRANCH   1  12
HETATM   12  C2  UNL     1      40.601  20.718  37.021  1.00  0.00     0.728 A 
HETATM   13  N2  UNL     1      39.756  20.740  35.980  1.00  0.00    -0.020 N 
HETATM   14  C1  UNL     1      38.462  21.012  36.222  1.00  0.00     0.705 A 
ATOM     15  H2  UNL     1      40.085  20.557  35.033  1.00  0.00     0.203 HD
HETATM   16  N10 UNL     1      38.056  21.250  37.489  1.00  0.00    -0.022 N 
HETATM   17  C11 UNL     1      38.914  21.224  38.524  1.00  0.00     0.705 A 
ATOM     18  H10 UNL     1      37.072  21.455  37.665  1.00  0.00     0.203 HD
HETATM   19  N8  UNL     1      40.226  20.949  38.277  1.00  0.00    -0.020 N 
ATOM     20  H8  UNL     1      40.906  20.920  39.038  1.00  0.00     0.203 HD
BRANCH  14  21
HETATM   21  N1  UNL     1      37.606  21.050  35.255  1.00  0.00    -0.234 N 
ATOM     22  H12 UNL     1      37.583  20.296  34.568  1.00  0.00     0.174 HD
ATOM     23  H11 UNL     1      36.950  21.827  35.174  1.00  0.00     0.174 HD
ENDBRANCH  14  21
BRANCH  17  24
HETATM   24  N9  UNL     1      38.489  21.452  39.724  1.00  0.00    -0.234 N 
ATOM     25  H92 UNL     1      38.013  20.716  40.246  1.00  0.00     0.174 HD
ATOM     26  H91 UNL     1      38.622  22.360  40.171  1.00  0.00     0.174 HD
ENDBRANCH  17  24
ENDBRANCH   1  12
BRANCH   7  27
HETATM   27  C6  UNL     1      44.976  18.658  32.851  1.00  0.00     0.147 C 
BRANCH  27  28
HETATM   28  C7  UNL     1      46.409  18.911  32.528  1.00  0.00     0.187 C 
BRANCH  28  29
HETATM   29  O1  UNL     1      47.166  17.783  32.632  1.00  0.00    -0.388 OA
BRANCH  29  30
HETATM   30  C8  UNL     1      46.621  16.813  33.430  1.00  0.00     0.195 C 
BRANCH  30  31
HETATM   31  C9  UNL     1      46.763  15.425  32.760  1.00  0.00     0.255 C 
BRANCH  31  32
HETATM   32  N6  UNL     1      45.487  15.090  32.193  1.00  0.00    -0.077 N 
ATOM     33  H63 UNL     1      44.717  15.623  32.600  1.00  0.00     0.274 HD
ATOM     34  H62 UNL     1      45.380  15.416  31.232  1.00  0.00     0.274 HD
ATOM     35  H61 UNL     1      45.366  14.082  32.288  1.00  0.00     0.274 HD
ENDBRANCH  31  32
ENDBRANCH  30  31
ENDBRANCH  29  30
ENDBRANCH  28  29
ENDBRANCH  27  28
ENDBRANCH   7  27
TORSDOF 9
ENDMDL
