MODEL 1
REMARK VINA RESULT: -7.330907985      0.000      0.000
REMARK  8 active torsions:
REMARK  status: ('A' for Active; 'I' for Inactive)
REMARK    1  A    between atoms: C3_8  and  S1_9 
REMARK    2  A    between atoms: S1_9  and  N3_12 
REMARK    3  A    between atoms: N3_12  and  N4_14 
REMARK    4  A    between atoms: N4_14  and  C4_15 
REMARK    5  A    between atoms: N4_14  and  N7_21 
REMARK    6  A    between atoms: C4_15  and  C5_16 
REMARK    7  A    between atoms: N7_21  and  C6_23 
REMARK    8  A    between atoms: C9_28  and  C10_29 
ROOT
HETATM    1  N4  UNL     1     -17.801 -19.643  -0.586  1.00  0.00    -0.216 N 
ENDROOT
BRANCH   1   2
HETATM    2  N3  UNL     1     -19.120 -19.763  -0.901  1.00  0.00    -0.204 N 
ATOM      3  H3  UNL     1     -19.531 -19.177  -1.628  1.00  0.00     0.202 HD
BRANCH   2   4
HETATM    4  S1  UNL     1     -20.065 -20.883  -0.082  1.00  0.00     0.296 S 
HETATM    5  O2  UNL     1     -19.884 -20.883   1.415  1.00  0.00    -0.197 OA
HETATM    6  O3  UNL     1     -21.528 -20.499  -0.294  1.00  0.00    -0.197 OA
BRANCH   4   7
HETATM    7  C3  UNL     1     -19.917 -22.518  -0.668  1.00  0.00     0.197 A 
HETATM    8  C2  UNL     1     -19.712 -22.913  -1.965  1.00  0.00     0.072 A 
HETATM    9  C1  UNL     1     -19.570 -22.066  -3.180  1.00  0.00     0.074 C 
HETATM   10  N1  UNL     1     -19.663 -24.255  -1.946  1.00  0.00    -0.243 N 
HETATM   11  O1  UNL     1     -19.827 -24.634  -0.716  1.00  0.00    -0.156 OA
ATOM     12  H1  UNL     1     -19.523 -24.865  -2.752  1.00  0.00     0.196 HD
HETATM   13  N2  UNL     1     -19.981 -23.625   0.074  1.00  0.00    -0.227 N 
ATOM     14  H2  UNL     1     -20.125 -23.667   1.083  1.00  0.00     0.197 HD
ENDBRANCH   4   7
ENDBRANCH   2   4
ENDBRANCH   1   2
BRANCH   1  15
HETATM   15  C4  UNL     1     -17.281 -18.893   0.542  1.00  0.00     0.242 C 
BRANCH  15  16
HETATM   16  C5  UNL     1     -17.620 -17.458   0.518  1.00  0.00     0.108 C 
HETATM   17  N5  UNL     1     -16.702 -16.582   0.483  1.00  0.00    -0.390 N 
ATOM     18  H52 UNL     1     -15.721 -16.862   0.475  1.00  0.00     0.157 HD
ATOM     19  H51 UNL     1     -16.937 -15.590   0.466  1.00  0.00     0.157 HD
HETATM   20  N6  UNL     1     -18.980 -17.070   0.530  1.00  0.00    -0.086 NA
ENDBRANCH  15  16
ENDBRANCH   1  15
BRANCH   1  21
HETATM   21  N7  UNL     1     -16.884 -20.300  -1.399  1.00  0.00    -0.262 N 
ATOM     22  H7  UNL     1     -16.912 -20.137  -2.405  1.00  0.00     0.191 HD
BRANCH  21  23
HETATM   23  C6  UNL     1     -15.982 -21.124  -0.912  1.00  0.00     0.165 A 
HETATM   24  N8  UNL     1     -14.728 -20.857  -0.547  1.00  0.00    -0.338 N 
HETATM   25  C7  UNL     1     -13.987 -21.842  -0.079  1.00  0.00     0.029 A 
ATOM     26  H8  UNL     1     -14.350 -19.912  -0.627  1.00  0.00     0.168 HD
HETATM   27  C8  UNL     1     -12.538 -21.687   0.377  1.00  0.00     0.070 C 
HETATM   28  C9  UNL     1     -14.565 -23.079  -0.004  1.00  0.00     0.083 A 
HETATM   29  S2  UNL     1     -16.129 -22.795  -0.595  1.00  0.00    -0.046 SA
BRANCH  28  30
HETATM   30  C10 UNL     1     -13.991 -24.352   0.469  1.00  0.00     0.185 A 
HETATM   31  N9  UNL     1     -14.018 -24.825   1.705  1.00  0.00    -0.275 N 
HETATM   32  N10 UNL     1     -13.395 -25.991   1.706  1.00  0.00    -0.263 N 
ATOM     33  H9  UNL     1     -14.444 -24.371   2.513  1.00  0.00     0.189 HD
HETATM   34  C11 UNL     1     -12.974 -26.252   0.458  1.00  0.00     0.238 A 
ATOM     35  H10 UNL     1     -13.258 -26.592   2.519  1.00  0.00     0.190 HD
HETATM   36  N11 UNL     1     -12.324 -27.292   0.041  1.00  0.00    -0.364 N 
HETATM   37  O4  UNL     1     -13.367 -25.209  -0.266  1.00  0.00    -0.259 OA
ATOM     38 2H11 UNL     1     -12.022 -28.092   0.597  1.00  0.00     0.159 HD
ATOM     39 1H11 UNL     1     -12.004 -27.490  -0.907  1.00  0.00     0.159 HD
ENDBRANCH  28  30
ENDBRANCH  21  23
ENDBRANCH   1  21
TORSDOF 8
ENDMDL
MODEL 2
REMARK VINA RESULT: -7.234980725      1.637      4.402
REMARK  8 active torsions:
REMARK  status: ('A' for Active; 'I' for Inactive)
REMARK    1  A    between atoms: C3_8  and  S1_9 
REMARK    2  A    between atoms: S1_9  and  N3_12 
REMARK    3  A    between atoms: N3_12  and  N4_14 
REMARK    4  A    between atoms: N4_14  and  C4_15 
REMARK    5  A    between atoms: N4_14  and  N7_21 
REMARK    6  A    between atoms: C4_15  and  C5_16 
REMARK    7  A    between atoms: N7_21  and  C6_23 
REMARK    8  A    between atoms: C9_28  and  C10_29 
ROOT
HETATM    1  N4  UNL     1     -18.775 -20.651  -2.182  1.00  0.00    -0.216 N 
ENDROOT
BRANCH   1   2
HETATM    2  N3  UNL     1     -18.508 -19.407  -1.697  1.00  0.00    -0.204 N 
ATOM      3  H3  UNL     1     -18.204 -18.664  -2.326  1.00  0.00     0.202 HD
BRANCH   2   4
HETATM    4  S1  UNL     1     -18.683 -19.106  -0.055  1.00  0.00     0.296 S 
HETATM    5  O2  UNL     1     -20.100 -19.189   0.452  1.00  0.00    -0.197 OA
HETATM    6  O3  UNL     1     -17.938 -20.205   0.700  1.00  0.00    -0.197 OA
BRANCH   4   7
HETATM    7  C3  UNL     1     -17.980 -17.604   0.483  1.00  0.00     0.197 A 
HETATM    8  C2  UNL     1     -16.652 -17.259   0.457  1.00  0.00     0.072 A 
HETATM    9  C1  UNL     1     -15.496 -18.062  -0.025  1.00  0.00     0.074 C 
HETATM   10  N1  UNL     1     -16.576 -16.019   0.965  1.00  0.00    -0.243 N 
HETATM   11  O1  UNL     1     -17.781 -15.648   1.273  1.00  0.00    -0.156 OA
ATOM     12  H1  UNL     1     -15.726 -15.468   1.087  1.00  0.00     0.196 HD
HETATM   13  N2  UNL     1     -18.644 -16.569   0.999  1.00  0.00    -0.227 N 
ATOM     14  H2  UNL     1     -19.651 -16.513   1.150  1.00  0.00     0.197 HD
ENDBRANCH   4   7
ENDBRANCH   2   4
ENDBRANCH   1   2
BRANCH   1  15
HETATM   15  C4  UNL     1     -20.090 -21.263  -2.220  1.00  0.00     0.242 C 
BRANCH  15  16
HETATM   16  C5  UNL     1     -20.243 -22.417  -1.315  1.00  0.00     0.108 C 
HETATM   17  N5  UNL     1     -20.227 -22.252  -0.056  1.00  0.00    -0.390 N 
ATOM     18  H52 UNL     1     -20.106 -21.320   0.342  1.00  0.00     0.157 HD
ATOM     19  H51 UNL     1     -20.333 -23.050   0.570  1.00  0.00     0.157 HD
HETATM   20  N6  UNL     1     -20.411 -23.708  -1.866  1.00  0.00    -0.086 NA
ENDBRANCH  15  16
ENDBRANCH   1  15
BRANCH   1  21
HETATM   21  N7  UNL     1     -17.710 -21.384  -2.692  1.00  0.00    -0.262 N 
ATOM     22  H7  UNL     1     -17.663 -21.552  -3.697  1.00  0.00     0.191 HD
BRANCH  21  23
HETATM   23  C6  UNL     1     -16.761 -21.869  -1.921  1.00  0.00     0.165 A 
HETATM   24  N8  UNL     1     -15.643 -21.271  -1.507  1.00  0.00    -0.338 N 
HETATM   25  C7  UNL     1     -14.821 -21.947  -0.731  1.00  0.00     0.029 A 
ATOM     26  H8  UNL     1     -15.430 -20.313  -1.785  1.00  0.00     0.168 HD
HETATM   27  C8  UNL     1     -13.507 -21.394  -0.181  1.00  0.00     0.070 C 
HETATM   28  C9  UNL     1     -15.176 -23.226  -0.404  1.00  0.00     0.083 A 
HETATM   29  S2  UNL     1     -16.657 -23.416  -1.207  1.00  0.00    -0.046 SA
BRANCH  28  30
HETATM   30  C10 UNL     1     -14.465 -24.210   0.434  1.00  0.00     0.185 A 
HETATM   31  N9  UNL     1     -14.240 -24.128   1.736  1.00  0.00    -0.275 N 
HETATM   32  N10 UNL     1     -13.573 -25.211   2.100  1.00  0.00    -0.263 N 
ATOM     33  H9  UNL     1     -14.529 -23.367   2.349  1.00  0.00     0.189 HD
HETATM   34  C11 UNL     1     -13.380 -25.978   1.015  1.00  0.00     0.238 A 
ATOM     35  H10 UNL     1     -13.259 -25.427   3.046  1.00  0.00     0.190 HD
HETATM   36  N11 UNL     1     -12.771 -27.120   0.949  1.00  0.00    -0.364 N 
HETATM   37  O4  UNL     1     -13.949 -25.315   0.014  1.00  0.00    -0.259 OA
ATOM     38 2H11 UNL     1     -12.334 -27.628   1.717  1.00  0.00     0.159 HD
ATOM     39 1H11 UNL     1     -12.624 -27.702   0.125  1.00  0.00     0.159 HD
ENDBRANCH  28  30
ENDBRANCH  21  23
ENDBRANCH   1  21
TORSDOF 8
ENDMDL
MODEL 3
REMARK VINA RESULT: -7.168641946      4.031      6.663
REMARK  8 active torsions:
REMARK  status: ('A' for Active; 'I' for Inactive)
REMARK    1  A    between atoms: C3_8  and  S1_9 
REMARK    2  A    between atoms: S1_9  and  N3_12 
REMARK    3  A    between atoms: N3_12  and  N4_14 
REMARK    4  A    between atoms: N4_14  and  C4_15 
REMARK    5  A    between atoms: N4_14  and  N7_21 
REMARK    6  A    between atoms: C4_15  and  C5_16 
REMARK    7  A    between atoms: N7_21  and  C6_23 
REMARK    8  A    between atoms: C9_28  and  C10_29 
ROOT
HETATM    1  N4  UNL     1     -18.423 -20.848  -1.429  1.00  0.00    -0.216 N 
ENDROOT
BRANCH   1   2
HETATM    2  N3  UNL     1     -18.093 -20.655  -0.123  1.00  0.00    -0.204 N 
ATOM      3  H3  UNL     1     -17.369 -21.224   0.316  1.00  0.00     0.202 HD
BRANCH   2   4
HETATM    4  S1  UNL     1     -18.888 -19.469   0.762  1.00  0.00     0.296 S 
HETATM    5  O2  UNL     1     -20.325 -19.246   0.365  1.00  0.00    -0.197 OA
HETATM    6  O3  UNL     1     -18.956 -19.941   2.213  1.00  0.00    -0.197 OA
BRANCH   4   7
HETATM    7  C3  UNL     1     -18.070 -17.931   0.805  1.00  0.00     0.197 A 
HETATM    8  C2  UNL     1     -16.734 -17.700   0.588  1.00  0.00     0.072 A 
HETATM    9  C1  UNL     1     -15.665 -18.684   0.270  1.00  0.00     0.074 C 
HETATM   10  N1  UNL     1     -16.555 -16.376   0.721  1.00  0.00    -0.243 N 
HETATM   11  O1  UNL     1     -17.709 -15.852   0.998  1.00  0.00    -0.156 OA
ATOM     12  H1  UNL     1     -15.672 -15.874   0.621  1.00  0.00     0.196 HD
HETATM   13  N2  UNL     1     -18.636 -16.749   1.056  1.00  0.00    -0.227 N 
ATOM     14  H2  UNL     1     -19.622 -16.583   1.257  1.00  0.00     0.197 HD
ENDBRANCH   4   7
ENDBRANCH   2   4
ENDBRANCH   1   2
BRANCH   1  15
HETATM   15  C4  UNL     1     -17.484 -20.822  -2.535  1.00  0.00     0.242 C 
BRANCH  15  16
HETATM   16  C5  UNL     1     -17.233 -19.474  -3.079  1.00  0.00     0.108 C 
HETATM   17  N5  UNL     1     -16.224 -19.258  -3.817  1.00  0.00    -0.390 N 
ATOM     18  H52 UNL     1     -15.574 -20.013  -4.040  1.00  0.00     0.157 HD
ATOM     19  H51 UNL     1     -16.050 -18.326  -4.193  1.00  0.00     0.157 HD
HETATM   20  N6  UNL     1     -18.132 -18.428  -2.771  1.00  0.00    -0.086 NA
ENDBRANCH  15  16
ENDBRANCH   1  15
BRANCH   1  21
HETATM   21  N7  UNL     1     -19.757 -21.105  -1.724  1.00  0.00    -0.262 N 
ATOM     22  H7  UNL     1     -20.343 -20.342  -2.062  1.00  0.00     0.191 HD
BRANCH  21  23
HETATM   23  C6  UNL     1     -20.288 -22.300  -1.581  1.00  0.00     0.165 A 
HETATM   24  N8  UNL     1     -20.909 -23.045  -2.496  1.00  0.00    -0.338 N 
HETATM   25  C7  UNL     1     -21.370 -24.225  -2.136  1.00  0.00     0.029 A 
ATOM     26  H8  UNL     1     -21.024 -22.709  -3.453  1.00  0.00     0.168 HD
HETATM   27  C8  UNL     1     -22.100 -25.186  -3.073  1.00  0.00     0.070 C 
HETATM   28  C9  UNL     1     -21.178 -24.603  -0.837  1.00  0.00     0.083 A 
HETATM   29  S2  UNL     1     -20.353 -23.275  -0.181  1.00  0.00    -0.046 SA
BRANCH  28  30
HETATM   30  C10 UNL     1     -21.580 -25.848  -0.155  1.00  0.00     0.185 A 
HETATM   31  N9  UNL     1     -20.883 -26.970  -0.075  1.00  0.00    -0.275 N 
HETATM   32  N10 UNL     1     -21.595 -27.841   0.619  1.00  0.00    -0.263 N 
ATOM     33  H9  UNL     1     -19.961 -27.134  -0.479  1.00  0.00     0.189 HD
HETATM   34  C11 UNL     1     -22.749 -27.258   0.979  1.00  0.00     0.238 A 
ATOM     35  H10 UNL     1     -21.314 -28.795   0.844  1.00  0.00     0.190 HD
HETATM   36  N11 UNL     1     -23.718 -27.774   1.668  1.00  0.00    -0.364 N 
HETATM   37  O4  UNL     1     -22.690 -26.029   0.477  1.00  0.00    -0.259 OA
ATOM     38 2H11 UNL     1     -23.764 -28.717   2.054  1.00  0.00     0.159 HD
ATOM     39 1H11 UNL     1     -24.595 -27.331   1.941  1.00  0.00     0.159 HD
ENDBRANCH  28  30
ENDBRANCH  21  23
ENDBRANCH   1  21
TORSDOF 8
ENDMDL
MODEL 4
REMARK VINA RESULT: -7.144715132      4.338      6.698
REMARK  8 active torsions:
REMARK  status: ('A' for Active; 'I' for Inactive)
REMARK    1  A    between atoms: C3_8  and  S1_9 
REMARK    2  A    between atoms: S1_9  and  N3_12 
REMARK    3  A    between atoms: N3_12  and  N4_14 
REMARK    4  A    between atoms: N4_14  and  C4_15 
REMARK    5  A    between atoms: N4_14  and  N7_21 
REMARK    6  A    between atoms: C4_15  and  C5_16 
REMARK    7  A    between atoms: N7_21  and  C6_23 
REMARK    8  A    between atoms: C9_28  and  C10_29 
ROOT
HETATM    1  N4  UNL     1     -21.668 -22.922  -2.572  1.00  0.00    -0.216 N 
ENDROOT
BRANCH   1   2
HETATM    2  N3  UNL     1     -21.875 -23.932  -1.684  1.00  0.00    -0.204 N 
ATOM      3  H3  UNL     1     -22.805 -24.097  -1.300  1.00  0.00     0.202 HD
BRANCH   2   4
HETATM    4  S1  UNL     1     -20.585 -24.904  -1.224  1.00  0.00     0.296 S 
HETATM    5  O2  UNL     1     -19.639 -25.262  -2.341  1.00  0.00    -0.197 OA
HETATM    6  O3  UNL     1     -19.734 -24.109  -0.237  1.00  0.00    -0.197 OA
BRANCH   4   7
HETATM    7  C3  UNL     1     -21.044 -26.362  -0.385  1.00  0.00     0.197 A 
HETATM    8  C2  UNL     1     -21.840 -26.457   0.729  1.00  0.00     0.072 A 
HETATM    9  C1  UNL     1     -22.500 -25.363   1.491  1.00  0.00     0.074 C 
HETATM   10  N1  UNL     1     -21.920 -27.764   1.023  1.00  0.00    -0.243 N 
HETATM   11  O1  UNL     1     -21.218 -28.407   0.141  1.00  0.00    -0.156 OA
ATOM     12  H1  UNL     1     -22.438 -28.177   1.799  1.00  0.00     0.196 HD
HETATM   13  N2  UNL     1     -20.681 -27.603  -0.714  1.00  0.00    -0.227 N 
ATOM     14  H2  UNL     1     -20.086 -27.868  -1.500  1.00  0.00     0.197 HD
ENDBRANCH   4   7
ENDBRANCH   2   4
ENDBRANCH   1   2
BRANCH   1  15
HETATM   15  C4  UNL     1     -22.719 -22.180  -3.246  1.00  0.00     0.242 C 
BRANCH  15  16
HETATM   16  C5  UNL     1     -23.632 -23.020  -4.042  1.00  0.00     0.108 C 
HETATM   17  N5  UNL     1     -24.678 -22.519  -4.558  1.00  0.00    -0.390 N 
ATOM     18  H52 UNL     1     -24.899 -21.532  -4.425  1.00  0.00     0.157 HD
ATOM     19  H51 UNL     1     -25.310 -23.100  -5.109  1.00  0.00     0.157 HD
HETATM   20  N6  UNL     1     -23.327 -24.388  -4.227  1.00  0.00    -0.086 NA
ENDBRANCH  15  16
ENDBRANCH   1  15
BRANCH   1  21
HETATM   21  N7  UNL     1     -20.353 -22.565  -2.845  1.00  0.00    -0.262 N 
ATOM     22  H7  UNL     1     -19.852 -23.055  -3.586  1.00  0.00     0.191 HD
BRANCH  21  23
HETATM   23  C6  UNL     1     -19.733 -21.616  -2.179  1.00  0.00     0.165 A 
HETATM   24  N8  UNL     1     -20.008 -21.142  -0.963  1.00  0.00    -0.338 N 
HETATM   25  C7  UNL     1     -19.250 -20.178  -0.479  1.00  0.00     0.029 A 
ATOM     26  H8  UNL     1     -20.786 -21.517  -0.420  1.00  0.00     0.168 HD
HETATM   27  C8  UNL     1     -19.445 -19.539   0.895  1.00  0.00     0.070 C 
HETATM   28  C9  UNL     1     -18.229 -19.728  -1.268  1.00  0.00     0.083 A 
HETATM   29  S2  UNL     1     -18.382 -20.688  -2.658  1.00  0.00    -0.046 SA
BRANCH  28  30
HETATM   30  C10 UNL     1     -17.233 -18.674  -0.999  1.00  0.00     0.185 A 
HETATM   31  N9  UNL     1     -17.450 -17.369  -0.954  1.00  0.00    -0.275 N 
HETATM   32  N10 UNL     1     -16.299 -16.776  -0.685  1.00  0.00    -0.263 N 
ATOM     33  H9  UNL     1     -18.345 -16.904  -1.102  1.00  0.00     0.189 HD
HETATM   34  C11 UNL     1     -15.352 -17.719  -0.558  1.00  0.00     0.238 A 
ATOM     35  H10 UNL     1     -16.156 -15.771  -0.589  1.00  0.00     0.190 HD
HETATM   36  N11 UNL     1     -14.095 -17.551  -0.295  1.00  0.00    -0.364 N 
HETATM   37  O4  UNL     1     -15.980 -18.873  -0.761  1.00  0.00    -0.259 OA
ATOM     38 2H11 UNL     1     -13.613 -16.666  -0.140  1.00  0.00     0.159 HD
ATOM     39 1H11 UNL     1     -13.375 -18.267  -0.199  1.00  0.00     0.159 HD
ENDBRANCH  28  30
ENDBRANCH  21  23
ENDBRANCH   1  21
TORSDOF 8
ENDMDL
MODEL 5
REMARK VINA RESULT: -7.071009313      1.244      1.626
REMARK  8 active torsions:
REMARK  status: ('A' for Active; 'I' for Inactive)
REMARK    1  A    between atoms: C3_8  and  S1_9 
REMARK    2  A    between atoms: S1_9  and  N3_12 
REMARK    3  A    between atoms: N3_12  and  N4_14 
REMARK    4  A    between atoms: N4_14  and  C4_15 
REMARK    5  A    between atoms: N4_14  and  N7_21 
REMARK    6  A    between atoms: C4_15  and  C5_16 
REMARK    7  A    between atoms: N7_21  and  C6_23 
REMARK    8  A    between atoms: C9_28  and  C10_29 
ROOT
HETATM    1  N4  UNL     1     -18.008 -19.421  -0.570  1.00  0.00    -0.216 N 
ENDROOT
BRANCH   1   2
HETATM    2  N3  UNL     1     -19.281 -19.707  -0.958  1.00  0.00    -0.204 N 
ATOM      3  H3  UNL     1     -19.708 -19.203  -1.735  1.00  0.00     0.202 HD
BRANCH   2   4
HETATM    4  S1  UNL     1     -20.143 -20.898  -0.147  1.00  0.00     0.296 S 
HETATM    5  O2  UNL     1     -19.895 -20.951   1.340  1.00  0.00    -0.197 OA
HETATM    6  O3  UNL     1     -21.628 -20.568  -0.280  1.00  0.00    -0.197 OA
BRANCH   4   7
HETATM    7  C3  UNL     1     -19.954 -22.501  -0.806  1.00  0.00     0.197 A 
HETATM    8  C2  UNL     1     -20.160 -22.887  -2.106  1.00  0.00     0.072 A 
HETATM    9  C1  UNL     1     -20.589 -22.055  -3.262  1.00  0.00     0.074 C 
HETATM   10  N1  UNL     1     -19.897 -24.203  -2.154  1.00  0.00    -0.243 N 
HETATM   11  O1  UNL     1     -19.555 -24.576  -0.959  1.00  0.00    -0.156 OA
ATOM     12  H1  UNL     1     -19.954 -24.800  -2.979  1.00  0.00     0.196 HD
HETATM   13  N2  UNL     1     -19.578 -23.587  -0.129  1.00  0.00    -0.227 N 
ATOM     14  H2  UNL     1     -19.350 -23.630   0.864  1.00  0.00     0.197 HD
ENDBRANCH   4   7
ENDBRANCH   2   4
ENDBRANCH   1   2
BRANCH   1  15
HETATM   15  C4  UNL     1     -17.647 -18.766   0.675  1.00  0.00     0.242 C 
BRANCH  15  16
HETATM   16  C5  UNL     1     -18.105 -17.368   0.773  1.00  0.00     0.108 C 
HETATM   17  N5  UNL     1     -17.289 -16.446   1.085  1.00  0.00    -0.390 N 
ATOM     18  H52 UNL     1     -16.311 -16.663   1.273  1.00  0.00     0.157 HD
ATOM     19  H51 UNL     1     -17.606 -15.479   1.153  1.00  0.00     0.157 HD
HETATM   20  N6  UNL     1     -19.461 -17.066   0.512  1.00  0.00    -0.086 NA
ENDBRANCH  15  16
ENDBRANCH   1  15
BRANCH   1  21
HETATM   21  N7  UNL     1     -16.976 -19.795  -1.422  1.00  0.00    -0.262 N 
ATOM     22  H7  UNL     1     -16.642 -19.126  -2.116  1.00  0.00     0.191 HD
BRANCH  21  23
HETATM   23  C6  UNL     1     -16.416 -20.983  -1.363  1.00  0.00     0.165 A 
HETATM   24  N8  UNL     1     -16.722 -22.079  -2.059  1.00  0.00    -0.338 N 
HETATM   25  C7  UNL     1     -16.026 -23.176  -1.840  1.00  0.00     0.029 A 
ATOM     26  H8  UNL     1     -17.477 -22.068  -2.745  1.00  0.00     0.168 HD
HETATM   27  C8  UNL     1     -16.261 -24.502  -2.561  1.00  0.00     0.070 C 
HETATM   28  C9  UNL     1     -15.031 -23.111  -0.904  1.00  0.00     0.083 A 
HETATM   29  S2  UNL     1     -15.123 -21.503  -0.376  1.00  0.00    -0.046 SA
BRANCH  28  30
HETATM   30  C10 UNL     1     -14.102 -24.163  -0.452  1.00  0.00     0.185 A 
HETATM   31  N9  UNL     1     -12.867 -24.370  -0.883  1.00  0.00    -0.275 N 
HETATM   32  N10 UNL     1     -12.378 -25.408  -0.225  1.00  0.00    -0.263 N 
ATOM     33  H9  UNL     1     -12.380 -23.827  -1.595  1.00  0.00     0.189 HD
HETATM   34  C11 UNL     1     -13.315 -25.854   0.627  1.00  0.00     0.238 A 
ATOM     35  H10 UNL     1     -11.445 -25.802  -0.344  1.00  0.00     0.190 HD
HETATM   36  N11 UNL     1     -13.229 -26.851   1.450  1.00  0.00    -0.364 N 
HETATM   37  O4  UNL     1     -14.359 -25.052   0.447  1.00  0.00    -0.259 OA
ATOM     38 2H11 UNL     1     -12.428 -27.467   1.588  1.00  0.00     0.159 HD
ATOM     39 1H11 UNL     1     -13.940 -27.190   2.097  1.00  0.00     0.159 HD
ENDBRANCH  28  30
ENDBRANCH  21  23
ENDBRANCH   1  21
TORSDOF 8
ENDMDL
