MODEL 1
REMARK VINA RESULT: -7.877412773      0.000      0.000
REMARK  9 active torsions:
REMARK  status: ('A' for Active; 'I' for Inactive)
REMARK    1  A    between atoms: C1_2  and  N2_4 
REMARK    2  A    between atoms: N3_6  and  C2_8 
REMARK    3  A    between atoms: C3_11  and  O1_12 
REMARK    4  A    between atoms: C4_14  and  C5_15 
REMARK    5  A    between atoms: C5_15  and  N5_16 
REMARK    6  A    between atoms: N5_16  and  N6_17 
REMARK       I    between atoms: N6_17  and  C6_18 
REMARK    7  A    between atoms: C6_18  and  C7_20 
REMARK    8  A    between atoms: C7_20  and  S2_21 
REMARK    9  A    between atoms: S2_21  and  C8_22 
ROOT
HETATM    1  N6  UNL     1     -20.515 -21.552   0.247  1.00  0.00    -0.209 NA
HETATM    2  C6  UNL     1     -21.085 -22.606  -0.395  1.00  0.00     0.337 C 
HETATM    3  O2  UNL     1     -21.931 -22.707  -1.169  1.00  0.00    -0.253 OA
ENDROOT
BRANCH   2   4
HETATM    4  C7  UNL     1     -20.352 -23.911   0.175  1.00  0.00     0.205 C 
BRANCH   4   5
HETATM    5  S2  UNL     1     -21.274 -25.350  -0.449  1.00  0.00    -0.082 SA
BRANCH   5   6
HETATM    6  C8  UNL     1     -22.427 -25.923   0.819  1.00  0.00     0.161 A 
HETATM    7  N7  UNL     1     -23.062 -27.071   0.628  1.00  0.00    -0.278 N 
HETATM    8  N8  UNL     1     -24.062 -27.477   1.348  1.00  0.00    -0.279 N 
ATOM      9  H7  UNL     1     -22.745 -27.672  -0.133  1.00  0.00     0.189 HD
HETATM   10  C9  UNL     1     -24.440 -26.660   2.352  1.00  0.00     0.182 A 
ATOM     11  H8  UNL     1     -24.534 -28.362   1.166  1.00  0.00     0.189 HD
HETATM   12  N9  UNL     1     -25.544 -26.718   3.232  1.00  0.00    -0.267 N 
HETATM   13  C10 UNL     1     -23.836 -25.480   2.594  1.00  0.00     0.171 A 
HETATM   14  N10 UNL     1     -25.501 -25.605   3.962  1.00  0.00    -0.239 N 
ATOM     15  H9  UNL     1     -26.237 -27.463   3.294  1.00  0.00     0.190 HD
HETATM   16  N11 UNL     1     -24.519 -24.848   3.597  1.00  0.00    -0.268 N 
ATOM     17  H10 UNL     1     -26.157 -25.380   4.710  1.00  0.00     0.208 HD
ATOM     18  H11 UNL     1     -24.293 -23.935   3.991  1.00  0.00     0.190 HD
HETATM   19  N12 UNL     1     -22.844 -25.144   1.805  1.00  0.00    -0.318 N 
ATOM     20  H12 UNL     1     -22.376 -24.250   1.956  1.00  0.00     0.169 HD
ENDBRANCH   5   6
ENDBRANCH   4   5
ENDBRANCH   2   4
BRANCH   1  21
HETATM   21  N5  UNL     1     -20.033 -20.581   0.794  1.00  0.00    -0.257 NA
BRANCH  21  22
HETATM   22  C5  UNL     1     -19.511 -19.766   1.458  1.00  0.00     0.248 C 
BRANCH  22  23
HETATM   23  C4  UNL     1     -18.380 -19.117   0.788  1.00  0.00     0.091 A 
HETATM   24  C3  UNL     1     -17.476 -19.721  -0.004  1.00  0.00     0.162 A 
HETATM   25  N4  UNL     1     -16.572 -18.967  -0.548  1.00  0.00    -0.315 N 
HETATM   26  C2  UNL     1     -16.550 -17.641  -0.317  1.00  0.00     0.166 A 
ATOM     27  H4  UNL     1     -15.869 -19.384  -1.159  1.00  0.00     0.170 HD
HETATM   28  S3  UNL     1     -17.934 -17.485   0.759  1.00  0.00    -0.046 SA
BRANCH  24  29
HETATM   29  O1  UNL     1     -17.514 -21.170  -0.205  1.00  0.00    -0.345 OA
ATOM     30  H1  UNL     1     -18.239 -21.605  -0.640  1.00  0.00     0.219 HD
ENDBRANCH  24  29
BRANCH  26  31
HETATM   31  N3  UNL     1     -16.055 -16.703  -0.940  1.00  0.00    -0.278 N 
HETATM   32  N2  UNL     1     -15.359 -16.560  -1.991  1.00  0.00    -0.277 N 
ATOM     33  H2  UNL     1     -15.813 -15.851  -2.567  1.00  0.00     0.189 HD
ATOM     34  H3  UNL     1     -16.257 -15.807  -0.497  1.00  0.00     0.189 HD
BRANCH  32  35
HETATM   35  C1  UNL     1     -14.246 -16.979  -2.653  1.00  0.00     0.199 C 
HETATM   36  N1  UNL     1     -13.021 -16.289  -2.809  1.00  0.00    -0.068 NA
HETATM   37  S1  UNL     1     -14.378 -18.391  -3.570  1.00  0.00    -0.043 SA
ENDBRANCH  32  35
ENDBRANCH  26  31
ENDBRANCH  22  23
ENDBRANCH  21  22
ENDBRANCH   1  21
TORSDOF 9
ENDMDL
MODEL 2
REMARK VINA RESULT: -7.847850588      2.744      9.423
REMARK  9 active torsions:
REMARK  status: ('A' for Active; 'I' for Inactive)
REMARK    1  A    between atoms: C1_2  and  N2_4 
REMARK    2  A    between atoms: N3_6  and  C2_8 
REMARK    3  A    between atoms: C3_11  and  O1_12 
REMARK    4  A    between atoms: C4_14  and  C5_15 
REMARK    5  A    between atoms: C5_15  and  N5_16 
REMARK    6  A    between atoms: N5_16  and  N6_17 
REMARK       I    between atoms: N6_17  and  C6_18 
REMARK    7  A    between atoms: C6_18  and  C7_20 
REMARK    8  A    between atoms: C7_20  and  S2_21 
REMARK    9  A    between atoms: S2_21  and  C8_22 
ROOT
HETATM    1  N6  UNL     1     -20.345 -20.292   0.631  1.00  0.00    -0.209 NA
HETATM    2  C6  UNL     1     -19.621 -19.665   1.594  1.00  0.00     0.337 C 
HETATM    3  O2  UNL     1     -19.350 -19.920   2.684  1.00  0.00    -0.253 OA
ENDROOT
BRANCH   2   4
HETATM    4  C7  UNL     1     -19.143 -18.280   0.947  1.00  0.00     0.205 C 
BRANCH   4   5
HETATM    5  S2  UNL     1     -17.564 -18.608   0.103  1.00  0.00    -0.082 SA
BRANCH   5   6
HETATM    6  C8  UNL     1     -17.881 -19.035  -1.623  1.00  0.00     0.161 A 
HETATM    7  N7  UNL     1     -17.850 -18.071  -2.532  1.00  0.00    -0.278 N 
HETATM    8  N8  UNL     1     -18.268 -18.208  -3.752  1.00  0.00    -0.279 N 
ATOM      9  H7  UNL     1     -17.473 -17.164  -2.255  1.00  0.00     0.189 HD
HETATM   10  C9  UNL     1     -18.744 -19.425  -4.082  1.00  0.00     0.182 A 
ATOM     11  H8  UNL     1     -18.239 -17.440  -4.422  1.00  0.00     0.189 HD
HETATM   12  N9  UNL     1     -19.389 -19.886  -5.252  1.00  0.00    -0.267 N 
HETATM   13  C10 UNL     1     -18.804 -20.445  -3.202  1.00  0.00     0.171 A 
HETATM   14  N10 UNL     1     -19.746 -21.146  -5.014  1.00  0.00    -0.239 N 
ATOM     15  H9  UNL     1     -19.549 -19.357  -6.109  1.00  0.00     0.190 HD
HETATM   16  N11 UNL     1     -19.433 -21.497  -3.810  1.00  0.00    -0.268 N 
ATOM     17  H10 UNL     1     -20.205 -21.755  -5.691  1.00  0.00     0.208 HD
ATOM     18  H11 UNL     1     -19.623 -22.405  -3.385  1.00  0.00     0.190 HD
HETATM   19  N12 UNL     1     -18.373 -20.209  -1.986  1.00  0.00    -0.318 N 
ATOM     20  H12 UNL     1     -18.418 -20.958  -1.294  1.00  0.00     0.169 HD
ENDBRANCH   5   6
ENDBRANCH   4   5
ENDBRANCH   2   4
BRANCH   1  21
HETATM   21  N5  UNL     1     -20.997 -20.891  -0.201  1.00  0.00    -0.257 NA
BRANCH  21  22
HETATM   22  C5  UNL     1     -21.549 -21.628  -0.929  1.00  0.00     0.248 C 
BRANCH  22  23
HETATM   23  C4  UNL     1     -21.306 -23.038  -0.611  1.00  0.00     0.091 A 
HETATM   24  C3  UNL     1     -20.104 -23.637  -0.531  1.00  0.00     0.162 A 
HETATM   25  N4  UNL     1     -20.090 -24.887  -0.187  1.00  0.00    -0.315 N 
HETATM   26  C2  UNL     1     -21.237 -25.544   0.071  1.00  0.00     0.166 A 
ATOM     27  H4  UNL     1     -19.200 -25.379  -0.110  1.00  0.00     0.170 HD
HETATM   28  S3  UNL     1     -22.406 -24.258  -0.204  1.00  0.00    -0.046 SA
BRANCH  24  29
HETATM   29  O1  UNL     1     -18.883 -22.897  -0.850  1.00  0.00    -0.345 OA
ATOM     30  H1  UNL     1     -18.854 -22.225  -1.521  1.00  0.00     0.219 HD
ENDBRANCH  24  29
BRANCH  26  31
HETATM   31  N3  UNL     1     -21.476 -26.564   0.715  1.00  0.00    -0.278 N 
HETATM   32  N2  UNL     1     -22.495 -27.275   0.971  1.00  0.00    -0.277 N 
ATOM     33  H2  UNL     1     -22.254 -28.245   0.766  1.00  0.00     0.189 HD
ATOM     34  H3  UNL     1     -20.637 -26.935   1.160  1.00  0.00     0.189 HD
BRANCH  32  35
HETATM   35  C1  UNL     1     -23.783 -27.255   1.410  1.00  0.00     0.199 C 
HETATM   36  N1  UNL     1     -24.875 -28.012   0.925  1.00  0.00    -0.068 NA
HETATM   37  S1  UNL     1     -24.201 -26.058   2.527  1.00  0.00    -0.043 SA
ENDBRANCH  32  35
ENDBRANCH  26  31
ENDBRANCH  22  23
ENDBRANCH  21  22
ENDBRANCH   1  21
TORSDOF 9
ENDMDL
MODEL 3
REMARK VINA RESULT: -7.703617149      2.658     10.106
REMARK  9 active torsions:
REMARK  status: ('A' for Active; 'I' for Inactive)
REMARK    1  A    between atoms: C1_2  and  N2_4 
REMARK    2  A    between atoms: N3_6  and  C2_8 
REMARK    3  A    between atoms: C3_11  and  O1_12 
REMARK    4  A    between atoms: C4_14  and  C5_15 
REMARK    5  A    between atoms: C5_15  and  N5_16 
REMARK    6  A    between atoms: N5_16  and  N6_17 
REMARK       I    between atoms: N6_17  and  C6_18 
REMARK    7  A    between atoms: C6_18  and  C7_20 
REMARK    8  A    between atoms: C7_20  and  S2_21 
REMARK    9  A    between atoms: S2_21  and  C8_22 
ROOT
HETATM    1  N6  UNL     1     -20.041 -22.563  -2.406  1.00  0.00    -0.209 NA
HETATM    2  C6  UNL     1     -20.016 -22.380  -3.751  1.00  0.00     0.337 C 
HETATM    3  O2  UNL     1     -20.023 -23.093  -4.656  1.00  0.00    -0.253 OA
ENDROOT
BRANCH   2   4
HETATM    4  C7  UNL     1     -19.920 -20.796  -3.974  1.00  0.00     0.205 C 
BRANCH   4   5
HETATM    5  S2  UNL     1     -18.165 -20.344  -3.808  1.00  0.00    -0.082 SA
BRANCH   5   6
HETATM    6  C8  UNL     1     -17.906 -19.500  -2.232  1.00  0.00     0.161 A 
HETATM    7  N7  UNL     1     -18.822 -19.633  -1.283  1.00  0.00    -0.278 N 
HETATM    8  N8  UNL     1     -18.860 -18.914  -0.204  1.00  0.00    -0.279 N 
ATOM      9  H7  UNL     1     -19.542 -20.344  -1.409  1.00  0.00     0.189 HD
HETATM   10  C9  UNL     1     -17.882 -17.995  -0.069  1.00  0.00     0.182 A 
ATOM     11  H8  UNL     1     -19.586 -19.036   0.501  1.00  0.00     0.189 HD
HETATM   12  N9  UNL     1     -17.691 -16.974   0.888  1.00  0.00    -0.267 N 
HETATM   13  C10 UNL     1     -16.925 -17.812  -1.001  1.00  0.00     0.171 A 
HETATM   14  N10 UNL     1     -16.620 -16.286   0.496  1.00  0.00    -0.239 N 
ATOM     15  H9  UNL     1     -18.260 -16.799   1.716  1.00  0.00     0.190 HD
HETATM   16  N11 UNL     1     -16.160 -16.742  -0.622  1.00  0.00    -0.268 N 
ATOM     17  H10 UNL     1     -16.217 -15.502   1.010  1.00  0.00     0.208 HD
ATOM     18  H11 UNL     1     -15.361 -16.368  -1.135  1.00  0.00     0.190 HD
HETATM   19  N12 UNL     1     -16.976 -18.574  -2.067  1.00  0.00    -0.318 N 
ATOM     20  H12 UNL     1     -16.272 -18.448  -2.795  1.00  0.00     0.169 HD
ENDBRANCH   5   6
ENDBRANCH   4   5
ENDBRANCH   2   4
BRANCH   1  21
HETATM   21  N5  UNL     1     -20.068 -22.774  -1.210  1.00  0.00    -0.257 NA
BRANCH  21  22
HETATM   22  C5  UNL     1     -20.174 -23.146  -0.101  1.00  0.00     0.248 C 
BRANCH  22  23
HETATM   23  C4  UNL     1     -20.843 -24.446   0.005  1.00  0.00     0.091 A 
HETATM   24  C3  UNL     1     -20.511 -25.565  -0.665  1.00  0.00     0.162 A 
HETATM   25  N4  UNL     1     -21.193 -26.635  -0.399  1.00  0.00    -0.315 N 
HETATM   26  C2  UNL     1     -22.190 -26.610   0.506  1.00  0.00     0.166 A 
ATOM     27  H4  UNL     1     -20.972 -27.506  -0.881  1.00  0.00     0.170 HD
HETATM   28  S3  UNL     1     -22.126 -24.923   1.001  1.00  0.00    -0.046 SA
BRANCH  24  29
HETATM   29  O1  UNL     1     -19.442 -25.543  -1.664  1.00  0.00    -0.345 OA
ATOM     30  H1  UNL     1     -19.580 -25.816  -2.563  1.00  0.00     0.219 HD
ENDBRANCH  24  29
BRANCH  26  31
HETATM   31  N3  UNL     1     -22.729 -27.499   1.164  1.00  0.00    -0.278 N 
HETATM   32  N2  UNL     1     -23.915 -27.847   1.446  1.00  0.00    -0.277 N 
ATOM     33  H2  UNL     1     -24.001 -28.843   1.245  1.00  0.00     0.189 HD
ATOM     34  H3  UNL     1     -22.042 -28.118   1.596  1.00  0.00     0.189 HD
BRANCH  32  35
HETATM   35  C1  UNL     1     -25.120 -27.415   1.911  1.00  0.00     0.199 C 
HETATM   36  N1  UNL     1     -26.397 -27.646   1.350  1.00  0.00    -0.068 NA
HETATM   37  S1  UNL     1     -25.105 -26.309   3.188  1.00  0.00    -0.043 SA
ENDBRANCH  32  35
ENDBRANCH  26  31
ENDBRANCH  22  23
ENDBRANCH  21  22
ENDBRANCH   1  21
TORSDOF 9
ENDMDL
MODEL 4
REMARK VINA RESULT: -7.657313713      4.235      9.906
REMARK  9 active torsions:
REMARK  status: ('A' for Active; 'I' for Inactive)
REMARK    1  A    between atoms: C1_2  and  N2_4 
REMARK    2  A    between atoms: N3_6  and  C2_8 
REMARK    3  A    between atoms: C3_11  and  O1_12 
REMARK    4  A    between atoms: C4_14  and  C5_15 
REMARK    5  A    between atoms: C5_15  and  N5_16 
REMARK    6  A    between atoms: N5_16  and  N6_17 
REMARK       I    between atoms: N6_17  and  C6_18 
REMARK    7  A    between atoms: C6_18  and  C7_20 
REMARK    8  A    between atoms: C7_20  and  S2_21 
REMARK    9  A    between atoms: S2_21  and  C8_22 
ROOT
HETATM    1  N6  UNL     1     -18.043 -22.640  -1.273  1.00  0.00    -0.209 NA
HETATM    2  C6  UNL     1     -17.146 -21.676  -0.939  1.00  0.00     0.337 C 
HETATM    3  O2  UNL     1     -17.099 -20.881  -0.107  1.00  0.00    -0.253 OA
ENDROOT
BRANCH   2   4
HETATM    4  C7  UNL     1     -15.986 -21.759  -2.041  1.00  0.00     0.205 C 
BRANCH   4   5
HETATM    5  S2  UNL     1     -14.424 -21.366  -1.196  1.00  0.00    -0.082 SA
BRANCH   5   6
HETATM    6  C8  UNL     1     -13.880 -22.798  -0.238  1.00  0.00     0.161 A 
HETATM    7  N7  UNL     1     -13.296 -23.803  -0.874  1.00  0.00    -0.278 N 
HETATM    8  N8  UNL     1     -13.062 -24.962  -0.341  1.00  0.00    -0.279 N 
ATOM      9  H7  UNL     1     -13.013 -23.657  -1.843  1.00  0.00     0.189 HD
HETATM   10  C9  UNL     1     -13.437 -25.110   0.946  1.00  0.00     0.182 A 
ATOM     11  H8  UNL     1     -12.619 -25.717  -0.864  1.00  0.00     0.189 HD
HETATM   12  N9  UNL     1     -13.457 -26.248   1.784  1.00  0.00    -0.267 N 
HETATM   13  C10 UNL     1     -14.037 -24.126   1.645  1.00  0.00     0.171 A 
HETATM   14  N10 UNL     1     -14.018 -25.862   2.928  1.00  0.00    -0.239 N 
ATOM     15  H9  UNL     1     -13.110 -27.180   1.557  1.00  0.00     0.190 HD
HETATM   16  N11 UNL     1     -14.388 -24.625   2.870  1.00  0.00    -0.268 N 
ATOM     17  H10 UNL     1     -14.140 -26.464   3.743  1.00  0.00     0.208 HD
ATOM     18  H11 UNL     1     -14.861 -24.109   3.611  1.00  0.00     0.190 HD
HETATM   19  N12 UNL     1     -14.248 -22.993   1.019  1.00  0.00    -0.318 N 
ATOM     20  H12 UNL     1     -14.713 -22.234   1.518  1.00  0.00     0.169 HD
ENDBRANCH   5   6
ENDBRANCH   4   5
ENDBRANCH   2   4
BRANCH   1  21
HETATM   21  N5  UNL     1     -18.871 -23.490  -1.533  1.00  0.00    -0.257 NA
BRANCH  21  22
HETATM   22  C5  UNL     1     -19.710 -24.205  -1.939  1.00  0.00     0.248 C 
BRANCH  22  23
HETATM   23  C4  UNL     1     -20.393 -24.948  -0.875  1.00  0.00     0.091 A 
HETATM   24  C3  UNL     1     -20.863 -24.433   0.275  1.00  0.00     0.162 A 
HETATM   25  N4  UNL     1     -21.484 -25.245   1.074  1.00  0.00    -0.315 N 
HETATM   26  C2  UNL     1     -21.639 -26.543   0.752  1.00  0.00     0.166 A 
ATOM     27  H4  UNL     1     -21.860 -24.895   1.955  1.00  0.00     0.170 HD
HETATM   28  S3  UNL     1     -20.830 -26.581  -0.810  1.00  0.00    -0.046 SA
BRANCH  24  29
HETATM   29  O1  UNL     1     -20.647 -23.024   0.602  1.00  0.00    -0.345 OA
ATOM     30  H1  UNL     1     -21.023 -22.318   0.088  1.00  0.00     0.219 HD
ENDBRANCH  24  29
BRANCH  26  31
HETATM   31  N3  UNL     1     -22.438 -27.398   1.134  1.00  0.00    -0.278 N 
HETATM   32  N2  UNL     1     -23.688 -27.465   1.337  1.00  0.00    -0.277 N 
ATOM     33  H2  UNL     1     -24.036 -28.292   0.853  1.00  0.00     0.189 HD
ATOM     34  H3  UNL     1     -21.974 -28.282   1.340  1.00  0.00     0.189 HD
BRANCH  32  35
HETATM   35  C1  UNL     1     -24.749 -26.869   1.947  1.00  0.00     0.199 C 
HETATM   36  N1  UNL     1     -26.123 -27.139   1.751  1.00  0.00    -0.068 NA
HETATM   37  S1  UNL     1     -24.430 -25.513   2.903  1.00  0.00    -0.043 SA
ENDBRANCH  32  35
ENDBRANCH  26  31
ENDBRANCH  22  23
ENDBRANCH  21  22
ENDBRANCH   1  21
TORSDOF 9
ENDMDL
MODEL 5
REMARK VINA RESULT: -7.575476509      2.430     10.167
REMARK  9 active torsions:
REMARK  status: ('A' for Active; 'I' for Inactive)
REMARK    1  A    between atoms: C1_2  and  N2_4 
REMARK    2  A    between atoms: N3_6  and  C2_8 
REMARK    3  A    between atoms: C3_11  and  O1_12 
REMARK    4  A    between atoms: C4_14  and  C5_15 
REMARK    5  A    between atoms: C5_15  and  N5_16 
REMARK    6  A    between atoms: N5_16  and  N6_17 
REMARK       I    between atoms: N6_17  and  C6_18 
REMARK    7  A    between atoms: C6_18  and  C7_20 
REMARK    8  A    between atoms: C7_20  and  S2_21 
REMARK    9  A    between atoms: S2_21  and  C8_22 
ROOT
HETATM    1  N6  UNL     1     -18.935 -23.114  -2.113  1.00  0.00    -0.209 NA
HETATM    2  C6  UNL     1     -17.641 -22.754  -1.911  1.00  0.00     0.337 C 
HETATM    3  O2  UNL     1     -16.913 -22.856  -1.025  1.00  0.00    -0.253 OA
ENDROOT
BRANCH   2   4
HETATM    4  C7  UNL     1     -17.180 -22.012  -3.253  1.00  0.00     0.205 C 
BRANCH   4   5
HETATM    5  S2  UNL     1     -18.155 -20.480  -3.372  1.00  0.00    -0.082 SA
BRANCH   5   6
HETATM    6  C8  UNL     1     -17.918 -19.498  -1.875  1.00  0.00     0.161 A 
HETATM    7  N7  UNL     1     -18.883 -19.481  -0.966  1.00  0.00    -0.278 N 
HETATM    8  N8  UNL     1     -18.927 -18.656   0.033  1.00  0.00    -0.279 N 
ATOM      9  H7  UNL     1     -19.640 -20.160  -1.060  1.00  0.00     0.189 HD
HETATM   10  C9  UNL     1     -17.901 -17.786   0.129  1.00  0.00     0.182 A 
ATOM     11  H8  UNL     1     -19.692 -18.666   0.708  1.00  0.00     0.189 HD
HETATM   12  N9  UNL     1     -17.693 -16.687   0.991  1.00  0.00    -0.267 N 
HETATM   13  C10 UNL     1     -16.893 -17.752  -0.764  1.00  0.00     0.171 A 
HETATM   14  N10 UNL     1     -16.565 -16.103   0.590  1.00  0.00    -0.239 N 
ATOM     15  H9  UNL     1     -18.288 -16.397   1.767  1.00  0.00     0.190 HD
HETATM   16  N11 UNL     1     -16.081 -16.695  -0.452  1.00  0.00    -0.268 N 
ATOM     17  H10 UNL     1     -16.139 -15.296   1.045  1.00  0.00     0.208 HD
ATOM     18  H11 UNL     1     -15.238 -16.421  -0.956  1.00  0.00     0.190 HD
HETATM   19  N12 UNL     1     -16.940 -18.614  -1.752  1.00  0.00    -0.318 N 
ATOM     20  H12 UNL     1     -16.197 -18.602  -2.451  1.00  0.00     0.169 HD
ENDBRANCH   5   6
ENDBRANCH   4   5
ENDBRANCH   2   4
BRANCH   1  21
HETATM   21  N5  UNL     1     -20.093 -23.458  -2.252  1.00  0.00    -0.257 NA
BRANCH  21  22
HETATM   22  C5  UNL     1     -21.172 -23.921  -2.250  1.00  0.00     0.248 C 
BRANCH  22  23
HETATM   23  C4  UNL     1     -21.400 -24.840  -1.131  1.00  0.00     0.091 A 
HETATM   24  C3  UNL     1     -21.219 -24.560   0.173  1.00  0.00     0.162 A 
HETATM   25  N4  UNL     1     -21.522 -25.492   1.023  1.00  0.00    -0.315 N 
HETATM   26  C2  UNL     1     -21.990 -26.683   0.602  1.00  0.00     0.166 A 
ATOM     27  H4  UNL     1     -21.405 -25.321   2.021  1.00  0.00     0.170 HD
HETATM   28  S3  UNL     1     -21.989 -26.426  -1.139  1.00  0.00    -0.046 SA
BRANCH  24  29
HETATM   29  O1  UNL     1     -20.679 -23.266   0.588  1.00  0.00    -0.345 OA
ATOM     30  H1  UNL     1     -19.967 -22.839   0.126  1.00  0.00     0.219 HD
ENDBRANCH  24  29
BRANCH  26  31
HETATM   31  N3  UNL     1     -22.644 -27.559   1.167  1.00  0.00    -0.278 N 
HETATM   32  N2  UNL     1     -23.868 -27.783   1.409  1.00  0.00    -0.277 N 
ATOM     33  H2  UNL     1     -24.072 -28.736   1.111  1.00  0.00     0.189 HD
ATOM     34  H3  UNL     1     -22.045 -28.296   1.538  1.00  0.00     0.189 HD
BRANCH  32  35
HETATM   35  C1  UNL     1     -25.018 -27.253   1.910  1.00  0.00     0.199 C 
HETATM   36  N1  UNL     1     -26.345 -27.524   1.503  1.00  0.00    -0.068 NA
HETATM   37  S1  UNL     1     -24.868 -25.978   3.007  1.00  0.00    -0.043 SA
ENDBRANCH  32  35
ENDBRANCH  26  31
ENDBRANCH  22  23
ENDBRANCH  21  22
ENDBRANCH   1  21
TORSDOF 9
ENDMDL
