MODEL 1
REMARK VINA RESULT: -7.087526906      0.000      0.000
REMARK  6 active torsions:
REMARK  status: ('A' for Active; 'I' for Inactive)
REMARK    1  A    between atoms: C2_7  and  S1_8 
REMARK    2  A    between atoms: S1_8  and  C3_9 
REMARK    3  A    between atoms: C6_12  and  N3_13 
REMARK    4  A    between atoms: C8_17  and  N4_18 
REMARK    5  A    between atoms: N7_26  and  N8_28 
REMARK    6  A    between atoms: C10_30  and  C11_31 
ROOT
HETATM    1  N1  UNL     1     -20.819 -28.254  -0.145  1.00  0.00    -0.234 N 
ATOM      2  H11 UNL     1     -21.017 -29.188  -0.503  1.00  0.00     0.174 HD
ATOM      3  H12 UNL     1     -20.304 -28.011   0.701  1.00  0.00     0.174 HD
HETATM    4  C1  UNL     1     -21.255 -27.241  -0.813  1.00  0.00     0.692 C 
HETATM    5  N2  UNL     1     -20.978 -25.939  -0.314  1.00  0.00    -0.169 N 
ATOM      6  H2  UNL     1     -20.565 -25.927   0.618  1.00  0.00     0.186 HD
HETATM    7  C2  UNL     1     -21.157 -24.770  -0.827  1.00  0.00     0.179 C 
HETATM    8  N5  UNL     1     -21.710 -24.469  -2.101  1.00  0.00    -0.265 N 
ATOM      9  H5  UNL     1     -21.646 -23.487  -2.373  1.00  0.00     0.189 HD
HETATM   10  N6  UNL     1     -22.327 -25.301  -3.043  1.00  0.00    -0.128 N 
ATOM     11  H6  UNL     1     -22.629 -24.854  -3.909  1.00  0.00     0.205 HD
HETATM   12  C9  UNL     1     -22.586 -26.710  -2.934  1.00  0.00     0.726 C 
HETATM   13  N7  UNL     1     -23.433 -27.148  -3.768  1.00  0.00    -0.131 N 
ATOM     14  H7  UNL     1     -23.827 -26.460  -4.410  1.00  0.00     0.205 HD
HETATM   15  N12 UNL     1     -21.972 -27.579  -1.989  1.00  0.00    -0.020 N 
ATOM     16  H12 UNL     1     -22.059 -28.577  -2.183  1.00  0.00     0.203 HD
ENDROOT
BRANCH   7  17
HETATM   17  S1  UNL     1     -20.666 -23.375   0.146  1.00  0.00    -0.050 SA
BRANCH  17  18
HETATM   18  C3  UNL     1     -19.242 -22.554  -0.546  1.00  0.00     0.041 A 
HETATM   19  C4  UNL     1     -18.378 -23.246  -1.367  1.00  0.00     0.024 A 
HETATM   20  C5  UNL     1     -17.269 -22.648  -1.919  1.00  0.00     0.037 A 
HETATM   21  C6  UNL     1     -16.982 -21.302  -1.661  1.00  0.00     0.105 A 
HETATM   22  C7  UNL     1     -17.857 -20.641  -0.843  1.00  0.00     0.073 A 
HETATM   23  C8  UNL     1     -18.982 -21.205  -0.267  1.00  0.00     0.122 A 
BRANCH  21  24
HETATM   24  N3  UNL     1     -15.841 -20.705  -2.236  1.00  0.00    -0.116 N 
HETATM   25  O1  UNL     1     -15.245 -21.272  -3.155  1.00  0.00    -0.532 OA
HETATM   26  O2  UNL     1     -15.398 -19.504  -1.779  1.00  0.00    -0.532 OA
ENDBRANCH  21  24
BRANCH  23  27
HETATM   27  N4  UNL     1     -19.856 -20.477   0.572  1.00  0.00    -0.114 N 
HETATM   28  O3  UNL     1     -20.814 -19.881   0.086  1.00  0.00    -0.532 OA
HETATM   29  O4  UNL     1     -19.627 -20.445   1.914  1.00  0.00    -0.532 OA
ENDBRANCH  23  27
ENDBRANCH  17  18
ENDBRANCH   7  17
BRANCH  13  30
HETATM   30  N8  UNL     1     -23.886 -28.438  -3.910  1.00  0.00    -0.295 N 
HETATM   31  C10 UNL     1     -25.123 -28.787  -4.045  1.00  0.00     0.144 C 
ATOM     32  H8  UNL     1     -23.188 -29.181  -3.911  1.00  0.00     0.186 HD
BRANCH  31  33
HETATM   33  C11 UNL     1     -25.408 -30.205  -4.183  1.00  0.00     0.132 A 
HETATM   34  N9  UNL     1     -26.574 -30.784  -3.858  1.00  0.00    -0.278 N 
HETATM   35  N10 UNL     1     -26.510 -32.097  -4.105  1.00  0.00    -0.019 NA
ATOM     36  H9  UNL     1     -27.387 -30.297  -3.478  1.00  0.00     0.184 HD
HETATM   37  N11 UNL     1     -25.315 -32.392  -4.592  1.00  0.00    -0.248 N 
HETATM   38  C12 UNL     1     -24.614 -31.231  -4.648  1.00  0.00     0.287 A 
ATOM     39  H11 UNL     1     -24.984 -33.316  -4.872  1.00  0.00     0.187 HD
HETATM   40  O5  UNL     1     -23.416 -31.078  -5.059  1.00  0.00    -0.264 OA
ENDBRANCH  31  33
ENDBRANCH  13  30
TORSDOF 6
ENDMDL
MODEL 2
REMARK VINA RESULT: -7.018635036      0.857      1.053
REMARK  6 active torsions:
REMARK  status: ('A' for Active; 'I' for Inactive)
REMARK    1  A    between atoms: C2_7  and  S1_8 
REMARK    2  A    between atoms: S1_8  and  C3_9 
REMARK    3  A    between atoms: C6_12  and  N3_13 
REMARK    4  A    between atoms: C8_17  and  N4_18 
REMARK    5  A    between atoms: N7_26  and  N8_28 
REMARK    6  A    between atoms: C10_30  and  C11_31 
ROOT
HETATM    1  N1  UNL     1     -20.778 -28.182  -0.100  1.00  0.00    -0.234 N 
ATOM      2  H11 UNL     1     -20.961 -29.127  -0.436  1.00  0.00     0.174 HD
ATOM      3  H12 UNL     1     -20.249 -27.912   0.730  1.00  0.00     0.174 HD
HETATM    4  C1  UNL     1     -21.251 -27.192  -0.775  1.00  0.00     0.692 C 
HETATM    5  N2  UNL     1     -20.995 -25.874  -0.305  1.00  0.00    -0.169 N 
ATOM      6  H2  UNL     1     -20.560 -25.836   0.616  1.00  0.00     0.186 HD
HETATM    7  C2  UNL     1     -21.212 -24.719  -0.835  1.00  0.00     0.179 C 
HETATM    8  N5  UNL     1     -21.800 -24.454  -2.100  1.00  0.00    -0.265 N 
ATOM      9  H5  UNL     1     -21.766 -23.477  -2.392  1.00  0.00     0.189 HD
HETATM   10  N6  UNL     1     -22.420 -25.317  -3.013  1.00  0.00    -0.128 N 
ATOM     11  H6  UNL     1     -22.752 -24.893  -3.880  1.00  0.00     0.205 HD
HETATM   12  C9  UNL     1     -22.643 -26.729  -2.873  1.00  0.00     0.726 C 
HETATM   13  N7  UNL     1     -23.498 -27.202  -3.679  1.00  0.00    -0.131 N 
ATOM     14  H7  UNL     1     -23.922 -26.535  -4.324  1.00  0.00     0.205 HD
HETATM   15  N12 UNL     1     -21.987 -27.567  -1.928  1.00  0.00    -0.020 N 
ATOM     16  H12 UNL     1     -22.055 -28.570  -2.102  1.00  0.00     0.203 HD
ENDROOT
BRANCH   7  17
HETATM   17  S1  UNL     1     -20.732 -23.296   0.102  1.00  0.00    -0.050 SA
BRANCH  17  18
HETATM   18  C3  UNL     1     -19.250 -22.544  -0.549  1.00  0.00     0.041 A 
HETATM   19  C4  UNL     1     -18.402 -23.276  -1.352  1.00  0.00     0.024 A 
HETATM   20  C5  UNL     1     -17.251 -22.732  -1.872  1.00  0.00     0.037 A 
HETATM   21  C6  UNL     1     -16.902 -21.404  -1.599  1.00  0.00     0.105 A 
HETATM   22  C7  UNL     1     -17.764 -20.703  -0.800  1.00  0.00     0.073 A 
HETATM   23  C8  UNL     1     -18.930 -21.212  -0.256  1.00  0.00     0.122 A 
BRANCH  21  24
HETATM   24  N3  UNL     1     -15.719 -20.863  -2.141  1.00  0.00    -0.116 N 
HETATM   25  O1  UNL     1     -14.730 -21.581  -2.305  1.00  0.00    -0.532 OA
HETATM   26  O2  UNL     1     -15.667 -19.548  -2.484  1.00  0.00    -0.532 OA
ENDBRANCH  21  24
BRANCH  23  27
HETATM   27  N4  UNL     1     -19.787 -20.445   0.565  1.00  0.00    -0.114 N 
HETATM   28  O3  UNL     1     -20.726 -19.830   0.063  1.00  0.00    -0.532 OA
HETATM   29  O4  UNL     1     -19.565 -20.395   1.907  1.00  0.00    -0.532 OA
ENDBRANCH  23  27
ENDBRANCH  17  18
ENDBRANCH   7  17
BRANCH  13  30
HETATM   30  N8  UNL     1     -23.924 -28.504  -3.789  1.00  0.00    -0.295 N 
HETATM   31  C10 UNL     1     -24.092 -29.147  -4.898  1.00  0.00     0.144 C 
ATOM     32  H8  UNL     1     -24.124 -29.006  -2.923  1.00  0.00     0.186 HD
BRANCH  31  33
HETATM   33  C11 UNL     1     -24.550 -30.523  -4.812  1.00  0.00     0.132 A 
HETATM   34  N9  UNL     1     -24.016 -31.549  -5.493  1.00  0.00    -0.278 N 
HETATM   35  N10 UNL     1     -24.665 -32.678  -5.190  1.00  0.00    -0.019 NA
ATOM     36  H9  UNL     1     -23.233 -31.478  -6.144  1.00  0.00     0.184 HD
HETATM   37  N11 UNL     1     -25.622 -32.411  -4.315  1.00  0.00    -0.248 N 
HETATM   38  C12 UNL     1     -25.569 -31.077  -4.067  1.00  0.00     0.287 A 
ATOM     39  H11 UNL     1     -26.275 -33.079  -3.906  1.00  0.00     0.187 HD
HETATM   40  O5  UNL     1     -26.321 -30.413  -3.280  1.00  0.00    -0.264 OA
ENDBRANCH  31  33
ENDBRANCH  13  30
TORSDOF 6
ENDMDL
MODEL 3
REMARK VINA RESULT: -6.980717892      5.520     11.624
REMARK  6 active torsions:
REMARK  status: ('A' for Active; 'I' for Inactive)
REMARK    1  A    between atoms: C2_7  and  S1_8 
REMARK    2  A    between atoms: S1_8  and  C3_9 
REMARK    3  A    between atoms: C6_12  and  N3_13 
REMARK    4  A    between atoms: C8_17  and  N4_18 
REMARK    5  A    between atoms: N7_26  and  N8_28 
REMARK    6  A    between atoms: C10_30  and  C11_31 
ROOT
HETATM    1  N1  UNL     1     -13.974 -16.417  -2.793  1.00  0.00    -0.234 N 
ATOM      2  H11 UNL     1     -13.605 -15.851  -3.558  1.00  0.00     0.174 HD
ATOM      3  H12 UNL     1     -13.553 -16.568  -1.877  1.00  0.00     0.174 HD
HETATM    4  C1  UNL     1     -15.097 -17.023  -2.970  1.00  0.00     0.692 C 
HETATM    5  N2  UNL     1     -15.611 -17.811  -1.904  1.00  0.00    -0.169 N 
ATOM      6  H2  UNL     1     -14.963 -17.934  -1.125  1.00  0.00     0.186 HD
HETATM    7  C2  UNL     1     -16.746 -18.399  -1.744  1.00  0.00     0.179 C 
HETATM    8  N5  UNL     1     -17.841 -18.409  -2.649  1.00  0.00    -0.265 N 
ATOM      9  H5  UNL     1     -18.697 -18.824  -2.280  1.00  0.00     0.189 HD
HETATM   10  N6  UNL     1     -17.936 -17.941  -3.966  1.00  0.00    -0.128 N 
ATOM     11  H6  UNL     1     -18.846 -18.039  -4.414  1.00  0.00     0.205 HD
HETATM   12  C9  UNL     1     -16.900 -17.340  -4.759  1.00  0.00     0.726 C 
HETATM   13  N7  UNL     1     -17.151 -17.307  -6.001  1.00  0.00    -0.131 N 
ATOM     14  H7  UNL     1     -18.045 -17.705  -6.288  1.00  0.00     0.205 HD
HETATM   15  N12 UNL     1     -15.682 -16.813  -4.245  1.00  0.00    -0.020 N 
ATOM     16  H12 UNL     1     -15.161 -16.205  -4.876  1.00  0.00     0.203 HD
ENDROOT
BRANCH   7  17
HETATM   17  S1  UNL     1     -16.988 -19.297  -0.237  1.00  0.00    -0.050 SA
BRANCH  17  18
HETATM   18  C3  UNL     1     -17.977 -20.760  -0.490  1.00  0.00     0.041 A 
HETATM   19  C4  UNL     1     -17.532 -21.756  -1.332  1.00  0.00     0.024 A 
HETATM   20  C5  UNL     1     -18.266 -22.898  -1.552  1.00  0.00     0.037 A 
HETATM   21  C6  UNL     1     -19.502 -23.085  -0.921  1.00  0.00     0.105 A 
HETATM   22  C7  UNL     1     -19.918 -22.079  -0.091  1.00  0.00     0.073 A 
HETATM   23  C8  UNL     1     -19.210 -20.916   0.158  1.00  0.00     0.122 A 
BRANCH  21  24
HETATM   24  N3  UNL     1     -20.241 -24.262  -1.158  1.00  0.00    -0.116 N 
HETATM   25  O1  UNL     1     -21.466 -24.260  -1.022  1.00  0.00    -0.532 OA
HETATM   26  O2  UNL     1     -19.602 -25.401  -1.538  1.00  0.00    -0.532 OA
ENDBRANCH  21  24
BRANCH  23  27
HETATM   27  N4  UNL     1     -19.684 -19.906   1.025  1.00  0.00    -0.114 N 
HETATM   28  O3  UNL     1     -20.111 -18.851   0.558  1.00  0.00    -0.532 OA
HETATM   29  O4  UNL     1     -19.663 -20.111   2.370  1.00  0.00    -0.532 OA
ENDBRANCH  23  27
ENDBRANCH  17  18
ENDBRANCH   7  17
BRANCH  13  30
HETATM   30  N8  UNL     1     -16.364 -16.801  -7.007  1.00  0.00    -0.295 N 
HETATM   31  C10 UNL     1     -16.649 -15.772  -7.736  1.00  0.00     0.144 C 
ATOM     32  H8  UNL     1     -15.480 -17.275  -7.194  1.00  0.00     0.186 HD
BRANCH  31  33
HETATM   33  C11 UNL     1     -15.688 -15.386  -8.756  1.00  0.00     0.132 A 
HETATM   34  N9  UNL     1     -15.664 -14.192  -9.367  1.00  0.00    -0.278 N 
HETATM   35  N10 UNL     1     -14.659 -14.157 -10.249  1.00  0.00    -0.019 NA
ATOM     36  H9  UNL     1     -16.313 -13.426  -9.186  1.00  0.00     0.184 HD
HETATM   37  N11 UNL     1     -14.018 -15.316 -10.227  1.00  0.00    -0.248 N 
HETATM   38  C12 UNL     1     -14.642 -16.094  -9.306  1.00  0.00     0.287 A 
ATOM     39  H11 UNL     1     -13.210 -15.574 -10.794  1.00  0.00     0.187 HD
HETATM   40  O5  UNL     1     -14.336 -17.288  -8.978  1.00  0.00    -0.264 OA
ENDBRANCH  31  33
ENDBRANCH  13  30
TORSDOF 6
ENDMDL
MODEL 4
REMARK VINA RESULT: -6.928320529      4.397      5.448
REMARK  6 active torsions:
REMARK  status: ('A' for Active; 'I' for Inactive)
REMARK    1  A    between atoms: C2_7  and  S1_8 
REMARK    2  A    between atoms: S1_8  and  C3_9 
REMARK    3  A    between atoms: C6_12  and  N3_13 
REMARK    4  A    between atoms: C8_17  and  N4_18 
REMARK    5  A    between atoms: N7_26  and  N8_28 
REMARK    6  A    between atoms: C10_30  and  C11_31 
ROOT
HETATM    1  N1  UNL     1     -21.603 -21.155  -0.507  1.00  0.00    -0.234 N 
ATOM      2  H11 UNL     1     -22.386 -21.357   0.114  1.00  0.00     0.174 HD
ATOM      3  H12 UNL     1     -21.399 -20.275  -0.980  1.00  0.00     0.174 HD
HETATM    4  C1  UNL     1     -20.755 -22.096  -0.744  1.00  0.00     0.692 C 
HETATM    5  N2  UNL     1     -19.663 -21.815  -1.610  1.00  0.00    -0.169 N 
ATOM      6  H2  UNL     1     -19.724 -20.912  -2.080  1.00  0.00     0.186 HD
HETATM    7  C2  UNL     1     -18.610 -22.495  -1.909  1.00  0.00     0.179 C 
HETATM    8  N5  UNL     1     -18.251 -23.778  -1.416  1.00  0.00    -0.265 N 
ATOM      9  H5  UNL     1     -17.314 -24.089  -1.675  1.00  0.00     0.189 HD
HETATM   10  N6  UNL     1     -18.975 -24.686  -0.633  1.00  0.00    -0.128 N 
ATOM     11  H6  UNL     1     -18.492 -25.549  -0.382  1.00  0.00     0.205 HD
HETATM   12  C9  UNL     1     -20.317 -24.545  -0.142  1.00  0.00     0.726 C 
HETATM   13  N7  UNL     1     -20.840 -25.629   0.256  1.00  0.00    -0.131 N 
ATOM     14  H7  UNL     1     -20.256 -26.462   0.182  1.00  0.00     0.205 HD
HETATM   15  N12 UNL     1     -21.040 -23.320  -0.087  1.00  0.00    -0.020 N 
ATOM     16  H12 UNL     1     -21.872 -23.323   0.503  1.00  0.00     0.203 HD
ENDROOT
BRANCH   7  17
HETATM   17  S1  UNL     1     -17.473 -21.766  -3.054  1.00  0.00    -0.050 SA
BRANCH  17  18
HETATM   18  C3  UNL     1     -16.201 -20.833  -2.221  1.00  0.00     0.041 A 
HETATM   19  C4  UNL     1     -14.940 -21.367  -2.074  1.00  0.00     0.024 A 
HETATM   20  C5  UNL     1     -13.933 -20.678  -1.437  1.00  0.00     0.037 A 
HETATM   21  C6  UNL     1     -14.163 -19.400  -0.914  1.00  0.00     0.105 A 
HETATM   22  C7  UNL     1     -15.425 -18.896  -1.076  1.00  0.00     0.073 A 
HETATM   23  C8  UNL     1     -16.465 -19.555  -1.709  1.00  0.00     0.122 A 
BRANCH  21  24
HETATM   24  N3  UNL     1     -13.119 -18.708  -0.266  1.00  0.00    -0.116 N 
HETATM   25  O1  UNL     1     -13.376 -17.909   0.637  1.00  0.00    -0.532 OA
HETATM   26  O2  UNL     1     -11.828 -18.923  -0.636  1.00  0.00    -0.532 OA
ENDBRANCH  21  24
BRANCH  23  27
HETATM   27  N4  UNL     1     -17.753 -18.990  -1.850  1.00  0.00    -0.114 N 
HETATM   28  O3  UNL     1     -18.556 -19.061  -0.922  1.00  0.00    -0.532 OA
HETATM   29  O4  UNL     1     -18.091 -18.372  -3.015  1.00  0.00    -0.532 OA
ENDBRANCH  23  27
ENDBRANCH  17  18
ENDBRANCH   7  17
BRANCH  13  30
HETATM   30  N8  UNL     1     -22.100 -25.817   0.773  1.00  0.00    -0.295 N 
HETATM   31  C10 UNL     1     -22.649 -26.962   1.009  1.00  0.00     0.144 C 
ATOM     32  H8  UNL     1     -22.646 -24.983   0.990  1.00  0.00     0.186 HD
BRANCH  31  33
HETATM   33  C11 UNL     1     -23.995 -26.959   1.560  1.00  0.00     0.132 A 
HETATM   34  N9  UNL     1     -24.966 -27.814   1.203  1.00  0.00    -0.278 N 
HETATM   35  N10 UNL     1     -26.079 -27.544   1.895  1.00  0.00    -0.019 NA
ATOM     36  H9  UNL     1     -24.871 -28.557   0.510  1.00  0.00     0.184 HD
HETATM   37  N11 UNL     1     -25.853 -26.522   2.705  1.00  0.00    -0.248 N 
HETATM   38  C12 UNL     1     -24.564 -26.143   2.512  1.00  0.00     0.287 A 
ATOM     39  H11 UNL     1     -26.521 -26.100   3.350  1.00  0.00     0.187 HD
HETATM   40  O5  UNL     1     -23.949 -25.192   3.100  1.00  0.00    -0.264 OA
ENDBRANCH  31  33
ENDBRANCH  13  30
TORSDOF 6
ENDMDL
MODEL 5
REMARK VINA RESULT: -6.927471372      4.257     11.432
REMARK  6 active torsions:
REMARK  status: ('A' for Active; 'I' for Inactive)
REMARK    1  A    between atoms: C2_7  and  S1_8 
REMARK    2  A    between atoms: S1_8  and  C3_9 
REMARK    3  A    between atoms: C6_12  and  N3_13 
REMARK    4  A    between atoms: C8_17  and  N4_18 
REMARK    5  A    between atoms: N7_26  and  N8_28 
REMARK    6  A    between atoms: C10_30  and  C11_31 
ROOT
HETATM    1  N1  UNL     1     -17.959 -20.404  -4.046  1.00  0.00    -0.234 N 
ATOM      2  H11 UNL     1     -17.145 -20.063  -4.559  1.00  0.00     0.174 HD
ATOM      3  H12 UNL     1     -18.649 -21.085  -4.363  1.00  0.00     0.174 HD
HETATM    4  C1  UNL     1     -18.169 -19.943  -2.861  1.00  0.00     0.692 C 
HETATM    5  N2  UNL     1     -19.303 -20.419  -2.147  1.00  0.00    -0.169 N 
ATOM      6  H2  UNL     1     -19.935 -20.996  -2.702  1.00  0.00     0.186 HD
HETATM    7  C2  UNL     1     -19.677 -20.251  -0.925  1.00  0.00     0.179 C 
HETATM    8  N5  UNL     1     -19.009 -19.503   0.080  1.00  0.00    -0.265 N 
ATOM      9  H5  UNL     1     -19.401 -19.601   1.017  1.00  0.00     0.189 HD
HETATM   10  N6  UNL     1     -17.899 -18.652  -0.006  1.00  0.00    -0.128 N 
ATOM     11  H6  UNL     1     -17.581 -18.237   0.869  1.00  0.00     0.205 HD
HETATM   12  C9  UNL     1     -17.157 -18.297  -1.183  1.00  0.00     0.726 C 
HETATM   13  N7  UNL     1     -16.420 -17.275  -1.042  1.00  0.00    -0.131 N 
ATOM     14  H7  UNL     1     -16.439 -16.832  -0.124  1.00  0.00     0.205 HD
HETATM   15  N12 UNL     1     -17.210 -18.996  -2.422  1.00  0.00    -0.020 N 
ATOM     16  H12 UNL     1     -16.459 -18.788  -3.080  1.00  0.00     0.203 HD
ENDROOT
BRANCH   7  17
HETATM   17  S1  UNL     1     -21.185 -21.033  -0.426  1.00  0.00    -0.050 SA
BRANCH  17  18
HETATM   18  C3  UNL     1     -21.162 -22.787  -0.754  1.00  0.00     0.041 A 
HETATM   19  C4  UNL     1     -20.818 -23.670   0.246  1.00  0.00     0.024 A 
HETATM   20  C5  UNL     1     -20.788 -25.029   0.031  1.00  0.00     0.037 A 
HETATM   21  C6  UNL     1     -21.109 -25.560  -1.224  1.00  0.00     0.105 A 
HETATM   22  C7  UNL     1     -21.446 -24.658  -2.196  1.00  0.00     0.073 A 
HETATM   23  C8  UNL     1     -21.488 -23.286  -2.022  1.00  0.00     0.122 A 
BRANCH  21  24
HETATM   24  N3  UNL     1     -21.074 -26.955  -1.425  1.00  0.00    -0.116 N 
HETATM   25  O1  UNL     1     -20.437 -27.675  -0.653  1.00  0.00    -0.532 OA
HETATM   26  O2  UNL     1     -21.742 -27.508  -2.473  1.00  0.00    -0.532 OA
ENDBRANCH  21  24
BRANCH  23  27
HETATM   27  N4  UNL     1     -21.843 -22.396  -3.061  1.00  0.00    -0.114 N 
HETATM   28  O3  UNL     1     -23.014 -22.043  -3.190  1.00  0.00    -0.532 OA
HETATM   29  O4  UNL     1     -20.883 -21.936  -3.910  1.00  0.00    -0.532 OA
ENDBRANCH  23  27
ENDBRANCH  17  18
ENDBRANCH   7  17
BRANCH  13  30
HETATM   30  N8  UNL     1     -15.598 -16.693  -1.978  1.00  0.00    -0.295 N 
HETATM   31  C10 UNL     1     -14.376 -17.037  -2.220  1.00  0.00     0.144 C 
ATOM     32  H8  UNL     1     -15.985 -15.926  -2.528  1.00  0.00     0.186 HD
BRANCH  31  33
HETATM   33  C11 UNL     1     -13.664 -16.301  -3.251  1.00  0.00     0.132 A 
HETATM   34  N9  UNL     1     -12.384 -15.907  -3.160  1.00  0.00    -0.278 N 
HETATM   35  N10 UNL     1     -12.033 -15.255  -4.274  1.00  0.00    -0.019 NA
ATOM     36  H9  UNL     1     -11.772 -16.078  -2.362  1.00  0.00     0.184 HD
HETATM   37  N11 UNL     1     -13.067 -15.215  -5.101  1.00  0.00    -0.248 N 
HETATM   38  C12 UNL     1     -14.091 -15.859  -4.484  1.00  0.00     0.287 A 
ATOM     39  H11 UNL     1     -13.089 -14.783  -6.024  1.00  0.00     0.187 HD
HETATM   40  O5  UNL     1     -15.267 -16.044  -4.942  1.00  0.00    -0.264 OA
ENDBRANCH  31  33
ENDBRANCH  13  30
TORSDOF 6
ENDMDL
