MODEL 1
REMARK VINA RESULT: -4.952814324      0.000      0.000
REMARK  7 active torsions:
REMARK  status: ('A' for Active; 'I' for Inactive)
REMARK    1  A    between atoms: C1_2  and  S1_3 
REMARK    2  A    between atoms: S1_3  and  C2_4 
REMARK    3  A    between atoms: N1_7  and  C5_8 
REMARK    4  A    between atoms: C7_10  and  O2_11 
REMARK    5  A    between atoms: C8_13  and  O3_14 
REMARK    6  A    between atoms: C9_16  and  O4_17 
REMARK    7  A    between atoms: C10_19  and  O5_20 
ROOT
HETATM    1  C5  UNL     1     -11.347  23.982   7.497  1.00  0.00     0.122 C 
HETATM    2  C6  UNL     1      -9.862  24.304   7.304  1.00  0.00     0.062 C 
HETATM    3  C7  UNL     1      -9.021  23.478   8.278  1.00  0.00     0.151 C 
HETATM    4  C8  UNL     1      -9.749  22.195   8.505  1.00  0.00     0.178 C 
HETATM    5  C9  UNL     1     -10.958  22.500   9.386  1.00  0.00     0.180 C 
HETATM    6  C10 UNL     1     -11.585  23.831   8.955  1.00  0.00     0.172 C 
ENDROOT
BRANCH   1   7
HETATM    7  N1  UNL     1     -12.125  25.033   6.877  1.00  0.00    -0.358 N 
HETATM    8  C4  UNL     1     -12.088  26.333   7.195  1.00  0.00     0.092 A 
HETATM    9  C3  UNL     1     -12.963  27.046   6.398  1.00  0.00     0.037 A 
HETATM   10  C2  UNL     1     -13.551  26.124   5.559  1.00  0.00     0.024 A 
HETATM   11  C11 UNL     1     -13.018  24.913   5.878  1.00  0.00     0.110 A 
BRANCH  10  12
HETATM   12  S1  UNL     1     -14.788  26.504   4.296  1.00  0.00    -0.060 SA
BRANCH  12  13
HETATM   13  C1  UNL     1     -15.498  25.036   3.619  1.00  0.00     0.309 C 
HETATM   14  O1  UNL     1     -15.983  24.178   4.334  1.00  0.00    -0.295 OA
ENDBRANCH  12  13
ENDBRANCH  10  12
ENDBRANCH   1   7
BRANCH   6  15
HETATM   15  O5  UNL     1     -12.900  23.805   9.338  1.00  0.00    -0.391 OA
ATOM     16  H5  UNL     1     -13.077  24.128  10.213  1.00  0.00     0.210 HD
ENDBRANCH   6  15
BRANCH   3  17
HETATM   17  O2  UNL     1      -7.729  23.303   7.806  1.00  0.00    -0.393 OA
ATOM     18  H2  UNL     1      -7.087  23.602   8.439  1.00  0.00     0.210 HD
ENDBRANCH   3  17
BRANCH   5  19
HETATM   19  O4  UNL     1     -11.878  21.458   9.290  1.00  0.00    -0.390 OA
ATOM     20  H4  UNL     1     -12.568  21.699   8.682  1.00  0.00     0.210 HD
ENDBRANCH   5  19
BRANCH   4  21
HETATM   21  O3  UNL     1      -8.992  21.214   9.120  1.00  0.00    -0.390 OA
ATOM     22  H3  UNL     1      -8.960  20.392   8.647  1.00  0.00     0.210 HD
ENDBRANCH   4  21
TORSDOF 7
ENDMDL
MODEL 2
REMARK VINA RESULT: -4.906423599      3.543      6.124
REMARK  7 active torsions:
REMARK  status: ('A' for Active; 'I' for Inactive)
REMARK    1  A    between atoms: C1_2  and  S1_3 
REMARK    2  A    between atoms: S1_3  and  C2_4 
REMARK    3  A    between atoms: N1_7  and  C5_8 
REMARK    4  A    between atoms: C7_10  and  O2_11 
REMARK    5  A    between atoms: C8_13  and  O3_14 
REMARK    6  A    between atoms: C9_16  and  O4_17 
REMARK    7  A    between atoms: C10_19  and  O5_20 
ROOT
HETATM    1  C5  UNL     1     -13.347  26.095   6.719  1.00  0.00     0.122 C 
HETATM    2  C6  UNL     1     -13.263  27.244   5.711  1.00  0.00     0.062 C 
HETATM    3  C7  UNL     1     -13.831  26.796   4.363  1.00  0.00     0.151 C 
HETATM    4  C8  UNL     1     -14.893  25.788   4.651  1.00  0.00     0.178 C 
HETATM    5  C9  UNL     1     -14.200  24.500   5.092  1.00  0.00     0.180 C 
HETATM    6  C10 UNL     1     -13.010  24.842   5.996  1.00  0.00     0.172 C 
ENDROOT
BRANCH   1   7
HETATM    7  N1  UNL     1     -12.463  26.395   7.825  1.00  0.00    -0.358 N 
HETATM    8  C4  UNL     1     -11.176  26.754   7.731  1.00  0.00     0.092 A 
HETATM    9  C3  UNL     1     -10.644  26.961   8.989  1.00  0.00     0.037 A 
HETATM   10  C2  UNL     1     -11.666  26.713   9.880  1.00  0.00     0.024 A 
HETATM   11  C11 UNL     1     -12.754  26.373   9.138  1.00  0.00     0.110 A 
BRANCH  10  12
HETATM   12  S1  UNL     1     -11.531  26.833  11.679  1.00  0.00    -0.060 SA
BRANCH  12  13
HETATM   13  C1  UNL     1     -12.905  27.695  12.377  1.00  0.00     0.309 C 
HETATM   14  O1  UNL     1     -14.030  27.231  12.344  1.00  0.00    -0.295 OA
ENDBRANCH  12  13
ENDBRANCH  10  12
ENDBRANCH   1   7
BRANCH   6  15
HETATM   15  O5  UNL     1     -12.772  23.749   6.787  1.00  0.00    -0.391 OA
ATOM     16  H5  UNL     1     -12.586  22.942   6.324  1.00  0.00     0.210 HD
ENDBRANCH   6  15
BRANCH   3  17
HETATM   17  O2  UNL     1     -14.283  27.877   3.622  1.00  0.00    -0.393 OA
ATOM     18  H2  UNL     1     -14.735  28.507   4.170  1.00  0.00     0.210 HD
ENDBRANCH   3  17
BRANCH   5  19
HETATM   19  O4  UNL     1     -15.113  23.683   5.754  1.00  0.00    -0.390 OA
ATOM     20  H4  UNL     1     -14.654  23.140   6.384  1.00  0.00     0.210 HD
ENDBRANCH   5  19
BRANCH   4  21
HETATM   21  O3  UNL     1     -15.709  25.500   3.572  1.00  0.00    -0.390 OA
ATOM     22  H3  UNL     1     -15.446  25.919   2.761  1.00  0.00     0.210 HD
ENDBRANCH   4  21
TORSDOF 7
ENDMDL
MODEL 3
REMARK VINA RESULT: -4.887254251      3.716      6.365
REMARK  7 active torsions:
REMARK  status: ('A' for Active; 'I' for Inactive)
REMARK    1  A    between atoms: C1_2  and  S1_3 
REMARK    2  A    between atoms: S1_3  and  C2_4 
REMARK    3  A    between atoms: N1_7  and  C5_8 
REMARK    4  A    between atoms: C7_10  and  O2_11 
REMARK    5  A    between atoms: C8_13  and  O3_14 
REMARK    6  A    between atoms: C9_16  and  O4_17 
REMARK    7  A    between atoms: C10_19  and  O5_20 
ROOT
HETATM    1  C5  UNL     1     -13.629  26.516   6.117  1.00  0.00     0.122 C 
HETATM    2  C6  UNL     1     -13.778  27.384   4.864  1.00  0.00     0.062 C 
HETATM    3  C7  UNL     1     -14.335  26.544   3.714  1.00  0.00     0.151 C 
HETATM    4  C8  UNL     1     -15.209  25.498   4.320  1.00  0.00     0.178 C 
HETATM    5  C9  UNL     1     -14.300  24.468   4.989  1.00  0.00     0.180 C 
HETATM    6  C10 UNL     1     -13.135  25.185   5.681  1.00  0.00     0.172 C 
ENDROOT
BRANCH   1   7
HETATM    7  N1  UNL     1     -12.749  27.199   7.041  1.00  0.00    -0.358 N 
HETATM    8  C4  UNL     1     -11.412  27.122   7.060  1.00  0.00     0.092 A 
HETATM    9  C3  UNL     1     -10.902  27.905   8.078  1.00  0.00     0.037 A 
HETATM   10  C2  UNL     1     -11.990  28.479   8.698  1.00  0.00     0.024 A 
HETATM   11  C11 UNL     1     -13.094  28.028   8.042  1.00  0.00     0.110 A 
BRANCH  10  12
HETATM   12  S1  UNL     1     -11.911  29.608  10.108  1.00  0.00    -0.060 SA
BRANCH  12  13
HETATM   13  C1  UNL     1     -11.671  31.279   9.590  1.00  0.00     0.309 C 
HETATM   14  O1  UNL     1     -10.597  31.664   9.165  1.00  0.00    -0.295 OA
ENDBRANCH  12  13
ENDBRANCH  10  12
ENDBRANCH   1   7
BRANCH   6  15
HETATM   15  O5  UNL     1     -12.689  24.363   6.683  1.00  0.00    -0.391 OA
ATOM     16  H5  UNL     1     -12.654  23.439   6.469  1.00  0.00     0.210 HD
ENDBRANCH   6  15
BRANCH   3  17
HETATM   17  O2  UNL     1     -14.988  27.336   2.782  1.00  0.00    -0.393 OA
ATOM     18  H2  UNL     1     -15.052  26.898   1.941  1.00  0.00     0.210 HD
ENDBRANCH   3  17
BRANCH   5  19
HETATM   19  O4  UNL     1     -15.039  23.718   5.900  1.00  0.00    -0.390 OA
ATOM     20  H4  UNL     1     -14.822  23.988   6.785  1.00  0.00     0.210 HD
ENDBRANCH   5  19
BRANCH   4  21
HETATM   21  O3  UNL     1     -16.022  24.843   3.413  1.00  0.00    -0.390 OA
ATOM     22  H3  UNL     1     -15.559  24.463   2.677  1.00  0.00     0.210 HD
ENDBRANCH   4  21
TORSDOF 7
ENDMDL
MODEL 4
REMARK VINA RESULT: -4.875854788      1.057      1.320
REMARK  7 active torsions:
REMARK  status: ('A' for Active; 'I' for Inactive)
REMARK    1  A    between atoms: C1_2  and  S1_3 
REMARK    2  A    between atoms: S1_3  and  C2_4 
REMARK    3  A    between atoms: N1_7  and  C5_8 
REMARK    4  A    between atoms: C7_10  and  O2_11 
REMARK    5  A    between atoms: C8_13  and  O3_14 
REMARK    6  A    between atoms: C9_16  and  O4_17 
REMARK    7  A    between atoms: C10_19  and  O5_20 
ROOT
HETATM    1  C5  UNL     1     -12.331  24.126   7.865  1.00  0.00     0.122 C 
HETATM    2  C6  UNL     1     -10.923  23.715   7.425  1.00  0.00     0.062 C 
HETATM    3  C7  UNL     1     -10.187  23.052   8.590  1.00  0.00     0.151 C 
HETATM    4  C8  UNL     1     -11.218  22.369   9.425  1.00  0.00     0.178 C 
HETATM    5  C9  UNL     1     -11.993  23.449  10.176  1.00  0.00     0.180 C 
HETATM    6  C10 UNL     1     -12.230  24.648   9.251  1.00  0.00     0.172 C 
ENDROOT
BRANCH   1   7
HETATM    7  N1  UNL     1     -12.844  25.084   6.909  1.00  0.00    -0.358 N 
HETATM    8  C4  UNL     1     -12.575  26.396   6.884  1.00  0.00     0.092 A 
HETATM    9  C3  UNL     1     -13.239  27.001   5.834  1.00  0.00     0.037 A 
HETATM   10  C2  UNL     1     -13.939  25.998   5.198  1.00  0.00     0.024 A 
HETATM   11  C11 UNL     1     -13.676  24.849   5.878  1.00  0.00     0.110 A 
BRANCH  10  12
HETATM   12  S1  UNL     1     -14.991  26.222   3.744  1.00  0.00    -0.060 SA
BRANCH  12  13
HETATM   13  C1  UNL     1     -15.680  24.691   3.199  1.00  0.00     0.309 C 
HETATM   14  O1  UNL     1     -16.794  24.338   3.539  1.00  0.00    -0.295 OA
ENDBRANCH  12  13
ENDBRANCH  10  12
ENDBRANCH   1   7
BRANCH   6  15
HETATM   15  O5  UNL     1     -13.337  25.309   9.715  1.00  0.00    -0.391 OA
ATOM     16  H5  UNL     1     -13.186  25.898  10.445  1.00  0.00     0.210 HD
ENDBRANCH   6  15
BRANCH   3  17
HETATM   17  O2  UNL     1      -9.190  22.201   8.139  1.00  0.00    -0.393 OA
ATOM     18  H2  UNL     1      -8.340  22.624   8.159  1.00  0.00     0.210 HD
ENDBRANCH   3  17
BRANCH   5  19
HETATM   19  O4  UNL     1     -13.200  22.923  10.633  1.00  0.00    -0.390 OA
ATOM     20  H4  UNL     1     -13.589  23.520  11.262  1.00  0.00     0.210 HD
ENDBRANCH   5  19
BRANCH   4  21
HETATM   21  O3  UNL     1     -10.701  21.477  10.347  1.00  0.00    -0.390 OA
ATOM     22  H3  UNL     1     -11.321  20.824  10.648  1.00  0.00     0.210 HD
ENDBRANCH   4  21
TORSDOF 7
ENDMDL
MODEL 5
REMARK VINA RESULT: -4.833329449      3.882      5.116
REMARK  7 active torsions:
REMARK  status: ('A' for Active; 'I' for Inactive)
REMARK    1  A    between atoms: C1_2  and  S1_3 
REMARK    2  A    between atoms: S1_3  and  C2_4 
REMARK    3  A    between atoms: N1_7  and  C5_8 
REMARK    4  A    between atoms: C7_10  and  O2_11 
REMARK    5  A    between atoms: C8_13  and  O3_14 
REMARK    6  A    between atoms: C9_16  and  O4_17 
REMARK    7  A    between atoms: C10_19  and  O5_20 
ROOT
HETATM    1  C5  UNL     1     -12.149  27.512   9.039  1.00  0.00     0.122 C 
HETATM    2  C6  UNL     1     -11.194  28.540   8.427  1.00  0.00     0.062 C 
HETATM    3  C7  UNL     1     -11.126  29.781   9.318  1.00  0.00     0.151 C 
HETATM    4  C8  UNL     1     -11.343  29.324  10.721  1.00  0.00     0.178 C 
HETATM    5  C9  UNL     1     -12.821  28.968  10.868  1.00  0.00     0.180 C 
HETATM    6  C10 UNL     1     -13.306  28.255   9.600  1.00  0.00     0.172 C 
ENDROOT
BRANCH   1   7
HETATM    7  N1  UNL     1     -12.503  26.553   8.014  1.00  0.00    -0.358 N 
HETATM    8  C4  UNL     1     -12.339  25.226   8.085  1.00  0.00     0.092 A 
HETATM    9  C3  UNL     1     -12.788  24.625   6.924  1.00  0.00     0.037 A 
HETATM   10  C2  UNL     1     -13.244  25.647   6.119  1.00  0.00     0.024 A 
HETATM   11  C11 UNL     1     -13.055  26.802   6.813  1.00  0.00     0.110 A 
BRANCH  10  12
HETATM   12  S1  UNL     1     -13.948  25.436   4.467  1.00  0.00    -0.060 SA
BRANCH  12  13
HETATM   13  C1  UNL     1     -14.788  26.892   3.928  1.00  0.00     0.309 C 
HETATM   14  O1  UNL     1     -14.177  27.875   3.550  1.00  0.00    -0.295 OA
ENDBRANCH  12  13
ENDBRANCH  10  12
ENDBRANCH   1   7
BRANCH   6  15
HETATM   15  O5  UNL     1     -14.386  27.490   9.950  1.00  0.00    -0.391 OA
ATOM     16  H5  UNL     1     -14.950  27.860  10.618  1.00  0.00     0.210 HD
ENDBRANCH   6  15
BRANCH   3  17
HETATM   17  O2  UNL     1      -9.934  30.466   9.139  1.00  0.00    -0.393 OA
ATOM     18  H2  UNL     1      -9.913  31.263   9.655  1.00  0.00     0.210 HD
ENDBRANCH   3  17
BRANCH   5  19
HETATM   19  O4  UNL     1     -12.998  28.165  11.992  1.00  0.00    -0.390 OA
ATOM     20  H4  UNL     1     -13.524  27.408  11.762  1.00  0.00     0.210 HD
ENDBRANCH   5  19
BRANCH   4  21
HETATM   21  O3  UNL     1     -11.020  30.265  11.682  1.00  0.00    -0.390 OA
ATOM     22  H3  UNL     1     -11.653  30.968  11.767  1.00  0.00     0.210 HD
ENDBRANCH   4  21
TORSDOF 7
ENDMDL
