MODEL 1
REMARK VINA RESULT: -4.429672335      0.000      0.000
REMARK  5 active torsions:
REMARK  status: ('A' for Active; 'I' for Inactive)
REMARK    1  A    between atoms: O1_1  and  C1_3 
REMARK    2  A    between atoms: C1_3  and  C2_4 
REMARK    3  A    between atoms: C4_7  and  N1_8 
REMARK    4  A    between atoms: C9_16  and  O4_17 
REMARK    5  A    between atoms: C9_16  and  C10_19 
ROOT
HETATM    1  C2  UNL     1     -12.353  24.918  10.313  1.00  0.00     0.183 C 
HETATM    2  O2  UNL     1     -13.436  25.831  10.187  1.00  0.00    -0.368 OA
HETATM    3  C3  UNL     1     -12.974  26.853   9.397  1.00  0.00     0.203 C 
HETATM    4  C4  UNL     1     -11.878  27.659  10.023  1.00  0.00     0.260 C 
HETATM    5  O3  UNL     1     -10.969  26.973   9.206  1.00  0.00    -0.352 OA
HETATM    6  C8  UNL     1     -11.928  26.282   8.480  1.00  0.00     0.195 C 
HETATM    7  C9  UNL     1     -11.966  24.803   8.860  1.00  0.00     0.123 C 
ENDROOT
BRANCH   4   8
HETATM    8  N1  UNL     1     -11.906  29.071   9.773  1.00  0.00    -0.322 N 
HETATM    9  C5  UNL     1     -10.817  29.818   9.487  1.00  0.00     0.111 A 
HETATM   10  C6  UNL     1     -11.264  31.106   9.317  1.00  0.00     0.106 A 
HETATM   11  N2  UNL     1     -12.584  31.114   9.500  1.00  0.00    -0.361 N 
HETATM   12  C7  UNL     1     -12.973  29.851   9.781  1.00  0.00     0.184 A 
ATOM     13  H2  UNL     1     -13.193  31.930   9.438  1.00  0.00     0.166 HD
ENDBRANCH   4   8
BRANCH   1  14
HETATM   14  C1  UNL     1     -12.829  23.637  10.935  1.00  0.00     0.199 C 
BRANCH  14  15
HETATM   15  O1  UNL     1     -14.116  23.324  10.525  1.00  0.00    -0.398 OA
ATOM     16  H1  UNL     1     -14.272  22.388  10.560  1.00  0.00     0.209 HD
ENDBRANCH  14  15
ENDBRANCH   1  14
BRANCH   7  17
HETATM   17  O4  UNL     1     -12.978  24.203   8.113  1.00  0.00    -0.384 OA
ATOM     18  H4  UNL     1     -12.786  24.236   7.183  1.00  0.00     0.210 HD
ENDBRANCH   7  17
BRANCH   7  19
HETATM   19  C10 UNL     1     -10.669  24.127   8.594  1.00  0.00     0.129 C 
HETATM   20  S1  UNL     1     -11.047  22.602   7.663  1.00  0.00    -0.094 SA
ENDBRANCH   7  19
TORSDOF 5
ENDMDL
MODEL 2
REMARK VINA RESULT: -4.378029732      2.817      3.704
REMARK  5 active torsions:
REMARK  status: ('A' for Active; 'I' for Inactive)
REMARK    1  A    between atoms: O1_1  and  C1_3 
REMARK    2  A    between atoms: C1_3  and  C2_4 
REMARK    3  A    between atoms: C4_7  and  N1_8 
REMARK    4  A    between atoms: C9_16  and  O4_17 
REMARK    5  A    between atoms: C9_16  and  C10_19 
ROOT
HETATM    1  C2  UNL     1     -12.534  28.078  10.302  1.00  0.00     0.183 C 
HETATM    2  O2  UNL     1     -13.160  29.203  10.904  1.00  0.00    -0.368 OA
HETATM    3  C3  UNL     1     -12.490  30.303  10.428  1.00  0.00     0.203 C 
HETATM    4  C4  UNL     1     -11.064  30.387  10.876  1.00  0.00     0.260 C 
HETATM    5  O3  UNL     1     -10.686  29.938   9.603  1.00  0.00    -0.352 OA
HETATM    6  C8  UNL     1     -11.963  29.959   9.063  1.00  0.00     0.195 C 
HETATM    7  C9  UNL     1     -12.518  28.549   8.870  1.00  0.00     0.123 C 
ENDROOT
BRANCH   4   8
HETATM    8  N1  UNL     1     -10.570  31.698  11.180  1.00  0.00    -0.322 N 
HETATM    9  C5  UNL     1      -9.601  32.331  10.483  1.00  0.00     0.111 A 
HETATM   10  C6  UNL     1      -9.420  33.551  11.088  1.00  0.00     0.106 A 
HETATM   11  N2  UNL     1     -10.264  33.632  12.117  1.00  0.00    -0.361 N 
HETATM   12  C7  UNL     1     -10.971  32.482  12.166  1.00  0.00     0.184 A 
ATOM     13  H2  UNL     1     -10.359  34.422  12.754  1.00  0.00     0.166 HD
ENDBRANCH   4   8
BRANCH   1  14
HETATM   14  C1  UNL     1     -13.354  26.843  10.543  1.00  0.00     0.199 C 
BRANCH  14  15
HETATM   15  O1  UNL     1     -14.706  27.138  10.605  1.00  0.00    -0.398 OA
ATOM     16  H1  UNL     1     -14.921  27.603  11.406  1.00  0.00     0.209 HD
ENDBRANCH  14  15
ENDBRANCH   1  14
BRANCH   7  17
HETATM   17  O4  UNL     1     -13.810  28.672   8.362  1.00  0.00    -0.384 OA
ATOM     18  H4  UNL     1     -14.439  28.208   8.902  1.00  0.00     0.210 HD
ENDBRANCH   7  17
BRANCH   7  19
HETATM   19  C10 UNL     1     -11.682  27.745   7.940  1.00  0.00     0.129 C 
HETATM   20  S1  UNL     1     -12.805  27.061   6.673  1.00  0.00    -0.094 SA
ENDBRANCH   7  19
TORSDOF 5
ENDMDL
MODEL 3
REMARK VINA RESULT: -4.350075360      9.131     10.539
REMARK  5 active torsions:
REMARK  status: ('A' for Active; 'I' for Inactive)
REMARK    1  A    between atoms: O1_1  and  C1_3 
REMARK    2  A    between atoms: C1_3  and  C2_4 
REMARK    3  A    between atoms: C4_7  and  N1_8 
REMARK    4  A    between atoms: C9_16  and  O4_17 
REMARK    5  A    between atoms: C9_16  and  C10_19 
ROOT
HETATM    1  C2  UNL     1      -7.637  17.922  11.308  1.00  0.00     0.183 C 
HETATM    2  O2  UNL     1      -8.055  16.788  12.057  1.00  0.00    -0.368 OA
HETATM    3  C3  UNL     1      -9.427  16.810  12.036  1.00  0.00     0.203 C 
HETATM    4  C4  UNL     1     -10.028  17.976  12.759  1.00  0.00     0.260 C 
HETATM    5  O3  UNL     1     -10.266  18.568  11.511  1.00  0.00    -0.352 OA
HETATM    6  C8  UNL     1      -9.851  17.479  10.759  1.00  0.00     0.195 C 
HETATM    7  C9  UNL     1      -8.503  17.735  10.088  1.00  0.00     0.123 C 
ENDROOT
BRANCH   4   8
HETATM    8  N1  UNL     1     -11.229  17.715  13.496  1.00  0.00    -0.322 N 
HETATM    9  C5  UNL     1     -12.009  16.624  13.326  1.00  0.00     0.111 A 
HETATM   10  C6  UNL     1     -13.051  16.749  14.213  1.00  0.00     0.106 A 
HETATM   11  N2  UNL     1     -12.887  17.887  14.887  1.00  0.00    -0.361 N 
HETATM   12  C7  UNL     1     -11.758  18.478  14.438  1.00  0.00     0.184 A 
ATOM     13  H2  UNL     1     -13.504  18.249  15.614  1.00  0.00     0.166 HD
ENDBRANCH   4   8
BRANCH   1  14
HETATM   14  C1  UNL     1      -6.161  17.848  11.042  1.00  0.00     0.199 C 
BRANCH  14  15
HETATM   15  O1  UNL     1      -5.730  16.535  10.948  1.00  0.00    -0.398 OA
ATOM     16  H1  UNL     1      -4.782  16.481  10.943  1.00  0.00     0.209 HD
ENDBRANCH  14  15
ENDBRANCH   1  14
BRANCH   7  17
HETATM   17  O4  UNL     1      -8.155  16.580   9.391  1.00  0.00    -0.384 OA
ATOM     18  H4  UNL     1      -7.407  16.150   9.787  1.00  0.00     0.210 HD
ENDBRANCH   7  17
BRANCH   7  19
HETATM   19  C10 UNL     1      -8.557  18.893   9.157  1.00  0.00     0.129 C 
HETATM   20  S1  UNL     1     -10.035  18.662   8.109  1.00  0.00    -0.094 SA
ENDBRANCH   7  19
TORSDOF 5
ENDMDL
MODEL 4
REMARK VINA RESULT: -4.226279943      3.427      5.613
REMARK  5 active torsions:
REMARK  status: ('A' for Active; 'I' for Inactive)
REMARK    1  A    between atoms: O1_1  and  C1_3 
REMARK    2  A    between atoms: C1_3  and  C2_4 
REMARK    3  A    between atoms: C4_7  and  N1_8 
REMARK    4  A    between atoms: C9_16  and  O4_17 
REMARK    5  A    between atoms: C9_16  and  C10_19 
ROOT
HETATM    1  C2  UNL     1     -13.340  28.757   8.688  1.00  0.00     0.183 C 
HETATM    2  O2  UNL     1     -14.064  27.827   9.484  1.00  0.00    -0.368 OA
HETATM    3  C3  UNL     1     -13.134  26.935   9.956  1.00  0.00     0.203 C 
HETATM    4  C4  UNL     1     -12.498  26.098   8.889  1.00  0.00     0.260 C 
HETATM    5  O3  UNL     1     -11.366  26.919   8.984  1.00  0.00    -0.352 OA
HETATM    6  C8  UNL     1     -11.822  27.660  10.064  1.00  0.00     0.195 C 
HETATM    7  C9  UNL     1     -12.222  29.075   9.649  1.00  0.00     0.123 C 
ENDROOT
BRANCH   4   8
HETATM    8  N1  UNL     1     -12.232  24.731   9.229  1.00  0.00    -0.322 N 
HETATM    9  C5  UNL     1     -11.341  23.942   8.587  1.00  0.00     0.111 A 
HETATM   10  C6  UNL     1     -11.385  22.719   9.212  1.00  0.00     0.106 A 
HETATM   11  N2  UNL     1     -12.280  22.788  10.197  1.00  0.00    -0.361 N 
HETATM   12  C7  UNL     1     -12.799  24.036  10.200  1.00  0.00     0.184 A 
ATOM     13  H2  UNL     1     -12.529  22.033  10.835  1.00  0.00     0.166 HD
ENDBRANCH   4   8
BRANCH   1  14
HETATM   14  C1  UNL     1     -14.214  29.928   8.341  1.00  0.00     0.199 C 
BRANCH  14  15
HETATM   15  O1  UNL     1     -14.930  29.696   7.177  1.00  0.00    -0.398 OA
ATOM     16  H1  UNL     1     -15.540  28.975   7.284  1.00  0.00     0.209 HD
ENDBRANCH  14  15
ENDBRANCH   1  14
BRANCH   7  17
HETATM   17  O4  UNL     1     -12.699  29.726  10.785  1.00  0.00    -0.384 OA
ATOM     18  H4  UNL     1     -13.461  30.256  10.585  1.00  0.00     0.210 HD
ENDBRANCH   7  17
BRANCH   7  19
HETATM   19  C10 UNL     1     -11.078  29.830   9.074  1.00  0.00     0.129 C 
HETATM   20  S1  UNL     1     -11.121  31.501   9.810  1.00  0.00    -0.094 SA
ENDBRANCH   7  19
TORSDOF 5
ENDMDL
MODEL 5
REMARK VINA RESULT: -4.164816800      3.709      4.727
REMARK  5 active torsions:
REMARK  status: ('A' for Active; 'I' for Inactive)
REMARK    1  A    between atoms: O1_1  and  C1_3 
REMARK    2  A    between atoms: C1_3  and  C2_4 
REMARK    3  A    between atoms: C4_7  and  N1_8 
REMARK    4  A    between atoms: C9_16  and  O4_17 
REMARK    5  A    between atoms: C9_16  and  C10_19 
ROOT
HETATM    1  C2  UNL     1     -11.545  23.269   8.350  1.00  0.00     0.183 C 
HETATM    2  O2  UNL     1     -11.151  23.484   7.001  1.00  0.00    -0.368 OA
HETATM    3  C3  UNL     1     -11.706  24.684   6.635  1.00  0.00     0.203 C 
HETATM    4  C4  UNL     1     -13.203  24.672   6.588  1.00  0.00     0.260 C 
HETATM    5  O3  UNL     1     -13.201  25.352   7.814  1.00  0.00    -0.352 OA
HETATM    6  C8  UNL     1     -11.826  25.526   7.874  1.00  0.00     0.195 C 
HETATM    7  C9  UNL     1     -11.186  24.617   8.922  1.00  0.00     0.123 C 
ENDROOT
BRANCH   4   8
HETATM    8  N1  UNL     1     -13.812  25.424   5.529  1.00  0.00    -0.322 N 
HETATM    9  C5  UNL     1     -13.604  26.741   5.310  1.00  0.00     0.111 A 
HETATM   10  C6  UNL     1     -14.361  27.076   4.214  1.00  0.00     0.106 A 
HETATM   11  N2  UNL     1     -14.998  25.981   3.799  1.00  0.00    -0.361 N 
HETATM   12  C7  UNL     1     -14.652  24.964   4.618  1.00  0.00     0.184 A 
ATOM     13  H2  UNL     1     -15.633  25.921   3.004  1.00  0.00     0.166 HD
ENDBRANCH   4   8
BRANCH   1  14
HETATM   14  C1  UNL     1     -10.775  22.120   8.935  1.00  0.00     0.199 C 
BRANCH  14  15
HETATM   15  O1  UNL     1     -11.603  21.041   9.200  1.00  0.00    -0.398 OA
ATOM     16  H1  UNL     1     -11.389  20.297   8.649  1.00  0.00     0.209 HD
ENDBRANCH  14  15
ENDBRANCH   1  14
BRANCH   7  17
HETATM   17  O4  UNL     1      -9.811  24.835   8.882  1.00  0.00    -0.384 OA
ATOM     18  H4  UNL     1      -9.330  24.065   9.161  1.00  0.00     0.210 HD
ENDBRANCH   7  17
BRANCH   7  19
HETATM   19  C10 UNL     1     -11.705  24.893  10.288  1.00  0.00     0.129 C 
HETATM   20  S1  UNL     1     -11.245  26.614  10.692  1.00  0.00    -0.094 SA
ENDBRANCH   7  19
TORSDOF 5
ENDMDL
