MODEL 1
REMARK VINA RESULT: -4.127007522      0.000      0.000
REMARK  7 active torsions:
REMARK  status: ('A' for Active; 'I' for Inactive)
REMARK    1  A    between atoms: O1_2  and  C2_3 
REMARK    2  A    between atoms: C3_4  and  O2_5 
REMARK    3  A    between atoms: C7_12  and  O4_13 
REMARK    4  A    between atoms: C7_12  and  O5_15 
REMARK    5  A    between atoms: O5_15  and  C8_16 
REMARK    6  A    between atoms: C8_16  and  C10_18 
REMARK    7  A    between atoms: C10_18  and  N1_19 
ROOT
HETATM    1  C2  UNL     1     -12.402  25.769   7.272  1.00  0.00     0.217 C 
HETATM    2  C3  UNL     1     -11.900  24.364   7.414  1.00  0.00     0.181 C 
HETATM    3  C4  UNL     1     -11.654  23.884   8.787  1.00  0.00     0.150 C 
HETATM    4  C5  UNL     1     -10.409  22.982   8.840  1.00  0.00     0.042 C 
HETATM    5  O3  UNL     1     -11.518  24.809   9.773  1.00  0.00    -0.362 OA
HETATM    6  C6  UNL     1     -11.224  26.086   9.410  1.00  0.00     0.259 C 
HETATM    7  S1  UNL     1      -9.611  26.318   8.660  1.00  0.00    -0.057 SA
HETATM    8  C7  UNL     1     -12.362  26.572   8.536  1.00  0.00     0.229 C 
ENDROOT
BRANCH   8   9
HETATM    9  O4  UNL     1     -13.525  26.467   9.286  1.00  0.00    -0.361 OA
ATOM     10  H4  UNL     1     -13.447  26.854  10.150  1.00  0.00     0.213 HD
ENDBRANCH   8   9
BRANCH   8  11
HETATM   11  O5  UNL     1     -12.044  27.948   8.268  1.00  0.00    -0.332 OA
BRANCH  11  12
HETATM   12  C8  UNL     1     -12.669  28.977   8.894  1.00  0.00     0.209 C 
HETATM   13  C9  UNL     1     -12.133  29.564  10.143  1.00  0.00     0.054 C 
BRANCH  12  14
HETATM   14  C10 UNL     1     -13.783  29.519   8.441  1.00  0.00    -0.045 C 
BRANCH  14  15
HETATM   15  N1  UNL     1     -14.728  30.284   8.022  1.00  0.00    -0.367 N 
ATOM     16  H12 UNL     1     -15.014  30.484   8.980  1.00  0.00     0.165 HD
ATOM     17  H11 UNL     1     -15.401  30.836   7.491  1.00  0.00     0.165 HD
ENDBRANCH  14  15
ENDBRANCH  12  14
ENDBRANCH  11  12
ENDBRANCH   8  11
BRANCH   1  18
HETATM   18  O1  UNL     1     -13.615  25.726   6.654  1.00  0.00    -0.382 OA
HETATM   19  C1  UNL     1     -13.623  25.685   5.290  1.00  0.00     0.202 C 
ENDBRANCH   1  18
BRANCH   2  20
HETATM   20  O2  UNL     1     -10.711  24.151   6.668  1.00  0.00    -0.390 OA
ATOM     21  H2  UNL     1     -10.548  23.227   6.521  1.00  0.00     0.210 HD
ENDBRANCH   2  20
TORSDOF 7
ENDMDL
MODEL 2
REMARK VINA RESULT: -4.089682805      2.598      4.816
REMARK  7 active torsions:
REMARK  status: ('A' for Active; 'I' for Inactive)
REMARK    1  A    between atoms: O1_2  and  C2_3 
REMARK    2  A    between atoms: C3_4  and  O2_5 
REMARK    3  A    between atoms: C7_12  and  O4_13 
REMARK    4  A    between atoms: C7_12  and  O5_15 
REMARK    5  A    between atoms: O5_15  and  C8_16 
REMARK    6  A    between atoms: C8_16  and  C10_18 
REMARK    7  A    between atoms: C10_18  and  N1_19 
ROOT
HETATM    1  C2  UNL     1     -13.212  28.273   8.698  1.00  0.00     0.217 C 
HETATM    2  C3  UNL     1     -12.528  29.186   9.669  1.00  0.00     0.181 C 
HETATM    3  C4  UNL     1     -11.074  29.003   9.838  1.00  0.00     0.150 C 
HETATM    4  C5  UNL     1     -10.660  29.212  11.304  1.00  0.00     0.042 C 
HETATM    5  O3  UNL     1     -10.527  27.827   9.433  1.00  0.00    -0.362 OA
HETATM    6  C6  UNL     1     -11.356  26.762   9.271  1.00  0.00     0.259 C 
HETATM    7  S1  UNL     1     -12.119  26.148  10.774  1.00  0.00    -0.057 SA
HETATM    8  C7  UNL     1     -12.363  27.142   8.205  1.00  0.00     0.229 C 
ENDROOT
BRANCH   8   9
HETATM    9  O4  UNL     1     -11.644  27.459   7.061  1.00  0.00    -0.361 OA
ATOM     10  H4  UNL     1     -10.710  27.318   7.157  1.00  0.00     0.213 HD
ENDBRANCH   8   9
BRANCH   8  11
HETATM   11  O5  UNL     1     -13.143  25.951   8.009  1.00  0.00    -0.332 OA
BRANCH  11  12
HETATM   12  C8  UNL     1     -12.908  25.082   6.994  1.00  0.00     0.209 C 
HETATM   13  C9  UNL     1     -13.449  25.314   5.636  1.00  0.00     0.054 C 
BRANCH  12  14
HETATM   14  C10 UNL     1     -12.191  23.986   7.143  1.00  0.00    -0.045 C 
BRANCH  14  15
HETATM   15  N1  UNL     1     -11.722  22.817   7.403  1.00  0.00    -0.367 N 
ATOM     16  H12 UNL     1     -12.523  22.376   6.950  1.00  0.00     0.165 HD
ATOM     17  H11 UNL     1     -11.187  22.002   7.702  1.00  0.00     0.165 HD
ENDBRANCH  14  15
ENDBRANCH  12  14
ENDBRANCH  11  12
ENDBRANCH   8  11
BRANCH   1  18
HETATM   18  O1  UNL     1     -13.778  29.037   7.723  1.00  0.00    -0.382 OA
HETATM   19  C1  UNL     1     -14.721  29.947   8.105  1.00  0.00     0.202 C 
ENDBRANCH   1  18
BRANCH   2  20
HETATM   20  O2  UNL     1     -13.118  29.122  10.958  1.00  0.00    -0.390 OA
ATOM     21  H2  UNL     1     -13.340  28.230  11.200  1.00  0.00     0.210 HD
ENDBRANCH   2  20
TORSDOF 7
ENDMDL
MODEL 3
REMARK VINA RESULT: -4.077848375      2.627      5.132
REMARK  7 active torsions:
REMARK  status: ('A' for Active; 'I' for Inactive)
REMARK    1  A    between atoms: O1_2  and  C2_3 
REMARK    2  A    between atoms: C3_4  and  O2_5 
REMARK    3  A    between atoms: C7_12  and  O4_13 
REMARK    4  A    between atoms: C7_12  and  O5_15 
REMARK    5  A    between atoms: O5_15  and  C8_16 
REMARK    6  A    between atoms: C8_16  and  C10_18 
REMARK    7  A    between atoms: C10_18  and  N1_19 
ROOT
HETATM    1  C2  UNL     1     -12.820  26.646  10.043  1.00  0.00     0.217 C 
HETATM    2  C3  UNL     1     -13.371  28.031  10.205  1.00  0.00     0.181 C 
HETATM    3  C4  UNL     1     -13.477  28.849   8.982  1.00  0.00     0.150 C 
HETATM    4  C5  UNL     1     -13.140  30.321   9.273  1.00  0.00     0.042 C 
HETATM    5  O3  UNL     1     -12.742  28.478   7.900  1.00  0.00    -0.362 OA
HETATM    6  C6  UNL     1     -11.684  27.649   8.103  1.00  0.00     0.259 C 
HETATM    7  S1  UNL     1     -10.337  28.346   9.060  1.00  0.00    -0.057 SA
HETATM    8  C7  UNL     1     -12.233  26.367   8.694  1.00  0.00     0.229 C 
ENDROOT
BRANCH   8   9
HETATM    9  O4  UNL     1     -13.159  25.865   7.790  1.00  0.00    -0.361 OA
ATOM     10  H4  UNL     1     -12.920  25.013   7.446  1.00  0.00     0.213 HD
ENDBRANCH   8   9
BRANCH   8  11
HETATM   11  O5  UNL     1     -11.090  25.501   8.793  1.00  0.00    -0.332 OA
BRANCH  11  12
HETATM   12  C8  UNL     1     -11.102  24.221   8.345  1.00  0.00     0.209 C 
HETATM   13  C9  UNL     1     -10.622  23.871   6.989  1.00  0.00     0.054 C 
BRANCH  12  14
HETATM   14  C10 UNL     1     -11.536  23.212   9.075  1.00  0.00    -0.045 C 
BRANCH  14  15
HETATM   15  N1  UNL     1     -12.126  22.418   9.896  1.00  0.00    -0.367 N 
ATOM     16  H12 UNL     1     -12.876  22.254   9.224  1.00  0.00     0.165 HD
ATOM     17  H11 UNL     1     -12.426  21.836  10.678  1.00  0.00     0.165 HD
ENDBRANCH  14  15
ENDBRANCH  12  14
ENDBRANCH  11  12
ENDBRANCH   8  11
BRANCH   1  18
HETATM   18  O1  UNL     1     -13.769  25.761  10.454  1.00  0.00    -0.382 OA
HETATM   19  C1  UNL     1     -13.639  25.238  11.708  1.00  0.00     0.202 C 
ENDBRANCH   1  18
BRANCH   2  20
HETATM   20  O2  UNL     1     -12.636  28.782  11.158  1.00  0.00    -0.390 OA
ATOM     21  H2  UNL     1     -12.814  29.713  11.086  1.00  0.00     0.210 HD
ENDBRANCH   2  20
TORSDOF 7
ENDMDL
MODEL 4
REMARK VINA RESULT: -4.049582661      2.430      2.929
REMARK  7 active torsions:
REMARK  status: ('A' for Active; 'I' for Inactive)
REMARK    1  A    between atoms: O1_2  and  C2_3 
REMARK    2  A    between atoms: C3_4  and  O2_5 
REMARK    3  A    between atoms: C7_12  and  O4_13 
REMARK    4  A    between atoms: C7_12  and  O5_15 
REMARK    5  A    between atoms: O5_15  and  C8_16 
REMARK    6  A    between atoms: C8_16  and  C10_18 
REMARK    7  A    between atoms: C10_18  and  N1_19 
ROOT
HETATM    1  C2  UNL     1     -12.745  26.295   9.843  1.00  0.00     0.217 C 
HETATM    2  C3  UNL     1     -12.752  24.893  10.373  1.00  0.00     0.181 C 
HETATM    3  C4  UNL     1     -13.639  24.623  11.520  1.00  0.00     0.150 C 
HETATM    4  C5  UNL     1     -12.985  23.637  12.502  1.00  0.00     0.042 C 
HETATM    5  O3  UNL     1     -14.077  25.682  12.251  1.00  0.00    -0.362 OA
HETATM    6  C6  UNL     1     -13.392  26.851  12.151  1.00  0.00     0.259 C 
HETATM    7  S1  UNL     1     -11.717  26.816  12.791  1.00  0.00    -0.057 SA
HETATM    8  C7  UNL     1     -13.467  27.286  10.702  1.00  0.00     0.229 C 
ENDROOT
BRANCH   8   9
HETATM    9  O4  UNL     1     -14.812  27.407  10.381  1.00  0.00    -0.361 OA
ATOM     10  H4  UNL     1     -15.282  26.583  10.431  1.00  0.00     0.213 HD
ENDBRANCH   8   9
BRANCH   8  11
HETATM   11  O5  UNL     1     -12.816  28.567  10.679  1.00  0.00    -0.332 OA
BRANCH  11  12
HETATM   12  C8  UNL     1     -12.612  29.263   9.532  1.00  0.00     0.209 C 
HETATM   13  C9  UNL     1     -11.250  29.518   9.013  1.00  0.00     0.054 C 
BRANCH  12  14
HETATM   14  C10 UNL     1     -13.599  29.756   8.810  1.00  0.00    -0.045 C 
BRANCH  14  15
HETATM   15  N1  UNL     1     -14.720  30.074   8.264  1.00  0.00    -0.367 N 
ATOM     16  H12 UNL     1     -14.318  30.940   7.906  1.00  0.00     0.165 HD
ATOM     17  H11 UNL     1     -15.676  30.136   7.915  1.00  0.00     0.165 HD
ENDBRANCH  14  15
ENDBRANCH  12  14
ENDBRANCH  11  12
ENDBRANCH   8  11
BRANCH   1  18
HETATM   18  O1  UNL     1     -13.145  26.258   8.542  1.00  0.00    -0.382 OA
HETATM   19  C1  UNL     1     -12.177  26.128   7.589  1.00  0.00     0.202 C 
ENDBRANCH   1  18
BRANCH   2  20
HETATM   20  O2  UNL     1     -11.449  24.459  10.731  1.00  0.00    -0.390 OA
ATOM     21  H2  UNL     1     -11.294  23.558  10.472  1.00  0.00     0.210 HD
ENDBRANCH   2  20
TORSDOF 7
ENDMDL
MODEL 5
REMARK VINA RESULT: -4.043019590      2.887      4.538
REMARK  7 active torsions:
REMARK  status: ('A' for Active; 'I' for Inactive)
REMARK    1  A    between atoms: O1_2  and  C2_3 
REMARK    2  A    between atoms: C3_4  and  O2_5 
REMARK    3  A    between atoms: C7_12  and  O4_13 
REMARK    4  A    between atoms: C7_12  and  O5_15 
REMARK    5  A    between atoms: O5_15  and  C8_16 
REMARK    6  A    between atoms: C8_16  and  C10_18 
REMARK    7  A    between atoms: C10_18  and  N1_19 
ROOT
HETATM    1  C2  UNL     1     -11.152  29.459   9.447  1.00  0.00     0.217 C 
HETATM    2  C3  UNL     1     -11.256  28.386   8.405  1.00  0.00     0.181 C 
HETATM    3  C4  UNL     1     -12.608  27.870   8.119  1.00  0.00     0.150 C 
HETATM    4  C5  UNL     1     -12.573  26.356   7.851  1.00  0.00     0.042 C 
HETATM    5  O3  UNL     1     -13.584  28.090   9.038  1.00  0.00    -0.362 OA
HETATM    6  C6  UNL     1     -13.205  28.406  10.305  1.00  0.00     0.259 C 
HETATM    7  S1  UNL     1     -12.348  27.107  11.196  1.00  0.00    -0.057 SA
HETATM    8  C7  UNL     1     -12.412  29.694  10.222  1.00  0.00     0.229 C 
ENDROOT
BRANCH   8   9
HETATM    9  O4  UNL     1     -13.239  30.645   9.642  1.00  0.00    -0.361 OA
ATOM     10  H4  UNL     1     -13.820  31.065  10.265  1.00  0.00     0.213 HD
ENDBRANCH   8   9
BRANCH   8  11
HETATM   11  O5  UNL     1     -12.127  30.027  11.591  1.00  0.00    -0.332 OA
BRANCH  11  12
HETATM   12  C8  UNL     1     -12.140  31.303  12.050  1.00  0.00     0.209 C 
HETATM   13  C9  UNL     1     -13.145  31.761  13.036  1.00  0.00     0.054 C 
BRANCH  12  14
HETATM   14  C10 UNL     1     -11.271  32.214  11.657  1.00  0.00    -0.045 C 
BRANCH  14  15
HETATM   15  N1  UNL     1     -10.473  32.999  11.023  1.00  0.00    -0.367 N 
ATOM     16  H12 UNL     1     -10.521  33.684  11.777  1.00  0.00     0.165 HD
ATOM     17  H11 UNL     1      -9.843  33.463  10.369  1.00  0.00     0.165 HD
ENDBRANCH  14  15
ENDBRANCH  12  14
ENDBRANCH  11  12
ENDBRANCH   8  11
BRANCH   1  18
HETATM   18  O1  UNL     1     -10.618  30.567   8.863  1.00  0.00    -0.382 OA
HETATM   19  C1  UNL     1      -9.289  30.536   8.554  1.00  0.00     0.202 C 
ENDBRANCH   1  18
BRANCH   2  20
HETATM   20  O2  UNL     1     -10.430  27.273   8.712  1.00  0.00    -0.390 OA
ATOM     21  H2  UNL     1     -10.607  26.535   8.140  1.00  0.00     0.210 HD
ENDBRANCH   2  20
TORSDOF 7
ENDMDL
