MODEL 1
REMARK VINA RESULT: -4.373772933      0.000      0.000
REMARK  6 active torsions:
REMARK  status: ('A' for Active; 'I' for Inactive)
REMARK    1  A    between atoms: N1_1  and  C1_5 
REMARK    2  A    between atoms: C1_5  and  C2_6 
REMARK    3  A    between atoms: C2_6  and  N2_7 
REMARK    4  A    between atoms: C6_11  and  O1_12 
REMARK    5  A    between atoms: C7_14  and  O2_15 
REMARK    6  A    between atoms: C8_17  and  O3_18 
ROOT
HETATM    1  N2  UNL     1     -11.429  22.643   8.307  1.00  0.00    -0.247 NA
HETATM    2  C3  UNL     1     -11.351  23.725   7.366  1.00  0.00     0.109 C 
HETATM    3  C4  UNL     1     -11.931  25.008   7.897  1.00  0.00     0.019 C 
HETATM    4  C5  UNL     1     -12.839  25.650   6.870  1.00  0.00     0.041 C 
HETATM    5  C6  UNL     1     -12.596  27.124   6.706  1.00  0.00     0.149 C 
HETATM    6  C7  UNL     1     -12.411  27.848   8.016  1.00  0.00     0.176 C 
HETATM    7  C8  UNL     1     -11.352  27.229   8.874  1.00  0.00     0.164 C 
HETATM    8  C9  UNL     1     -10.837  25.925   8.369  1.00  0.00     0.096 C 
HETATM    9  S1  UNL     1     -10.033  25.056   9.773  1.00  0.00    -0.073 SA
HETATM   10  S2  UNL     1     -11.063  23.198   9.964  1.00  0.00    -0.008 SA
ENDROOT
BRANCH   1  11
HETATM   11  C2  UNL     1     -10.546  21.555   8.037  1.00  0.00     0.130 C 
BRANCH  11  12
HETATM   12  C1  UNL     1     -10.416  20.581   9.185  1.00  0.00     0.245 C 
BRANCH  12  13
HETATM   13  N1  UNL     1     -11.463  19.580   9.082  1.00  0.00    -0.078 N 
ATOM     14  H13 UNL     1     -12.320  19.956   8.677  1.00  0.00     0.274 HD
ATOM     15  H12 UNL     1     -11.261  18.881   8.367  1.00  0.00     0.274 HD
ATOM     16  H11 UNL     1     -11.618  19.163   9.999  1.00  0.00     0.274 HD
ENDBRANCH  12  13
ENDBRANCH  11  12
ENDBRANCH   1  11
BRANCH   5  17
HETATM   17  O1  UNL     1     -13.752  27.651   6.090  1.00  0.00    -0.393 OA
ATOM     18  H1  UNL     1     -13.558  28.558   5.887  1.00  0.00     0.210 HD
ENDBRANCH   5  17
BRANCH   7  19
HETATM   19  O3  UNL     1     -10.242  28.103   8.958  1.00  0.00    -0.392 OA
ATOM     20  H3  UNL     1      -9.872  28.062   9.832  1.00  0.00     0.210 HD
ENDBRANCH   7  19
BRANCH   6  21
HETATM   21  O2  UNL     1     -13.652  27.900   8.689  1.00  0.00    -0.390 OA
ATOM     22  H2  UNL     1     -13.832  27.048   9.068  1.00  0.00     0.210 HD
ENDBRANCH   6  21
TORSDOF 6
ENDMDL
MODEL 2
REMARK VINA RESULT: -4.271731632      3.031      4.110
REMARK  6 active torsions:
REMARK  status: ('A' for Active; 'I' for Inactive)
REMARK    1  A    between atoms: N1_1  and  C1_5 
REMARK    2  A    between atoms: C1_5  and  C2_6 
REMARK    3  A    between atoms: C2_6  and  N2_7 
REMARK    4  A    between atoms: C6_11  and  O1_12 
REMARK    5  A    between atoms: C7_14  and  O2_15 
REMARK    6  A    between atoms: C8_17  and  O3_18 
ROOT
HETATM    1  N2  UNL     1     -12.735  24.385   7.897  1.00  0.00    -0.247 NA
HETATM    2  C3  UNL     1     -12.865  24.187   6.481  1.00  0.00     0.109 C 
HETATM    3  C4  UNL     1     -13.947  25.034   5.866  1.00  0.00     0.019 C 
HETATM    4  C5  UNL     1     -14.810  24.206   4.938  1.00  0.00     0.041 C 
HETATM    5  C6  UNL     1     -15.073  24.877   3.620  1.00  0.00     0.149 C 
HETATM    6  C7  UNL     1     -15.405  26.343   3.753  1.00  0.00     0.176 C 
HETATM    7  C8  UNL     1     -14.380  27.099   4.537  1.00  0.00     0.164 C 
HETATM    8  C9  UNL     1     -13.355  26.242   5.196  1.00  0.00     0.096 C 
HETATM    9  S1  UNL     1     -12.579  27.223   6.540  1.00  0.00    -0.073 SA
HETATM   10  S2  UNL     1     -12.908  26.109   8.329  1.00  0.00    -0.008 SA
ENDROOT
BRANCH   1  11
HETATM   11  C2  UNL     1     -11.493  23.950   8.447  1.00  0.00     0.130 C 
BRANCH  11  12
HETATM   12  C1  UNL     1     -11.125  22.534   8.068  1.00  0.00     0.245 C 
BRANCH  12  13
HETATM   13  N1  UNL     1     -11.547  21.632   9.126  1.00  0.00    -0.078 N 
ATOM     14  H13 UNL     1     -11.193  21.914  10.040  1.00  0.00     0.274 HD
ATOM     15  H12 UNL     1     -12.544  21.712   9.327  1.00  0.00     0.274 HD
ATOM     16  H11 UNL     1     -11.276  20.680   8.882  1.00  0.00     0.274 HD
ENDBRANCH  12  13
ENDBRANCH  11  12
ENDBRANCH   1  11
BRANCH   5  17
HETATM   17  O1  UNL     1     -16.202  24.235   3.065  1.00  0.00    -0.393 OA
ATOM     18  H1  UNL     1     -16.053  24.194   2.128  1.00  0.00     0.210 HD
ENDBRANCH   5  17
BRANCH   7  19
HETATM   19  O3  UNL     1     -13.684  27.982   3.678  1.00  0.00    -0.392 OA
ATOM     20  H3  UNL     1     -13.934  28.877   3.873  1.00  0.00     0.210 HD
ENDBRANCH   7  19
BRANCH   6  21
HETATM   21  O2  UNL     1     -16.690  26.470   4.327  1.00  0.00    -0.390 OA
ATOM     22  H2  UNL     1     -16.856  25.714   4.878  1.00  0.00     0.210 HD
ENDBRANCH   6  21
TORSDOF 6
ENDMDL
MODEL 3
REMARK VINA RESULT: -4.179226565      3.621      4.269
REMARK  6 active torsions:
REMARK  status: ('A' for Active; 'I' for Inactive)
REMARK    1  A    between atoms: N1_1  and  C1_5 
REMARK    2  A    between atoms: C1_5  and  C2_6 
REMARK    3  A    between atoms: C2_6  and  N2_7 
REMARK    4  A    between atoms: C6_11  and  O1_12 
REMARK    5  A    between atoms: C7_14  and  O2_15 
REMARK    6  A    between atoms: C8_17  and  O3_18 
ROOT
HETATM    1  N2  UNL     1     -13.276  25.913   6.914  1.00  0.00    -0.247 NA
HETATM    2  C3  UNL     1     -12.894  27.297   6.916  1.00  0.00     0.109 C 
HETATM    3  C4  UNL     1     -12.462  27.785   8.272  1.00  0.00     0.019 C 
HETATM    4  C5  UNL     1     -13.112  29.114   8.594  1.00  0.00     0.041 C 
HETATM    5  C6  UNL     1     -12.149  30.124   9.149  1.00  0.00     0.149 C 
HETATM    6  C7  UNL     1     -11.205  29.548  10.176  1.00  0.00     0.176 C 
HETATM    7  C8  UNL     1     -10.476  28.340   9.677  1.00  0.00     0.164 C 
HETATM    8  C9  UNL     1     -10.962  27.828   8.364  1.00  0.00     0.096 C 
HETATM    9  S1  UNL     1     -10.406  26.086   8.199  1.00  0.00    -0.073 SA
HETATM   10  S2  UNL     1     -12.184  24.937   7.935  1.00  0.00    -0.008 SA
ENDROOT
BRANCH   1  11
HETATM   11  C2  UNL     1     -13.286  25.300   5.626  1.00  0.00     0.130 C 
BRANCH  11  12
HETATM   12  C1  UNL     1     -14.366  25.829   4.711  1.00  0.00     0.245 C 
BRANCH  12  13
HETATM   13  N1  UNL     1     -15.142  24.715   4.195  1.00  0.00    -0.078 N 
ATOM     14  H13 UNL     1     -14.678  24.248   3.416  1.00  0.00     0.274 HD
ATOM     15  H12 UNL     1     -15.165  23.927   4.842  1.00  0.00     0.274 HD
ATOM     16  H11 UNL     1     -16.076  25.043   3.950  1.00  0.00     0.274 HD
ENDBRANCH  12  13
ENDBRANCH  11  12
ENDBRANCH   1  11
BRANCH   5  17
HETATM   17  O1  UNL     1     -12.931  31.106   9.796  1.00  0.00    -0.393 OA
ATOM     18  H1  UNL     1     -13.746  31.162   9.311  1.00  0.00     0.210 HD
ENDBRANCH   5  17
BRANCH   7  19
HETATM   19  O3  UNL     1      -9.106  28.648   9.515  1.00  0.00    -0.392 OA
ATOM     20  H3  UNL     1      -8.647  27.889   9.174  1.00  0.00     0.210 HD
ENDBRANCH   7  19
BRANCH   6  21
HETATM   21  O2  UNL     1     -11.931  29.262  11.353  1.00  0.00    -0.390 OA
ATOM     22  H2  UNL     1     -11.587  28.465  11.740  1.00  0.00     0.210 HD
ENDBRANCH   6  21
TORSDOF 6
ENDMDL
MODEL 4
REMARK VINA RESULT: -4.172283122      7.539      8.810
REMARK  6 active torsions:
REMARK  status: ('A' for Active; 'I' for Inactive)
REMARK    1  A    between atoms: N1_1  and  C1_5 
REMARK    2  A    between atoms: C1_5  and  C2_6 
REMARK    3  A    between atoms: C2_6  and  N2_7 
REMARK    4  A    between atoms: C6_11  and  O1_12 
REMARK    5  A    between atoms: C7_14  and  O2_15 
REMARK    6  A    between atoms: C8_17  and  O3_18 
ROOT
HETATM    1  N2  UNL     1      -7.379  31.526   8.126  1.00  0.00    -0.247 NA
HETATM    2  C3  UNL     1      -8.726  32.023   8.179  1.00  0.00     0.109 C 
HETATM    3  C4  UNL     1      -9.389  31.782   9.508  1.00  0.00     0.019 C 
HETATM    4  C5  UNL     1     -10.784  31.227   9.316  1.00  0.00     0.041 C 
HETATM    5  C6  UNL     1     -11.814  31.903  10.175  1.00  0.00     0.149 C 
HETATM    6  C7  UNL     1     -11.349  32.135  11.592  1.00  0.00     0.176 C 
HETATM    7  C8  UNL     1     -10.042  32.861  11.660  1.00  0.00     0.164 C 
HETATM    8  C9  UNL     1      -9.364  33.032  10.344  1.00  0.00     0.096 C 
HETATM    9  S1  UNL     1      -7.590  33.378  10.664  1.00  0.00    -0.073 SA
HETATM   10  S2  UNL     1      -6.512  31.839   9.655  1.00  0.00    -0.008 SA
ENDROOT
BRANCH   1  11
HETATM   11  C2  UNL     1      -6.580  32.081   7.083  1.00  0.00     0.130 C 
BRANCH  11  12
HETATM   12  C1  UNL     1      -7.334  33.032   6.182  1.00  0.00     0.245 C 
BRANCH  12  13
HETATM   13  N1  UNL     1      -6.483  33.409   5.068  1.00  0.00    -0.078 N 
ATOM     14  H13 UNL     1      -6.461  32.697   4.338  1.00  0.00     0.274 HD
ATOM     15  H12 UNL     1      -6.882  34.168   4.515  1.00  0.00     0.274 HD
ATOM     16  H11 UNL     1      -5.552  33.633   5.419  1.00  0.00     0.274 HD
ENDBRANCH  12  13
ENDBRANCH  11  12
ENDBRANCH   1  11
BRANCH   5  17
HETATM   17  O1  UNL     1     -12.922  31.030  10.230  1.00  0.00    -0.393 OA
ATOM     18  H1  UNL     1     -13.398  31.150   9.416  1.00  0.00     0.210 HD
ENDBRANCH   5  17
BRANCH   7  19
HETATM   19  O3  UNL     1     -10.249  34.158  12.185  1.00  0.00    -0.392 OA
ATOM     20  H3  UNL     1      -9.577  34.351  12.828  1.00  0.00     0.210 HD
ENDBRANCH   7  19
BRANCH   6  21
HETATM   21  O2  UNL     1     -11.283  30.892  12.260  1.00  0.00    -0.390 OA
ATOM     22  H2  UNL     1     -10.772  30.997  13.054  1.00  0.00     0.210 HD
ENDBRANCH   6  21
TORSDOF 6
ENDMDL
MODEL 5
REMARK VINA RESULT: -4.147677125      3.977      6.015
REMARK  6 active torsions:
REMARK  status: ('A' for Active; 'I' for Inactive)
REMARK    1  A    between atoms: N1_1  and  C1_5 
REMARK    2  A    between atoms: C1_5  and  C2_6 
REMARK    3  A    between atoms: C2_6  and  N2_7 
REMARK    4  A    between atoms: C6_11  and  O1_12 
REMARK    5  A    between atoms: C7_14  and  O2_15 
REMARK    6  A    between atoms: C8_17  and  O3_18 
ROOT
HETATM    1  N2  UNL     1     -11.928  29.441   9.091  1.00  0.00    -0.247 NA
HETATM    2  C3  UNL     1     -12.889  28.616   8.415  1.00  0.00     0.109 C 
HETATM    3  C4  UNL     1     -12.336  27.273   8.019  1.00  0.00     0.019 C 
HETATM    4  C5  UNL     1     -12.702  26.946   6.587  1.00  0.00     0.041 C 
HETATM    5  C6  UNL     1     -13.219  25.546   6.414  1.00  0.00     0.149 C 
HETATM    6  C7  UNL     1     -12.422  24.518   7.179  1.00  0.00     0.176 C 
HETATM    7  C8  UNL     1     -12.284  24.856   8.630  1.00  0.00     0.164 C 
HETATM    8  C9  UNL     1     -12.773  26.216   8.994  1.00  0.00     0.096 C 
HETATM    9  S1  UNL     1     -12.013  26.677  10.600  1.00  0.00    -0.073 SA
HETATM   10  S2  UNL     1     -10.940  28.484  10.230  1.00  0.00    -0.008 SA
ENDROOT
BRANCH   1  11
HETATM   11  C2  UNL     1     -12.489  30.516   9.843  1.00  0.00     0.130 C 
BRANCH  11  12
HETATM   12  C1  UNL     1     -11.555  31.692  10.010  1.00  0.00     0.245 C 
BRANCH  12  13
HETATM   13  N1  UNL     1     -11.835  32.346  11.276  1.00  0.00    -0.078 N 
ATOM     14  H13 UNL     1     -12.827  32.333  11.508  1.00  0.00     0.274 HD
ATOM     15  H12 UNL     1     -11.493  31.810  12.073  1.00  0.00     0.274 HD
ATOM     16  H11 UNL     1     -11.454  33.293  11.255  1.00  0.00     0.274 HD
ENDBRANCH  12  13
ENDBRANCH  11  12
ENDBRANCH   1  11
BRANCH   5  17
HETATM   17  O1  UNL     1     -13.095  25.243   5.041  1.00  0.00    -0.393 OA
ATOM     18  H1  UNL     1     -13.311  24.323   4.949  1.00  0.00     0.210 HD
ENDBRANCH   5  17
BRANCH   7  19
HETATM   19  O3  UNL     1     -13.027  23.933   9.403  1.00  0.00    -0.392 OA
ATOM     20  H3  UNL     1     -13.921  24.241   9.492  1.00  0.00     0.210 HD
ENDBRANCH   7  19
BRANCH   6  21
HETATM   21  O2  UNL     1     -11.160  24.367   6.563  1.00  0.00    -0.390 OA
ATOM     22  H2  UNL     1     -10.638  23.763   7.077  1.00  0.00     0.210 HD
ENDBRANCH   6  21
TORSDOF 6
ENDMDL
