MODEL 1
REMARK VINA RESULT: -5.084545612      0.000      0.000
REMARK  7 active torsions:
REMARK  status: ('A' for Active; 'I' for Inactive)
REMARK    1  A    between atoms: O1_1  and  C1_3 
REMARK    2  A    between atoms: C1_3  and  C2_4 
REMARK    3  A    between atoms: C3_6  and  O3_7 
REMARK    4  A    between atoms: O3_7  and  C4_8 
REMARK    5  A    between atoms: C8_13  and  O4_14 
REMARK    6  A    between atoms: C9_16  and  O5_17 
REMARK    7  A    between atoms: C10_19  and  O6_20 
ROOT
HETATM    1  C2  UNL     1     -12.502  26.946   8.836  1.00  0.00     0.179 C 
HETATM    2  O2  UNL     1     -13.275  26.165   8.048  1.00  0.00    -0.348 OA
HETATM    3  C3  UNL     1     -12.604  25.168   7.356  1.00  0.00     0.298 C 
HETATM    4  C8  UNL     1     -12.020  24.247   8.438  1.00  0.00     0.205 C 
HETATM    5  C9  UNL     1     -10.842  25.061   8.984  1.00  0.00     0.183 C 
HETATM    6  C10 UNL     1     -11.408  26.302   9.587  1.00  0.00     0.180 C 
ENDROOT
BRANCH   3   7
HETATM    7  O3  UNL     1     -13.456  24.404   6.583  1.00  0.00    -0.310 OA
BRANCH   7   8
HETATM    8  C4  UNL     1     -14.073  25.027   5.476  1.00  0.00     0.113 A 
HETATM    9  C5  UNL     1     -14.958  24.466   4.591  1.00  0.00     0.045 A 
HETATM   10  C6  UNL     1     -15.419  25.251   3.610  1.00  0.00     0.010 A 
HETATM   11  C7  UNL     1     -14.975  26.543   3.567  1.00  0.00     0.052 A 
HETATM   12  S1  UNL     1     -13.922  26.626   4.903  1.00  0.00    -0.077 SA
ENDBRANCH   7   8
ENDBRANCH   3   7
BRANCH   4  13
HETATM   13  O4  UNL     1     -12.957  24.183   9.451  1.00  0.00    -0.388 OA
ATOM     14  H4  UNL     1     -13.081  25.072   9.764  1.00  0.00     0.210 HD
ENDBRANCH   4  13
BRANCH   1  15
HETATM   15  C1  UNL     1     -13.419  27.632   9.860  1.00  0.00     0.198 C 
BRANCH  15  16
HETATM   16  O1  UNL     1     -14.369  26.761  10.358  1.00  0.00    -0.398 OA
ATOM     17  H1  UNL     1     -14.420  26.803  11.306  1.00  0.00     0.209 HD
ENDBRANCH  15  16
ENDBRANCH   1  15
BRANCH   5  18
HETATM   18  O5  UNL     1     -10.149  24.329   9.948  1.00  0.00    -0.390 OA
ATOM     19  H5  UNL     1     -10.233  24.739  10.801  1.00  0.00     0.210 HD
ENDBRANCH   5  18
BRANCH   6  20
HETATM   20  O6  UNL     1     -10.328  27.182   9.819  1.00  0.00    -0.390 OA
ATOM     21  H6  UNL     1      -9.504  26.832   9.500  1.00  0.00     0.210 HD
ENDBRANCH   6  20
TORSDOF 7
ENDMDL
MODEL 2
REMARK VINA RESULT: -5.055451354      1.625      2.041
REMARK  7 active torsions:
REMARK  status: ('A' for Active; 'I' for Inactive)
REMARK    1  A    between atoms: O1_1  and  C1_3 
REMARK    2  A    between atoms: C1_3  and  C2_4 
REMARK    3  A    between atoms: C3_6  and  O3_7 
REMARK    4  A    between atoms: O3_7  and  C4_8 
REMARK    5  A    between atoms: C8_13  and  O4_14 
REMARK    6  A    between atoms: C9_16  and  O5_17 
REMARK    7  A    between atoms: C10_19  and  O6_20 
ROOT
HETATM    1  C2  UNL     1     -12.225  25.000   9.369  1.00  0.00     0.179 C 
HETATM    2  O2  UNL     1     -13.064  24.596   8.388  1.00  0.00    -0.348 OA
HETATM    3  C3  UNL     1     -12.541  24.636   7.103  1.00  0.00     0.298 C 
HETATM    4  C8  UNL     1     -11.372  23.638   7.112  1.00  0.00     0.205 C 
HETATM    5  C9  UNL     1     -10.285  24.387   7.888  1.00  0.00     0.183 C 
HETATM    6  C10 UNL     1     -10.805  24.612   9.268  1.00  0.00     0.180 C 
ENDROOT
BRANCH   3   7
HETATM    7  O3  UNL     1     -13.446  24.200   6.156  1.00  0.00    -0.310 OA
BRANCH   7   8
HETATM    8  C4  UNL     1     -13.995  25.164   5.283  1.00  0.00     0.113 A 
HETATM    9  C5  UNL     1     -13.695  26.502   5.224  1.00  0.00     0.045 A 
HETATM   10  C6  UNL     1     -14.345  27.232   4.309  1.00  0.00     0.010 A 
HETATM   11  C7  UNL     1     -15.251  26.592   3.511  1.00  0.00     0.052 A 
HETATM   12  S1  UNL     1     -15.170  24.982   4.060  1.00  0.00    -0.077 SA
ENDBRANCH   7   8
ENDBRANCH   3   7
BRANCH   4  13
HETATM   13  O4  UNL     1     -11.764  22.578   7.906  1.00  0.00    -0.388 OA
ATOM     14  H4  UNL     1     -11.237  21.832   7.642  1.00  0.00     0.210 HD
ENDBRANCH   4  13
BRANCH   1  15
HETATM   15  C1  UNL     1     -12.759  24.445  10.699  1.00  0.00     0.198 C 
BRANCH  15  16
HETATM   16  O1  UNL     1     -13.517  23.306  10.508  1.00  0.00    -0.398 OA
ATOM     17  H1  UNL     1     -14.354  23.363  10.955  1.00  0.00     0.209 HD
ENDBRANCH  15  16
ENDBRANCH   1  15
BRANCH   5  18
HETATM   18  O5  UNL     1      -9.111  23.635   7.932  1.00  0.00    -0.390 OA
ATOM     19  H5  UNL     1      -8.612  23.751   7.132  1.00  0.00     0.210 HD
ENDBRANCH   5  18
BRANCH   6  20
HETATM   20  O6  UNL     1      -9.950  25.548   9.889  1.00  0.00    -0.390 OA
ATOM     21  H6  UNL     1      -9.339  25.939   9.276  1.00  0.00     0.210 HD
ENDBRANCH   6  20
TORSDOF 7
ENDMDL
MODEL 3
REMARK VINA RESULT: -5.046641399      3.002      4.327
REMARK  7 active torsions:
REMARK  status: ('A' for Active; 'I' for Inactive)
REMARK    1  A    between atoms: O1_1  and  C1_3 
REMARK    2  A    between atoms: C1_3  and  C2_4 
REMARK    3  A    between atoms: C3_6  and  O3_7 
REMARK    4  A    between atoms: O3_7  and  C4_8 
REMARK    5  A    between atoms: C8_13  and  O4_14 
REMARK    6  A    between atoms: C9_16  and  O5_17 
REMARK    7  A    between atoms: C10_19  and  O6_20 
ROOT
HETATM    1  C2  UNL     1     -13.596  29.467   8.435  1.00  0.00     0.179 C 
HETATM    2  O2  UNL     1     -13.684  28.163   8.087  1.00  0.00    -0.348 OA
HETATM    3  C3  UNL     1     -12.828  27.307   8.764  1.00  0.00     0.298 C 
HETATM    4  C8  UNL     1     -13.254  27.391  10.237  1.00  0.00     0.205 C 
HETATM    5  C9  UNL     1     -12.707  28.753  10.678  1.00  0.00     0.183 C 
HETATM    6  C10 UNL     1     -13.401  29.790   9.861  1.00  0.00     0.180 C 
ENDROOT
BRANCH   3   7
HETATM    7  O3  UNL     1     -12.980  25.993   8.367  1.00  0.00    -0.310 OA
BRANCH   7   8
HETATM    8  C4  UNL     1     -11.827  25.303   7.934  1.00  0.00     0.113 A 
HETATM    9  C5  UNL     1     -11.775  24.107   7.262  1.00  0.00     0.045 A 
HETATM   10  C6  UNL     1     -10.562  23.636   6.950  1.00  0.00     0.010 A 
HETATM   11  C7  UNL     1      -9.476  24.378   7.322  1.00  0.00     0.052 A 
HETATM   12  S1  UNL     1     -10.181  25.718   8.100  1.00  0.00    -0.077 SA
ENDBRANCH   7   8
ENDBRANCH   3   7
BRANCH   4  13
HETATM   13  O4  UNL     1     -14.631  27.499  10.245  1.00  0.00    -0.388 OA
ATOM     14  H4  UNL     1     -14.831  28.427  10.287  1.00  0.00     0.210 HD
ENDBRANCH   4  13
BRANCH   1  15
HETATM   15  C1  UNL     1     -14.890  30.161   7.981  1.00  0.00     0.198 C 
BRANCH  15  16
HETATM   16  O1  UNL     1     -15.306  29.706   6.745  1.00  0.00    -0.398 OA
ATOM     17  H1  UNL     1     -15.629  30.414   6.200  1.00  0.00     0.209 HD
ENDBRANCH  15  16
ENDBRANCH   1  15
BRANCH   5  18
HETATM   18  O5  UNL     1     -12.954  28.963  12.034  1.00  0.00    -0.390 OA
ATOM     19  H5  UNL     1     -12.190  29.338  12.457  1.00  0.00     0.210 HD
ENDBRANCH   5  18
BRANCH   6  20
HETATM   20  O6  UNL     1     -12.699  31.002  10.042  1.00  0.00    -0.390 OA
ATOM     21  H6  UNL     1     -12.034  30.935  10.718  1.00  0.00     0.210 HD
ENDBRANCH   6  20
TORSDOF 7
ENDMDL
MODEL 4
REMARK VINA RESULT: -4.909312596      2.873      6.043
REMARK  7 active torsions:
REMARK  status: ('A' for Active; 'I' for Inactive)
REMARK    1  A    between atoms: O1_1  and  C1_3 
REMARK    2  A    between atoms: C1_3  and  C2_4 
REMARK    3  A    between atoms: C3_6  and  O3_7 
REMARK    4  A    between atoms: O3_7  and  C4_8 
REMARK    5  A    between atoms: C8_13  and  O4_14 
REMARK    6  A    between atoms: C9_16  and  O5_17 
REMARK    7  A    between atoms: C10_19  and  O6_20 
ROOT
HETATM    1  C2  UNL     1     -14.700  27.298   3.830  1.00  0.00     0.179 C 
HETATM    2  O2  UNL     1     -13.656  27.484   4.670  1.00  0.00    -0.348 OA
HETATM    3  C3  UNL     1     -13.681  26.722   5.830  1.00  0.00     0.298 C 
HETATM    4  C8  UNL     1     -13.601  25.263   5.356  1.00  0.00     0.205 C 
HETATM    5  C9  UNL     1     -15.007  25.000   4.808  1.00  0.00     0.183 C 
HETATM    6  C10 UNL     1     -15.210  25.925   3.656  1.00  0.00     0.180 C 
ENDROOT
BRANCH   3   7
HETATM    7  O3  UNL     1     -12.582  26.955   6.632  1.00  0.00    -0.310 OA
BRANCH   7   8
HETATM    8  C4  UNL     1     -12.813  27.470   7.926  1.00  0.00     0.113 A 
HETATM    9  C5  UNL     1     -13.196  28.746   8.258  1.00  0.00     0.045 A 
HETATM   10  C6  UNL     1     -13.358  29.013   9.560  1.00  0.00     0.010 A 
HETATM   11  C7  UNL     1     -13.130  28.002  10.450  1.00  0.00     0.052 A 
HETATM   12  S1  UNL     1     -12.695  26.700   9.443  1.00  0.00    -0.077 SA
ENDBRANCH   7   8
ENDBRANCH   3   7
BRANCH   4  13
HETATM   13  O4  UNL     1     -12.746  25.246   4.271  1.00  0.00    -0.388 OA
ATOM     14  H4  UNL     1     -13.293  25.264   3.494  1.00  0.00     0.210 HD
ENDBRANCH   4  13
BRANCH   1  15
HETATM   15  C1  UNL     1     -14.282  27.811   2.443  1.00  0.00     0.198 C 
BRANCH  15  16
HETATM   16  O1  UNL     1     -13.483  28.934   2.535  1.00  0.00    -0.398 OA
ATOM     17  H1  UNL     1     -12.585  28.747   2.288  1.00  0.00     0.209 HD
ENDBRANCH  15  16
ENDBRANCH   1  15
BRANCH   5  18
HETATM   18  O5  UNL     1     -15.129  23.675   4.390  1.00  0.00    -0.390 OA
ATOM     19  H5  UNL     1     -15.118  23.088   5.138  1.00  0.00     0.210 HD
ENDBRANCH   5  18
BRANCH   6  20
HETATM   20  O6  UNL     1     -16.587  25.903   3.341  1.00  0.00    -0.390 OA
ATOM     21  H6  UNL     1     -17.112  26.355   3.991  1.00  0.00     0.210 HD
ENDBRANCH   6  20
TORSDOF 7
ENDMDL
MODEL 5
REMARK VINA RESULT: -4.890981106      1.600      2.093
REMARK  7 active torsions:
REMARK  status: ('A' for Active; 'I' for Inactive)
REMARK    1  A    between atoms: O1_1  and  C1_3 
REMARK    2  A    between atoms: C1_3  and  C2_4 
REMARK    3  A    between atoms: C3_6  and  O3_7 
REMARK    4  A    between atoms: O3_7  and  C4_8 
REMARK    5  A    between atoms: C8_13  and  O4_14 
REMARK    6  A    between atoms: C9_16  and  O5_17 
REMARK    7  A    between atoms: C10_19  and  O6_20 
ROOT
HETATM    1  C2  UNL     1     -12.953  28.194   8.766  1.00  0.00     0.179 C 
HETATM    2  O2  UNL     1     -13.255  27.040   8.130  1.00  0.00    -0.348 OA
HETATM    3  C3  UNL     1     -12.415  26.700   7.079  1.00  0.00     0.298 C 
HETATM    4  C8  UNL     1     -11.033  26.493   7.719  1.00  0.00     0.205 C 
HETATM    5  C9  UNL     1     -10.569  27.924   8.009  1.00  0.00     0.183 C 
HETATM    6  C10 UNL     1     -11.529  28.507   8.989  1.00  0.00     0.180 C 
ENDROOT
BRANCH   3   7
HETATM    7  O3  UNL     1     -12.775  25.508   6.485  1.00  0.00    -0.310 OA
BRANCH   7   8
HETATM    8  C4  UNL     1     -13.727  25.556   5.443  1.00  0.00     0.113 A 
HETATM    9  C5  UNL     1     -14.097  26.652   4.704  1.00  0.00     0.045 A 
HETATM   10  C6  UNL     1     -15.028  26.463   3.760  1.00  0.00     0.010 A 
HETATM   11  C7  UNL     1     -15.533  25.202   3.608  1.00  0.00     0.052 A 
HETATM   12  S1  UNL     1     -14.692  24.311   4.790  1.00  0.00    -0.077 SA
ENDBRANCH   7   8
ENDBRANCH   3   7
BRANCH   4  13
HETATM   13  O4  UNL     1     -11.251  25.894   8.945  1.00  0.00    -0.388 OA
ATOM     14  H4  UNL     1     -10.404  25.828   9.370  1.00  0.00     0.210 HD
ENDBRANCH   4  13
BRANCH   1  15
HETATM   15  C1  UNL     1     -13.637  28.164  10.141  1.00  0.00     0.198 C 
BRANCH  15  16
HETATM   16  O1  UNL     1     -14.397  27.022  10.308  1.00  0.00    -0.398 OA
ATOM     17  H1  UNL     1     -14.329  26.443   9.557  1.00  0.00     0.209 HD
ENDBRANCH  15  16
ENDBRANCH   1  15
BRANCH   5  18
HETATM   18  O5  UNL     1      -9.279  27.920   8.540  1.00  0.00    -0.390 OA
ATOM     19  H5  UNL     1      -8.665  27.547   7.919  1.00  0.00     0.210 HD
ENDBRANCH   5  18
BRANCH   6  20
HETATM   20  O6  UNL     1     -11.288  29.898   9.031  1.00  0.00    -0.390 OA
ATOM     21  H6  UNL     1     -10.912  30.223   8.221  1.00  0.00     0.210 HD
ENDBRANCH   6  20
TORSDOF 7
ENDMDL
