MODEL 1
REMARK VINA RESULT: -4.605797594      0.000      0.000
REMARK  7 active torsions:
REMARK  status: ('A' for Active; 'I' for Inactive)
REMARK    1  A    between atoms: C2_2  and  C3_3 
REMARK    2  A    between atoms: C4_4  and  C5_5 
REMARK    3  A    between atoms: C5_5  and  O1_6 
REMARK    4  A    between atoms: C7_10  and  O3_11 
REMARK    5  A    between atoms: C12_18  and  O5_19 
REMARK    6  A    between atoms: C12_18  and  O6_21 
REMARK    7  A    between atoms: O6_21  and  O7_22 
ROOT
HETATM    1  C3  UNL     1     -12.653  26.206   8.557  1.00  0.00     0.086 C 
HETATM    2  C4  UNL     1     -12.324  26.067  10.009  1.00  0.00     0.078 C 
HETATM    3  C6  UNL     1     -12.744  27.282  10.796  1.00  0.00     0.270 C 
HETATM    4  O2  UNL     1     -11.683  28.006  11.271  1.00  0.00    -0.327 OA
HETATM    5  C7  UNL     1     -11.962  29.281  11.663  1.00  0.00     0.289 C 
HETATM    6  C8  UNL     1     -12.367  30.194  10.551  1.00  0.00    -0.033 C 
HETATM    7  C9  UNL     1     -12.516  31.460  10.917  1.00  0.00     0.019 C 
HETATM    8  C10 UNL     1     -12.623  29.899   9.109  1.00  0.00     0.076 C 
HETATM    9  C11 UNL     1     -13.323  28.567   8.961  1.00  0.00     0.194 C 
HETATM   10  O4  UNL     1     -13.721  28.030  10.156  1.00  0.00    -0.350 OA
HETATM   11  C12 UNL     1     -12.443  27.658   8.181  1.00  0.00     0.229 C 
ENDROOT
BRANCH  11  12
HETATM   12  O5  UNL     1     -11.088  27.938   8.467  1.00  0.00    -0.361 OA
ATOM     13  H5  UNL     1     -10.977  28.868   8.310  1.00  0.00     0.213 HD
ENDBRANCH  11  12
BRANCH  11  14
HETATM   14  O6  UNL     1     -12.596  27.836   6.802  1.00  0.00    -0.200 OA
BRANCH  14  15
HETATM   15  O7  UNL     1     -13.844  27.931   6.447  1.00  0.00    -0.247 OA
ATOM     16  H7  UNL     1     -14.278  27.086   6.410  1.00  0.00     0.253 HD
ENDBRANCH  14  15
ENDBRANCH  11  14
BRANCH   1  17
HETATM   17  C2  UNL     1     -11.767  25.425   7.654  1.00  0.00    -0.026 C 
HETATM   18  C1  UNL     1     -12.099  24.346   6.981  1.00  0.00     0.007 C 
ENDBRANCH   1  17
BRANCH   2  19
HETATM   19  C5  UNL     1     -12.893  24.794  10.606  1.00  0.00     0.174 C 
BRANCH  19  20
HETATM   20  O1  UNL     1     -14.159  25.012  11.138  1.00  0.00    -0.400 OA
ATOM     21  H1  UNL     1     -14.795  25.176  10.452  1.00  0.00     0.209 HD
ENDBRANCH  19  20
ENDBRANCH   2  19
BRANCH   5  22
HETATM   22  O3  UNL     1     -12.900  29.368  12.685  1.00  0.00    -0.367 OA
ATOM     23  H3  UNL     1     -13.701  29.818  12.441  1.00  0.00     0.213 HD
ENDBRANCH   5  22
TORSDOF 7
ENDMDL
MODEL 2
REMARK VINA RESULT: -4.548539561      2.107      4.103
REMARK  7 active torsions:
REMARK  status: ('A' for Active; 'I' for Inactive)
REMARK    1  A    between atoms: C2_2  and  C3_3 
REMARK    2  A    between atoms: C4_4  and  C5_5 
REMARK    3  A    between atoms: C5_5  and  O1_6 
REMARK    4  A    between atoms: C7_10  and  O3_11 
REMARK    5  A    between atoms: C12_18  and  O5_19 
REMARK    6  A    between atoms: C12_18  and  O6_21 
REMARK    7  A    between atoms: O6_21  and  O7_22 
ROOT
HETATM    1  C3  UNL     1     -11.865  25.144   8.051  1.00  0.00     0.086 C 
HETATM    2  C4  UNL     1     -12.771  26.323   8.205  1.00  0.00     0.078 C 
HETATM    3  C6  UNL     1     -12.802  26.824   9.626  1.00  0.00     0.270 C 
HETATM    4  O2  UNL     1     -14.006  26.613  10.243  1.00  0.00    -0.327 OA
HETATM    5  C7  UNL     1     -13.999  26.697  11.603  1.00  0.00     0.289 C 
HETATM    6  C8  UNL     1     -13.216  25.620  12.284  1.00  0.00    -0.033 C 
HETATM    7  C9  UNL     1     -13.314  25.633  13.606  1.00  0.00     0.019 C 
HETATM    8  C10 UNL     1     -12.352  24.547  11.705  1.00  0.00     0.076 C 
HETATM    9  C11 UNL     1     -11.576  25.077  10.521  1.00  0.00     0.194 C 
HETATM   10  O4  UNL     1     -11.693  26.432  10.362  1.00  0.00    -0.350 OA
HETATM   11  C12 UNL     1     -11.983  24.314   9.313  1.00  0.00     0.229 C 
ENDROOT
BRANCH  11  12
HETATM   12  O5  UNL     1     -13.345  23.951   9.408  1.00  0.00    -0.361 OA
ATOM     13  H5  UNL     1     -13.548  23.952  10.336  1.00  0.00     0.213 HD
ENDBRANCH  11  12
BRANCH  11  14
HETATM   14  O6  UNL     1     -11.269  23.118   9.182  1.00  0.00    -0.200 OA
BRANCH  14  15
HETATM   15  O7  UNL     1     -11.957  22.082   9.563  1.00  0.00    -0.247 OA
ATOM     16  H7  UNL     1     -12.707  22.319  10.097  1.00  0.00     0.253 HD
ENDBRANCH  14  15
ENDBRANCH  11  14
BRANCH   1  17
HETATM   17  C2  UNL     1     -12.232  24.234   6.935  1.00  0.00    -0.026 C 
HETATM   18  C1  UNL     1     -13.321  24.302   6.202  1.00  0.00     0.007 C 
ENDBRANCH   1  17
BRANCH   2  19
HETATM   19  C5  UNL     1     -12.434  27.436   7.230  1.00  0.00     0.174 C 
BRANCH  19  20
HETATM   20  O1  UNL     1     -13.549  27.801   6.483  1.00  0.00    -0.400 OA
ATOM     21  H1  UNL     1     -13.551  27.367   5.638  1.00  0.00     0.209 HD
ENDBRANCH  19  20
ENDBRANCH   2  19
BRANCH   5  22
HETATM   22  O3  UNL     1     -13.592  27.932  12.094  1.00  0.00    -0.367 OA
ATOM     23  H3  UNL     1     -12.770  28.243  11.732  1.00  0.00     0.213 HD
ENDBRANCH   5  22
TORSDOF 7
ENDMDL
MODEL 3
REMARK VINA RESULT: -4.545053091      1.631      5.177
REMARK  7 active torsions:
REMARK  status: ('A' for Active; 'I' for Inactive)
REMARK    1  A    between atoms: C2_2  and  C3_3 
REMARK    2  A    between atoms: C4_4  and  C5_5 
REMARK    3  A    between atoms: C5_5  and  O1_6 
REMARK    4  A    between atoms: C7_10  and  O3_11 
REMARK    5  A    between atoms: C12_18  and  O5_19 
REMARK    6  A    between atoms: C12_18  and  O6_21 
REMARK    7  A    between atoms: O6_21  and  O7_22 
ROOT
HETATM    1  C3  UNL     1     -12.288  29.442   9.426  1.00  0.00     0.086 C 
HETATM    2  C4  UNL     1     -13.185  29.215   8.251  1.00  0.00     0.078 C 
HETATM    3  C6  UNL     1     -13.329  27.749   7.933  1.00  0.00     0.270 C 
HETATM    4  O2  UNL     1     -12.736  27.397   6.750  1.00  0.00    -0.327 OA
HETATM    5  C7  UNL     1     -12.506  26.065   6.574  1.00  0.00     0.289 C 
HETATM    6  C8  UNL     1     -11.490  25.487   7.505  1.00  0.00    -0.033 C 
HETATM    7  C9  UNL     1     -11.178  24.224   7.250  1.00  0.00     0.019 C 
HETATM    8  C10 UNL     1     -10.781  26.111   8.664  1.00  0.00     0.076 C 
HETATM    9  C11 UNL     1     -11.719  27.020   9.426  1.00  0.00     0.194 C 
HETATM   10  O4  UNL     1     -13.019  26.929   9.007  1.00  0.00    -0.350 OA
HETATM   11  C12 UNL     1     -11.185  28.406   9.361  1.00  0.00     0.229 C 
ENDROOT
BRANCH  11  12
HETATM   12  O5  UNL     1     -10.534  28.614   8.124  1.00  0.00    -0.361 OA
ATOM     13  H5  UNL     1      -9.893  27.917   8.049  1.00  0.00     0.213 HD
ENDBRANCH  11  12
BRANCH  11  14
HETATM   14  O6  UNL     1     -10.226  28.646  10.351  1.00  0.00    -0.200 OA
BRANCH  14  15
HETATM   15  O7  UNL     1     -10.584  28.184  11.514  1.00  0.00    -0.247 OA
ATOM     16  H7  UNL     1     -10.576  28.851  12.190  1.00  0.00     0.253 HD
ENDBRANCH  14  15
ENDBRANCH  11  14
BRANCH   1  17
HETATM   17  C2  UNL     1     -11.602  30.761   9.423  1.00  0.00    -0.026 C 
HETATM   18  C1  UNL     1     -11.833  31.760  10.245  1.00  0.00     0.007 C 
ENDBRANCH   1  17
BRANCH   2  19
HETATM   19  C5  UNL     1     -14.536  29.882   8.425  1.00  0.00     0.174 C 
BRANCH  19  20
HETATM   20  O1  UNL     1     -14.892  30.598   7.287  1.00  0.00    -0.400 OA
ATOM     21  H1  UNL     1     -15.808  30.466   7.073  1.00  0.00     0.209 HD
ENDBRANCH  19  20
ENDBRANCH   2  19
BRANCH   5  22
HETATM   22  O3  UNL     1     -13.653  25.281   6.611  1.00  0.00    -0.367 OA
ATOM     23  H3  UNL     1     -13.484  24.345   6.625  1.00  0.00     0.213 HD
ENDBRANCH   5  22
TORSDOF 7
ENDMDL
MODEL 4
REMARK VINA RESULT: -4.478628730      9.177     11.003
REMARK  7 active torsions:
REMARK  status: ('A' for Active; 'I' for Inactive)
REMARK    1  A    between atoms: C2_2  and  C3_3 
REMARK    2  A    between atoms: C4_4  and  C5_5 
REMARK    3  A    between atoms: C5_5  and  O1_6 
REMARK    4  A    between atoms: C7_10  and  O3_11 
REMARK    5  A    between atoms: C12_18  and  O5_19 
REMARK    6  A    between atoms: C12_18  and  O6_21 
REMARK    7  A    between atoms: O6_21  and  O7_22 
ROOT
HETATM    1  C3  UNL     1      -9.433  18.275   9.665  1.00  0.00     0.086 C 
HETATM    2  C4  UNL     1      -8.065  18.728  10.066  1.00  0.00     0.078 C 
HETATM    3  C6  UNL     1      -7.623  18.097  11.360  1.00  0.00     0.270 C 
HETATM    4  O2  UNL     1      -7.537  18.994  12.392  1.00  0.00    -0.327 OA
HETATM    5  C7  UNL     1      -7.505  18.457  13.644  1.00  0.00     0.289 C 
HETATM    6  C8  UNL     1      -8.770  17.776  14.056  1.00  0.00    -0.033 C 
HETATM    7  C9  UNL     1      -8.779  17.366  15.317  1.00  0.00     0.019 C 
HETATM    8  C10 UNL     1     -10.010  17.493  13.271  1.00  0.00     0.076 C 
HETATM    9  C11 UNL     1      -9.657  17.110  11.851  1.00  0.00     0.194 C 
HETATM   10  O4  UNL     1      -8.314  16.932  11.658  1.00  0.00    -0.350 OA
HETATM   11  C12 UNL     1     -10.247  18.118  10.932  1.00  0.00     0.229 C 
ENDROOT
BRANCH  11  12
HETATM   12  O5  UNL     1     -10.248  19.389  11.549  1.00  0.00    -0.361 OA
ATOM     13  H5  UNL     1      -9.335  19.602  11.704  1.00  0.00     0.213 HD
ENDBRANCH  11  12
BRANCH  11  14
HETATM   14  O6  UNL     1     -11.582  17.831  10.626  1.00  0.00    -0.200 OA
BRANCH  14  15
HETATM   15  O7  UNL     1     -11.770  16.575  10.346  1.00  0.00    -0.247 OA
ATOM     16  H7  UNL     1     -12.530  16.213  10.788  1.00  0.00     0.253 HD
ENDBRANCH  14  15
ENDBRANCH  11  14
BRANCH   1  17
HETATM   17  C2  UNL     1     -10.177  19.250   8.826  1.00  0.00    -0.026 C 
HETATM   18  C1  UNL     1     -10.406  19.152   7.536  1.00  0.00     0.007 C 
ENDBRANCH   1  17
BRANCH   2  19
HETATM   19  C5  UNL     1      -7.044  18.511   8.964  1.00  0.00     0.174 C 
BRANCH  19  20
HETATM   20  O1  UNL     1      -6.437  17.266   9.082  1.00  0.00    -0.400 OA
ATOM     21  H1  UNL     1      -5.491  17.340   9.031  1.00  0.00     0.209 HD
ENDBRANCH  19  20
ENDBRANCH   2  19
BRANCH   5  22
HETATM   22  O3  UNL     1      -6.435  17.599  13.867  1.00  0.00    -0.367 OA
ATOM     23  H3  UNL     1      -5.813  17.913  14.514  1.00  0.00     0.213 HD
ENDBRANCH   5  22
TORSDOF 7
ENDMDL
MODEL 5
REMARK VINA RESULT: -4.475704068      3.577      5.528
REMARK  7 active torsions:
REMARK  status: ('A' for Active; 'I' for Inactive)
REMARK    1  A    between atoms: C2_2  and  C3_3 
REMARK    2  A    between atoms: C4_4  and  C5_5 
REMARK    3  A    between atoms: C5_5  and  O1_6 
REMARK    4  A    between atoms: C7_10  and  O3_11 
REMARK    5  A    between atoms: C12_18  and  O5_19 
REMARK    6  A    between atoms: C12_18  and  O6_21 
REMARK    7  A    between atoms: O6_21  and  O7_22 
ROOT
HETATM    1  C3  UNL     1     -10.447  31.664   9.902  1.00  0.00     0.086 C 
HETATM    2  C4  UNL     1     -11.295  30.458  10.150  1.00  0.00     0.078 C 
HETATM    3  C6  UNL     1     -12.045  30.559  11.454  1.00  0.00     0.270 C 
HETATM    4  O2  UNL     1     -11.605  29.666  12.395  1.00  0.00    -0.327 OA
HETATM    5  C7  UNL     1     -11.966  29.935  13.682  1.00  0.00     0.289 C 
HETATM    6  C8  UNL     1     -11.348  31.170  14.251  1.00  0.00    -0.033 C 
HETATM    7  C9  UNL     1     -11.603  31.359  15.539  1.00  0.00     0.019 C 
HETATM    8  C10 UNL     1     -10.498  32.210  13.596  1.00  0.00     0.076 C 
HETATM    9  C11 UNL     1     -10.985  32.479  12.191  1.00  0.00     0.194 C 
HETATM   10  O4  UNL     1     -12.174  31.864  11.904  1.00  0.00    -0.350 OA
HETATM   11  C12 UNL     1      -9.900  32.117  11.241  1.00  0.00     0.229 C 
ENDROOT
BRANCH  11  12
HETATM   12  O5  UNL     1      -9.164  31.022  11.745  1.00  0.00    -0.361 OA
ATOM     13  H5  UNL     1      -9.045  30.430  11.011  1.00  0.00     0.213 HD
ENDBRANCH  11  12
BRANCH  11  14
HETATM   14  O6  UNL     1      -8.983  33.159  11.069  1.00  0.00    -0.200 OA
BRANCH  14  15
HETATM   15  O7  UNL     1      -9.563  34.309  10.883  1.00  0.00    -0.247 OA
ATOM     16  H7  UNL     1      -8.941  35.010  10.728  1.00  0.00     0.253 HD
ENDBRANCH  14  15
ENDBRANCH  11  14
BRANCH   1  17
HETATM   17  C2  UNL     1      -9.258  31.409   9.048  1.00  0.00    -0.026 C 
HETATM   18  C1  UNL     1      -8.874  32.125   8.014  1.00  0.00     0.007 C 
ENDBRANCH   1  17
BRANCH   2  19
HETATM   19  C5  UNL     1     -12.230  30.168   8.992  1.00  0.00     0.174 C 
BRANCH  19  20
HETATM   20  O1  UNL     1     -13.494  30.701   9.222  1.00  0.00    -0.400 OA
ATOM     21  H1  UNL     1     -14.047  30.615   8.454  1.00  0.00     0.209 HD
ENDBRANCH  19  20
ENDBRANCH   2  19
BRANCH   5  22
HETATM   22  O3  UNL     1     -13.340  29.978  13.888  1.00  0.00    -0.367 OA
ATOM     23  H3  UNL     1     -13.780  29.146  13.753  1.00  0.00     0.213 HD
ENDBRANCH   5  22
TORSDOF 7
ENDMDL
