MODEL 1
REMARK VINA RESULT: -9.461863739      0.000      0.000
REMARK  5 active torsions:
REMARK  status: ('A' for Active; 'I' for Inactive)
REMARK       I    between atoms: C2_2  and  N1_4 
REMARK    1  A    between atoms: N1_4  and  C3_6 
REMARK    2  A    between atoms: C5_8  and  C6_9 
REMARK    3  A    between atoms: C8_13  and  N3_14 
REMARK    4  A    between atoms: N3_14  and  C9_16 
REMARK    5  A    between atoms: C9_16  and  C11_18 
ROOT
HETATM    1  C6  UNL     1     -13.145 -15.307   7.090  1.00  0.00     0.027 A 
HETATM    2  C7  UNL     1     -13.112 -14.491   5.955  1.00  0.00     0.105 A 
HETATM    3  N2  UNL     1     -12.014 -14.469   5.187  1.00  0.00    -0.351 N 
ATOM      4  H2  UNL     1     -12.017 -13.864   4.365  1.00  0.00     0.166 HD
HETATM    5  C8  UNL     1     -10.915 -15.190   5.430  1.00  0.00     0.112 A 
HETATM    6  C14 UNL     1     -10.942 -15.998   6.550  1.00  0.00     0.022 A 
HETATM    7  C15 UNL     1      -9.849 -16.792   6.896  1.00  0.00     0.061 A 
HETATM    8  C16 UNL     1      -9.822 -17.602   7.982  1.00  0.00     0.155 A 
HETATM    9  F1  UNL     1      -8.745 -18.358   8.290  1.00  0.00    -0.203 F 
HETATM   10  C17 UNL     1     -10.916 -17.663   8.803  1.00  0.00     0.155 A 
HETATM   11  F2  UNL     1     -10.927 -18.473   9.914  1.00  0.00    -0.203 F 
HETATM   12  C18 UNL     1     -12.022 -16.892   8.496  1.00  0.00     0.059 A 
HETATM   13  C19 UNL     1     -12.044 -16.072   7.393  1.00  0.00    -0.005 A 
ENDROOT
BRANCH   1  14
HETATM   14  C5  UNL     1     -14.369 -15.296   7.900  1.00  0.00     0.115 A 
HETATM   15  C4  UNL     1     -15.478 -14.477   7.657  1.00  0.00     0.090 A 
HETATM   16  C3  UNL     1     -16.428 -14.735   8.607  1.00  0.00     0.131 A 
HETATM   17  N4  UNL     1     -15.887 -15.686   9.391  1.00  0.00    -0.244 N 
HETATM   18  O2  UNL     1     -14.719 -15.971   8.951  1.00  0.00    -0.235 OA
ATOM     19  H4  UNL     1     -16.335 -16.110  10.204  1.00  0.00     0.196 HD
BRANCH  16  20
HETATM   20  N1  UNL     1     -17.602 -14.215   8.767  1.00  0.00    -0.312 N 
HETATM   21  C2  UNL     1     -18.725 -14.953   8.334  1.00  0.00     0.219 C 
HETATM   22  C1  UNL     1     -19.497 -14.504   7.158  1.00  0.00     0.117 C 
HETATM   23  O1  UNL     1     -19.058 -15.988   8.954  1.00  0.00    -0.274 OA
ATOM     24  H1  UNL     1     -17.713 -13.296   9.196  1.00  0.00     0.170 HD
ENDBRANCH  16  20
ENDBRANCH   1  14
BRANCH   5  25
HETATM   25  N3  UNL     1      -9.898 -15.181   4.732  1.00  0.00    -0.371 N 
ATOM     26  H3  UNL     1      -9.602 -16.137   4.534  1.00  0.00     0.161 HD
BRANCH  25  27
HETATM   27  C9  UNL     1      -9.031 -14.280   4.133  1.00  0.00     0.082 C 
HETATM   28  C10 UNL     1      -8.523 -14.572   2.755  1.00  0.00     0.032 C 
BRANCH  27  29
HETATM   29  C11 UNL     1      -9.487 -12.822   4.146  1.00  0.00    -0.000 C 
HETATM   30  C12 UNL     1      -8.624 -11.938   4.987  1.00  0.00     0.011 C 
HETATM   31  C13 UNL     1      -9.717 -12.297   2.764  1.00  0.00     0.011 C 
ENDBRANCH  27  29
ENDBRANCH  25  27
ENDBRANCH   5  25
TORSDOF 5
ENDMDL
MODEL 2
REMARK VINA RESULT: -9.220148293      1.389      1.450
REMARK  5 active torsions:
REMARK  status: ('A' for Active; 'I' for Inactive)
REMARK       I    between atoms: C2_2  and  N1_4 
REMARK    1  A    between atoms: N1_4  and  C3_6 
REMARK    2  A    between atoms: C5_8  and  C6_9 
REMARK    3  A    between atoms: C8_13  and  N3_14 
REMARK    4  A    between atoms: N3_14  and  C9_16 
REMARK    5  A    between atoms: C9_16  and  C11_18 
ROOT
HETATM    1  C6  UNL     1     -13.119 -15.355   7.414  1.00  0.00     0.027 A 
HETATM    2  C7  UNL     1     -13.284 -14.534   6.294  1.00  0.00     0.105 A 
HETATM    3  N2  UNL     1     -12.320 -14.482   5.364  1.00  0.00    -0.351 N 
ATOM      4  H2  UNL     1     -12.466 -13.874   4.558  1.00  0.00     0.166 HD
HETATM    5  C8  UNL     1     -11.179 -15.175   5.428  1.00  0.00     0.112 A 
HETATM    6  C14 UNL     1     -11.011 -15.988   6.532  1.00  0.00     0.022 A 
HETATM    7  C15 UNL     1      -9.858 -16.755   6.697  1.00  0.00     0.061 A 
HETATM    8  C16 UNL     1      -9.642 -17.567   7.760  1.00  0.00     0.155 A 
HETATM    9  F1  UNL     1      -8.512 -18.297   7.890  1.00  0.00    -0.203 F 
HETATM   10  C17 UNL     1     -10.593 -17.660   8.741  1.00  0.00     0.155 A 
HETATM   11  F2  UNL     1     -10.411 -18.474   9.835  1.00  0.00    -0.203 F 
HETATM   12  C18 UNL     1     -11.752 -16.916   8.616  1.00  0.00     0.059 A 
HETATM   13  C19 UNL     1     -11.965 -16.094   7.536  1.00  0.00    -0.005 A 
ENDROOT
BRANCH   1  14
HETATM   14  C5  UNL     1     -14.201 -15.379   8.405  1.00  0.00     0.115 A 
HETATM   15  C4  UNL     1     -14.398 -14.408   9.395  1.00  0.00     0.090 A 
HETATM   16  C3  UNL     1     -15.495 -14.753  10.134  1.00  0.00     0.131 A 
HETATM   17  N4  UNL     1     -15.936 -15.902   9.588  1.00  0.00    -0.244 N 
HETATM   18  O2  UNL     1     -15.170 -16.217   8.613  1.00  0.00    -0.235 OA
ATOM     19  H4  UNL     1     -16.747 -16.436   9.902  1.00  0.00     0.196 HD
BRANCH  16  20
HETATM   20  N1  UNL     1     -16.039 -14.150  11.141  1.00  0.00    -0.312 N 
HETATM   21  C2  UNL     1     -17.402 -13.792  11.051  1.00  0.00     0.219 C 
HETATM   22  C1  UNL     1     -17.787 -12.370  10.937  1.00  0.00     0.117 C 
HETATM   23  O1  UNL     1     -18.276 -14.687  11.068  1.00  0.00    -0.274 OA
ATOM     24  H1  UNL     1     -15.497 -13.939  11.979  1.00  0.00     0.170 HD
ENDBRANCH  16  20
ENDBRANCH   1  14
BRANCH   5  25
HETATM   25  N3  UNL     1     -10.284 -15.138   4.580  1.00  0.00    -0.371 N 
ATOM     26  H3  UNL     1     -10.309 -15.981   4.007  1.00  0.00     0.161 HD
BRANCH  25  27
HETATM   27  C9  UNL     1      -9.254 -14.309   4.162  1.00  0.00     0.082 C 
HETATM   28  C10 UNL     1      -8.545 -14.626   2.881  1.00  0.00     0.032 C 
BRANCH  27  29
HETATM   29  C11 UNL     1      -9.580 -12.816   4.140  1.00  0.00    -0.000 C 
HETATM   30  C12 UNL     1      -8.655 -11.995   4.978  1.00  0.00     0.011 C 
HETATM   31  C13 UNL     1      -9.741 -12.302   2.743  1.00  0.00     0.011 C 
ENDBRANCH  27  29
ENDBRANCH  25  27
ENDBRANCH   5  25
TORSDOF 5
ENDMDL
MODEL 3
REMARK VINA RESULT: -9.049452099      0.790      1.235
REMARK  5 active torsions:
REMARK  status: ('A' for Active; 'I' for Inactive)
REMARK       I    between atoms: C2_2  and  N1_4 
REMARK    1  A    between atoms: N1_4  and  C3_6 
REMARK    2  A    between atoms: C5_8  and  C6_9 
REMARK    3  A    between atoms: C8_13  and  N3_14 
REMARK    4  A    between atoms: N3_14  and  C9_16 
REMARK    5  A    between atoms: C9_16  and  C11_18 
ROOT
HETATM    1  C6  UNL     1     -13.348 -15.501   7.440  1.00  0.00     0.027 A 
HETATM    2  C7  UNL     1     -13.447 -14.487   6.481  1.00  0.00     0.105 A 
HETATM    3  N2  UNL     1     -12.362 -14.133   5.779  1.00  0.00    -0.351 N 
ATOM      4  H2  UNL     1     -12.462 -13.390   5.086  1.00  0.00     0.166 HD
HETATM    5  C8  UNL     1     -11.157 -14.691   5.929  1.00  0.00     0.112 A 
HETATM    6  C14 UNL     1     -11.054 -15.692   6.874  1.00  0.00     0.022 A 
HETATM    7  C15 UNL     1      -9.842 -16.342   7.111  1.00  0.00     0.061 A 
HETATM    8  C16 UNL     1      -9.685 -17.329   8.025  1.00  0.00     0.155 A 
HETATM    9  F1  UNL     1      -8.497 -17.939   8.231  1.00  0.00    -0.203 F 
HETATM   10  C17 UNL     1     -10.760 -17.732   8.773  1.00  0.00     0.155 A 
HETATM   11  F2  UNL     1     -10.641 -18.731   9.710  1.00  0.00    -0.203 F 
HETATM   12  C18 UNL     1     -11.980 -17.115   8.570  1.00  0.00     0.059 A 
HETATM   13  C19 UNL     1     -12.133 -16.113   7.641  1.00  0.00    -0.005 A 
ENDROOT
BRANCH   1  14
HETATM   14  C5  UNL     1     -14.563 -15.853   8.184  1.00  0.00     0.115 A 
HETATM   15  C4  UNL     1     -15.806 -15.230   8.022  1.00  0.00     0.090 A 
HETATM   16  C3  UNL     1     -16.702 -15.813   8.875  1.00  0.00     0.131 A 
HETATM   17  N4  UNL     1     -15.999 -16.760   9.524  1.00  0.00    -0.244 N 
HETATM   18  O2  UNL     1     -14.792 -16.744   9.099  1.00  0.00    -0.235 OA
ATOM     19  H4  UNL     1     -16.369 -17.388  10.239  1.00  0.00     0.196 HD
BRANCH  16  20
HETATM   20  N1  UNL     1     -17.957 -15.557   9.061  1.00  0.00    -0.312 N 
HETATM   21  C2  UNL     1     -18.829 -15.645   7.954  1.00  0.00     0.219 C 
HETATM   22  C1  UNL     1     -19.422 -14.420   7.380  1.00  0.00     0.117 C 
HETATM   23  O1  UNL     1     -19.092 -16.766   7.464  1.00  0.00    -0.274 OA
ATOM     24  H1  UNL     1     -18.307 -15.299   9.983  1.00  0.00     0.170 HD
ENDBRANCH  16  20
ENDBRANCH   1  14
BRANCH   5  25
HETATM   25  N3  UNL     1     -10.150 -14.376   5.290  1.00  0.00    -0.371 N 
ATOM     26  H3  UNL     1      -9.604 -15.208   5.065  1.00  0.00     0.161 HD
BRANCH  25  27
HETATM   27  C9  UNL     1      -9.527 -13.247   4.781  1.00  0.00     0.082 C 
HETATM   28  C10 UNL     1      -8.466 -12.576   5.596  1.00  0.00     0.032 C 
BRANCH  27  29
HETATM   29  C11 UNL     1      -8.986 -13.381   3.357  1.00  0.00    -0.000 C 
HETATM   30  C12 UNL     1      -8.604 -14.780   2.998  1.00  0.00     0.011 C 
HETATM   31  C13 UNL     1      -9.886 -12.728   2.356  1.00  0.00     0.011 C 
ENDBRANCH  27  29
ENDBRANCH  25  27
ENDBRANCH   5  25
TORSDOF 5
ENDMDL
MODEL 4
REMARK VINA RESULT: -8.859514689      2.217      2.730
REMARK  5 active torsions:
REMARK  status: ('A' for Active; 'I' for Inactive)
REMARK       I    between atoms: C2_2  and  N1_4 
REMARK    1  A    between atoms: N1_4  and  C3_6 
REMARK    2  A    between atoms: C5_8  and  C6_9 
REMARK    3  A    between atoms: C8_13  and  N3_14 
REMARK    4  A    between atoms: N3_14  and  C9_16 
REMARK    5  A    between atoms: C9_16  and  C11_18 
ROOT
HETATM    1  C6  UNL     1     -13.422 -15.771   8.047  1.00  0.00     0.027 A 
HETATM    2  C7  UNL     1     -13.877 -14.868   7.079  1.00  0.00     0.105 A 
HETATM    3  N2  UNL     1     -13.090 -14.562   6.039  1.00  0.00    -0.351 N 
ATOM      4  H2  UNL     1     -13.447 -13.900   5.349  1.00  0.00     0.166 HD
HETATM    5  C8  UNL     1     -11.868 -15.068   5.849  1.00  0.00     0.112 A 
HETATM    6  C14 UNL     1     -11.414 -15.959   6.801  1.00  0.00     0.022 A 
HETATM    7  C15 UNL     1     -10.153 -16.547   6.699  1.00  0.00     0.061 A 
HETATM    8  C16 UNL     1      -9.659 -17.426   7.603  1.00  0.00     0.155 A 
HETATM    9  F1  UNL     1      -8.432 -17.977   7.475  1.00  0.00    -0.203 F 
HETATM   10  C17 UNL     1     -10.419 -17.776   8.687  1.00  0.00     0.155 A 
HETATM   11  F2  UNL     1      -9.952 -18.666   9.626  1.00  0.00    -0.203 F 
HETATM   12  C18 UNL     1     -11.676 -17.217   8.827  1.00  0.00     0.059 A 
HETATM   13  C19 UNL     1     -12.172 -16.325   7.906  1.00  0.00    -0.005 A 
ENDROOT
BRANCH   1  14
HETATM   14  C5  UNL     1     -14.319 -16.075   9.168  1.00  0.00     0.115 A 
HETATM   15  C4  UNL     1     -15.322 -17.052   9.144  1.00  0.00     0.090 A 
HETATM   16  C3  UNL     1     -15.956 -17.058  10.356  1.00  0.00     0.131 A 
HETATM   17  N4  UNL     1     -15.338 -16.104  11.077  1.00  0.00    -0.244 N 
HETATM   18  O2  UNL     1     -14.418 -15.575  10.360  1.00  0.00    -0.235 OA
ATOM     19  H4  UNL     1     -15.565 -15.844  12.037  1.00  0.00     0.196 HD
BRANCH  16  20
HETATM   20  N1  UNL     1     -16.935 -17.792  10.775  1.00  0.00    -0.312 N 
HETATM   21  C2  UNL     1     -16.643 -18.856  11.656  1.00  0.00     0.219 C 
HETATM   22  C1  UNL     1     -16.765 -20.254  11.194  1.00  0.00     0.117 C 
HETATM   23  O1  UNL     1     -16.281 -18.605  12.828  1.00  0.00    -0.274 OA
ATOM     24  H1  UNL     1     -17.893 -17.606  10.478  1.00  0.00     0.170 HD
ENDBRANCH  16  20
ENDBRANCH   1  14
BRANCH   5  25
HETATM   25  N3  UNL     1     -11.134 -14.795   4.896  1.00  0.00    -0.371 N 
ATOM     26  H3  UNL     1     -11.038 -15.607   4.285  1.00  0.00     0.161 HD
BRANCH  25  27
HETATM   27  C9  UNL     1     -10.396 -13.733   4.395  1.00  0.00     0.082 C 
HETATM   28  C10 UNL     1      -9.257 -13.196   5.205  1.00  0.00     0.032 C 
BRANCH  27  29
HETATM   29  C11 UNL     1      -9.890 -13.903   2.963  1.00  0.00    -0.000 C 
HETATM   30  C12 UNL     1      -9.924 -12.639   2.169  1.00  0.00     0.011 C 
HETATM   31  C13 UNL     1      -8.570 -14.606   2.919  1.00  0.00     0.011 C 
ENDBRANCH  27  29
ENDBRANCH  25  27
ENDBRANCH   5  25
TORSDOF 5
ENDMDL
MODEL 5
REMARK VINA RESULT: -8.798629667      2.782      3.828
REMARK  5 active torsions:
REMARK  status: ('A' for Active; 'I' for Inactive)
REMARK       I    between atoms: C2_2  and  N1_4 
REMARK    1  A    between atoms: N1_4  and  C3_6 
REMARK    2  A    between atoms: C5_8  and  C6_9 
REMARK    3  A    between atoms: C8_13  and  N3_14 
REMARK    4  A    between atoms: N3_14  and  C9_16 
REMARK    5  A    between atoms: C9_16  and  C11_18 
ROOT
HETATM    1  C6  UNL     1     -12.454 -15.569   7.570  1.00  0.00     0.027 A 
HETATM    2  C7  UNL     1     -12.937 -14.927   6.425  1.00  0.00     0.105 A 
HETATM    3  N2  UNL     1     -12.212 -13.953   5.857  1.00  0.00    -0.351 N 
ATOM      4  H2  UNL     1     -12.588 -13.502   5.023  1.00  0.00     0.166 HD
HETATM    5  C8  UNL     1     -11.028 -13.536   6.315  1.00  0.00     0.112 A 
HETATM    6  C14 UNL     1     -10.546 -14.166   7.446  1.00  0.00     0.022 A 
HETATM    7  C15 UNL     1      -9.320 -13.809   8.007  1.00  0.00     0.061 A 
HETATM    8  C16 UNL     1      -8.801 -14.393   9.113  1.00  0.00     0.155 A 
HETATM    9  F1  UNL     1      -7.610 -14.023   9.632  1.00  0.00    -0.203 F 
HETATM   10  C17 UNL     1      -9.499 -15.395   9.736  1.00  0.00     0.155 A 
HETATM   11  F2  UNL     1      -9.005 -16.012  10.861  1.00  0.00    -0.203 F 
HETATM   12  C18 UNL     1     -10.719 -15.780   9.212  1.00  0.00     0.059 A 
HETATM   13  C19 UNL     1     -11.240 -15.183   8.089  1.00  0.00    -0.005 A 
ENDROOT
BRANCH   1  14
HETATM   14  C5  UNL     1     -13.282 -16.629   8.156  1.00  0.00     0.115 A 
HETATM   15  C4  UNL     1     -13.003 -17.998   8.071  1.00  0.00     0.090 A 
HETATM   16  C3  UNL     1     -13.985 -18.687   8.728  1.00  0.00     0.131 A 
HETATM   17  N4  UNL     1     -14.824 -17.740   9.190  1.00  0.00    -0.244 N 
HETATM   18  O2  UNL     1     -14.384 -16.591   8.840  1.00  0.00    -0.235 OA
ATOM     19  H4  UNL     1     -15.672 -17.912   9.731  1.00  0.00     0.196 HD
BRANCH  16  20
HETATM   20  N1  UNL     1     -14.130 -19.960   8.902  1.00  0.00    -0.312 N 
HETATM   21  C2  UNL     1     -14.339 -20.436  10.215  1.00  0.00     0.219 C 
HETATM   22  C1  UNL     1     -13.283 -21.210  10.899  1.00  0.00     0.117 C 
HETATM   23  O1  UNL     1     -15.424 -20.197  10.792  1.00  0.00    -0.274 OA
ATOM     24  H1  UNL     1     -14.094 -20.604   8.112  1.00  0.00     0.170 HD
ENDBRANCH  16  20
ENDBRANCH   1  14
BRANCH   5  25
HETATM   25  N3  UNL     1     -10.350 -12.642   5.803  1.00  0.00    -0.371 N 
ATOM     26  H3  UNL     1     -10.473 -11.770   6.319  1.00  0.00     0.161 HD
BRANCH  25  27
HETATM   27  C9  UNL     1      -9.474 -12.448   4.746  1.00  0.00     0.082 C 
HETATM   28  C10 UNL     1      -8.001 -12.438   5.019  1.00  0.00     0.032 C 
BRANCH  27  29
HETATM   29  C11 UNL     1      -9.701 -13.348   3.532  1.00  0.00    -0.000 C 
HETATM   30  C12 UNL     1      -9.970 -12.588   2.274  1.00  0.00     0.011 C 
HETATM   31  C13 UNL     1      -8.624 -14.378   3.393  1.00  0.00     0.011 C 
ENDBRANCH  27  29
ENDBRANCH  25  27
ENDBRANCH   5  25
TORSDOF 5
ENDMDL
