MODEL 1
REMARK VINA RESULT: -5.709252218      0.000      0.000
REMARK  6 active torsions:
REMARK  status: ('A' for Active; 'I' for Inactive)
REMARK    1  A    between atoms: O1_1  and  C1_3 
REMARK    2  A    between atoms: C2_5  and  O3_6 
REMARK    3  A    between atoms: O3_6  and  C3_7 
REMARK    4  A    between atoms: C7_12  and  O4_13 
REMARK    5  A    between atoms: C8_15  and  O5_16 
REMARK    6  A    between atoms: C9_18  and  O6_19 
ROOT
HETATM    1  C1  UNL     1     -14.273  26.526   4.637  1.00  0.00     0.291 C 
HETATM    2  O2  UNL     1     -13.806  25.899   5.805  1.00  0.00    -0.326 OA
HETATM    3  C2  UNL     1     -13.387  24.595   5.524  1.00  0.00     0.300 C 
HETATM    4  C7  UNL     1     -14.541  23.747   5.023  1.00  0.00     0.205 C 
HETATM    5  C8  UNL     1     -15.419  24.459   4.050  1.00  0.00     0.185 C 
HETATM    6  C9  UNL     1     -15.630  25.908   4.350  1.00  0.00     0.204 C 
ENDROOT
BRANCH   3   7
HETATM    7  O3  UNL     1     -12.934  24.057   6.715  1.00  0.00    -0.317 OA
BRANCH   7   8
HETATM    8  C3  UNL     1     -11.634  24.316   7.192  1.00  0.00     0.079 A 
HETATM    9  C4  UNL     1     -10.516  23.666   6.841  1.00  0.00     0.044 A 
HETATM   10  C5  UNL     1      -9.335  24.062   7.414  1.00  0.00     0.052 A 
HETATM   11  S1  UNL     1      -9.819  25.339   8.434  1.00  0.00    -0.111 SA
HETATM   12  C6  UNL     1     -11.482  25.340   8.114  1.00  0.00     0.086 A 
ENDBRANCH   7   8
ENDBRANCH   3   7
BRANCH   4  13
HETATM   13  O4  UNL     1     -15.268  23.222   6.084  1.00  0.00    -0.388 OA
ATOM     14  H4  UNL     1     -14.978  22.342   6.291  1.00  0.00     0.210 HD
ENDBRANCH   4  13
BRANCH   1  15
HETATM   15  O1  UNL     1     -14.468  27.874   4.905  1.00  0.00    -0.368 OA
ATOM     16  H1  UNL     1     -14.254  28.373   4.125  1.00  0.00     0.212 HD
ENDBRANCH   1  15
BRANCH   5  17
HETATM   17  O5  UNL     1     -14.998  24.289   2.727  1.00  0.00    -0.390 OA
ATOM     18  H5  UNL     1     -15.722  24.124   2.135  1.00  0.00     0.210 HD
ENDBRANCH   5  17
BRANCH   6  19
HETATM   19  O6  UNL     1     -16.230  26.523   3.257  1.00  0.00    -0.388 OA
ATOM     20  H6  UNL     1     -16.365  27.449   3.424  1.00  0.00     0.210 HD
ENDBRANCH   6  19
TORSDOF 6
ENDMDL
MODEL 2
REMARK VINA RESULT: -5.143296383      3.870      5.908
REMARK  6 active torsions:
REMARK  status: ('A' for Active; 'I' for Inactive)
REMARK    1  A    between atoms: O1_1  and  C1_3 
REMARK    2  A    between atoms: C2_5  and  O3_6 
REMARK    3  A    between atoms: O3_6  and  C3_7 
REMARK    4  A    between atoms: C7_12  and  O4_13 
REMARK    5  A    between atoms: C8_15  and  O5_16 
REMARK    6  A    between atoms: C9_18  and  O6_19 
ROOT
HETATM    1  C1  UNL     1     -13.905  29.057   8.922  1.00  0.00     0.291 C 
HETATM    2  O2  UNL     1     -13.409  28.411   7.777  1.00  0.00    -0.326 OA
HETATM    3  C2  UNL     1     -12.627  27.310   8.139  1.00  0.00     0.300 C 
HETATM    4  C7  UNL     1     -11.413  27.740   8.941  1.00  0.00     0.205 C 
HETATM    5  C8  UNL     1     -11.718  28.787   9.958  1.00  0.00     0.185 C 
HETATM    6  C9  UNL     1     -12.726  29.801   9.523  1.00  0.00     0.204 C 
ENDROOT
BRANCH   3   7
HETATM    7  O3  UNL     1     -12.191  26.728   6.962  1.00  0.00    -0.317 OA
BRANCH   7   8
HETATM    8  C3  UNL     1     -13.018  25.867   6.216  1.00  0.00     0.079 A 
HETATM    9  C4  UNL     1     -13.719  26.191   5.121  1.00  0.00     0.044 A 
HETATM   10  C5  UNL     1     -14.474  25.212   4.527  1.00  0.00     0.052 A 
HETATM   11  S1  UNL     1     -14.184  23.857   5.519  1.00  0.00    -0.111 SA
HETATM   12  C6  UNL     1     -13.129  24.554   6.646  1.00  0.00     0.086 A 
ENDBRANCH   7   8
ENDBRANCH   3   7
BRANCH   4  13
HETATM   13  O4  UNL     1     -10.376  28.126   8.100  1.00  0.00    -0.388 OA
ATOM     14  H4  UNL     1      -9.565  28.220   8.585  1.00  0.00     0.210 HD
ENDBRANCH   4  13
BRANCH   1  15
HETATM   15  O1  UNL     1     -14.847  29.998   8.528  1.00  0.00    -0.368 OA
ATOM     16  H1  UNL     1     -14.395  30.723   8.111  1.00  0.00     0.212 HD
ENDBRANCH   1  15
BRANCH   5  17
HETATM   17  O5  UNL     1     -12.076  28.240  11.195  1.00  0.00    -0.390 OA
ATOM     18  H5  UNL     1     -12.080  28.887  11.890  1.00  0.00     0.210 HD
ENDBRANCH   5  17
BRANCH   6  19
HETATM   19  O6  UNL     1     -13.126  30.555  10.620  1.00  0.00    -0.388 OA
ATOM     20  H6  UNL     1     -12.488  31.231  10.815  1.00  0.00     0.210 HD
ENDBRANCH   6  19
TORSDOF 6
ENDMDL
MODEL 3
REMARK VINA RESULT: -4.778392149      4.182      6.060
REMARK  6 active torsions:
REMARK  status: ('A' for Active; 'I' for Inactive)
REMARK    1  A    between atoms: O1_1  and  C1_3 
REMARK    2  A    between atoms: C2_5  and  O3_6 
REMARK    3  A    between atoms: O3_6  and  C3_7 
REMARK    4  A    between atoms: C7_12  and  O4_13 
REMARK    5  A    between atoms: C8_15  and  O5_16 
REMARK    6  A    between atoms: C9_18  and  O6_19 
ROOT
HETATM    1  C1  UNL     1     -13.061  29.475   9.905  1.00  0.00     0.291 C 
HETATM    2  O2  UNL     1     -12.420  28.910   8.789  1.00  0.00    -0.326 OA
HETATM    3  C2  UNL     1     -12.986  27.670   8.478  1.00  0.00     0.300 C 
HETATM    4  C7  UNL     1     -12.800  26.683   9.615  1.00  0.00     0.205 C 
HETATM    5  C8  UNL     1     -13.041  27.281  10.960  1.00  0.00     0.185 C 
HETATM    6  C9  UNL     1     -12.567  28.690  11.107  1.00  0.00     0.204 C 
ENDROOT
BRANCH   3   7
HETATM    7  O3  UNL     1     -12.311  27.192   7.369  1.00  0.00    -0.317 OA
BRANCH   7   8
HETATM    8  C3  UNL     1     -12.961  26.415   6.391  1.00  0.00     0.079 A 
HETATM    9  C4  UNL     1     -12.947  25.078   6.300  1.00  0.00     0.044 A 
HETATM   10  C5  UNL     1     -13.643  24.495   5.273  1.00  0.00     0.052 A 
HETATM   11  S1  UNL     1     -14.303  25.836   4.455  1.00  0.00    -0.111 SA
HETATM   12  C6  UNL     1     -13.690  27.085   5.421  1.00  0.00     0.086 A 
ENDBRANCH   7   8
ENDBRANCH   3   7
BRANCH   4  13
HETATM   13  O4  UNL     1     -11.556  26.069   9.540  1.00  0.00    -0.388 OA
ATOM     14  H4  UNL     1     -11.457  25.606   8.717  1.00  0.00     0.210 HD
ENDBRANCH   4  13
BRANCH   1  15
HETATM   15  O1  UNL     1     -12.630  30.787  10.047  1.00  0.00    -0.368 OA
ATOM     16  H1  UNL     1     -13.045  31.162  10.816  1.00  0.00     0.212 HD
ENDBRANCH   1  15
BRANCH   5  17
HETATM   17  O5  UNL     1     -14.376  27.168  11.363  1.00  0.00    -0.390 OA
ATOM     18  H5  UNL     1     -14.857  26.532  10.847  1.00  0.00     0.210 HD
ENDBRANCH   5  17
BRANCH   6  19
HETATM   19  O6  UNL     1     -13.071  29.227  12.287  1.00  0.00    -0.388 OA
ATOM     20  H6  UNL     1     -12.832  30.142  12.370  1.00  0.00     0.210 HD
ENDBRANCH   6  19
TORSDOF 6
ENDMDL
MODEL 4
REMARK VINA RESULT: -4.564464966      4.091      6.351
REMARK  6 active torsions:
REMARK  status: ('A' for Active; 'I' for Inactive)
REMARK    1  A    between atoms: O1_1  and  C1_3 
REMARK    2  A    between atoms: C2_5  and  O3_6 
REMARK    3  A    between atoms: O3_6  and  C3_7 
REMARK    4  A    between atoms: C7_12  and  O4_13 
REMARK    5  A    between atoms: C8_15  and  O5_16 
REMARK    6  A    between atoms: C9_18  and  O6_19 
ROOT
HETATM    1  C1  UNL     1     -13.515  26.602  10.650  1.00  0.00     0.291 C 
HETATM    2  O2  UNL     1     -13.443  26.818   9.263  1.00  0.00    -0.326 OA
HETATM    3  C2  UNL     1     -12.113  26.985   8.865  1.00  0.00     0.300 C 
HETATM    4  C7  UNL     1     -11.497  28.209   9.516  1.00  0.00     0.205 C 
HETATM    5  C8  UNL     1     -11.853  28.353  10.957  1.00  0.00     0.185 C 
HETATM    6  C9  UNL     1     -13.251  27.950  11.295  1.00  0.00     0.204 C 
ENDROOT
BRANCH   3   7
HETATM    7  O3  UNL     1     -12.130  27.180   7.495  1.00  0.00    -0.317 OA
BRANCH   7   8
HETATM    8  C3  UNL     1     -12.788  26.281   6.633  1.00  0.00     0.079 A 
HETATM    9  C4  UNL     1     -12.868  24.952   6.783  1.00  0.00     0.044 A 
HETATM   10  C5  UNL     1     -13.554  24.238   5.835  1.00  0.00     0.052 A 
HETATM   11  S1  UNL     1     -14.073  25.447   4.752  1.00  0.00    -0.111 SA
HETATM   12  C6  UNL     1     -13.417  26.809   5.517  1.00  0.00     0.086 A 
ENDBRANCH   7   8
ENDBRANCH   3   7
BRANCH   4  13
HETATM   13  O4  UNL     1     -11.796  29.358   8.794  1.00  0.00    -0.388 OA
ATOM     14  H4  UNL     1     -11.807  29.179   7.862  1.00  0.00     0.210 HD
ENDBRANCH   4  13
BRANCH   1  15
HETATM   15  O1  UNL     1     -14.811  26.222  10.973  1.00  0.00    -0.368 OA
ATOM     16  H1  UNL     1     -14.772  25.538  11.633  1.00  0.00     0.212 HD
ENDBRANCH   1  15
BRANCH   5  17
HETATM   17  O5  UNL     1     -10.940  27.709  11.799  1.00  0.00    -0.390 OA
ATOM     18  H5  UNL     1     -11.334  26.990  12.278  1.00  0.00     0.210 HD
ENDBRANCH   5  17
BRANCH   6  19
HETATM   19  O6  UNL     1     -13.389  27.872  12.676  1.00  0.00    -0.388 OA
ATOM     20  H6  UNL     1     -12.629  27.459  13.068  1.00  0.00     0.210 HD
ENDBRANCH   6  19
TORSDOF 6
ENDMDL
MODEL 5
REMARK VINA RESULT: -4.562903280      3.553      6.051
REMARK  6 active torsions:
REMARK  status: ('A' for Active; 'I' for Inactive)
REMARK    1  A    between atoms: O1_1  and  C1_3 
REMARK    2  A    between atoms: C2_5  and  O3_6 
REMARK    3  A    between atoms: O3_6  and  C3_7 
REMARK    4  A    between atoms: C7_12  and  O4_13 
REMARK    5  A    between atoms: C8_15  and  O5_16 
REMARK    6  A    between atoms: C9_18  and  O6_19 
ROOT
HETATM    1  C1  UNL     1     -13.399  26.964   9.873  1.00  0.00     0.291 C 
HETATM    2  O2  UNL     1     -13.377  27.310   8.511  1.00  0.00    -0.326 OA
HETATM    3  C2  UNL     1     -12.402  26.569   7.835  1.00  0.00     0.300 C 
HETATM    4  C7  UNL     1     -11.016  26.872   8.371  1.00  0.00     0.205 C 
HETATM    5  C8  UNL     1     -10.965  26.965   9.859  1.00  0.00     0.185 C 
HETATM    6  C9  UNL     1     -12.164  27.601  10.483  1.00  0.00     0.204 C 
ENDROOT
BRANCH   3   7
HETATM    7  O3  UNL     1     -12.455  26.959   6.509  1.00  0.00    -0.317 OA
BRANCH   7   8
HETATM    8  C3  UNL     1     -13.400  26.415   5.619  1.00  0.00     0.079 A 
HETATM    9  C4  UNL     1     -13.653  25.112   5.429  1.00  0.00     0.044 A 
HETATM   10  C5  UNL     1     -14.615  24.771   4.513  1.00  0.00     0.052 A 
HETATM   11  S1  UNL     1     -15.145  26.285   3.939  1.00  0.00    -0.111 SA
HETATM   12  C6  UNL     1     -14.149  27.300   4.859  1.00  0.00     0.086 A 
ENDBRANCH   7   8
ENDBRANCH   3   7
BRANCH   4  13
HETATM   13  O4  UNL     1     -10.489  28.007   7.767  1.00  0.00    -0.388 OA
ATOM     14  H4  UNL     1     -10.368  28.704   8.401  1.00  0.00     0.210 HD
ENDBRANCH   4  13
BRANCH   1  15
HETATM   15  O1  UNL     1     -14.514  27.547  10.461  1.00  0.00    -0.368 OA
ATOM     16  H1  UNL     1     -14.322  28.461  10.637  1.00  0.00     0.212 HD
ENDBRANCH   1  15
BRANCH   5  17
HETATM   17  O5  UNL     1     -10.695  25.731  10.461  1.00  0.00    -0.390 OA
ATOM     18  H5  UNL     1     -11.175  25.018  10.057  1.00  0.00     0.210 HD
ENDBRANCH   5  17
BRANCH   6  19
HETATM   19  O6  UNL     1     -12.132  27.397  11.858  1.00  0.00    -0.388 OA
ATOM     20  H6  UNL     1     -12.955  27.654  12.256  1.00  0.00     0.210 HD
ENDBRANCH   6  19
TORSDOF 6
ENDMDL
