MODEL 1
REMARK VINA RESULT: -5.782482093      0.000      0.000
REMARK  6 active torsions:
REMARK  status: ('A' for Active; 'I' for Inactive)
REMARK    1  A    between atoms: O1_1  and  C1_3 
REMARK    2  A    between atoms: C1_3  and  C2_4 
REMARK    3  A    between atoms: C2_4  and  O2_5 
REMARK    4  A    between atoms: C3_8  and  C4_9 
REMARK    5  A    between atoms: C8_14  and  O4_15 
REMARK    6  A    between atoms: C9_18  and  O6_19 
ROOT
HETATM    1  C2  UNL     1     -14.920  24.429   4.351  1.00  0.00     0.235 C 
HETATM    2  O3  UNL     1     -14.054  24.094   5.358  1.00  0.00    -0.334 OA
HETATM    3  C3  UNL     1     -12.943  24.892   5.456  1.00  0.00     0.214 C 
HETATM    4  C8  UNL     1     -13.250  26.362   5.471  1.00  0.00     0.293 C 
HETATM    5  O5  UNL     1     -14.599  26.594   5.207  1.00  0.00    -0.323 OA
HETATM    6  C9  UNL     1     -14.911  25.904   4.043  1.00  0.00     0.325 C 
ENDROOT
BRANCH   1   7
HETATM    7  C1  UNL     1     -14.674  23.603   3.085  1.00  0.00     0.237 C 
BRANCH   7   8
HETATM    8  O1  UNL     1     -15.739  23.660   2.218  1.00  0.00    -0.395 OA
ATOM      9  H1  UNL     1     -15.708  22.965   1.571  1.00  0.00     0.209 HD
ENDBRANCH   7   8
ENDBRANCH   1   7
BRANCH   1  10
HETATM   10  O2  UNL     1     -16.216  24.082   4.773  1.00  0.00    -0.360 OA
ATOM     11  H2  UNL     1     -16.132  23.883   5.699  1.00  0.00     0.213 HD
ENDBRANCH   1  10
BRANCH   6  12
HETATM   12  O6  UNL     1     -16.084  26.340   3.462  1.00  0.00    -0.366 OA
ATOM     13  H6  UNL     1     -16.542  26.983   3.989  1.00  0.00     0.212 HD
ENDBRANCH   6  12
BRANCH   3  14
HETATM   14  C4  UNL     1     -12.218  24.485   6.728  1.00  0.00    -0.018 A 
HETATM   15  C5  UNL     1     -10.934  24.093   6.757  1.00  0.00     0.017 A 
HETATM   16  C6  UNL     1     -10.399  23.755   7.970  1.00  0.00     0.050 A 
HETATM   17  S1  UNL     1     -11.705  23.995   9.040  1.00  0.00    -0.113 SA
HETATM   18  C7  UNL     1     -12.883  24.513   7.925  1.00  0.00     0.059 A 
ENDBRANCH   3  14
BRANCH   4  19
HETATM   19  O4  UNL     1     -12.954  26.959   6.694  1.00  0.00    -0.368 OA
ATOM     20  H4  UNL     1     -13.377  27.802   6.802  1.00  0.00     0.212 HD
ENDBRANCH   4  19
TORSDOF 6
ENDMDL
MODEL 2
REMARK VINA RESULT: -4.829131388      5.860      7.337
REMARK  6 active torsions:
REMARK  status: ('A' for Active; 'I' for Inactive)
REMARK    1  A    between atoms: O1_1  and  C1_3 
REMARK    2  A    between atoms: C1_3  and  C2_4 
REMARK    3  A    between atoms: C2_4  and  O2_5 
REMARK    4  A    between atoms: C3_8  and  C4_9 
REMARK    5  A    between atoms: C8_14  and  O4_15 
REMARK    6  A    between atoms: C9_18  and  O6_19 
ROOT
HETATM    1  C2  UNL     1     -13.599  28.953   8.969  1.00  0.00     0.235 C 
HETATM    2  O3  UNL     1     -12.546  29.826   9.045  1.00  0.00    -0.334 OA
HETATM    3  C3  UNL     1     -12.277  30.301  10.303  1.00  0.00     0.214 C 
HETATM    4  C8  UNL     1     -12.168  29.228  11.348  1.00  0.00     0.293 C 
HETATM    5  O5  UNL     1     -12.539  27.987  10.830  1.00  0.00    -0.323 OA
HETATM    6  C9  UNL     1     -13.781  28.150  10.231  1.00  0.00     0.325 C 
ENDROOT
BRANCH   1   7
HETATM    7  C1  UNL     1     -14.900  29.659   8.576  1.00  0.00     0.237 C 
BRANCH   7   8
HETATM    8  O1  UNL     1     -15.332  29.284   7.326  1.00  0.00    -0.395 OA
ATOM      9  H1  UNL     1     -16.277  29.342   7.244  1.00  0.00     0.209 HD
ENDBRANCH   7   8
ENDBRANCH   1   7
BRANCH   1  10
HETATM   10  O2  UNL     1     -13.333  28.057   7.919  1.00  0.00    -0.360 OA
ATOM     11  H2  UNL     1     -13.535  27.196   8.267  1.00  0.00     0.213 HD
ENDBRANCH   1  10
BRANCH   6  12
HETATM   12  O6  UNL     1     -14.432  26.953  10.018  1.00  0.00    -0.366 OA
ATOM     13  H6  UNL     1     -15.322  27.066   9.706  1.00  0.00     0.212 HD
ENDBRANCH   6  12
BRANCH   3  14
HETATM   14  C4  UNL     1     -10.980  31.087  10.209  1.00  0.00    -0.018 A 
HETATM   15  C5  UNL     1     -10.688  32.134  10.998  1.00  0.00     0.017 A 
HETATM   16  C6  UNL     1      -9.483  32.754  10.813  1.00  0.00     0.050 A 
HETATM   17  S1  UNL     1      -8.787  31.858   9.540  1.00  0.00    -0.113 SA
HETATM   18  C7  UNL     1     -10.037  30.731   9.281  1.00  0.00     0.059 A 
ENDBRANCH   3  14
BRANCH   4  19
HETATM   19  O4  UNL     1     -10.877  29.101  11.854  1.00  0.00    -0.368 OA
ATOM     20  H4  UNL     1     -10.524  29.925  12.166  1.00  0.00     0.212 HD
ENDBRANCH   4  19
TORSDOF 6
ENDMDL
MODEL 3
REMARK VINA RESULT: -4.612941969      6.107      8.304
REMARK  6 active torsions:
REMARK  status: ('A' for Active; 'I' for Inactive)
REMARK    1  A    between atoms: O1_1  and  C1_3 
REMARK    2  A    between atoms: C1_3  and  C2_4 
REMARK    3  A    between atoms: C2_4  and  O2_5 
REMARK    4  A    between atoms: C3_8  and  C4_9 
REMARK    5  A    between atoms: C8_14  and  O4_15 
REMARK    6  A    between atoms: C9_18  and  O6_19 
ROOT
HETATM    1  C2  UNL     1     -10.228  17.807   9.771  1.00  0.00     0.235 C 
HETATM    2  O3  UNL     1     -10.554  19.067  10.198  1.00  0.00    -0.334 OA
HETATM    3  C3  UNL     1     -10.006  20.087   9.463  1.00  0.00     0.214 C 
HETATM    4  C8  UNL     1     -10.208  19.947   7.982  1.00  0.00     0.293 C 
HETATM    5  O5  UNL     1     -10.767  18.708   7.669  1.00  0.00    -0.323 OA
HETATM    6  C9  UNL     1      -9.984  17.740   8.285  1.00  0.00     0.325 C 
ENDROOT
BRANCH   1   7
HETATM    7  C1  UNL     1      -9.041  17.229  10.547  1.00  0.00     0.237 C 
BRANCH   7   8
HETATM    8  O1  UNL     1      -8.210  16.489   9.740  1.00  0.00    -0.395 OA
ATOM      9  H1  UNL     1      -7.612  17.039   9.246  1.00  0.00     0.209 HD
ENDBRANCH   7   8
ENDBRANCH   1   7
BRANCH   1  10
HETATM   10  O2  UNL     1     -11.312  16.963  10.071  1.00  0.00    -0.360 OA
ATOM     11  H2  UNL     1     -11.879  17.003   9.309  1.00  0.00     0.213 HD
ENDBRANCH   1  10
BRANCH   6  12
HETATM   12  O6  UNL     1     -10.183  16.480   7.763  1.00  0.00    -0.366 OA
ATOM     13  H6  UNL     1      -9.854  16.390   6.877  1.00  0.00     0.212 HD
ENDBRANCH   6  12
BRANCH   3  14
HETATM   14  C4  UNL     1     -10.630  21.378   9.967  1.00  0.00    -0.018 A 
HETATM   15  C5  UNL     1     -10.038  22.579   9.862  1.00  0.00     0.017 A 
HETATM   16  C6  UNL     1     -10.710  23.665  10.354  1.00  0.00     0.050 A 
HETATM   17  S1  UNL     1     -12.152  22.979  10.952  1.00  0.00    -0.113 SA
HETATM   18  C7  UNL     1     -11.863  21.347  10.562  1.00  0.00     0.059 A 
ENDBRANCH   3  14
BRANCH   4  19
HETATM   19  O4  UNL     1     -11.048  20.928   7.460  1.00  0.00    -0.368 OA
ATOM     20  H4  UNL     1     -11.685  20.578   6.850  1.00  0.00     0.212 HD
ENDBRANCH   4  19
TORSDOF 6
ENDMDL
MODEL 4
REMARK VINA RESULT: -4.603163305      4.062      5.633
REMARK  6 active torsions:
REMARK  status: ('A' for Active; 'I' for Inactive)
REMARK    1  A    between atoms: O1_1  and  C1_3 
REMARK    2  A    between atoms: C1_3  and  C2_4 
REMARK    3  A    between atoms: C2_4  and  O2_5 
REMARK    4  A    between atoms: C3_8  and  C4_9 
REMARK    5  A    between atoms: C8_14  and  O4_15 
REMARK    6  A    between atoms: C9_18  and  O6_19 
ROOT
HETATM    1  C2  UNL     1     -12.606  26.027   8.639  1.00  0.00     0.235 C 
HETATM    2  O3  UNL     1     -12.822  25.202   9.711  1.00  0.00    -0.334 OA
HETATM    3  C3  UNL     1     -12.842  25.830  10.930  1.00  0.00     0.214 C 
HETATM    4  C8  UNL     1     -13.742  27.031  10.980  1.00  0.00     0.293 C 
HETATM    5  O5  UNL     1     -14.230  27.343   9.711  1.00  0.00    -0.323 OA
HETATM    6  C9  UNL     1     -13.135  27.420   8.861  1.00  0.00     0.325 C 
ENDROOT
BRANCH   1   7
HETATM    7  C1  UNL     1     -11.131  26.059   8.229  1.00  0.00     0.237 C 
BRANCH   7   8
HETATM    8  O1  UNL     1     -10.756  27.294   7.757  1.00  0.00    -0.395 OA
ATOM      9  H1  UNL     1     -11.436  27.694   7.226  1.00  0.00     0.209 HD
ENDBRANCH   7   8
ENDBRANCH   1   7
BRANCH   1  10
HETATM   10  O2  UNL     1     -13.284  25.476   7.537  1.00  0.00    -0.360 OA
ATOM     11  H2  UNL     1     -13.338  24.544   7.717  1.00  0.00     0.213 HD
ENDBRANCH   1  10
BRANCH   6  12
HETATM   12  O6  UNL     1     -13.418  28.083   7.685  1.00  0.00    -0.366 OA
ATOM     13  H6  UNL     1     -14.305  27.937   7.381  1.00  0.00     0.212 HD
ENDBRANCH   6  12
BRANCH   3  14
HETATM   14  C4  UNL     1     -13.278  24.794  11.953  1.00  0.00    -0.018 A 
HETATM   15  C5  UNL     1     -14.099  23.770  11.668  1.00  0.00     0.017 A 
HETATM   16  C6  UNL     1     -14.412  22.904  12.680  1.00  0.00     0.050 A 
HETATM   17  S1  UNL     1     -13.550  23.544  14.005  1.00  0.00    -0.113 SA
HETATM   18  C7  UNL     1     -12.823  24.881  13.241  1.00  0.00     0.059 A 
ENDBRANCH   3  14
BRANCH   4  19
HETATM   19  O4  UNL     1     -14.840  26.844  11.816  1.00  0.00    -0.368 OA
ATOM     20  H4  UNL     1     -15.651  27.152  11.430  1.00  0.00     0.212 HD
ENDBRANCH   4  19
TORSDOF 6
ENDMDL
MODEL 5
REMARK VINA RESULT: -4.560102516      2.780      4.134
REMARK  6 active torsions:
REMARK  status: ('A' for Active; 'I' for Inactive)
REMARK    1  A    between atoms: O1_1  and  C1_3 
REMARK    2  A    between atoms: C1_3  and  C2_4 
REMARK    3  A    between atoms: C2_4  and  O2_5 
REMARK    4  A    between atoms: C3_8  and  C4_9 
REMARK    5  A    between atoms: C8_14  and  O4_15 
REMARK    6  A    between atoms: C9_18  and  O6_19 
ROOT
HETATM    1  C2  UNL     1     -12.742  24.454   7.121  1.00  0.00     0.235 C 
HETATM    2  O3  UNL     1     -12.862  24.937   8.398  1.00  0.00    -0.334 OA
HETATM    3  C3  UNL     1     -12.294  26.168   8.607  1.00  0.00     0.214 C 
HETATM    4  C8  UNL     1     -12.696  27.203   7.595  1.00  0.00     0.293 C 
HETATM    5  O5  UNL     1     -13.431  26.629   6.559  1.00  0.00    -0.323 OA
HETATM    6  C9  UNL     1     -12.697  25.549   6.087  1.00  0.00     0.325 C 
ENDROOT
BRANCH   1   7
HETATM    7  C1  UNL     1     -11.544  23.512   6.975  1.00  0.00     0.237 C 
BRANCH   7   8
HETATM    8  O1  UNL     1     -11.764  22.301   7.587  1.00  0.00    -0.395 OA
ATOM      9  H1  UNL     1     -11.817  22.385   8.532  1.00  0.00     0.209 HD
ENDBRANCH   7   8
ENDBRANCH   1   7
BRANCH   1  10
HETATM   10  O2  UNL     1     -13.872  23.658   6.861  1.00  0.00    -0.360 OA
ATOM     11  H2  UNL     1     -14.615  24.177   7.149  1.00  0.00     0.213 HD
ENDBRANCH   1  10
BRANCH   6  12
HETATM   12  O6  UNL     1     -13.107  25.129   4.839  1.00  0.00    -0.366 OA
ATOM     13  H6  UNL     1     -13.099  25.824   4.192  1.00  0.00     0.212 HD
ENDBRANCH   6  12
BRANCH   3  14
HETATM   14  C4  UNL     1     -12.694  26.606  10.006  1.00  0.00    -0.018 A 
HETATM   15  C5  UNL     1     -13.833  26.221  10.607  1.00  0.00     0.017 A 
HETATM   16  C6  UNL     1     -14.073  26.684  11.871  1.00  0.00     0.050 A 
HETATM   17  S1  UNL     1     -12.701  27.647  12.189  1.00  0.00    -0.113 SA
HETATM   18  C7  UNL     1     -11.869  27.434  10.718  1.00  0.00     0.059 A 
ENDBRANCH   3  14
BRANCH   4  19
HETATM   19  O4  UNL     1     -13.473  28.218   8.147  1.00  0.00    -0.368 OA
ATOM     20  H4  UNL     1     -14.396  27.997   8.178  1.00  0.00     0.212 HD
ENDBRANCH   4  19
TORSDOF 6
ENDMDL
