MODEL 1
REMARK VINA RESULT: -4.563510198      0.000      0.000
REMARK  5 active torsions:
REMARK  status: ('A' for Active; 'I' for Inactive)
REMARK    1  A    between atoms: C3_4  and  C4_5 
REMARK    2  A    between atoms: C3_4  and  C5_8 
REMARK    3  A    between atoms: C4_5  and  O2_6 
REMARK    4  A    between atoms: C5_8  and  O3_9 
REMARK    5  A    between atoms: C7_13  and  O5_14 
ROOT
HETATM    1  C1  UNL     1     -11.382  22.616   7.622  1.00  0.00     0.061 C 
HETATM    2  C2  UNL     1     -11.362  24.071   7.353  1.00  0.00     0.137 C 
HETATM    3  O1  UNL     1     -11.774  24.339   6.063  1.00  0.00    -0.327 OA
HETATM    4  C3  UNL     1     -13.099  24.732   6.111  1.00  0.00     0.209 C 
HETATM    5  O4  UNL     1     -13.524  24.632   7.445  1.00  0.00    -0.339 OA
HETATM    6  C6  UNL     1     -12.378  24.872   8.136  1.00  0.00     0.198 C 
HETATM    7  C7  UNL     1     -12.379  24.635   9.585  1.00  0.00     0.151 C 
HETATM    8  C8  UNL     1     -11.029  24.549  10.186  1.00  0.00     0.045 C 
HETATM    9  C9  UNL     1      -9.977  25.387   9.496  1.00  0.00     0.079 C 
HETATM   10  S1  UNL     1      -9.754  24.803   7.767  1.00  0.00    -0.129 SA
ENDROOT
BRANCH   4  11
HETATM   11  C4  UNL     1     -13.235  26.147   5.599  1.00  0.00     0.235 C 
BRANCH  11  12
HETATM   12  O2  UNL     1     -14.497  26.303   5.062  1.00  0.00    -0.395 OA
ATOM     13  H2  UNL     1     -14.982  26.918   5.599  1.00  0.00     0.209 HD
ENDBRANCH  11  12
ENDBRANCH   4  11
BRANCH   4  14
HETATM   14  C5  UNL     1     -14.011  23.837   5.298  1.00  0.00     0.235 C 
BRANCH  14  15
HETATM   15  O3  UNL     1     -15.035  23.302   6.068  1.00  0.00    -0.395 OA
ATOM     16  H3  UNL     1     -15.217  22.399   5.838  1.00  0.00     0.209 HD
ENDBRANCH  14  15
ENDBRANCH   4  14
BRANCH   7  17
HETATM   17  O5  UNL     1     -13.135  23.512   9.978  1.00  0.00    -0.393 OA
ATOM     18  H5  UNL     1     -12.734  23.005  10.675  1.00  0.00     0.210 HD
ENDBRANCH   7  17
TORSDOF 5
ENDMDL
MODEL 2
REMARK VINA RESULT: -4.487177596      3.404      4.361
REMARK  5 active torsions:
REMARK  status: ('A' for Active; 'I' for Inactive)
REMARK    1  A    between atoms: C3_4  and  C4_5 
REMARK    2  A    between atoms: C3_4  and  C5_8 
REMARK    3  A    between atoms: C4_5  and  O2_6 
REMARK    4  A    between atoms: C5_8  and  O3_9 
REMARK    5  A    between atoms: C7_13  and  O5_14 
ROOT
HETATM    1  C1  UNL     1     -13.605  29.034   8.971  1.00  0.00     0.061 C 
HETATM    2  C2  UNL     1     -13.003  27.741   9.366  1.00  0.00     0.137 C 
HETATM    3  O1  UNL     1     -13.472  26.715   8.570  1.00  0.00    -0.327 OA
HETATM    4  C3  UNL     1     -12.518  26.453   7.604  1.00  0.00     0.209 C 
HETATM    5  O4  UNL     1     -11.479  27.384   7.769  1.00  0.00    -0.339 OA
HETATM    6  C6  UNL     1     -11.517  27.630   9.105  1.00  0.00     0.198 C 
HETATM    7  C7  UNL     1     -10.706  28.736   9.630  1.00  0.00     0.151 C 
HETATM    8  C8  UNL     1     -11.088  29.175  10.991  1.00  0.00     0.045 C 
HETATM    9  C9  UNL     1     -11.646  28.082  11.874  1.00  0.00     0.079 C 
HETATM   10  S1  UNL     1     -13.201  27.428  11.143  1.00  0.00    -0.129 SA
ENDROOT
BRANCH   4  11
HETATM   11  C4  UNL     1     -12.011  25.037   7.752  1.00  0.00     0.235 C 
BRANCH  11  12
HETATM   12  O2  UNL     1     -13.024  24.258   8.274  1.00  0.00    -0.395 OA
ATOM     13  H2  UNL     1     -13.086  23.459   7.764  1.00  0.00     0.209 HD
ENDBRANCH  11  12
ENDBRANCH   4  11
BRANCH   4  14
HETATM   14  C5  UNL     1     -13.039  26.631   6.193  1.00  0.00     0.235 C 
BRANCH  14  15
HETATM   15  O3  UNL     1     -13.774  25.533   5.769  1.00  0.00    -0.395 OA
ATOM     16  H3  UNL     1     -14.405  25.766   5.098  1.00  0.00     0.209 HD
ENDBRANCH  14  15
ENDBRANCH   4  14
BRANCH   7  17
HETATM   17  O5  UNL     1     -10.654  29.857   8.778  1.00  0.00    -0.393 OA
ATOM     18  H5  UNL     1     -10.066  30.541   9.078  1.00  0.00     0.210 HD
ENDBRANCH   7  17
TORSDOF 5
ENDMDL
MODEL 3
REMARK VINA RESULT: -4.119012066      5.434      6.608
REMARK  5 active torsions:
REMARK  status: ('A' for Active; 'I' for Inactive)
REMARK    1  A    between atoms: C3_4  and  C4_5 
REMARK    2  A    between atoms: C3_4  and  C5_8 
REMARK    3  A    between atoms: C4_5  and  O2_6 
REMARK    4  A    between atoms: C5_8  and  O3_9 
REMARK    5  A    between atoms: C7_13  and  O5_14 
ROOT
HETATM    1  C1  UNL     1      -8.855  17.164   9.602  1.00  0.00     0.061 C 
HETATM    2  C2  UNL     1      -9.060  18.563  10.037  1.00  0.00     0.137 C 
HETATM    3  O1  UNL     1      -8.809  19.443   9.002  1.00  0.00    -0.327 OA
HETATM    4  C3  UNL     1     -10.022  19.816   8.454  1.00  0.00     0.209 C 
HETATM    5  O4  UNL     1     -11.028  19.096   9.119  1.00  0.00    -0.339 OA
HETATM    6  C6  UNL     1     -10.494  18.923  10.357  1.00  0.00     0.198 C 
HETATM    7  C7  UNL     1     -11.175  18.010  11.285  1.00  0.00     0.151 C 
HETATM    8  C8  UNL     1     -10.346  17.588  12.437  1.00  0.00     0.045 C 
HETATM    9  C9  UNL     1      -9.334  18.612  12.895  1.00  0.00     0.079 C 
HETATM   10  S1  UNL     1      -8.126  18.936  11.548  1.00  0.00    -0.129 SA
ENDROOT
BRANCH   4  11
HETATM   11  C4  UNL     1     -10.222  21.305   8.612  1.00  0.00     0.235 C 
BRANCH  11  12
HETATM   12  O2  UNL     1     -11.428  21.652   8.038  1.00  0.00    -0.395 OA
ATOM     13  H2  UNL     1     -11.334  22.501   7.623  1.00  0.00     0.209 HD
ENDBRANCH  11  12
ENDBRANCH   4  11
BRANCH   4  14
HETATM   14  C5  UNL     1     -10.140  19.468   6.985  1.00  0.00     0.235 C 
BRANCH  14  15
HETATM   15  O3  UNL     1     -11.420  19.046   6.652  1.00  0.00    -0.395 OA
ATOM     16  H3  UNL     1     -11.859  18.633   7.386  1.00  0.00     0.209 HD
ENDBRANCH  14  15
ENDBRANCH   4  14
BRANCH   7  17
HETATM   17  O5  UNL     1     -11.721  16.869  10.663  1.00  0.00    -0.393 OA
ATOM     18  H5  UNL     1     -11.153  16.108  10.692  1.00  0.00     0.210 HD
ENDBRANCH   7  17
TORSDOF 5
ENDMDL
MODEL 4
REMARK VINA RESULT: -4.102464998      5.446      6.375
REMARK  5 active torsions:
REMARK  status: ('A' for Active; 'I' for Inactive)
REMARK    1  A    between atoms: C3_4  and  C4_5 
REMARK    2  A    between atoms: C3_4  and  C5_8 
REMARK    3  A    between atoms: C4_5  and  O2_6 
REMARK    4  A    between atoms: C5_8  and  O3_9 
REMARK    5  A    between atoms: C7_13  and  O5_14 
ROOT
HETATM    1  C1  UNL     1     -10.220  29.151  11.651  1.00  0.00     0.061 C 
HETATM    2  C2  UNL     1     -10.776  29.460  10.315  1.00  0.00     0.137 C 
HETATM    3  O1  UNL     1     -11.551  28.416   9.850  1.00  0.00    -0.327 OA
HETATM    4  C3  UNL     1     -12.878  28.734  10.078  1.00  0.00     0.209 C 
HETATM    5  O4  UNL     1     -12.909  29.962  10.759  1.00  0.00    -0.339 OA
HETATM    6  C6  UNL     1     -11.791  30.581  10.297  1.00  0.00     0.198 C 
HETATM    7  C7  UNL     1     -11.364  31.822  10.955  1.00  0.00     0.151 C 
HETATM    8  C8  UNL     1      -9.967  32.215  10.659  1.00  0.00     0.045 C 
HETATM    9  C9  UNL     1      -9.473  31.804   9.290  1.00  0.00     0.079 C 
HETATM   10  S1  UNL     1      -9.478  29.971   9.154  1.00  0.00    -0.129 SA
ENDROOT
BRANCH   4  11
HETATM   11  C4  UNL     1     -13.619  28.818   8.764  1.00  0.00     0.235 C 
BRANCH  11  12
HETATM   12  O2  UNL     1     -13.120  27.853   7.913  1.00  0.00    -0.395 OA
ATOM     13  H2  UNL     1     -13.401  28.054   7.028  1.00  0.00     0.209 HD
ENDBRANCH  11  12
ENDBRANCH   4  11
BRANCH   4  14
HETATM   14  C5  UNL     1     -13.583  27.728  10.964  1.00  0.00     0.235 C 
BRANCH  14  15
HETATM   15  O3  UNL     1     -14.559  27.023  10.274  1.00  0.00    -0.395 OA
ATOM     16  H3  UNL     1     -15.208  26.651  10.858  1.00  0.00     0.209 HD
ENDBRANCH  14  15
ENDBRANCH   4  14
BRANCH   7  17
HETATM   17  O5  UNL     1     -11.560  31.823  12.351  1.00  0.00    -0.393 OA
ATOM     18  H5  UNL     1     -12.409  32.156  12.618  1.00  0.00     0.210 HD
ENDBRANCH   7  17
TORSDOF 5
ENDMDL
MODEL 5
REMARK VINA RESULT: -4.024871972      1.584      2.771
REMARK  5 active torsions:
REMARK  status: ('A' for Active; 'I' for Inactive)
REMARK    1  A    between atoms: C3_4  and  C4_5 
REMARK    2  A    between atoms: C3_4  and  C5_8 
REMARK    3  A    between atoms: C4_5  and  O2_6 
REMARK    4  A    between atoms: C5_8  and  O3_9 
REMARK    5  A    between atoms: C7_13  and  O5_14 
ROOT
HETATM    1  C1  UNL     1     -11.370  26.022   8.074  1.00  0.00     0.061 C 
HETATM    2  C2  UNL     1     -12.278  24.855   8.028  1.00  0.00     0.137 C 
HETATM    3  O1  UNL     1     -13.429  25.154   7.325  1.00  0.00    -0.327 OA
HETATM    4  C3  UNL     1     -13.294  24.643   6.048  1.00  0.00     0.209 C 
HETATM    5  O4  UNL     1     -12.009  24.085   5.946  1.00  0.00    -0.339 OA
HETATM    6  C6  UNL     1     -11.763  23.684   7.221  1.00  0.00     0.198 C 
HETATM    7  C7  UNL     1     -10.404  23.242   7.559  1.00  0.00     0.151 C 
HETATM    8  C8  UNL     1     -10.127  23.191   9.013  1.00  0.00     0.045 C 
HETATM    9  C9  UNL     1     -11.328  22.871   9.873  1.00  0.00     0.079 C 
HETATM   10  S1  UNL     1     -12.594  24.190   9.687  1.00  0.00    -0.129 SA
ENDROOT
BRANCH   4  11
HETATM   11  C4  UNL     1     -14.362  23.604   5.793  1.00  0.00     0.235 C 
BRANCH  11  12
HETATM   12  O2  UNL     1     -15.305  24.140   4.939  1.00  0.00    -0.395 OA
ATOM     13  H2  UNL     1     -16.064  24.397   5.448  1.00  0.00     0.209 HD
ENDBRANCH  11  12
ENDBRANCH   4  11
BRANCH   4  14
HETATM   14  C5  UNL     1     -13.392  25.705   4.972  1.00  0.00     0.235 C 
BRANCH  14  15
HETATM   15  O3  UNL     1     -14.076  26.829   5.414  1.00  0.00    -0.395 OA
ATOM     16  H3  UNL     1     -15.004  26.778   5.222  1.00  0.00     0.209 HD
ENDBRANCH  14  15
ENDBRANCH   4  14
BRANCH   7  17
HETATM   17  O5  UNL     1      -9.390  23.980   6.918  1.00  0.00    -0.393 OA
ATOM     18  H5  UNL     1      -9.627  24.284   6.050  1.00  0.00     0.210 HD
ENDBRANCH   7  17
TORSDOF 5
ENDMDL
