MODEL 1
REMARK VINA RESULT: -4.089904978      0.000      0.000
REMARK  8 active torsions:
REMARK  status: ('A' for Active; 'I' for Inactive)
REMARK    1  A    between atoms: O1_2  and  N1_3 
REMARK    2  A    between atoms: N1_3  and  C2_4 
REMARK    3  A    between atoms: C3_7  and  N2_8 
REMARK    4  A    between atoms: C4_12  and  N3_13 
REMARK    5  A    between atoms: N3_13  and  N4_15 
REMARK    6  A    between atoms: N4_15  and  N5_16 
REMARK    7  A    between atoms: C5_19  and  O2_20 
REMARK    8  A    between atoms: C6_22  and  O3_23 
ROOT
HETATM    1  C2  UNL     1      -9.911  32.636  11.043  1.00  0.00     0.210 C 
HETATM    2  S1  UNL     1      -8.708  31.173  11.111  1.00  0.00    -0.069 SA
HETATM    3  S2  UNL     1      -9.720  29.405  10.424  1.00  0.00    -0.060 SA
HETATM    4  C3  UNL     1     -11.444  29.395  10.317  1.00  0.00     0.283 C 
HETATM    5  C4  UNL     1     -12.322  30.307   9.559  1.00  0.00     0.186 C 
HETATM    6  C5  UNL     1     -12.321  31.796  10.037  1.00  0.00     0.177 C 
HETATM    7  C6  UNL     1     -11.008  32.003  10.474  1.00  0.00     0.181 C 
ENDROOT
BRANCH   5   8
HETATM    8  N3  UNL     1     -13.667  29.767   9.657  1.00  0.00    -0.242 N 
ATOM      9  H3  UNL     1     -13.892  29.193  10.469  1.00  0.00     0.197 HD
BRANCH   8  10
HETATM   10  N4  UNL     1     -14.533  29.952   8.840  1.00  0.00    -0.248 NA
BRANCH  10  11
HETATM   11  N5  UNL     1     -15.391  30.387   8.083  1.00  0.00    -0.261 N 
ATOM     12  H52 UNL     1     -15.383  31.284   8.569  1.00  0.00     0.193 HD
ATOM     13  H51 UNL     1     -16.094  30.554   7.364  1.00  0.00     0.193 HD
ENDBRANCH  10  11
ENDBRANCH   8  10
ENDBRANCH   5   8
BRANCH   4  14
HETATM   14  N2  UNL     1     -11.786  28.055   9.785  1.00  0.00    -0.063 N 
ATOM     15  H23 UNL     1     -12.104  28.063   8.816  1.00  0.00     0.275 HD
ATOM     16  H22 UNL     1     -10.978  27.450   9.638  1.00  0.00     0.275 HD
ATOM     17  H21 UNL     1     -12.471  27.678  10.441  1.00  0.00     0.275 HD
ENDBRANCH   4  14
BRANCH   6  18
HETATM   18  O2  UNL     1     -13.320  31.886  10.985  1.00  0.00    -0.391 OA
ATOM     19  H2  UNL     1     -13.008  32.509  11.631  1.00  0.00     0.210 HD
ENDBRANCH   6  18
BRANCH   7  20
HETATM   20  O3  UNL     1     -10.352  31.564   9.269  1.00  0.00    -0.390 OA
ATOM     21  H3  UNL     1     -11.131  31.263   8.816  1.00  0.00     0.210 HD
ENDBRANCH   7  20
BRANCH   1  22
HETATM   22  N1  UNL     1      -9.180  33.630  10.279  1.00  0.00    -0.083 NA
BRANCH  22  23
HETATM   23  O1  UNL     1      -9.035  34.713  11.040  1.00  0.00    -0.290 OA
HETATM   24  C1  UNL     1      -7.833  34.810  11.696  1.00  0.00     0.231 C 
ENDBRANCH  22  23
ENDBRANCH   1  22
TORSDOF 8
ENDMDL
MODEL 2
REMARK VINA RESULT: -4.073360598      2.975      5.419
REMARK  8 active torsions:
REMARK  status: ('A' for Active; 'I' for Inactive)
REMARK    1  A    between atoms: O1_2  and  N1_3 
REMARK    2  A    between atoms: N1_3  and  C2_4 
REMARK    3  A    between atoms: C3_7  and  N2_8 
REMARK    4  A    between atoms: C4_12  and  N3_13 
REMARK    5  A    between atoms: N3_13  and  N4_15 
REMARK    6  A    between atoms: N4_15  and  N5_16 
REMARK    7  A    between atoms: C5_19  and  O2_20 
REMARK    8  A    between atoms: C6_22  and  O3_23 
ROOT
HETATM    1  C2  UNL     1     -13.078  28.115   8.733  1.00  0.00     0.210 C 
HETATM    2  S1  UNL     1     -11.553  27.375   7.885  1.00  0.00    -0.069 SA
HETATM    3  S2  UNL     1      -9.871  28.672   8.219  1.00  0.00    -0.060 SA
HETATM    4  C3  UNL     1     -10.134  30.286   8.774  1.00  0.00     0.283 C 
HETATM    5  C4  UNL     1     -10.842  30.735   9.988  1.00  0.00     0.186 C 
HETATM    6  C5  UNL     1     -12.375  30.430  10.026  1.00  0.00     0.177 C 
HETATM    7  C6  UNL     1     -12.489  29.214   9.344  1.00  0.00     0.181 C 
ENDROOT
BRANCH   5   8
HETATM    8  N3  UNL     1     -10.630  32.168  10.088  1.00  0.00    -0.242 N 
ATOM      9  H3  UNL     1     -10.508  32.693   9.222  1.00  0.00     0.197 HD
BRANCH   8  10
HETATM   10  N4  UNL     1     -10.588  32.778  11.126  1.00  0.00    -0.248 NA
BRANCH  10  11
HETATM   11  N5  UNL     1     -10.592  33.602  12.032  1.00  0.00    -0.261 N 
ATOM     12  H52 UNL     1      -9.627  33.855  11.822  1.00  0.00     0.193 HD
ATOM     13  H51 UNL     1     -10.798  34.221  12.815  1.00  0.00     0.193 HD
ENDBRANCH  10  11
ENDBRANCH   8  10
ENDBRANCH   5   8
BRANCH   4  14
HETATM   14  N2  UNL     1      -8.778  30.864   8.924  1.00  0.00    -0.063 N 
ATOM     15  H23 UNL     1      -8.176  30.348   9.565  1.00  0.00     0.275 HD
ATOM     16  H22 UNL     1      -8.189  30.757   8.098  1.00  0.00     0.275 HD
ATOM     17  H21 UNL     1      -8.935  31.835   9.196  1.00  0.00     0.275 HD
ENDBRANCH   4  14
BRANCH   6  18
HETATM   18  O2  UNL     1     -12.991  31.528   9.460  1.00  0.00    -0.391 OA
ATOM     19  H2  UNL     1     -13.080  32.163  10.161  1.00  0.00     0.210 HD
ENDBRANCH   6  18
BRANCH   7  20
HETATM   20  O3  UNL     1     -11.523  28.485  10.124  1.00  0.00    -0.390 OA
ATOM     21  H3  UNL     1     -10.909  29.200  10.247  1.00  0.00     0.210 HD
ENDBRANCH   7  20
BRANCH   1  22
HETATM   22  N1  UNL     1     -13.568  27.018   9.549  1.00  0.00    -0.083 NA
BRANCH  22  23
HETATM   23  O1  UNL     1     -14.498  27.498  10.371  1.00  0.00    -0.290 OA
HETATM   24  C1  UNL     1     -14.448  27.017  11.655  1.00  0.00     0.231 C 
ENDBRANCH  22  23
ENDBRANCH   1  22
TORSDOF 8
ENDMDL
MODEL 3
REMARK VINA RESULT: -4.009693462      6.130      7.763
REMARK  8 active torsions:
REMARK  status: ('A' for Active; 'I' for Inactive)
REMARK    1  A    between atoms: O1_2  and  N1_3 
REMARK    2  A    between atoms: N1_3  and  C2_4 
REMARK    3  A    between atoms: C3_7  and  N2_8 
REMARK    4  A    between atoms: C4_12  and  N3_13 
REMARK    5  A    between atoms: N3_13  and  N4_15 
REMARK    6  A    between atoms: N4_15  and  N5_16 
REMARK    7  A    between atoms: C5_19  and  O2_20 
REMARK    8  A    between atoms: C6_22  and  O3_23 
ROOT
HETATM    1  C2  UNL     1     -12.757  25.704  11.257  1.00  0.00     0.210 C 
HETATM    2  S1  UNL     1     -12.486  23.837  11.432  1.00  0.00    -0.069 SA
HETATM    3  S2  UNL     1     -13.616  23.123  13.117  1.00  0.00    -0.060 SA
HETATM    4  C3  UNL     1     -14.224  24.250  14.275  1.00  0.00     0.283 C 
HETATM    5  C4  UNL     1     -15.111  25.408  14.051  1.00  0.00     0.186 C 
HETATM    6  C5  UNL     1     -14.506  26.562  13.187  1.00  0.00     0.177 C 
HETATM    7  C6  UNL     1     -13.684  25.897  12.271  1.00  0.00     0.181 C 
ENDROOT
BRANCH   5   8
HETATM    8  N3  UNL     1     -15.469  25.919  15.362  1.00  0.00    -0.242 N 
ATOM      9  H3  UNL     1     -14.787  25.821  16.114  1.00  0.00     0.197 HD
BRANCH   8  10
HETATM   10  N4  UNL     1     -16.519  26.451  15.621  1.00  0.00    -0.248 NA
BRANCH  10  11
HETATM   11  N5  UNL     1     -17.663  26.884  15.662  1.00  0.00    -0.261 N 
ATOM     12  H52 UNL     1     -17.325  27.780  16.014  1.00  0.00     0.193 HD
ATOM     13  H51 UNL     1     -18.668  27.050  15.622  1.00  0.00     0.193 HD
ENDBRANCH  10  11
ENDBRANCH   8  10
ENDBRANCH   5   8
BRANCH   4  14
HETATM   14  N2  UNL     1     -14.966  23.425  15.258  1.00  0.00    -0.063 N 
ATOM     15  H23 UNL     1     -15.974  23.396  15.098  1.00  0.00     0.275 HD
ATOM     16  H22 UNL     1     -14.804  22.422  15.162  1.00  0.00     0.275 HD
ATOM     17  H21 UNL     1     -14.703  23.801  16.169  1.00  0.00     0.275 HD
ENDBRANCH   4  14
BRANCH   6  18
HETATM   18  O2  UNL     1     -13.890  27.416  14.080  1.00  0.00    -0.391 OA
ATOM     19  H2  UNL     1     -13.948  28.281  13.692  1.00  0.00     0.210 HD
ENDBRANCH   6  18
BRANCH   7  20
HETATM   20  O3  UNL     1     -14.681  24.983  11.775  1.00  0.00    -0.390 OA
ATOM     21  H3  UNL     1     -14.944  25.498  11.021  1.00  0.00     0.210 HD
ENDBRANCH   7  20
BRANCH   1  22
HETATM   22  N1  UNL     1     -13.168  25.851   9.872  1.00  0.00    -0.083 NA
BRANCH  22  23
HETATM   23  O1  UNL     1     -13.806  27.013   9.750  1.00  0.00    -0.290 OA
HETATM   24  C1  UNL     1     -13.044  28.053   9.281  1.00  0.00     0.231 C 
ENDBRANCH  22  23
ENDBRANCH   1  22
TORSDOF 8
ENDMDL
MODEL 4
REMARK VINA RESULT: -3.976992303      4.207      5.999
REMARK  8 active torsions:
REMARK  status: ('A' for Active; 'I' for Inactive)
REMARK    1  A    between atoms: O1_2  and  N1_3 
REMARK    2  A    between atoms: N1_3  and  C2_4 
REMARK    3  A    between atoms: C3_7  and  N2_8 
REMARK    4  A    between atoms: C4_12  and  N3_13 
REMARK    5  A    between atoms: N3_13  and  N4_15 
REMARK    6  A    between atoms: N4_15  and  N5_16 
REMARK    7  A    between atoms: C5_19  and  O2_20 
REMARK    8  A    between atoms: C6_22  and  O3_23 
ROOT
HETATM    1  C2  UNL     1     -12.383  26.725   7.826  1.00  0.00     0.210 C 
HETATM    2  S1  UNL     1     -12.349  25.212   8.966  1.00  0.00    -0.069 SA
HETATM    3  S2  UNL     1     -12.496  25.874  11.007  1.00  0.00    -0.060 SA
HETATM    4  C3  UNL     1     -12.211  27.534  11.389  1.00  0.00     0.283 C 
HETATM    5  C4  UNL     1     -12.893  28.729  10.854  1.00  0.00     0.186 C 
HETATM    6  C5  UNL     1     -12.676  29.001   9.329  1.00  0.00     0.177 C 
HETATM    7  C6  UNL     1     -12.583  27.721   8.772  1.00  0.00     0.181 C 
ENDROOT
BRANCH   5   8
HETATM    8  N3  UNL     1     -12.411  29.862  11.622  1.00  0.00    -0.242 N 
ATOM      9  H3  UNL     1     -11.713  29.686  12.345  1.00  0.00     0.197 HD
BRANCH   8  10
HETATM   10  N4  UNL     1     -12.782  30.998  11.463  1.00  0.00    -0.248 NA
BRANCH  10  11
HETATM   11  N5  UNL     1     -12.989  32.150  11.106  1.00  0.00    -0.261 N 
ATOM     12  H52 UNL     1     -13.899  31.884  10.731  1.00  0.00     0.193 HD
ATOM     13  H51 UNL     1     -12.967  33.147  10.893  1.00  0.00     0.193 HD
ENDBRANCH  10  11
ENDBRANCH   8  10
ENDBRANCH   5   8
BRANCH   4  14
HETATM   14  N2  UNL     1     -12.429  27.632  12.852  1.00  0.00    -0.063 N 
ATOM     15  H23 UNL     1     -13.278  28.135  13.111  1.00  0.00     0.275 HD
ATOM     16  H22 UNL     1     -12.677  26.747  13.293  1.00  0.00     0.275 HD
ATOM     17  H21 UNL     1     -11.573  28.050  13.217  1.00  0.00     0.275 HD
ENDBRANCH   4  14
BRANCH   6  18
HETATM   18  O2  UNL     1     -11.557  29.805   9.247  1.00  0.00    -0.391 OA
ATOM     19  H2  UNL     1     -11.839  30.596   8.803  1.00  0.00     0.210 HD
ENDBRANCH   6  18
BRANCH   7  20
HETATM   20  O3  UNL     1     -13.816  27.207   9.311  1.00  0.00    -0.390 OA
ATOM     21  H3  UNL     1     -13.806  27.705  10.120  1.00  0.00     0.210 HD
ENDBRANCH   7  20
BRANCH   1  22
HETATM   22  N1  UNL     1     -13.443  26.407   6.886  1.00  0.00    -0.083 NA
BRANCH  22  23
HETATM   23  O1  UNL     1     -13.701  27.497   6.167  1.00  0.00    -0.290 OA
HETATM   24  C1  UNL     1     -14.161  27.265   4.895  1.00  0.00     0.231 C 
ENDBRANCH  22  23
ENDBRANCH   1  22
TORSDOF 8
ENDMDL
MODEL 5
REMARK VINA RESULT: -3.931551611      3.335      5.519
REMARK  8 active torsions:
REMARK  status: ('A' for Active; 'I' for Inactive)
REMARK    1  A    between atoms: O1_2  and  N1_3 
REMARK    2  A    between atoms: N1_3  and  C2_4 
REMARK    3  A    between atoms: C3_7  and  N2_8 
REMARK    4  A    between atoms: C4_12  and  N3_13 
REMARK    5  A    between atoms: N3_13  and  N4_15 
REMARK    6  A    between atoms: N4_15  and  N5_16 
REMARK    7  A    between atoms: C5_19  and  O2_20 
REMARK    8  A    between atoms: C6_22  and  O3_23 
ROOT
HETATM    1  C2  UNL     1     -12.297  27.775   9.705  1.00  0.00     0.210 C 
HETATM    2  S1  UNL     1     -12.463  27.065  11.454  1.00  0.00    -0.069 SA
HETATM    3  S2  UNL     1     -12.852  28.675  12.826  1.00  0.00    -0.060 SA
HETATM    4  C3  UNL     1     -12.564  30.304  12.334  1.00  0.00     0.283 C 
HETATM    5  C4  UNL     1     -13.128  31.027  11.177  1.00  0.00     0.186 C 
HETATM    6  C5  UNL     1     -12.705  30.486   9.773  1.00  0.00     0.177 C 
HETATM    7  C6  UNL     1     -12.585  29.106   9.971  1.00  0.00     0.181 C 
ENDROOT
BRANCH   5   8
HETATM    8  N3  UNL     1     -12.712  32.412  11.309  1.00  0.00    -0.242 N 
ATOM      9  H3  UNL     1     -13.423  33.136  11.200  1.00  0.00     0.197 HD
BRANCH   8  10
HETATM   10  N4  UNL     1     -11.583  32.763  11.539  1.00  0.00    -0.248 NA
BRANCH  10  11
HETATM   11  N5  UNL     1     -10.482  33.295  11.590  1.00  0.00    -0.261 N 
ATOM     12  H52 UNL     1     -10.912  34.194  11.808  1.00  0.00     0.193 HD
ATOM     13  H51 UNL     1      -9.492  33.542  11.584  1.00  0.00     0.193 HD
ENDBRANCH  10  11
ENDBRANCH   8  10
ENDBRANCH   5   8
BRANCH   4  14
HETATM   14  N2  UNL     1     -12.966  31.131  13.495  1.00  0.00    -0.063 N 
ATOM     15  H23 UNL     1     -12.477  30.897  14.360  1.00  0.00     0.275 HD
ATOM     16  H22 UNL     1     -12.652  32.100  13.442  1.00  0.00     0.275 HD
ATOM     17  H21 UNL     1     -13.980  31.028  13.553  1.00  0.00     0.275 HD
ENDBRANCH   4  14
BRANCH   6  18
HETATM   18  O2  UNL     1     -11.558  31.176   9.435  1.00  0.00    -0.391 OA
ATOM     19  H2  UNL     1     -11.477  31.095   8.492  1.00  0.00     0.210 HD
ENDBRANCH   6  18
BRANCH   7  20
HETATM   20  O3  UNL     1     -13.894  28.895  10.532  1.00  0.00    -0.390 OA
ATOM     21  H3  UNL     1     -13.868  29.610  11.158  1.00  0.00     0.210 HD
ENDBRANCH   7  20
BRANCH   1  22
HETATM   22  N1  UNL     1     -13.235  26.979   8.934  1.00  0.00    -0.083 NA
BRANCH  22  23
HETATM   23  O1  UNL     1     -13.466  27.608   7.784  1.00  0.00    -0.290 OA
HETATM   24  C1  UNL     1     -12.903  27.027   6.676  1.00  0.00     0.231 C 
ENDBRANCH  22  23
ENDBRANCH   1  22
TORSDOF 8
ENDMDL
