MODEL 1
REMARK VINA RESULT: -6.478652620      0.000      0.000
REMARK  6 active torsions:
REMARK  status: ('A' for Active; 'I' for Inactive)
REMARK    1  A    between atoms: O1_1  and  C1_3 
REMARK    2  A    between atoms: C1_3  and  C2_4 
REMARK    3  A    between atoms: C3_6  and  O3_7 
REMARK    4  A    between atoms: C4_9  and  O4_10 
REMARK    5  A    between atoms: C5_12  and  N1_13 
REMARK    6  A    between atoms: N1_13  and  C6_15 
ROOT
HETATM    1  C2  UNL     1     -15.378  27.325   4.224  1.00  0.00     0.289 C 
HETATM    2  O2  UNL     1     -16.236  26.513   3.565  1.00  0.00    -0.327 OA
HETATM    3  C3  UNL     1     -15.806  25.246   3.299  1.00  0.00     0.292 C 
HETATM    4  C4  UNL     1     -15.361  24.629   4.609  1.00  0.00     0.221 C 
HETATM    5  C5  UNL     1     -14.249  25.503   5.131  1.00  0.00     0.258 C 
HETATM    6  O5  UNL     1     -14.627  26.821   5.220  1.00  0.00    -0.332 OA
ENDROOT
BRANCH   5   7
HETATM    7  N1  UNL     1     -13.773  24.960   6.380  1.00  0.00    -0.361 N 
ATOM      8  H1  UNL     1     -14.399  24.340   6.895  1.00  0.00     0.162 HD
BRANCH   7   9
HETATM    9  C6  UNL     1     -12.511  25.223   6.939  1.00  0.00     0.029 A 
HETATM   10  C7  UNL     1     -12.259  26.429   7.530  1.00  0.00     0.029 A 
HETATM   11  C8  UNL     1     -11.032  26.707   8.087  1.00  0.00     0.002 A 
HETATM   12  C9  UNL     1     -10.037  25.744   8.043  1.00  0.00     0.000 A 
HETATM   13  C10 UNL     1     -10.300  24.545   7.450  1.00  0.00     0.002 A 
HETATM   14  C11 UNL     1     -11.535  24.268   6.891  1.00  0.00     0.029 A 
ENDBRANCH   7   9
ENDBRANCH   5   7
BRANCH   4  15
HETATM   15  O4  UNL     1     -14.990  23.317   4.478  1.00  0.00    -0.386 OA
ATOM     16  H4  UNL     1     -14.959  22.859   5.310  1.00  0.00     0.210 HD
ENDBRANCH   4  15
BRANCH   3  17
HETATM   17  O3  UNL     1     -16.858  24.520   2.764  1.00  0.00    -0.368 OA
ATOM     18  H3  UNL     1     -16.856  23.650   3.147  1.00  0.00     0.212 HD
ENDBRANCH   3  17
BRANCH   1  19
HETATM   19  C1  UNL     1     -14.420  27.926   3.184  1.00  0.00     0.225 C 
BRANCH  19  20
HETATM   20  O1  UNL     1     -15.088  28.599   2.190  1.00  0.00    -0.396 OA
ATOM     21  H1  UNL     1     -14.498  29.089   1.629  1.00  0.00     0.209 HD
ENDBRANCH  19  20
ENDBRANCH   1  19
TORSDOF 6
ENDMDL
MODEL 2
REMARK VINA RESULT: -6.464488434      0.022      1.149
REMARK  6 active torsions:
REMARK  status: ('A' for Active; 'I' for Inactive)
REMARK    1  A    between atoms: O1_1  and  C1_3 
REMARK    2  A    between atoms: C1_3  and  C2_4 
REMARK    3  A    between atoms: C3_6  and  O3_7 
REMARK    4  A    between atoms: C4_9  and  O4_10 
REMARK    5  A    between atoms: C5_12  and  N1_13 
REMARK    6  A    between atoms: N1_13  and  C6_15 
ROOT
HETATM    1  C2  UNL     1     -15.382  27.317   4.223  1.00  0.00     0.289 C 
HETATM    2  O2  UNL     1     -16.237  26.504   3.561  1.00  0.00    -0.327 OA
HETATM    3  C3  UNL     1     -15.804  25.239   3.294  1.00  0.00     0.292 C 
HETATM    4  C4  UNL     1     -15.361  24.620   4.603  1.00  0.00     0.221 C 
HETATM    5  C5  UNL     1     -14.251  25.494   5.128  1.00  0.00     0.258 C 
HETATM    6  O5  UNL     1     -14.632  26.812   5.219  1.00  0.00    -0.332 OA
ENDROOT
BRANCH   5   7
HETATM    7  N1  UNL     1     -13.777  24.950   6.378  1.00  0.00    -0.361 N 
ATOM      8  H1  UNL     1     -14.398  24.320   6.885  1.00  0.00     0.162 HD
BRANCH   7   9
HETATM    9  C6  UNL     1     -12.521  25.226   6.946  1.00  0.00     0.029 A 
HETATM   10  C7  UNL     1     -11.521  24.297   6.885  1.00  0.00     0.029 A 
HETATM   11  C8  UNL     1     -10.283  24.547   7.431  1.00  0.00     0.002 A 
HETATM   12  C9  UNL     1     -10.053  25.763   8.054  1.00  0.00     0.000 A 
HETATM   13  C10 UNL     1     -11.059  26.681   8.109  1.00  0.00     0.002 A 
HETATM   14  C11 UNL     1     -12.303  26.427   7.559  1.00  0.00     0.029 A 
ENDBRANCH   7   9
ENDBRANCH   5   7
BRANCH   4  15
HETATM   15  O4  UNL     1     -14.987  23.309   4.470  1.00  0.00    -0.386 OA
ATOM     16  H4  UNL     1     -15.495  22.847   3.812  1.00  0.00     0.210 HD
ENDBRANCH   4  15
BRANCH   3  17
HETATM   17  O3  UNL     1     -16.855  24.512   2.755  1.00  0.00    -0.368 OA
ATOM     18  H3  UNL     1     -16.850  23.640   3.134  1.00  0.00     0.212 HD
ENDBRANCH   3  17
BRANCH   1  19
HETATM   19  C1  UNL     1     -14.424  27.922   3.186  1.00  0.00     0.225 C 
BRANCH  19  20
HETATM   20  O1  UNL     1     -15.091  28.598   2.194  1.00  0.00    -0.396 OA
ATOM     21  H1  UNL     1     -14.498  29.054   1.608  1.00  0.00     0.209 HD
ENDBRANCH  19  20
ENDBRANCH   1  19
TORSDOF 6
ENDMDL
MODEL 3
REMARK VINA RESULT: -5.618051293      1.594      2.226
REMARK  6 active torsions:
REMARK  status: ('A' for Active; 'I' for Inactive)
REMARK    1  A    between atoms: O1_1  and  C1_3 
REMARK    2  A    between atoms: C1_3  and  C2_4 
REMARK    3  A    between atoms: C3_6  and  O3_7 
REMARK    4  A    between atoms: C4_9  and  O4_10 
REMARK    5  A    between atoms: C5_12  and  N1_13 
REMARK    6  A    between atoms: N1_13  and  C6_15 
ROOT
HETATM    1  C2  UNL     1     -14.988  27.424   4.549  1.00  0.00     0.289 C 
HETATM    2  O2  UNL     1     -15.634  26.284   4.213  1.00  0.00    -0.327 OA
HETATM    3  C3  UNL     1     -14.934  25.120   4.333  1.00  0.00     0.292 C 
HETATM    4  C4  UNL     1     -14.397  25.051   5.748  1.00  0.00     0.221 C 
HETATM    5  C5  UNL     1     -13.513  26.259   5.922  1.00  0.00     0.258 C 
HETATM    6  O5  UNL     1     -14.169  27.427   5.616  1.00  0.00    -0.332 OA
ENDROOT
BRANCH   5   7
HETATM    7  N1  UNL     1     -12.961  26.247   7.256  1.00  0.00    -0.361 N 
ATOM      8  H1  UNL     1     -13.039  25.383   7.792  1.00  0.00     0.162 HD
BRANCH   7   9
HETATM    9  C6  UNL     1     -12.323  27.339   7.868  1.00  0.00     0.029 A 
HETATM   10  C7  UNL     1     -13.000  28.117   8.764  1.00  0.00     0.029 A 
HETATM   11  C8  UNL     1     -12.394  29.189   9.378  1.00  0.00     0.002 A 
HETATM   12  C9  UNL     1     -11.073  29.480   9.078  1.00  0.00     0.000 A 
HETATM   13  C10 UNL     1     -10.408  28.697   8.182  1.00  0.00     0.002 A 
HETATM   14  C11 UNL     1     -11.020  27.621   7.566  1.00  0.00     0.029 A 
ENDBRANCH   7   9
ENDBRANCH   5   7
BRANCH   4  15
HETATM   15  O4  UNL     1     -13.749  23.874   6.012  1.00  0.00    -0.386 OA
ATOM     16  H4  UNL     1     -13.184  23.597   5.299  1.00  0.00     0.210 HD
ENDBRANCH   4  15
BRANCH   3  17
HETATM   17  O3  UNL     1     -15.792  24.057   4.097  1.00  0.00    -0.368 OA
ATOM     18  H3  UNL     1     -16.682  24.334   4.285  1.00  0.00     0.212 HD
ENDBRANCH   3  17
BRANCH   1  19
HETATM   19  C1  UNL     1     -14.159  27.860   3.332  1.00  0.00     0.225 C 
BRANCH  19  20
HETATM   20  O1  UNL     1     -14.939  28.391   2.334  1.00  0.00    -0.396 OA
ATOM     21  H1  UNL     1     -15.572  29.017   2.666  1.00  0.00     0.209 HD
ENDBRANCH  19  20
ENDBRANCH   1  19
TORSDOF 6
ENDMDL
MODEL 4
REMARK VINA RESULT: -5.545109501      2.158      2.811
REMARK  6 active torsions:
REMARK  status: ('A' for Active; 'I' for Inactive)
REMARK    1  A    between atoms: O1_1  and  C1_3 
REMARK    2  A    between atoms: C1_3  and  C2_4 
REMARK    3  A    between atoms: C3_6  and  O3_7 
REMARK    4  A    between atoms: C4_9  and  O4_10 
REMARK    5  A    between atoms: C5_12  and  N1_13 
REMARK    6  A    between atoms: N1_13  and  C6_15 
ROOT
HETATM    1  C2  UNL     1     -14.926  27.399   4.798  1.00  0.00     0.289 C 
HETATM    2  O2  UNL     1     -15.511  26.179   4.832  1.00  0.00    -0.327 OA
HETATM    3  C3  UNL     1     -14.689  25.106   5.012  1.00  0.00     0.292 C 
HETATM    4  C4  UNL     1     -13.873  25.358   6.263  1.00  0.00     0.221 C 
HETATM    5  C5  UNL     1     -13.096  26.625   6.010  1.00  0.00     0.258 C 
HETATM    6  O5  UNL     1     -13.913  27.667   5.641  1.00  0.00    -0.332 OA
ENDROOT
BRANCH   5   7
HETATM    7  N1  UNL     1     -12.287  26.918   7.169  1.00  0.00    -0.361 N 
ATOM      8  H1  UNL     1     -11.274  26.861   7.064  1.00  0.00     0.162 HD
BRANCH   7   9
HETATM    9  C6  UNL     1     -12.793  27.275   8.430  1.00  0.00     0.029 A 
HETATM   10  C7  UNL     1     -13.269  28.537   8.647  1.00  0.00     0.029 A 
HETATM   11  C8  UNL     1     -13.773  28.908   9.873  1.00  0.00     0.002 A 
HETATM   12  C9  UNL     1     -13.795  27.980  10.902  1.00  0.00     0.000 A 
HETATM   13  C10 UNL     1     -13.317  26.724  10.673  1.00  0.00     0.002 A 
HETATM   14  C11 UNL     1     -12.811  26.355   9.440  1.00  0.00     0.029 A 
ENDBRANCH   7   9
ENDBRANCH   5   7
BRANCH   4  15
HETATM   15  O4  UNL     1     -13.070  24.299   6.595  1.00  0.00    -0.386 OA
ATOM     16  H4  UNL     1     -13.564  23.517   6.810  1.00  0.00     0.210 HD
ENDBRANCH   4  15
BRANCH   3  17
HETATM   17  O3  UNL     1     -15.467  23.969   5.173  1.00  0.00    -0.368 OA
ATOM     18  H3  UNL     1     -15.532  23.772   6.100  1.00  0.00     0.212 HD
ENDBRANCH   3  17
BRANCH   1  19
HETATM   19  C1  UNL     1     -14.409  27.623   3.370  1.00  0.00     0.225 C 
BRANCH  19  20
HETATM   20  O1  UNL     1     -15.320  28.286   2.584  1.00  0.00    -0.396 OA
ATOM     21  H1  UNL     1     -15.387  27.909   1.715  1.00  0.00     0.209 HD
ENDBRANCH  19  20
ENDBRANCH   1  19
TORSDOF 6
ENDMDL
MODEL 5
REMARK VINA RESULT: -5.197114185      3.404      5.915
REMARK  6 active torsions:
REMARK  status: ('A' for Active; 'I' for Inactive)
REMARK    1  A    between atoms: O1_1  and  C1_3 
REMARK    2  A    between atoms: C1_3  and  C2_4 
REMARK    3  A    between atoms: C3_6  and  O3_7 
REMARK    4  A    between atoms: C4_9  and  O4_10 
REMARK    5  A    between atoms: C5_12  and  N1_13 
REMARK    6  A    between atoms: N1_13  and  C6_15 
ROOT
HETATM    1  C2  UNL     1     -12.385  28.554   9.203  1.00  0.00     0.289 C 
HETATM    2  O2  UNL     1     -12.157  27.671  10.202  1.00  0.00    -0.327 OA
HETATM    3  C3  UNL     1     -12.826  26.485  10.141  1.00  0.00     0.292 C 
HETATM    4  C4  UNL     1     -12.545  25.868   8.787  1.00  0.00     0.221 C 
HETATM    5  C5  UNL     1     -13.050  26.851   7.763  1.00  0.00     0.258 C 
HETATM    6  O5  UNL     1     -12.515  28.104   7.942  1.00  0.00    -0.332 OA
ENDROOT
BRANCH   5   7
HETATM    7  N1  UNL     1     -12.817  26.315   6.443  1.00  0.00    -0.361 N 
ATOM      8  H1  UNL     1     -11.858  26.073   6.194  1.00  0.00     0.162 HD
BRANCH   7   9
HETATM    9  C6  UNL     1     -13.816  26.104   5.477  1.00  0.00     0.029 A 
HETATM   10  C7  UNL     1     -14.342  24.856   5.295  1.00  0.00     0.029 A 
HETATM   11  C8  UNL     1     -15.323  24.626   4.358  1.00  0.00     0.002 A 
HETATM   12  C9  UNL     1     -15.781  25.683   3.587  1.00  0.00     0.000 A 
HETATM   13  C10 UNL     1     -15.247  26.922   3.778  1.00  0.00     0.002 A 
HETATM   14  C11 UNL     1     -14.261  27.150   4.720  1.00  0.00     0.029 A 
ENDBRANCH   7   9
ENDBRANCH   5   7
BRANCH   4  15
HETATM   15  O4  UNL     1     -13.097  24.622   8.646  1.00  0.00    -0.386 OA
ATOM     16  H4  UNL     1     -12.751  24.149   7.898  1.00  0.00     0.210 HD
ENDBRANCH   4  15
BRANCH   3  17
HETATM   17  O3  UNL     1     -12.358  25.655  11.149  1.00  0.00    -0.368 OA
ATOM     18  H3  UNL     1     -12.718  25.947  11.978  1.00  0.00     0.212 HD
ENDBRANCH   3  17
BRANCH   1  19
HETATM   19  C1  UNL     1     -13.669  29.323   9.552  1.00  0.00     0.225 C 
BRANCH  19  20
HETATM   20  O1  UNL     1     -13.509  30.682   9.438  1.00  0.00    -0.396 OA
ATOM     21  H1  UNL     1     -14.199  31.164   9.880  1.00  0.00     0.209 HD
ENDBRANCH  19  20
ENDBRANCH   1  19
TORSDOF 6
ENDMDL
