MODEL 1
REMARK VINA RESULT: -4.208785599      0.000      0.000
REMARK  10 active torsions:
REMARK  status: ('A' for Active; 'I' for Inactive)
REMARK    1  A    between atoms: C2_2  and  C4_4 
REMARK    2  A    between atoms: C4_4  and  N1_5 
REMARK    3  A    between atoms: N1_5  and  N2_7 
REMARK    4  A    between atoms: N2_7  and  N3_8 
REMARK    5  A    between atoms: C5_11  and  O1_12 
REMARK    6  A    between atoms: C6_14  and  O2_15 
REMARK    7  A    between atoms: C7_17  and  O3_18 
REMARK    8  A    between atoms: C8_20  and  C9_21 
REMARK    9  A    between atoms: C9_21  and  O4_22 
REMARK   10  A    between atoms: N4_24  and  O5_26 
ROOT
HETATM    1  C4  UNL     1      -9.273  19.575   9.289  1.00  0.00     0.104 C 
HETATM    2  C5  UNL     1      -9.807  18.184   9.527  1.00  0.00     0.181 C 
HETATM    3  C6  UNL     1     -10.798  18.247  10.657  1.00  0.00     0.179 C 
HETATM    4  C7  UNL     1     -11.176  19.702  10.806  1.00  0.00     0.164 C 
HETATM    5  C8  UNL     1      -9.976  20.476  10.237  1.00  0.00     0.127 C 
ENDROOT
BRANCH   1   6
HETATM    6  C2  UNL     1      -7.773  19.534   9.516  1.00  0.00     0.012 C 
HETATM    7  C1  UNL     1      -7.349  20.043  10.850  1.00  0.00     0.012 C 
HETATM    8  C3  UNL     1      -7.017  20.267   8.429  1.00  0.00     0.012 C 
ENDBRANCH   1   6
BRANCH   1   9
HETATM    9  N1  UNL     1      -9.457  19.925   7.893  1.00  0.00    -0.239 N 
ATOM     10  H1  UNL     1      -8.769  20.544   7.464  1.00  0.00     0.198 HD
BRANCH   9  11
HETATM   11  N2  UNL     1     -10.375  19.531   7.202  1.00  0.00    -0.248 NA
BRANCH  11  12
HETATM   12  N3  UNL     1     -11.375  19.397   6.497  1.00  0.00    -0.261 N 
ATOM     13  H32 UNL     1     -11.990  19.573   7.292  1.00  0.00     0.193 HD
ATOM     14  H31 UNL     1     -12.052  19.248   5.748  1.00  0.00     0.193 HD
ENDBRANCH  11  12
ENDBRANCH   9  11
ENDBRANCH   1   9
BRANCH   2  15
HETATM   15  O1  UNL     1      -8.789  17.318   9.921  1.00  0.00    -0.390 OA
ATOM     16  H1  UNL     1      -8.134  17.774  10.436  1.00  0.00     0.210 HD
ENDBRANCH   2  15
BRANCH   5  17
HETATM   17  C9  UNL     1     -10.547  21.685   9.619  1.00  0.00     0.144 C 
HETATM   18  N4  UNL     1     -10.103  22.828   9.972  1.00  0.00    -0.251 N 
ATOM     19  H4  UNL     1     -10.525  23.639   9.519  1.00  0.00     0.196 HD
BRANCH  17  20
HETATM   20  O4  UNL     1     -11.543  21.617   8.674  1.00  0.00    -0.348 OA
ATOM     21  H4  UNL     1     -12.076  22.371   8.451  1.00  0.00     0.219 HD
ENDBRANCH  17  20
BRANCH  18  22
HETATM   22  O5  UNL     1      -9.135  23.080  10.882  1.00  0.00    -0.288 OA
ATOM     23  H5  UNL     1      -8.356  22.561  11.046  1.00  0.00     0.244 HD
ENDBRANCH  18  22
ENDBRANCH   5  17
BRANCH   3  24
HETATM   24  O2  UNL     1     -11.926  17.459  10.419  1.00  0.00    -0.390 OA
ATOM     25  H2  UNL     1     -12.250  17.549   9.531  1.00  0.00     0.210 HD
ENDBRANCH   3  24
BRANCH   4  26
HETATM   26  O3  UNL     1     -12.336  19.967  10.104  1.00  0.00    -0.392 OA
ATOM     27  H3  UNL     1     -12.127  20.269   9.228  1.00  0.00     0.210 HD
ENDBRANCH   4  26
TORSDOF 10
ENDMDL
MODEL 2
REMARK VINA RESULT: -4.173087954      2.018      3.890
REMARK  10 active torsions:
REMARK  status: ('A' for Active; 'I' for Inactive)
REMARK    1  A    between atoms: C2_2  and  C4_4 
REMARK    2  A    between atoms: C4_4  and  N1_5 
REMARK    3  A    between atoms: N1_5  and  N2_7 
REMARK    4  A    between atoms: N2_7  and  N3_8 
REMARK    5  A    between atoms: C5_11  and  O1_12 
REMARK    6  A    between atoms: C6_14  and  O2_15 
REMARK    7  A    between atoms: C7_17  and  O3_18 
REMARK    8  A    between atoms: C8_20  and  C9_21 
REMARK    9  A    between atoms: C9_21  and  O4_22 
REMARK   10  A    between atoms: N4_24  and  O5_26 
ROOT
HETATM    1  C4  UNL     1     -10.251  20.052  10.326  1.00  0.00     0.104 C 
HETATM    2  C5  UNL     1      -8.919  20.249   9.645  1.00  0.00     0.181 C 
HETATM    3  C6  UNL     1      -7.943  19.262  10.225  1.00  0.00     0.179 C 
HETATM    4  C7  UNL     1      -8.772  18.210  10.923  1.00  0.00     0.164 C 
HETATM    5  C8  UNL     1     -10.089  18.921  11.273  1.00  0.00     0.127 C 
ENDROOT
BRANCH   1   6
HETATM    6  C2  UNL     1     -10.608  21.355  11.019  1.00  0.00     0.012 C 
HETATM    7  C1  UNL     1     -10.600  21.271  12.505  1.00  0.00     0.012 C 
HETATM    8  C3  UNL     1     -11.938  21.899  10.547  1.00  0.00     0.012 C 
ENDBRANCH   1   6
BRANCH   1   9
HETATM    9  N1  UNL     1     -11.275  19.840   9.320  1.00  0.00    -0.239 N 
ATOM     10  H1  UNL     1     -12.249  19.860   9.622  1.00  0.00     0.198 HD
BRANCH   9  11
HETATM   11  N2  UNL     1     -11.050  19.640   8.144  1.00  0.00    -0.248 NA
BRANCH  11  12
HETATM   12  N3  UNL     1     -11.091  19.380   6.941  1.00  0.00    -0.261 N 
ATOM     13  H32 UNL     1     -11.421  18.433   7.131  1.00  0.00     0.193 HD
ATOM     14  H31 UNL     1     -11.051  19.378   5.921  1.00  0.00     0.193 HD
ENDBRANCH  11  12
ENDBRANCH   9  11
ENDBRANCH   1   9
BRANCH   2  15
HETATM   15  O1  UNL     1      -8.412  21.523   9.895  1.00  0.00    -0.390 OA
ATOM     16  H1  UNL     1      -7.702  21.731   9.300  1.00  0.00     0.210 HD
ENDBRANCH   2  15
BRANCH   5  17
HETATM   17  C9  UNL     1     -11.132  17.886  11.171  1.00  0.00     0.144 C 
HETATM   18  N4  UNL     1     -11.568  17.340  12.239  1.00  0.00    -0.251 N 
ATOM     19  H4  UNL     1     -12.291  16.629  12.124  1.00  0.00     0.196 HD
BRANCH  17  20
HETATM   20  O4  UNL     1     -11.649  17.493   9.960  1.00  0.00    -0.348 OA
ATOM     21  H4  UNL     1     -12.388  16.898   9.898  1.00  0.00     0.219 HD
ENDBRANCH  17  20
BRANCH  18  22
HETATM   22  O5  UNL     1     -11.175  17.601  13.506  1.00  0.00    -0.288 OA
ATOM     23  H5  UNL     1     -11.461  17.158  14.297  1.00  0.00     0.244 HD
ENDBRANCH  18  22
ENDBRANCH   5  17
BRANCH   3  24
HETATM   24  O2  UNL     1      -7.124  18.689   9.250  1.00  0.00    -0.390 OA
ATOM     25  H2  UNL     1      -6.248  18.512   9.571  1.00  0.00     0.210 HD
ENDBRANCH   3  24
BRANCH   4  26
HETATM   26  O3  UNL     1      -8.980  17.132  10.082  1.00  0.00    -0.392 OA
ATOM     27  H3  UNL     1      -9.764  16.663  10.340  1.00  0.00     0.210 HD
ENDBRANCH   4  26
TORSDOF 10
ENDMDL
MODEL 3
REMARK VINA RESULT: -4.154468832      7.181      8.618
REMARK  10 active torsions:
REMARK  status: ('A' for Active; 'I' for Inactive)
REMARK    1  A    between atoms: C2_2  and  C4_4 
REMARK    2  A    between atoms: C4_4  and  N1_5 
REMARK    3  A    between atoms: N1_5  and  N2_7 
REMARK    4  A    between atoms: N2_7  and  N3_8 
REMARK    5  A    between atoms: C5_11  and  O1_12 
REMARK    6  A    between atoms: C6_14  and  O2_15 
REMARK    7  A    between atoms: C7_17  and  O3_18 
REMARK    8  A    between atoms: C8_20  and  C9_21 
REMARK    9  A    between atoms: C9_21  and  O4_22 
REMARK   10  A    between atoms: N4_24  and  O5_26 
ROOT
HETATM    1  C4  UNL     1     -12.109  27.827   9.185  1.00  0.00     0.104 C 
HETATM    2  C5  UNL     1     -12.355  26.447   9.747  1.00  0.00     0.181 C 
HETATM    3  C6  UNL     1     -13.187  26.588  10.992  1.00  0.00     0.179 C 
HETATM    4  C7  UNL     1     -13.792  27.971  10.941  1.00  0.00     0.164 C 
HETATM    5  C8  UNL     1     -12.831  28.784  10.060  1.00  0.00     0.127 C 
ENDROOT
BRANCH   1   6
HETATM    6  C2  UNL     1     -10.608  28.055   9.173  1.00  0.00     0.012 C 
HETATM    7  C1  UNL     1     -10.134  29.009  10.213  1.00  0.00     0.012 C 
HETATM    8  C3  UNL     1     -10.116  28.499   7.813  1.00  0.00     0.012 C 
ENDBRANCH   1   6
BRANCH   1   9
HETATM    9  N1  UNL     1     -12.530  27.859   7.797  1.00  0.00    -0.239 N 
ATOM     10  H1  UNL     1     -12.402  28.730   7.282  1.00  0.00     0.198 HD
BRANCH   9  11
HETATM   11  N2  UNL     1     -13.024  26.919   7.208  1.00  0.00    -0.248 NA
BRANCH  11  12
HETATM   12  N3  UNL     1     -13.370  26.055   6.402  1.00  0.00    -0.261 N 
ATOM     13  H32 UNL     1     -12.468  25.584   6.483  1.00  0.00     0.193 HD
ATOM     14  H31 UNL     1     -13.850  25.457   5.729  1.00  0.00     0.193 HD
ENDBRANCH  11  12
ENDBRANCH   9  11
ENDBRANCH   1   9
BRANCH   2  15
HETATM   15  O1  UNL     1     -11.157  25.839  10.119  1.00  0.00    -0.390 OA
ATOM     16  H1  UNL     1     -10.727  26.327  10.812  1.00  0.00     0.210 HD
ENDBRANCH   2  15
BRANCH   5  17
HETATM   17  C9  UNL     1     -13.681  29.747   9.339  1.00  0.00     0.144 C 
HETATM   18  N4  UNL     1     -13.553  30.993   9.586  1.00  0.00    -0.251 N 
ATOM     19  H4  UNL     1     -14.159  31.625   9.064  1.00  0.00     0.196 HD
BRANCH  17  20
HETATM   20  O4  UNL     1     -14.607  29.343   8.407  1.00  0.00    -0.348 OA
ATOM     21  H4  UNL     1     -15.334  29.897   8.147  1.00  0.00     0.219 HD
ENDBRANCH  17  20
BRANCH  18  22
HETATM   22  O5  UNL     1     -12.700  31.563  10.467  1.00  0.00    -0.288 OA
ATOM     23  H5  UNL     1     -12.687  32.473  10.743  1.00  0.00     0.244 HD
ENDBRANCH  18  22
ENDBRANCH   5  17
BRANCH   3  24
HETATM   24  O2  UNL     1     -14.180  25.610  11.081  1.00  0.00    -0.390 OA
ATOM     25  H2  UNL     1     -15.001  25.957  11.409  1.00  0.00     0.210 HD
ENDBRANCH   3  24
BRANCH   4  26
HETATM   26  O3  UNL     1     -15.062  27.915  10.399  1.00  0.00    -0.392 OA
ATOM     27  H3  UNL     1     -15.660  27.500  11.009  1.00  0.00     0.210 HD
ENDBRANCH   4  26
TORSDOF 10
ENDMDL
MODEL 4
REMARK VINA RESULT: -4.008125606      2.091      3.477
REMARK  10 active torsions:
REMARK  status: ('A' for Active; 'I' for Inactive)
REMARK    1  A    between atoms: C2_2  and  C4_4 
REMARK    2  A    between atoms: C4_4  and  N1_5 
REMARK    3  A    between atoms: N1_5  and  N2_7 
REMARK    4  A    between atoms: N2_7  and  N3_8 
REMARK    5  A    between atoms: C5_11  and  O1_12 
REMARK    6  A    between atoms: C6_14  and  O2_15 
REMARK    7  A    between atoms: C7_17  and  O3_18 
REMARK    8  A    between atoms: C8_20  and  C9_21 
REMARK    9  A    between atoms: C9_21  and  O4_22 
REMARK   10  A    between atoms: N4_24  and  O5_26 
ROOT
HETATM    1  C4  UNL     1      -9.014  19.833   9.885  1.00  0.00     0.104 C 
HETATM    2  C5  UNL     1      -9.147  19.901  11.387  1.00  0.00     0.181 C 
HETATM    3  C6  UNL     1     -10.600  19.735  11.738  1.00  0.00     0.179 C 
HETATM    4  C7  UNL     1     -11.266  19.148  10.515  1.00  0.00     0.164 C 
HETATM    5  C8  UNL     1     -10.372  19.577   9.342  1.00  0.00     0.127 C 
ENDROOT
BRANCH   1   6
HETATM    6  C2  UNL     1      -8.430  21.153   9.418  1.00  0.00     0.012 C 
HETATM    7  C1  UNL     1      -9.425  22.068   8.794  1.00  0.00     0.012 C 
HETATM    8  C3  UNL     1      -7.264  20.952   8.475  1.00  0.00     0.012 C 
ENDBRANCH   1   6
BRANCH   1   9
HETATM    9  N1  UNL     1      -8.037  18.818   9.538  1.00  0.00    -0.239 N 
ATOM     10  H1  UNL     1      -7.534  18.923   8.657  1.00  0.00     0.198 HD
BRANCH   9  11
HETATM   11  N2  UNL     1      -7.777  17.851  10.226  1.00  0.00    -0.248 NA
BRANCH  11  12
HETATM   12  N3  UNL     1      -7.760  16.782  10.837  1.00  0.00    -0.261 N 
ATOM     13  H32 UNL     1      -7.346  16.303  10.037  1.00  0.00     0.193 HD
ATOM     14  H31 UNL     1      -7.837  16.020  11.511  1.00  0.00     0.193 HD
ENDBRANCH  11  12
ENDBRANCH   9  11
ENDBRANCH   1   9
BRANCH   2  15
HETATM   15  O1  UNL     1      -8.748  21.146  11.869  1.00  0.00    -0.390 OA
ATOM     16  H1  UNL     1      -8.255  21.057  12.676  1.00  0.00     0.210 HD
ENDBRANCH   2  15
BRANCH   5  17
HETATM   17  C9  UNL     1     -10.441  18.472   8.371  1.00  0.00     0.144 C 
HETATM   18  N4  UNL     1     -10.873  18.709   7.193  1.00  0.00    -0.251 N 
ATOM     19  H4  UNL     1     -10.904  17.917   6.552  1.00  0.00     0.196 HD
BRANCH  17  20
HETATM   20  O4  UNL     1     -10.055  17.194   8.696  1.00  0.00    -0.348 OA
ATOM     21  H4  UNL     1      -9.140  16.953   8.785  1.00  0.00     0.219 HD
ENDBRANCH  17  20
BRANCH  18  22
HETATM   22  O5  UNL     1     -11.294  19.898   6.705  1.00  0.00    -0.288 OA
ATOM     23  H5  UNL     1     -12.158  20.282   6.800  1.00  0.00     0.244 HD
ENDBRANCH  18  22
ENDBRANCH   5  17
BRANCH   3  24
HETATM   24  O2  UNL     1     -10.788  18.914  12.852  1.00  0.00    -0.390 OA
ATOM     25  H2  UNL     1      -9.978  18.746  13.319  1.00  0.00     0.210 HD
ENDBRANCH   3  24
BRANCH   4  26
HETATM   26  O3  UNL     1     -11.338  17.772  10.628  1.00  0.00    -0.392 OA
ATOM     27  H3  UNL     1     -10.485  17.386  10.471  1.00  0.00     0.210 HD
ENDBRANCH   4  26
TORSDOF 10
ENDMDL
MODEL 5
REMARK VINA RESULT: -3.838550870      2.283      3.849
REMARK  10 active torsions:
REMARK  status: ('A' for Active; 'I' for Inactive)
REMARK    1  A    between atoms: C2_2  and  C4_4 
REMARK    2  A    between atoms: C4_4  and  N1_5 
REMARK    3  A    between atoms: N1_5  and  N2_7 
REMARK    4  A    between atoms: N2_7  and  N3_8 
REMARK    5  A    between atoms: C5_11  and  O1_12 
REMARK    6  A    between atoms: C6_14  and  O2_15 
REMARK    7  A    between atoms: C7_17  and  O3_18 
REMARK    8  A    between atoms: C8_20  and  C9_21 
REMARK    9  A    between atoms: C9_21  and  O4_22 
REMARK   10  A    between atoms: N4_24  and  O5_26 
ROOT
HETATM    1  C4  UNL     1      -9.743  20.260   9.934  1.00  0.00     0.104 C 
HETATM    2  C5  UNL     1     -10.295  20.650   8.584  1.00  0.00     0.181 C 
HETATM    3  C6  UNL     1     -10.169  19.467   7.664  1.00  0.00     0.179 C 
HETATM    4  C7  UNL     1      -9.951  18.264   8.551  1.00  0.00     0.164 C 
HETATM    5  C8  UNL     1      -9.335  18.835   9.838  1.00  0.00     0.127 C 
ENDROOT
BRANCH   1   6
HETATM    6  C2  UNL     1      -8.581  21.187  10.239  1.00  0.00     0.012 C 
HETATM    7  C1  UNL     1      -7.246  20.536  10.142  1.00  0.00     0.012 C 
HETATM    8  C3  UNL     1      -8.728  21.849  11.592  1.00  0.00     0.012 C 
ENDBRANCH   1   6
BRANCH   1   9
HETATM    9  N1  UNL     1     -10.743  20.522  10.952  1.00  0.00    -0.239 N 
ATOM     10  H1  UNL     1     -10.545  20.211  11.904  1.00  0.00     0.198 HD
BRANCH   9  11
HETATM   11  N2  UNL     1     -11.799  21.086  10.748  1.00  0.00    -0.248 NA
BRANCH  11  12
HETATM   12  N3  UNL     1     -12.739  21.875  10.647  1.00  0.00    -0.261 N 
ATOM     13  H32 UNL     1     -13.303  21.325  11.297  1.00  0.00     0.193 HD
ATOM     14  H31 UNL     1     -13.378  22.637  10.421  1.00  0.00     0.193 HD
ENDBRANCH  11  12
ENDBRANCH   9  11
ENDBRANCH   1   9
BRANCH   2  15
HETATM   15  O1  UNL     1      -9.554  21.689   8.022  1.00  0.00    -0.390 OA
ATOM     16  H1  UNL     1      -8.816  21.352   7.528  1.00  0.00     0.210 HD
ENDBRANCH   2  15
BRANCH   5  17
HETATM   17  C9  UNL     1      -9.841  17.982  10.927  1.00  0.00     0.144 C 
HETATM   18  N4  UNL     1      -9.082  17.073  11.404  1.00  0.00    -0.251 N 
ATOM     19  H4  UNL     1      -9.470  16.506  12.158  1.00  0.00     0.196 HD
BRANCH  17  20
HETATM   20  O4  UNL     1     -11.105  18.137  11.445  1.00  0.00    -0.348 OA
ATOM     21  H4  UNL     1     -11.250  18.433  12.336  1.00  0.00     0.219 HD
ENDBRANCH  17  20
BRANCH  18  22
HETATM   22  O5  UNL     1      -7.819  16.782  11.017  1.00  0.00    -0.288 OA
ATOM     23  H5  UNL     1      -7.471  15.925  10.800  1.00  0.00     0.244 HD
ENDBRANCH  18  22
ENDBRANCH   5  17
BRANCH   3  24
HETATM   24  O2  UNL     1     -11.298  19.297   6.859  1.00  0.00    -0.390 OA
ATOM     25  H2  UNL     1     -12.092  19.191   7.369  1.00  0.00     0.210 HD
ENDBRANCH   3  24
BRANCH   4  26
HETATM   26  O3  UNL     1     -11.154  17.630   8.797  1.00  0.00    -0.392 OA
ATOM     27  H3  UNL     1     -11.238  17.435   9.723  1.00  0.00     0.210 HD
ENDBRANCH   4  26
TORSDOF 10
ENDMDL
