MODEL 1
REMARK VINA RESULT: -5.216020639      0.000      0.000
REMARK  6 active torsions:
REMARK  status: ('A' for Active; 'I' for Inactive)
REMARK    1  A    between atoms: C5_5  and  C6_6 
REMARK    2  A    between atoms: N1_7  and  N2_9 
REMARK    3  A    between atoms: N2_9  and  C7_11 
REMARK    4  A    between atoms: C9_14  and  O2_15 
REMARK    5  A    between atoms: C10_17  and  O3_18 
REMARK    6  A    between atoms: C11_20  and  O4_21 
ROOT
HETATM    1  C7  UNL     1     -12.475  27.158   8.957  1.00  0.00     0.154 C 
HETATM    2  C8  UNL     1     -12.488  25.981   9.908  1.00  0.00     0.200 C 
HETATM    3  O1  UNL     1     -12.088  26.503  11.152  1.00  0.00    -0.357 OA
HETATM    4  C9  UNL     1     -13.220  27.084  11.706  1.00  0.00     0.288 C 
HETATM    5  C10 UNL     1     -13.920  28.037  10.814  1.00  0.00     0.204 C 
HETATM    6  C11 UNL     1     -13.313  28.260   9.483  1.00  0.00     0.177 C 
ENDROOT
BRANCH   1   7
HETATM    7  N2  UNL     1     -12.875  26.673   7.655  1.00  0.00    -0.327 N 
ATOM      8  H2  UNL     1     -13.177  27.320   6.927  1.00  0.00     0.180 HD
BRANCH   7   9
HETATM    9  N1  UNL     1     -12.839  25.319   7.422  1.00  0.00    -0.313 N 
HETATM   10  C6  UNL     1     -13.358  24.629   6.508  1.00  0.00     0.143 C 
ATOM     11  H1  UNL     1     -12.301  24.784   8.105  1.00  0.00     0.185 HD
BRANCH  10  12
HETATM   12  C5  UNL     1     -14.166  25.159   5.425  1.00  0.00     0.092 A 
HETATM   13  C4  UNL     1     -15.194  24.579   4.715  1.00  0.00     0.041 A 
HETATM   14  C3  UNL     1     -15.653  25.494   3.770  1.00  0.00     0.035 A 
HETATM   15  C2  UNL     1     -14.864  26.605   3.959  1.00  0.00     0.050 A 
HETATM   16  C1  UNL     1     -14.977  27.876   3.166  1.00  0.00     0.076 C 
HETATM   17  O5  UNL     1     -14.022  26.376   4.916  1.00  0.00    -0.314 OA
ENDBRANCH  10  12
ENDBRANCH   7   9
ENDBRANCH   1   7
BRANCH   6  18
HETATM   18  O4  UNL     1     -12.544  29.445   9.483  1.00  0.00    -0.391 OA
ATOM     19  H4  UNL     1     -11.726  29.272   9.932  1.00  0.00     0.210 HD
ENDBRANCH   6  18
BRANCH   5  20
HETATM   20  O3  UNL     1     -15.262  27.647  10.659  1.00  0.00    -0.388 OA
ATOM     21  H3  UNL     1     -15.616  28.020   9.862  1.00  0.00     0.210 HD
ENDBRANCH   5  20
BRANCH   4  22
HETATM   22  O2  UNL     1     -14.078  26.017  12.049  1.00  0.00    -0.369 OA
ATOM     23  H2  UNL     1     -14.938  26.259  11.727  1.00  0.00     0.212 HD
ENDBRANCH   4  22
TORSDOF 6
ENDMDL
MODEL 2
REMARK VINA RESULT: -5.191047605      6.516      8.548
REMARK  6 active torsions:
REMARK  status: ('A' for Active; 'I' for Inactive)
REMARK    1  A    between atoms: C5_5  and  C6_6 
REMARK    2  A    between atoms: N1_7  and  N2_9 
REMARK    3  A    between atoms: N2_9  and  C7_11 
REMARK    4  A    between atoms: C9_14  and  O2_15 
REMARK    5  A    between atoms: C10_17  and  O3_18 
REMARK    6  A    between atoms: C11_20  and  O4_21 
ROOT
HETATM    1  C7  UNL     1     -11.187  21.322   9.579  1.00  0.00     0.154 C 
HETATM    2  C8  UNL     1     -12.207  22.077  10.403  1.00  0.00     0.200 C 
HETATM    3  O1  UNL     1     -11.613  23.322  10.681  1.00  0.00    -0.357 OA
HETATM    4  C9  UNL     1     -11.810  24.102   9.550  1.00  0.00     0.288 C 
HETATM    5  C10 UNL     1     -11.384  23.464   8.283  1.00  0.00     0.204 C 
HETATM    6  C11 UNL     1     -10.788  22.114   8.394  1.00  0.00     0.177 C 
ENDROOT
BRANCH   1   7
HETATM    7  N2  UNL     1     -11.748  20.025   9.269  1.00  0.00    -0.327 N 
ATOM      8  H2  UNL     1     -12.517  19.645   9.819  1.00  0.00     0.180 HD
BRANCH   7   9
HETATM    9  N1  UNL     1     -11.218  19.318   8.216  1.00  0.00    -0.313 N 
HETATM   10  C6  UNL     1     -10.286  18.475   8.180  1.00  0.00     0.143 C 
ATOM     11  H1  UNL     1     -11.653  19.510   7.314  1.00  0.00     0.185 HD
BRANCH  10  12
HETATM   12  C5  UNL     1      -9.515  18.039   9.330  1.00  0.00     0.092 A 
HETATM   13  C4  UNL     1      -8.191  17.673   9.428  1.00  0.00     0.041 A 
HETATM   14  C3  UNL     1      -7.920  17.331  10.752  1.00  0.00     0.035 A 
HETATM   15  C2  UNL     1      -9.120  17.512  11.403  1.00  0.00     0.050 A 
HETATM   16  C1  UNL     1      -9.339  17.268  12.868  1.00  0.00     0.076 C 
HETATM   17  O5  UNL     1     -10.011  17.918  10.555  1.00  0.00    -0.314 OA
ENDBRANCH  10  12
ENDBRANCH   7   9
ENDBRANCH   1   7
BRANCH   6  18
HETATM   18  O4  UNL     1      -9.379  22.192   8.362  1.00  0.00    -0.391 OA
ATOM     19  H4  UNL     1      -9.132  23.012   7.950  1.00  0.00     0.210 HD
ENDBRANCH   6  18
BRANCH   5  20
HETATM   20  O3  UNL     1     -12.462  23.430   7.380  1.00  0.00    -0.388 OA
ATOM     21  H3  UNL     1     -12.473  22.598   6.923  1.00  0.00     0.210 HD
ENDBRANCH   5  20
BRANCH   4  22
HETATM   22  O2  UNL     1     -13.192  24.390   9.510  1.00  0.00    -0.369 OA
ATOM     23  H2  UNL     1     -13.269  25.324   9.663  1.00  0.00     0.212 HD
ENDBRANCH   4  22
TORSDOF 6
ENDMDL
MODEL 3
REMARK VINA RESULT: -5.144355012      4.814      6.093
REMARK  6 active torsions:
REMARK  status: ('A' for Active; 'I' for Inactive)
REMARK    1  A    between atoms: C5_5  and  C6_6 
REMARK    2  A    between atoms: N1_7  and  N2_9 
REMARK    3  A    between atoms: N2_9  and  C7_11 
REMARK    4  A    between atoms: C9_14  and  O2_15 
REMARK    5  A    between atoms: C10_17  and  O3_18 
REMARK    6  A    between atoms: C11_20  and  O4_21 
ROOT
HETATM    1  C7  UNL     1     -10.568  21.680   8.378  1.00  0.00     0.154 C 
HETATM    2  C8  UNL     1     -10.597  20.482   7.454  1.00  0.00     0.200 C 
HETATM    3  O1  UNL     1      -9.547  19.652   7.887  1.00  0.00    -0.357 OA
HETATM    4  C9  UNL     1     -10.040  18.946   8.975  1.00  0.00     0.288 C 
HETATM    5  C10 UNL     1     -10.659  19.787  10.025  1.00  0.00     0.204 C 
HETATM    6  C11 UNL     1     -10.642  21.248   9.791  1.00  0.00     0.177 C 
ENDROOT
BRANCH   1   7
HETATM    7  N2  UNL     1     -11.630  22.573   7.970  1.00  0.00    -0.327 N 
ATOM      8  H2  UNL     1     -12.118  22.434   7.085  1.00  0.00     0.180 HD
BRANCH   7   9
HETATM    9  N1  UNL     1     -11.966  23.614   8.803  1.00  0.00    -0.313 N 
HETATM   10  C6  UNL     1     -12.564  24.694   8.567  1.00  0.00     0.143 C 
ATOM     11  H1  UNL     1     -11.682  23.488   9.775  1.00  0.00     0.185 HD
BRANCH  10  12
HETATM   12  C5  UNL     1     -13.063  25.100   7.265  1.00  0.00     0.092 A 
HETATM   13  C4  UNL     1     -12.790  26.223   6.517  1.00  0.00     0.041 A 
HETATM   14  C3  UNL     1     -13.520  26.158   5.332  1.00  0.00     0.035 A 
HETATM   15  C2  UNL     1     -14.213  24.972   5.424  1.00  0.00     0.050 A 
HETATM   16  C1  UNL     1     -15.152  24.451   4.374  1.00  0.00     0.076 C 
HETATM   17  O5  UNL     1     -13.926  24.393   6.546  1.00  0.00    -0.314 OA
ENDBRANCH  10  12
ENDBRANCH   7   9
ENDBRANCH   1   7
BRANCH   6  18
HETATM   18  O4  UNL     1      -9.579  21.850  10.499  1.00  0.00    -0.391 OA
ATOM     19  H4  UNL     1      -9.866  22.016  11.389  1.00  0.00     0.210 HD
ENDBRANCH   6  18
BRANCH   5  20
HETATM   20  O3  UNL     1     -11.979  19.363  10.259  1.00  0.00    -0.388 OA
ATOM     21  H3  UNL     1     -12.453  20.033  10.736  1.00  0.00     0.210 HD
ENDBRANCH   5  20
BRANCH   4  22
HETATM   22  O2  UNL     1     -10.990  18.040   8.453  1.00  0.00    -0.369 OA
ATOM     23  H2  UNL     1     -11.218  17.459   9.169  1.00  0.00     0.212 HD
ENDBRANCH   4  22
TORSDOF 6
ENDMDL
MODEL 4
REMARK VINA RESULT: -5.143527010      2.108      6.160
REMARK  6 active torsions:
REMARK  status: ('A' for Active; 'I' for Inactive)
REMARK    1  A    between atoms: C5_5  and  C6_6 
REMARK    2  A    between atoms: N1_7  and  N2_9 
REMARK    3  A    between atoms: N2_9  and  C7_11 
REMARK    4  A    between atoms: C9_14  and  O2_15 
REMARK    5  A    between atoms: C10_17  and  O3_18 
REMARK    6  A    between atoms: C11_20  and  O4_21 
ROOT
HETATM    1  C7  UNL     1     -14.340  25.659   5.330  1.00  0.00     0.154 C 
HETATM    2  C8  UNL     1     -14.915  24.388   4.743  1.00  0.00     0.200 C 
HETATM    3  O1  UNL     1     -16.305  24.598   4.689  1.00  0.00    -0.357 OA
HETATM    4  C9  UNL     1     -16.535  25.343   3.541  1.00  0.00     0.288 C 
HETATM    5  C10 UNL     1     -15.703  26.564   3.424  1.00  0.00     0.204 C 
HETATM    6  C11 UNL     1     -14.774  26.836   4.543  1.00  0.00     0.177 C 
ENDROOT
BRANCH   1   7
HETATM    7  N2  UNL     1     -12.906  25.493   5.415  1.00  0.00    -0.327 N 
ATOM      8  H2  UNL     1     -12.291  25.895   4.707  1.00  0.00     0.180 HD
BRANCH   7   9
HETATM    9  N1  UNL     1     -12.392  24.781   6.472  1.00  0.00    -0.313 N 
HETATM   10  C6  UNL     1     -12.019  25.159   7.612  1.00  0.00     0.143 C 
ATOM     11  H1  UNL     1     -12.298  23.779   6.304  1.00  0.00     0.185 HD
BRANCH  10  12
HETATM   12  C5  UNL     1     -12.055  26.531   8.085  1.00  0.00     0.092 A 
HETATM   13  C4  UNL     1     -11.029  27.416   8.328  1.00  0.00     0.041 A 
HETATM   14  C3  UNL     1     -11.574  28.618   8.775  1.00  0.00     0.035 A 
HETATM   15  C2  UNL     1     -12.933  28.395   8.780  1.00  0.00     0.050 A 
HETATM   16  C1  UNL     1     -13.961  29.409   9.192  1.00  0.00     0.076 C 
HETATM   17  O5  UNL     1     -13.171  27.187   8.379  1.00  0.00    -0.314 OA
ENDBRANCH  10  12
ENDBRANCH   7   9
ENDBRANCH   1   7
BRANCH   6  18
HETATM   18  O4  UNL     1     -15.331  27.785   5.428  1.00  0.00    -0.391 OA
ATOM     19  H4  UNL     1     -15.341  28.630   4.995  1.00  0.00     0.210 HD
ENDBRANCH   6  18
BRANCH   5  20
HETATM   20  O3  UNL     1     -14.988  26.539   2.214  1.00  0.00    -0.388 OA
ATOM     21  H3  UNL     1     -14.099  26.242   2.371  1.00  0.00     0.210 HD
ENDBRANCH   5  20
BRANCH   4  22
HETATM   22  O2  UNL     1     -16.283  24.476   2.456  1.00  0.00    -0.369 OA
ATOM     23  H2  UNL     1     -16.243  25.028   1.683  1.00  0.00     0.212 HD
ENDBRANCH   4  22
TORSDOF 6
ENDMDL
MODEL 5
REMARK VINA RESULT: -5.138725240      1.404      2.418
REMARK  6 active torsions:
REMARK  status: ('A' for Active; 'I' for Inactive)
REMARK    1  A    between atoms: C5_5  and  C6_6 
REMARK    2  A    between atoms: N1_7  and  N2_9 
REMARK    3  A    between atoms: N2_9  and  C7_11 
REMARK    4  A    between atoms: C9_14  and  O2_15 
REMARK    5  A    between atoms: C10_17  and  O3_18 
REMARK    6  A    between atoms: C11_20  and  O4_21 
ROOT
HETATM    1  C7  UNL     1     -13.418  28.719   9.455  1.00  0.00     0.154 C 
HETATM    2  C8  UNL     1     -12.433  29.772   9.918  1.00  0.00     0.200 C 
HETATM    3  O1  UNL     1     -13.017  30.351  11.059  1.00  0.00    -0.357 OA
HETATM    4  C9  UNL     1     -12.737  29.490  12.111  1.00  0.00     0.288 C 
HETATM    5  C10 UNL     1     -13.100  28.076  11.861  1.00  0.00     0.204 C 
HETATM    6  C11 UNL     1     -13.728  27.780  10.555  1.00  0.00     0.177 C 
ENDROOT
BRANCH   1   7
HETATM    7  N2  UNL     1     -12.866  28.094   8.273  1.00  0.00    -0.327 N 
ATOM      8  H2  UNL     1     -12.827  28.596   7.386  1.00  0.00     0.180 HD
BRANCH   7   9
HETATM    9  N1  UNL     1     -12.396  26.806   8.374  1.00  0.00    -0.313 N 
HETATM   10  C6  UNL     1     -12.580  25.805   7.636  1.00  0.00     0.143 C 
ATOM     11  H1  UNL     1     -11.797  26.634   9.182  1.00  0.00     0.185 HD
BRANCH  10  12
HETATM   12  C5  UNL     1     -13.391  25.799   6.431  1.00  0.00     0.092 A 
HETATM   13  C4  UNL     1     -13.979  24.751   5.759  1.00  0.00     0.041 A 
HETATM   14  C3  UNL     1     -14.657  25.257   4.651  1.00  0.00     0.035 A 
HETATM   15  C2  UNL     1     -14.440  26.615   4.710  1.00  0.00     0.050 A 
HETATM   16  C1  UNL     1     -14.977  27.607   3.718  1.00  0.00     0.076 C 
HETATM   17  O5  UNL     1     -13.710  26.889   5.744  1.00  0.00    -0.314 OA
ENDBRANCH  10  12
ENDBRANCH   7   9
ENDBRANCH   1   7
BRANCH   6  18
HETATM   18  O4  UNL     1     -15.132  27.697  10.690  1.00  0.00    -0.391 OA
ATOM     19  H4  UNL     1     -15.393  26.792  10.567  1.00  0.00     0.210 HD
ENDBRANCH   6  18
BRANCH   5  20
HETATM   20  O3  UNL     1     -11.971  27.256  12.037  1.00  0.00    -0.388 OA
ATOM     21  H3  UNL     1     -12.124  26.644  12.746  1.00  0.00     0.210 HD
ENDBRANCH   5  20
BRANCH   4  22
HETATM   22  O2  UNL     1     -11.350  29.603  12.349  1.00  0.00    -0.369 OA
ATOM     23  H2  UNL     1     -11.061  28.742  12.628  1.00  0.00     0.212 HD
ENDBRANCH   4  22
TORSDOF 6
ENDMDL
