MODEL 1
REMARK VINA RESULT: -4.993720466      0.000      0.000
REMARK  6 active torsions:
REMARK  status: ('A' for Active; 'I' for Inactive)
REMARK    1  A    between atoms: C2_2  and  O1_5 
REMARK    2  A    between atoms: O1_5  and  C4_6 
REMARK    3  A    between atoms: C4_6  and  O2_7 
REMARK    4  A    between atoms: C5_10  and  N2_11 
REMARK    5  A    between atoms: C10_16  and  O4_17 
REMARK    6  A    between atoms: C11_19  and  O5_20 
ROOT
HETATM    1  C1  UNL     1     -13.819  26.948   5.109  1.00  0.00     0.055 C 
HETATM    2  C2  UNL     1     -13.520  25.741   6.015  1.00  0.00     0.229 C 
HETATM    3  C3  UNL     1     -14.465  24.691   5.564  1.00  0.00     0.091 C 
HETATM    4  N1  UNL     1     -15.203  23.866   5.228  1.00  0.00    -0.195 NA
ENDROOT
BRANCH   2   5
HETATM    5  O1  UNL     1     -13.745  26.109   7.272  1.00  0.00    -0.311 OA
BRANCH   5   6
HETATM    6  C4  UNL     1     -12.866  26.718   8.041  1.00  0.00     0.313 C 
HETATM    7  O3  UNL     1     -12.948  28.120   8.111  1.00  0.00    -0.302 OA
HETATM    8  C5  UNL     1     -11.760  28.394   8.801  1.00  0.00     0.264 C 
HETATM    9  C10 UNL     1     -11.691  27.366   9.926  1.00  0.00     0.204 C 
HETATM   10  C11 UNL     1     -12.765  26.368   9.484  1.00  0.00     0.244 C 
BRANCH   6  11
HETATM   11  O2  UNL     1     -11.580  26.475   7.490  1.00  0.00    -0.341 OA
ATOM     12  H2  UNL     1     -10.958  26.484   8.208  1.00  0.00     0.215 HD
ENDBRANCH   6  11
BRANCH   8  13
HETATM   13  N2  UNL     1     -11.715  29.743   9.299  1.00  0.00    -0.337 N 
HETATM   14  C6  UNL     1     -10.597  30.470   9.483  1.00  0.00     0.093 A 
HETATM   15  C7  UNL     1     -10.922  31.717   9.971  1.00  0.00     0.019 A 
HETATM   16  C8  UNL     1     -12.290  31.751  10.089  1.00  0.00     0.019 A 
HETATM   17  C9  UNL     1     -12.758  30.531   9.672  1.00  0.00     0.093 A 
ENDBRANCH   8  13
BRANCH   9  18
HETATM   18  O4  UNL     1     -12.032  28.012  11.094  1.00  0.00    -0.388 OA
ATOM     19  H4  UNL     1     -11.309  27.903  11.699  1.00  0.00     0.210 HD
ENDBRANCH   9  18
BRANCH  10  20
HETATM   20  O5  UNL     1     -13.877  26.661  10.233  1.00  0.00    -0.385 OA
ATOM     21  H5  UNL     1     -14.023  26.090  10.978  1.00  0.00     0.210 HD
ENDBRANCH  10  20
ENDBRANCH   5   6
ENDBRANCH   2   5
TORSDOF 6
ENDMDL
MODEL 2
REMARK VINA RESULT: -4.879261984      3.611      4.847
REMARK  6 active torsions:
REMARK  status: ('A' for Active; 'I' for Inactive)
REMARK    1  A    between atoms: C2_2  and  O1_5 
REMARK    2  A    between atoms: O1_5  and  C4_6 
REMARK    3  A    between atoms: C4_6  and  O2_7 
REMARK    4  A    between atoms: C5_10  and  N2_11 
REMARK    5  A    between atoms: C10_16  and  O4_17 
REMARK    6  A    between atoms: C11_19  and  O5_20 
ROOT
HETATM    1  C1  UNL     1     -15.557  25.063   3.894  1.00  0.00     0.055 C 
HETATM    2  C2  UNL     1     -14.738  26.036   4.762  1.00  0.00     0.229 C 
HETATM    3  C3  UNL     1     -14.601  27.255   3.928  1.00  0.00     0.091 C 
HETATM    4  N1  UNL     1     -14.478  28.209   3.285  1.00  0.00    -0.195 NA
ENDROOT
BRANCH   2   5
HETATM    5  O1  UNL     1     -13.564  25.467   5.013  1.00  0.00    -0.311 OA
BRANCH   5   6
HETATM    6  C4  UNL     1     -13.089  25.234   6.219  1.00  0.00     0.313 C 
HETATM    7  O3  UNL     1     -11.779  24.731   6.299  1.00  0.00    -0.302 OA
HETATM    8  C5  UNL     1     -11.730  24.406   7.661  1.00  0.00     0.264 C 
HETATM    9  C10 UNL     1     -12.364  25.589   8.388  1.00  0.00     0.204 C 
HETATM   10  C11 UNL     1     -13.034  26.328   7.226  1.00  0.00     0.244 C 
BRANCH   6  11
HETATM   11  O2  UNL     1     -13.887  24.211   6.798  1.00  0.00    -0.341 OA
ATOM     12  H2  UNL     1     -13.612  23.387   6.415  1.00  0.00     0.215 HD
ENDBRANCH   6  11
BRANCH   8  13
HETATM   13  N2  UNL     1     -10.389  24.150   8.115  1.00  0.00    -0.337 N 
HETATM   14  C6  UNL     1     -10.055  23.368   9.158  1.00  0.00     0.093 A 
HETATM   15  C7  UNL     1      -8.685  23.347   9.310  1.00  0.00     0.019 A 
HETATM   16  C8  UNL     1      -8.166  24.146   8.322  1.00  0.00     0.019 A 
HETATM   17  C9  UNL     1      -9.227  24.629   7.599  1.00  0.00     0.093 A 
ENDBRANCH   8  13
BRANCH   9  18
HETATM   18  O4  UNL     1     -11.342  26.321   8.949  1.00  0.00    -0.388 OA
ATOM     19  H4  UNL     1     -11.695  27.175   9.172  1.00  0.00     0.210 HD
ENDBRANCH   9  18
BRANCH  10  20
HETATM   20  O5  UNL     1     -12.193  27.367   6.911  1.00  0.00    -0.385 OA
ATOM     21  H5  UNL     1     -12.064  28.004   7.604  1.00  0.00     0.210 HD
ENDBRANCH  10  20
ENDBRANCH   5   6
ENDBRANCH   2   5
TORSDOF 6
ENDMDL
MODEL 3
REMARK VINA RESULT: -4.806823316      2.645      3.285
REMARK  6 active torsions:
REMARK  status: ('A' for Active; 'I' for Inactive)
REMARK    1  A    between atoms: C2_2  and  O1_5 
REMARK    2  A    between atoms: O1_5  and  C4_6 
REMARK    3  A    between atoms: C4_6  and  O2_7 
REMARK    4  A    between atoms: C5_10  and  N2_11 
REMARK    5  A    between atoms: C10_16  and  O4_17 
REMARK    6  A    between atoms: C11_19  and  O5_20 
ROOT
HETATM    1  C1  UNL     1     -14.465  27.571   4.028  1.00  0.00     0.055 C 
HETATM    2  C2  UNL     1     -13.935  26.476   4.971  1.00  0.00     0.229 C 
HETATM    3  C3  UNL     1     -14.881  25.347   4.801  1.00  0.00     0.091 C 
HETATM    4  N1  UNL     1     -15.616  24.461   4.685  1.00  0.00    -0.195 NA
ENDROOT
BRANCH   2   5
HETATM    5  O1  UNL     1     -13.952  26.960   6.208  1.00  0.00    -0.311 OA
BRANCH   5   6
HETATM    6  C4  UNL     1     -13.047  26.692   7.127  1.00  0.00     0.313 C 
HETATM    7  O3  UNL     1     -13.428  26.887   8.467  1.00  0.00    -0.302 OA
HETATM    8  C5  UNL     1     -12.184  26.732   9.094  1.00  0.00     0.264 C 
HETATM    9  C10 UNL     1     -11.540  25.518   8.432  1.00  0.00     0.204 C 
HETATM   10  C11 UNL     1     -12.433  25.338   7.201  1.00  0.00     0.244 C 
BRANCH   6  11
HETATM   11  O2  UNL     1     -11.970  27.599   6.940  1.00  0.00    -0.341 OA
ATOM     12  H2  UNL     1     -12.177  28.389   7.426  1.00  0.00     0.215 HD
ENDBRANCH   6  11
BRANCH   8  13
HETATM   13  N2  UNL     1     -12.306  26.569  10.518  1.00  0.00    -0.337 N 
HETATM   14  C6  UNL     1     -13.429  26.212  11.168  1.00  0.00     0.093 A 
HETATM   15  C7  UNL     1     -13.189  26.151  12.524  1.00  0.00     0.019 A 
HETATM   16  C8  UNL     1     -11.869  26.484  12.706  1.00  0.00     0.019 A 
HETATM   17  C9  UNL     1     -11.345  26.737  11.463  1.00  0.00     0.093 A 
ENDBRANCH   8  13
BRANCH   9  18
HETATM   18  O4  UNL     1     -11.650  24.464   9.312  1.00  0.00    -0.388 OA
ATOM     19  H4  UNL     1     -12.533  24.479   9.662  1.00  0.00     0.210 HD
ENDBRANCH   9  18
BRANCH  10  20
HETATM   20  O5  UNL     1     -13.302  24.323   7.516  1.00  0.00    -0.385 OA
ATOM     21  H5  UNL     1     -13.817  23.994   6.789  1.00  0.00     0.210 HD
ENDBRANCH  10  20
ENDBRANCH   5   6
ENDBRANCH   2   5
TORSDOF 6
ENDMDL
MODEL 4
REMARK VINA RESULT: -4.788099793      3.743      5.625
REMARK  6 active torsions:
REMARK  status: ('A' for Active; 'I' for Inactive)
REMARK    1  A    between atoms: C2_2  and  O1_5 
REMARK    2  A    between atoms: O1_5  and  C4_6 
REMARK    3  A    between atoms: C4_6  and  O2_7 
REMARK    4  A    between atoms: C5_10  and  N2_11 
REMARK    5  A    between atoms: C10_16  and  O4_17 
REMARK    6  A    between atoms: C11_19  and  O5_20 
ROOT
HETATM    1  C1  UNL     1     -10.730  20.297   7.689  1.00  0.00     0.055 C 
HETATM    2  C2  UNL     1     -10.277  21.616   8.339  1.00  0.00     0.229 C 
HETATM    3  C3  UNL     1      -9.549  21.198   9.562  1.00  0.00     0.091 C 
HETATM    4  N1  UNL     1      -8.987  20.887  10.524  1.00  0.00    -0.195 NA
ENDROOT
BRANCH   2   5
HETATM    5  O1  UNL     1     -11.364  22.325   8.623  1.00  0.00    -0.311 OA
BRANCH   5   6
HETATM    6  C4  UNL     1     -11.561  23.572   8.248  1.00  0.00     0.313 C 
HETATM    7  O3  UNL     1     -12.424  23.777   7.157  1.00  0.00    -0.302 OA
HETATM    8  C5  UNL     1     -12.198  25.141   6.927  1.00  0.00     0.264 C 
HETATM    9  C10 UNL     1     -12.199  25.796   8.305  1.00  0.00     0.204 C 
HETATM   10  C11 UNL     1     -12.087  24.572   9.218  1.00  0.00     0.244 C 
BRANCH   6  11
HETATM   11  O2  UNL     1     -10.313  24.083   7.801  1.00  0.00    -0.341 OA
ATOM     12  H2  UNL     1     -10.495  24.852   7.273  1.00  0.00     0.215 HD
ENDBRANCH   6  11
BRANCH   8  13
HETATM   13  N2  UNL     1     -13.184  25.719   6.054  1.00  0.00    -0.337 N 
HETATM   14  C6  UNL     1     -14.132  25.034   5.387  1.00  0.00     0.093 A 
HETATM   15  C7  UNL     1     -14.905  25.902   4.645  1.00  0.00     0.019 A 
HETATM   16  C8  UNL     1     -14.410  27.162   4.870  1.00  0.00     0.019 A 
HETATM   17  C9  UNL     1     -13.354  27.029   5.737  1.00  0.00     0.093 A 
ENDBRANCH   8  13
BRANCH   9  18
HETATM   18  O4  UNL     1     -13.405  26.444   8.450  1.00  0.00    -0.388 OA
ATOM     19  H4  UNL     1     -13.328  27.286   8.016  1.00  0.00     0.210 HD
ENDBRANCH   9  18
BRANCH  10  20
HETATM   20  O5  UNL     1     -13.360  24.328   9.671  1.00  0.00    -0.385 OA
ATOM     21  H5  UNL     1     -13.427  24.134  10.598  1.00  0.00     0.210 HD
ENDBRANCH  10  20
ENDBRANCH   5   6
ENDBRANCH   2   5
TORSDOF 6
ENDMDL
MODEL 5
REMARK VINA RESULT: -4.691074740      3.098      5.510
REMARK  6 active torsions:
REMARK  status: ('A' for Active; 'I' for Inactive)
REMARK    1  A    between atoms: C2_2  and  O1_5 
REMARK    2  A    between atoms: O1_5  and  C4_6 
REMARK    3  A    between atoms: C4_6  and  O2_7 
REMARK    4  A    between atoms: C5_10  and  N2_11 
REMARK    5  A    between atoms: C10_16  and  O4_17 
REMARK    6  A    between atoms: C11_19  and  O5_20 
ROOT
HETATM    1  C1  UNL     1     -10.794  24.011  10.773  1.00  0.00     0.055 C 
HETATM    2  C2  UNL     1     -12.159  24.560  10.321  1.00  0.00     0.229 C 
HETATM    3  C3  UNL     1     -13.141  23.900  11.214  1.00  0.00     0.091 C 
HETATM    4  N1  UNL     1     -13.920  23.385  11.898  1.00  0.00    -0.195 NA
ENDROOT
BRANCH   2   5
HETATM    5  O1  UNL     1     -12.334  24.220   9.048  1.00  0.00    -0.311 OA
BRANCH   5   6
HETATM    6  C4  UNL     1     -12.390  25.075   8.048  1.00  0.00     0.313 C 
HETATM    7  O3  UNL     1     -13.411  24.877   7.102  1.00  0.00    -0.302 OA
HETATM    8  C5  UNL     1     -13.010  25.796   6.122  1.00  0.00     0.264 C 
HETATM    9  C10 UNL     1     -12.617  27.060   6.880  1.00  0.00     0.204 C 
HETATM   10  C11 UNL     1     -12.529  26.532   8.315  1.00  0.00     0.244 C 
BRANCH   6  11
HETATM   11  O2  UNL     1     -11.193  24.929   7.297  1.00  0.00    -0.341 OA
ATOM     12  H2  UNL     1     -10.817  25.796   7.191  1.00  0.00     0.215 HD
ENDBRANCH   6  11
BRANCH   8  13
HETATM   13  N2  UNL     1     -14.043  26.047   5.152  1.00  0.00    -0.337 N 
HETATM   14  C6  UNL     1     -14.985  25.164   4.770  1.00  0.00     0.093 A 
HETATM   15  C7  UNL     1     -15.811  25.736   3.827  1.00  0.00     0.019 A 
HETATM   16  C8  UNL     1     -15.355  27.016   3.628  1.00  0.00     0.019 A 
HETATM   17  C9  UNL     1     -14.270  27.187   4.450  1.00  0.00     0.093 A 
ENDBRANCH   8  13
BRANCH   9  18
HETATM   18  O4  UNL     1     -13.641  27.968   6.722  1.00  0.00    -0.388 OA
ATOM     19  H4  UNL     1     -13.682  28.190   5.800  1.00  0.00     0.210 HD
ENDBRANCH   9  18
BRANCH  10  20
HETATM   20  O5  UNL     1     -13.704  26.903   8.921  1.00  0.00    -0.385 OA
ATOM     21  H5  UNL     1     -13.619  27.573   9.589  1.00  0.00     0.210 HD
ENDBRANCH  10  20
ENDBRANCH   5   6
ENDBRANCH   2   5
TORSDOF 6
ENDMDL
