MODEL 1
REMARK VINA RESULT: -5.950052671      0.000      0.000
REMARK  7 active torsions:
REMARK  status: ('A' for Active; 'I' for Inactive)
REMARK    1  A    between atoms: O1_1  and  C1_3 
REMARK    2  A    between atoms: C1_3  and  C2_4 
REMARK    3  A    between atoms: C3_6  and  C4_7 
REMARK    4  A    between atoms: C4_7  and  O3_8 
REMARK    5  A    between atoms: C4_7  and  C5_10 
REMARK    6  A    between atoms: N1_17  and  O5_19 
REMARK    7  A    between atoms: C11_21  and  O6_22 
ROOT
HETATM    1  C2  UNL     1     -14.674  25.126   4.483  1.00  0.00     0.180 C 
HETATM    2  O2  UNL     1     -14.277  25.703   5.665  1.00  0.00    -0.372 OA
HETATM    3  C3  UNL     1     -13.473  26.819   5.505  1.00  0.00     0.158 C 
HETATM    4  C9  UNL     1     -14.314  27.894   4.824  1.00  0.00     0.092 C 
HETATM    5  C10 UNL     1     -14.882  27.354   3.540  1.00  0.00     0.043 C 
HETATM    6  N1  UNL     1     -14.771  27.992   2.442  1.00  0.00    -0.275 N 
ATOM      7  H1  UNL     1     -15.162  27.611   1.580  1.00  0.00     0.193 HD
HETATM    8  C11 UNL     1     -15.570  26.040   3.652  1.00  0.00     0.196 C 
ENDROOT
BRANCH   3   9
HETATM    9  C4  UNL     1     -13.146  27.344   6.882  1.00  0.00     0.176 C 
BRANCH   9  10
HETATM   10  O3  UNL     1     -11.969  28.117   6.743  1.00  0.00    -0.390 OA
ATOM     11  H3  UNL     1     -12.248  29.024   6.706  1.00  0.00     0.210 HD
ENDBRANCH   9  10
BRANCH   9  12
HETATM   12  C5  UNL     1     -12.802  26.236   7.851  1.00  0.00     0.152 C 
HETATM   13  C6  UNL     1     -11.282  26.290   8.037  1.00  0.00     0.036 C 
HETATM   14  C7  UNL     1     -11.164  25.784   9.451  1.00  0.00     0.029 C 
HETATM   15  C8  UNL     1     -12.449  26.276  10.063  1.00  0.00     0.168 C 
HETATM   16  O4  UNL     1     -13.360  26.477   9.068  1.00  0.00    -0.383 OA
ENDBRANCH   9  12
ENDBRANCH   3   9
BRANCH   1  17
HETATM   17  C1  UNL     1     -15.540  23.920   4.845  1.00  0.00     0.199 C 
BRANCH  17  18
HETATM   18  O1  UNL     1     -15.324  23.555   6.186  1.00  0.00    -0.398 OA
ATOM     19  H1  UNL     1     -15.763  22.735   6.375  1.00  0.00     0.209 HD
ENDBRANCH  17  18
ENDBRANCH   1  17
BRANCH   8  20
HETATM   20  O6  UNL     1     -15.698  25.481   2.386  1.00  0.00    -0.387 OA
ATOM     21  H6  UNL     1     -14.858  25.550   1.947  1.00  0.00     0.210 HD
ENDBRANCH   8  20
BRANCH   6  22
HETATM   22  O5  UNL     1     -14.122  29.193   2.435  1.00  0.00    -0.290 OA
ATOM     23  H5  UNL     1     -14.203  29.757   1.675  1.00  0.00     0.244 HD
ENDBRANCH   6  22
TORSDOF 7
ENDMDL
MODEL 2
REMARK VINA RESULT: -5.942798257      2.043      3.425
REMARK  7 active torsions:
REMARK  status: ('A' for Active; 'I' for Inactive)
REMARK    1  A    between atoms: O1_1  and  C1_3 
REMARK    2  A    between atoms: C1_3  and  C2_4 
REMARK    3  A    between atoms: C3_6  and  C4_7 
REMARK    4  A    between atoms: C4_7  and  O3_8 
REMARK    5  A    between atoms: C4_7  and  C5_10 
REMARK    6  A    between atoms: N1_17  and  O5_19 
REMARK    7  A    between atoms: C11_21  and  O6_22 
ROOT
HETATM    1  C2  UNL     1     -14.474  27.498   4.131  1.00  0.00     0.180 C 
HETATM    2  O2  UNL     1     -13.435  27.668   5.015  1.00  0.00    -0.372 OA
HETATM    3  C3  UNL     1     -13.591  26.980   6.206  1.00  0.00     0.158 C 
HETATM    4  C9  UNL     1     -13.568  25.490   5.879  1.00  0.00     0.092 C 
HETATM    5  C10 UNL     1     -14.618  25.182   4.847  1.00  0.00     0.043 C 
HETATM    6  N1  UNL     1     -15.455  24.233   5.009  1.00  0.00    -0.275 N 
ATOM      7  H1  UNL     1     -16.160  24.039   4.299  1.00  0.00     0.193 HD
HETATM    8  C11 UNL     1     -14.604  26.058   3.645  1.00  0.00     0.196 C 
ENDROOT
BRANCH   3   9
HETATM    9  C4  UNL     1     -12.369  27.249   7.050  1.00  0.00     0.176 C 
BRANCH   9  10
HETATM   10  O3  UNL     1     -11.718  26.004   7.214  1.00  0.00    -0.390 OA
ATOM     11  H3  UNL     1     -10.996  26.158   7.813  1.00  0.00     0.210 HD
ENDBRANCH   9  10
BRANCH   9  12
HETATM   12  C5  UNL     1     -12.725  27.718   8.442  1.00  0.00     0.152 C 
HETATM   13  C6  UNL     1     -11.593  28.653   8.879  1.00  0.00     0.036 C 
HETATM   14  C7  UNL     1     -12.348  29.588   9.787  1.00  0.00     0.029 C 
HETATM   15  C8  UNL     1     -13.714  29.598   9.151  1.00  0.00     0.168 C 
HETATM   16  O4  UNL     1     -13.867  28.459   8.418  1.00  0.00    -0.383 OA
ENDBRANCH   9  12
ENDBRANCH   3   9
BRANCH   1  17
HETATM   17  C1  UNL     1     -14.139  28.323   2.889  1.00  0.00     0.199 C 
BRANCH  17  18
HETATM   18  O1  UNL     1     -15.312  28.604   2.165  1.00  0.00    -0.398 OA
ATOM     19  H1  UNL     1     -15.094  29.013   1.336  1.00  0.00     0.209 HD
ENDBRANCH  17  18
ENDBRANCH   1  17
BRANCH   8  20
HETATM   20  O6  UNL     1     -15.817  25.938   2.976  1.00  0.00    -0.387 OA
ATOM     21  H6  UNL     1     -15.761  25.187   2.397  1.00  0.00     0.210 HD
ENDBRANCH   8  20
BRANCH   6  22
HETATM   22  O5  UNL     1     -15.392  23.482   6.147  1.00  0.00    -0.290 OA
ATOM     23  H5  UNL     1     -15.810  22.628   6.160  1.00  0.00     0.244 HD
ENDBRANCH   6  22
TORSDOF 7
ENDMDL
MODEL 3
REMARK VINA RESULT: -5.600196717      2.488      5.854
REMARK  7 active torsions:
REMARK  status: ('A' for Active; 'I' for Inactive)
REMARK    1  A    between atoms: O1_1  and  C1_3 
REMARK    2  A    between atoms: C1_3  and  C2_4 
REMARK    3  A    between atoms: C3_6  and  C4_7 
REMARK    4  A    between atoms: C4_7  and  O3_8 
REMARK    5  A    between atoms: C4_7  and  C5_10 
REMARK    6  A    between atoms: N1_17  and  O5_19 
REMARK    7  A    between atoms: C11_21  and  O6_22 
ROOT
HETATM    1  C2  UNL     1     -12.646  27.446   8.189  1.00  0.00     0.180 C 
HETATM    2  O2  UNL     1     -13.368  27.497   7.021  1.00  0.00    -0.372 OA
HETATM    3  C3  UNL     1     -13.026  26.518   6.104  1.00  0.00     0.158 C 
HETATM    4  C9  UNL     1     -13.396  25.170   6.716  1.00  0.00     0.092 C 
HETATM    5  C10 UNL     1     -12.726  25.023   8.055  1.00  0.00     0.043 C 
HETATM    6  N1  UNL     1     -12.056  23.979   8.354  1.00  0.00    -0.275 N 
ATOM      7  H1  UNL     1     -11.609  23.896   9.266  1.00  0.00     0.193 HD
HETATM    8  C11 UNL     1     -12.904  26.170   8.985  1.00  0.00     0.196 C 
ENDROOT
BRANCH   3   9
HETATM    9  C4  UNL     1     -13.916  26.695   4.898  1.00  0.00     0.176 C 
BRANCH   9  10
HETATM   10  O3  UNL     1     -14.662  27.875   5.124  1.00  0.00    -0.390 OA
ATOM     11  H3  UNL     1     -14.363  28.508   4.483  1.00  0.00     0.210 HD
ENDBRANCH   9  10
BRANCH   9  12
HETATM   12  C5  UNL     1     -14.930  25.583   4.765  1.00  0.00     0.152 C 
HETATM   13  C6  UNL     1     -16.082  26.154   3.931  1.00  0.00     0.036 C 
HETATM   14  C7  UNL     1     -16.564  24.903   3.242  1.00  0.00     0.029 C 
HETATM   15  C8  UNL     1     -15.289  24.111   3.115  1.00  0.00     0.168 C 
HETATM   16  O4  UNL     1     -14.407  24.542   4.061  1.00  0.00    -0.383 OA
ENDBRANCH   9  12
ENDBRANCH   3   9
BRANCH   1  17
HETATM   17  C1  UNL     1     -13.146  28.589   9.072  1.00  0.00     0.199 C 
BRANCH  17  18
HETATM   18  O1  UNL     1     -14.202  28.144   9.887  1.00  0.00    -0.398 OA
ATOM     19  H1  UNL     1     -15.009  28.582   9.644  1.00  0.00     0.209 HD
ENDBRANCH  17  18
ENDBRANCH   1  17
BRANCH   8  20
HETATM   20  O6  UNL     1     -11.950  26.093   9.994  1.00  0.00    -0.387 OA
ATOM     21  H6  UNL     1     -11.484  25.271   9.896  1.00  0.00     0.210 HD
ENDBRANCH   8  20
BRANCH   6  22
HETATM   22  O5  UNL     1     -11.948  22.976   7.434  1.00  0.00    -0.290 OA
ATOM     23  H5  UNL     1     -12.696  22.770   6.886  1.00  0.00     0.244 HD
ENDBRANCH   6  22
TORSDOF 7
ENDMDL
MODEL 4
REMARK VINA RESULT: -5.374123354      2.659      5.841
REMARK  7 active torsions:
REMARK  status: ('A' for Active; 'I' for Inactive)
REMARK    1  A    between atoms: O1_1  and  C1_3 
REMARK    2  A    between atoms: C1_3  and  C2_4 
REMARK    3  A    between atoms: C3_6  and  C4_7 
REMARK    4  A    between atoms: C4_7  and  O3_8 
REMARK    5  A    between atoms: C4_7  and  C5_10 
REMARK    6  A    between atoms: N1_17  and  O5_19 
REMARK    7  A    between atoms: C11_21  and  O6_22 
ROOT
HETATM    1  C2  UNL     1     -13.203  28.257   9.582  1.00  0.00     0.180 C 
HETATM    2  O2  UNL     1     -13.411  27.162   8.778  1.00  0.00    -0.372 OA
HETATM    3  C3  UNL     1     -12.854  27.277   7.515  1.00  0.00     0.158 C 
HETATM    4  C9  UNL     1     -11.339  27.335   7.688  1.00  0.00     0.092 C 
HETATM    5  C10 UNL     1     -10.981  28.456   8.625  1.00  0.00     0.043 C 
HETATM    6  N1  UNL     1     -10.094  29.321   8.321  1.00  0.00    -0.275 N 
ATOM      7  H1  UNL     1      -9.863  30.075   8.968  1.00  0.00     0.193 HD
HETATM    8  C11 UNL     1     -11.730  28.476   9.910  1.00  0.00     0.196 C 
ENDROOT
BRANCH   3   9
HETATM    9  C4  UNL     1     -13.147  25.997   6.772  1.00  0.00     0.176 C 
BRANCH   9  10
HETATM   10  O3  UNL     1     -11.943  25.254   6.769  1.00  0.00    -0.390 OA
ATOM     11  H3  UNL     1     -11.791  24.989   7.668  1.00  0.00     0.210 HD
ENDBRANCH   9  10
BRANCH   9  12
HETATM   12  C5  UNL     1     -13.487  26.241   5.320  1.00  0.00     0.152 C 
HETATM   13  C6  UNL     1     -14.636  25.285   4.984  1.00  0.00     0.036 C 
HETATM   14  C7  UNL     1     -15.355  26.086   3.930  1.00  0.00     0.029 C 
HETATM   15  C8  UNL     1     -15.083  27.499   4.376  1.00  0.00     0.168 C 
HETATM   16  O4  UNL     1     -13.958  27.507   5.147  1.00  0.00    -0.383 OA
ENDBRANCH   9  12
ENDBRANCH   3   9
BRANCH   1  17
HETATM   17  C1  UNL     1     -13.882  27.962  10.919  1.00  0.00     0.199 C 
BRANCH  17  18
HETATM   18  O1  UNL     1     -15.224  27.597  10.709  1.00  0.00    -0.398 OA
ATOM     19  H1  UNL     1     -15.282  26.946  10.021  1.00  0.00     0.209 HD
ENDBRANCH  17  18
ENDBRANCH   1  17
BRANCH   8  20
HETATM   20  O6  UNL     1     -11.601  29.731  10.495  1.00  0.00    -0.387 OA
ATOM     21  H6  UNL     1     -10.757  29.768  10.929  1.00  0.00     0.210 HD
ENDBRANCH   8  20
BRANCH   6  22
HETATM   22  O5  UNL     1      -9.458  29.223   7.117  1.00  0.00    -0.290 OA
ATOM     23  H5  UNL     1      -9.858  28.710   6.424  1.00  0.00     0.244 HD
ENDBRANCH   6  22
TORSDOF 7
ENDMDL
MODEL 5
REMARK VINA RESULT: -4.926961759      2.945      6.186
REMARK  7 active torsions:
REMARK  status: ('A' for Active; 'I' for Inactive)
REMARK    1  A    between atoms: O1_1  and  C1_3 
REMARK    2  A    between atoms: C1_3  and  C2_4 
REMARK    3  A    between atoms: C3_6  and  C4_7 
REMARK    4  A    between atoms: C4_7  and  O3_8 
REMARK    5  A    between atoms: C4_7  and  C5_10 
REMARK    6  A    between atoms: N1_17  and  O5_19 
REMARK    7  A    between atoms: C11_21  and  O6_22 
ROOT
HETATM    1  C2  UNL     1     -12.669  28.765   8.695  1.00  0.00     0.180 C 
HETATM    2  O2  UNL     1     -13.265  27.710   8.046  1.00  0.00    -0.372 OA
HETATM    3  C3  UNL     1     -12.438  27.065   7.142  1.00  0.00     0.158 C 
HETATM    4  C9  UNL     1     -11.303  26.427   7.937  1.00  0.00     0.092 C 
HETATM    5  C10 UNL     1     -10.613  27.476   8.764  1.00  0.00     0.043 C 
HETATM    6  N1  UNL     1      -9.344  27.610   8.748  1.00  0.00    -0.275 N 
ATOM      7  H1  UNL     1      -8.893  28.327   9.315  1.00  0.00     0.193 HD
HETATM    8  C11 UNL     1     -11.511  28.330   9.587  1.00  0.00     0.196 C 
ENDROOT
BRANCH   3   9
HETATM    9  C4  UNL     1     -13.226  25.928   6.538  1.00  0.00     0.176 C 
BRANCH   9  10
HETATM   10  O3  UNL     1     -12.363  24.807   6.531  1.00  0.00    -0.390 OA
ATOM     11  H3  UNL     1     -12.922  24.039   6.560  1.00  0.00     0.210 HD
ENDBRANCH   9  10
BRANCH   9  12
HETATM   12  C5  UNL     1     -13.585  26.184   5.093  1.00  0.00     0.152 C 
HETATM   13  C6  UNL     1     -14.824  25.329   4.805  1.00  0.00     0.036 C 
HETATM   14  C7  UNL     1     -15.501  26.177   3.759  1.00  0.00     0.029 C 
HETATM   15  C8  UNL     1     -15.091  27.566   4.176  1.00  0.00     0.168 C 
HETATM   16  O4  UNL     1     -13.948  27.484   4.915  1.00  0.00    -0.383 OA
ENDBRANCH   9  12
ENDBRANCH   3   9
BRANCH   1  17
HETATM   17  C1  UNL     1     -13.716  29.355   9.639  1.00  0.00     0.199 C 
BRANCH  17  18
HETATM   18  O1  UNL     1     -13.522  30.742   9.770  1.00  0.00    -0.398 OA
ATOM     19  H1  UNL     1     -14.185  31.212   9.280  1.00  0.00     0.209 HD
ENDBRANCH  17  18
ENDBRANCH   1  17
BRANCH   8  20
HETATM   20  O6  UNL     1     -10.822  29.471   9.983  1.00  0.00    -0.387 OA
ATOM     21  H6  UNL     1     -11.396  30.218   9.863  1.00  0.00     0.210 HD
ENDBRANCH   8  20
BRANCH   6  22
HETATM   22  O5  UNL     1      -8.600  26.780   7.960  1.00  0.00    -0.290 OA
ATOM     23  H5  UNL     1      -8.212  27.124   7.164  1.00  0.00     0.244 HD
ENDBRANCH   6  22
TORSDOF 7
ENDMDL
