MODEL 1
REMARK VINA RESULT: -8.261227726      0.000      0.000
REMARK  6 active torsions:
REMARK  status: ('A' for Active; 'I' for Inactive)
REMARK    1  A    between atoms: C13_15  and  C14_16 
REMARK    2  A    between atoms: C13_15  and  C18_22 
REMARK    3  A    between atoms: C14_16  and  C15_17 
REMARK    4  A    between atoms: C15_17  and  O3_18 
REMARK    5  A    between atoms: O3_18  and  C16_19 
REMARK    6  A    between atoms: C18_22  and  O6_24 
ROOT
HETATM    1  C1  UNL     1     -28.079  27.961  -4.291  1.00  0.00     0.025 C 
HETATM    2  C2  UNL     1     -27.996  27.245  -5.375  1.00  0.00     0.014 C 
HETATM    3  C3  UNL     1     -29.023  27.034  -6.425  1.00  0.00     0.289 C 
HETATM    4  O1  UNL     1     -30.088  27.690  -6.562  1.00  0.00    -0.260 OA
HETATM    5  O2  UNL     1     -28.592  25.966  -7.243  1.00  0.00    -0.311 OA
HETATM    6  C4  UNL     1     -27.681  25.266  -6.468  1.00  0.00     0.146 C 
HETATM    7  C5  UNL     1     -26.852  26.418  -5.894  1.00  0.00     0.054 C 
HETATM    8  C6  UNL     1     -25.972  25.848  -4.860  1.00  0.00     0.013 C 
HETATM    9  C7  UNL     1     -26.029  24.365  -4.711  1.00  0.00     0.011 C 
HETATM   10  C8  UNL     1     -26.063  23.563  -5.945  1.00  0.00    -0.029 C 
HETATM   11  C9  UNL     1     -26.530  22.141  -5.661  1.00  0.00     0.016 C 
HETATM   12  C10 UNL     1     -26.877  24.211  -7.081  1.00  0.00     0.030 C 
HETATM   13  C11 UNL     1     -25.559  24.569  -7.735  1.00  0.00     0.004 C 
HETATM   14  C12 UNL     1     -25.465  24.069  -9.128  1.00  0.00     0.026 C 
HETATM   15  C13 UNL     1     -24.649  22.809  -9.076  1.00  0.00     0.055 C 
HETATM   16  C20 UNL     1     -24.477  22.408  -7.651  1.00  0.00     0.014 A 
HETATM   17  C21 UNL     1     -23.563  23.223  -6.719  1.00  0.00     0.018 A 
HETATM   18  C22 UNL     1     -24.929  23.565  -6.881  1.00  0.00    -0.023 A 
ENDROOT
BRANCH  15  19
HETATM   19  C14 UNL     1     -23.291  23.069  -9.675  1.00  0.00     0.047 C 
BRANCH  19  20
HETATM   20  C15 UNL     1     -23.050  24.493 -10.074  1.00  0.00     0.180 C 
BRANCH  20  21
HETATM   21  O3  UNL     1     -22.078  25.132  -9.288  1.00  0.00    -0.322 OA
BRANCH  21  22
HETATM   22  C16 UNL     1     -22.245  26.444  -8.911  1.00  0.00     0.254 C 
HETATM   23  C17 UNL     1     -22.850  26.816  -7.592  1.00  0.00     0.126 C 
HETATM   24  O4  UNL     1     -21.870  27.366  -9.706  1.00  0.00    -0.266 OA
ENDBRANCH  21  22
ENDBRANCH  20  21
ENDBRANCH  19  20
ENDBRANCH  15  19
BRANCH  15  25
HETATM   25  C18 UNL     1     -25.373  21.742  -9.827  1.00  0.00     0.267 C 
HETATM   26  O5  UNL     1     -25.753  21.964 -11.000  1.00  0.00    -0.264 OA
BRANCH  25  27
HETATM   27  O6  UNL     1     -25.656  20.494  -9.293  1.00  0.00    -0.326 OA
HETATM   28  C19 UNL     1     -25.458  19.322 -10.101  1.00  0.00     0.213 C 
ENDBRANCH  25  27
ENDBRANCH  15  25
TORSDOF 6
ENDMDL
MODEL 2
REMARK VINA RESULT: -8.192253207      2.323      6.634
REMARK  6 active torsions:
REMARK  status: ('A' for Active; 'I' for Inactive)
REMARK    1  A    between atoms: C13_15  and  C14_16 
REMARK    2  A    between atoms: C13_15  and  C18_22 
REMARK    3  A    between atoms: C14_16  and  C15_17 
REMARK    4  A    between atoms: C15_17  and  O3_18 
REMARK    5  A    between atoms: O3_18  and  C16_19 
REMARK    6  A    between atoms: C18_22  and  O6_24 
ROOT
HETATM    1  C1  UNL     1     -23.860  21.349 -11.262  1.00  0.00     0.025 C 
HETATM    2  C2  UNL     1     -23.754  22.215 -10.297  1.00  0.00     0.014 C 
HETATM    3  C3  UNL     1     -22.616  23.116  -9.982  1.00  0.00     0.289 C 
HETATM    4  O1  UNL     1     -21.633  23.356 -10.729  1.00  0.00    -0.260 OA
HETATM    5  O2  UNL     1     -22.836  23.655  -8.695  1.00  0.00    -0.311 OA
HETATM    6  C4  UNL     1     -23.720  22.780  -8.085  1.00  0.00     0.146 C 
HETATM    7  C5  UNL     1     -24.734  22.569  -9.212  1.00  0.00     0.054 C 
HETATM    8  C6  UNL     1     -25.628  21.475  -8.795  1.00  0.00     0.013 C 
HETATM    9  C7  UNL     1     -25.401  20.947  -7.419  1.00  0.00     0.011 C 
HETATM   10  C8  UNL     1     -25.155  21.929  -6.350  1.00  0.00    -0.029 C 
HETATM   11  C9  UNL     1     -24.544  21.263  -5.124  1.00  0.00     0.016 C 
HETATM   12  C10 UNL     1     -24.328  23.146  -6.808  1.00  0.00     0.030 C 
HETATM   13  C11 UNL     1     -25.614  23.943  -6.801  1.00  0.00     0.004 C 
HETATM   14  C12 UNL     1     -25.518  25.164  -5.964  1.00  0.00     0.026 C 
HETATM   15  C13 UNL     1     -26.173  24.837  -4.652  1.00  0.00     0.055 C 
HETATM   16  C20 UNL     1     -26.423  23.369  -4.596  1.00  0.00     0.014 A 
HETATM   17  C21 UNL     1     -27.512  22.731  -5.476  1.00  0.00     0.018 A 
HETATM   18  C22 UNL     1     -26.191  22.897  -5.960  1.00  0.00    -0.023 A 
ENDROOT
BRANCH  15  19
HETATM   19  C14 UNL     1     -27.493  25.559  -4.560  1.00  0.00     0.047 C 
BRANCH  19  20
HETATM   20  C15 UNL     1     -27.614  26.750  -5.460  1.00  0.00     0.180 C 
BRANCH  20  21
HETATM   21  O3  UNL     1     -27.343  27.965  -4.811  1.00  0.00    -0.322 OA
BRANCH  21  22
HETATM   22  C16 UNL     1     -28.256  28.499  -3.932  1.00  0.00     0.254 C 
HETATM   23  C17 UNL     1     -29.559  29.072  -4.399  1.00  0.00     0.126 C 
HETATM   24  O4  UNL     1     -27.984  28.504  -2.688  1.00  0.00    -0.266 OA
ENDBRANCH  21  22
ENDBRANCH  20  21
ENDBRANCH  19  20
ENDBRANCH  15  19
BRANCH  15  25
HETATM   25  C18 UNL     1     -25.257  25.246  -3.548  1.00  0.00     0.267 C 
HETATM   26  O5  UNL     1     -25.737  25.573  -2.438  1.00  0.00    -0.264 OA
BRANCH  25  27
HETATM   27  O6  UNL     1     -23.877  25.286  -3.680  1.00  0.00    -0.326 OA
HETATM   28  C19 UNL     1     -23.091  24.194  -3.177  1.00  0.00     0.213 C 
ENDBRANCH  25  27
ENDBRANCH  15  25
TORSDOF 6
ENDMDL
MODEL 3
REMARK VINA RESULT: -8.030104851      1.223      1.856
REMARK  6 active torsions:
REMARK  status: ('A' for Active; 'I' for Inactive)
REMARK    1  A    between atoms: C13_15  and  C14_16 
REMARK    2  A    between atoms: C13_15  and  C18_22 
REMARK    3  A    between atoms: C14_16  and  C15_17 
REMARK    4  A    between atoms: C15_17  and  O3_18 
REMARK    5  A    between atoms: O3_18  and  C16_19 
REMARK    6  A    between atoms: C18_22  and  O6_24 
ROOT
HETATM    1  C1  UNL     1     -28.102  27.927  -4.278  1.00  0.00     0.025 C 
HETATM    2  C2  UNL     1     -28.014  27.226  -5.370  1.00  0.00     0.014 C 
HETATM    3  C3  UNL     1     -29.042  27.015  -6.420  1.00  0.00     0.289 C 
HETATM    4  O1  UNL     1     -30.115  27.659  -6.546  1.00  0.00    -0.260 OA
HETATM    5  O2  UNL     1     -28.600  25.961  -7.252  1.00  0.00    -0.311 OA
HETATM    6  C4  UNL     1     -27.679  25.263  -6.488  1.00  0.00     0.146 C 
HETATM    7  C5  UNL     1     -26.862  26.418  -5.902  1.00  0.00     0.054 C 
HETATM    8  C6  UNL     1     -25.972  25.846  -4.878  1.00  0.00     0.013 C 
HETATM    9  C7  UNL     1     -26.011  24.361  -4.746  1.00  0.00     0.011 C 
HETATM   10  C8  UNL     1     -26.040  23.573  -5.989  1.00  0.00    -0.029 C 
HETATM   11  C9  UNL     1     -26.488  22.142  -5.721  1.00  0.00     0.016 C 
HETATM   12  C10 UNL     1     -26.864  24.225  -7.115  1.00  0.00     0.030 C 
HETATM   13  C11 UNL     1     -25.553  24.606  -7.768  1.00  0.00     0.004 C 
HETATM   14  C12 UNL     1     -25.457  24.124  -9.168  1.00  0.00     0.026 C 
HETATM   15  C13 UNL     1     -24.626  22.873  -9.133  1.00  0.00     0.055 C 
HETATM   16  C20 UNL     1     -24.446  22.457  -7.714  1.00  0.00     0.014 A 
HETATM   17  C21 UNL     1     -23.538  23.272  -6.774  1.00  0.00     0.018 A 
HETATM   18  C22 UNL     1     -24.909  23.600  -6.928  1.00  0.00    -0.023 A 
ENDROOT
BRANCH  15  19
HETATM   19  C14 UNL     1     -23.273  23.156  -9.733  1.00  0.00     0.047 C 
BRANCH  19  20
HETATM   20  C15 UNL     1     -23.109  24.546 -10.267  1.00  0.00     0.180 C 
BRANCH  20  21
HETATM   21  O3  UNL     1     -22.689  24.579 -11.605  1.00  0.00    -0.322 OA
BRANCH  21  22
HETATM   22  C16 UNL     1     -23.591  24.363 -12.621  1.00  0.00     0.254 C 
HETATM   23  C17 UNL     1     -23.478  23.185 -13.540  1.00  0.00     0.126 C 
HETATM   24  O4  UNL     1     -24.549  25.186 -12.780  1.00  0.00    -0.266 OA
ENDBRANCH  21  22
ENDBRANCH  20  21
ENDBRANCH  19  20
ENDBRANCH  15  19
BRANCH  15  25
HETATM   25  C18 UNL     1     -25.340  21.806  -9.894  1.00  0.00     0.267 C 
HETATM   26  O5  UNL     1     -25.727  22.038 -11.063  1.00  0.00    -0.264 OA
BRANCH  25  27
HETATM   27  O6  UNL     1     -25.605  20.548  -9.375  1.00  0.00    -0.326 OA
HETATM   28  C19 UNL     1     -25.378  19.388 -10.191  1.00  0.00     0.213 C 
ENDBRANCH  25  27
ENDBRANCH  15  25
TORSDOF 6
ENDMDL
MODEL 4
REMARK VINA RESULT: -8.002978781      2.210      6.695
REMARK  6 active torsions:
REMARK  status: ('A' for Active; 'I' for Inactive)
REMARK    1  A    between atoms: C13_15  and  C14_16 
REMARK    2  A    between atoms: C13_15  and  C18_22 
REMARK    3  A    between atoms: C14_16  and  C15_17 
REMARK    4  A    between atoms: C15_17  and  O3_18 
REMARK    5  A    between atoms: O3_18  and  C16_19 
REMARK    6  A    between atoms: C18_22  and  O6_24 
ROOT
HETATM    1  C1  UNL     1     -23.821  21.839 -11.305  1.00  0.00     0.025 C 
HETATM    2  C2  UNL     1     -23.652  22.592 -10.258  1.00  0.00     0.014 C 
HETATM    3  C3  UNL     1     -22.456  23.379  -9.867  1.00  0.00     0.289 C 
HETATM    4  O1  UNL     1     -21.463  23.629 -10.597  1.00  0.00    -0.260 OA
HETATM    5  O2  UNL     1     -22.632  23.796  -8.529  1.00  0.00    -0.311 OA
HETATM    6  C4  UNL     1     -23.569  22.923  -8.000  1.00  0.00     0.146 C 
HETATM    7  C5  UNL     1     -24.601  22.896  -9.131  1.00  0.00     0.054 C 
HETATM    8  C6  UNL     1     -25.563  21.826  -8.817  1.00  0.00     0.013 C 
HETATM    9  C7  UNL     1     -25.365  21.146  -7.505  1.00  0.00     0.011 C 
HETATM   10  C8  UNL     1     -25.048  21.995  -6.344  1.00  0.00    -0.029 C 
HETATM   11  C9  UNL     1     -24.476  21.167  -5.200  1.00  0.00     0.016 C 
HETATM   12  C10 UNL     1     -24.144  23.195  -6.685  1.00  0.00     0.030 C 
HETATM   13  C11 UNL     1     -25.374  24.070  -6.581  1.00  0.00     0.004 C 
HETATM   14  C12 UNL     1     -25.192  25.190  -5.625  1.00  0.00     0.026 C 
HETATM   15  C13 UNL     1     -25.860  24.773  -4.346  1.00  0.00     0.055 C 
HETATM   16  C20 UNL     1     -26.207  23.327  -4.436  1.00  0.00     0.014 A 
HETATM   17  C21 UNL     1     -27.342  22.856  -5.363  1.00  0.00     0.018 A 
HETATM   18  C22 UNL     1     -26.014  22.983  -5.844  1.00  0.00    -0.023 A 
ENDROOT
BRANCH  15  19
HETATM   19  C14 UNL     1     -27.128  25.567  -4.164  1.00  0.00     0.047 C 
BRANCH  19  20
HETATM   20  C15 UNL     1     -27.329  26.657  -5.171  1.00  0.00     0.180 C 
BRANCH  20  21
HETATM   21  O3  UNL     1     -28.567  26.584  -5.827  1.00  0.00    -0.322 OA
BRANCH  21  22
HETATM   22  C16 UNL     1     -29.400  27.679  -5.859  1.00  0.00     0.254 C 
HETATM   23  C17 UNL     1     -29.412  28.694  -4.758  1.00  0.00     0.126 C 
HETATM   24  O4  UNL     1     -30.179  27.831  -6.854  1.00  0.00    -0.266 OA
ENDBRANCH  21  22
ENDBRANCH  20  21
ENDBRANCH  19  20
ENDBRANCH  15  19
BRANCH  15  25
HETATM   25  C18 UNL     1     -24.913  25.005  -3.217  1.00  0.00     0.267 C 
HETATM   26  O5  UNL     1     -23.740  24.570  -3.297  1.00  0.00    -0.264 OA
BRANCH  25  27
HETATM   27  O6  UNL     1     -25.259  25.687  -2.060  1.00  0.00    -0.326 OA
HETATM   28  C19 UNL     1     -25.230  24.997  -0.801  1.00  0.00     0.213 C 
ENDBRANCH  25  27
ENDBRANCH  15  25
TORSDOF 6
ENDMDL
MODEL 5
REMARK VINA RESULT: -7.927559873      2.642      6.732
REMARK  6 active torsions:
REMARK  status: ('A' for Active; 'I' for Inactive)
REMARK    1  A    between atoms: C13_15  and  C14_16 
REMARK    2  A    between atoms: C13_15  and  C18_22 
REMARK    3  A    between atoms: C14_16  and  C15_17 
REMARK    4  A    between atoms: C15_17  and  O3_18 
REMARK    5  A    between atoms: O3_18  and  C16_19 
REMARK    6  A    between atoms: C18_22  and  O6_24 
ROOT
HETATM    1  C1  UNL     1     -23.100  21.841 -11.129  1.00  0.00     0.025 C 
HETATM    2  C2  UNL     1     -24.107  22.460 -10.585  1.00  0.00     0.014 C 
HETATM    3  C3  UNL     1     -25.289  23.066 -11.248  1.00  0.00     0.289 C 
HETATM    4  O1  UNL     1     -25.635  22.895 -12.445  1.00  0.00    -0.260 OA
HETATM    5  O2  UNL     1     -25.955  23.868 -10.295  1.00  0.00    -0.311 OA
HETATM    6  C4  UNL     1     -25.001  24.143  -9.328  1.00  0.00     0.146 C 
HETATM    7  C5  UNL     1     -24.383  22.756  -9.136  1.00  0.00     0.054 C 
HETATM    8  C6  UNL     1     -23.187  22.925  -8.293  1.00  0.00     0.013 C 
HETATM    9  C7  UNL     1     -22.950  24.305  -7.781  1.00  0.00     0.011 C 
HETATM   10  C8  UNL     1     -24.117  25.052  -7.283  1.00  0.00    -0.029 C 
HETATM   11  C9  UNL     1     -23.815  26.541  -7.187  1.00  0.00     0.016 C 
HETATM   12  C10 UNL     1     -25.408  24.784  -8.079  1.00  0.00     0.030 C 
HETATM   13  C11 UNL     1     -25.869  23.924  -6.922  1.00  0.00     0.004 C 
HETATM   14  C12 UNL     1     -27.193  24.342  -6.400  1.00  0.00     0.026 C 
HETATM   15  C13 UNL     1     -26.929  25.166  -5.172  1.00  0.00     0.055 C 
HETATM   16  C20 UNL     1     -25.471  25.466  -5.102  1.00  0.00     0.014 A 
HETATM   17  C21 UNL     1     -24.464  24.354  -4.761  1.00  0.00     0.018 A 
HETATM   18  C22 UNL     1     -24.861  24.591  -6.101  1.00  0.00    -0.023 A 
ENDROOT
BRANCH  15  19
HETATM   19  C14 UNL     1     -27.324  24.380  -3.949  1.00  0.00     0.047 C 
BRANCH  19  20
HETATM   20  C15 UNL     1     -26.916  25.004  -2.650  1.00  0.00     0.180 C 
BRANCH  20  21
HETATM   21  O3  UNL     1     -26.317  24.097  -1.763  1.00  0.00    -0.322 OA
BRANCH  21  22
HETATM   22  C16 UNL     1     -25.356  24.526  -0.877  1.00  0.00     0.254 C 
HETATM   23  C17 UNL     1     -24.308  25.521  -1.270  1.00  0.00     0.126 C 
HETATM   24  O4  UNL     1     -25.362  24.065   0.310  1.00  0.00    -0.266 OA
ENDBRANCH  21  22
ENDBRANCH  20  21
ENDBRANCH  19  20
ENDBRANCH  15  19
BRANCH  15  25
HETATM   25  C18 UNL     1     -27.711  26.433  -5.273  1.00  0.00     0.267 C 
HETATM   26  O5  UNL     1     -28.735  26.470  -5.994  1.00  0.00    -0.264 OA
BRANCH  25  27
HETATM   27  O6  UNL     1     -27.365  27.597  -4.603  1.00  0.00    -0.326 OA
HETATM   28  C19 UNL     1     -28.397  28.509  -4.198  1.00  0.00     0.213 C 
ENDBRANCH  25  27
ENDBRANCH  15  25
TORSDOF 6
ENDMDL
