MODEL 1
REMARK VINA RESULT: -8.697954282      0.000      0.000
REMARK  4 active torsions:
REMARK  status: ('A' for Active; 'I' for Inactive)
REMARK    1  A    between atoms: C4_6  and  C5_7 
REMARK    2  A    between atoms: C5_7  and  N2_8 
REMARK    3  A    between atoms: N3_16  and  C12_17 
REMARK    4  A    between atoms: C12_17  and  C13_18 
ROOT
HETATM    1  N2  UNL     1     -24.636  23.327  -7.742  1.00  0.00    -0.381 N 
HETATM    2  C6  UNL     1     -23.289  23.754  -7.828  1.00  0.00     0.148 C 
HETATM    3  C7  UNL     1     -23.269  25.234  -7.415  1.00  0.00     0.189 C 
HETATM    4  O1  UNL     1     -23.577  25.227  -6.081  1.00  0.00    -0.370 OA
HETATM    5  C8  UNL     1     -24.877  24.833  -5.777  1.00  0.00     0.118 C 
HETATM    6  C9  UNL     1     -25.720  26.104  -5.883  1.00  0.00     0.051 C 
HETATM    7  C10 UNL     1     -27.105  25.924  -5.361  1.00  0.00     0.048 C 
HETATM    8  C11 UNL     1     -27.252  24.811  -4.377  1.00  0.00     0.064 C 
HETATM    9  N3  UNL     1     -26.089  24.586  -3.654  1.00  0.00    -0.358 N 
HETATM   10  C17 UNL     1     -24.846  24.458  -4.290  1.00  0.00     0.071 C 
HETATM   11  C18 UNL     1     -24.180  23.120  -4.122  1.00  0.00     0.035 C 
HETATM   12  C19 UNL     1     -22.860  23.786  -3.790  1.00  0.00     0.005 C 
HETATM   13  C20 UNL     1     -23.648  25.073  -3.605  1.00  0.00     0.035 C 
HETATM   14  C21 UNL     1     -25.409  23.756  -6.651  1.00  0.00     0.099 C 
ENDROOT
BRANCH   9  15
HETATM   15  C12 UNL     1     -26.062  24.520  -2.269  1.00  0.00     0.096 C 
BRANCH  15  16
HETATM   16  C13 UNL     1     -26.928  25.415  -1.461  1.00  0.00     0.160 C 
HETATM   17  C14 UNL     1     -27.022  25.047   0.004  1.00  0.00     0.039 C 
HETATM   18  C15 UNL     1     -27.351  26.376   0.650  1.00  0.00     0.029 C 
HETATM   19  C16 UNL     1     -27.246  27.334  -0.521  1.00  0.00     0.168 C 
HETATM   20  O2  UNL     1     -26.313  26.689  -1.321  1.00  0.00    -0.381 OA
ENDBRANCH  15  16
ENDBRANCH   9  15
BRANCH   1  21
HETATM   21  C5  UNL     1     -25.227  23.304  -9.032  1.00  0.00     0.198 C 
BRANCH  21  22
HETATM   22  C4  UNL     1     -25.224  22.026  -9.739  1.00  0.00     0.099 A 
HETATM   23  N1  UNL     1     -25.703  20.922  -9.124  1.00  0.00    -0.354 N 
HETATM   24  C3  UNL     1     -25.735  19.710  -9.711  1.00  0.00     0.097 A 
ATOM     25  H1  UNL     1     -26.058  21.011  -8.171  1.00  0.00     0.166 HD
HETATM   26  C2  UNL     1     -25.264  19.567 -10.989  1.00  0.00    -0.031 A 
HETATM   27  C1  UNL     1     -25.282  18.245 -11.674  1.00  0.00     0.051 C 
HETATM   28  C22 UNL     1     -24.772  20.699 -11.621  1.00  0.00     0.097 A 
HETATM   29  N4  UNL     1     -24.765  21.884 -10.986  1.00  0.00    -0.354 N 
ATOM     30  H4  UNL     1     -24.397  22.701 -11.472  1.00  0.00     0.166 HD
ENDBRANCH  21  22
ENDBRANCH   1  21
TORSDOF 4
ENDMDL
MODEL 2
REMARK VINA RESULT: -7.983741120      2.232      8.273
REMARK  4 active torsions:
REMARK  status: ('A' for Active; 'I' for Inactive)
REMARK    1  A    between atoms: C4_6  and  C5_7 
REMARK    2  A    between atoms: C5_7  and  N2_8 
REMARK    3  A    between atoms: N3_16  and  C12_17 
REMARK    4  A    between atoms: C12_17  and  C13_18 
ROOT
HETATM    1  N2  UNL     1     -23.771  24.867  -3.280  1.00  0.00    -0.381 N 
HETATM    2  C6  UNL     1     -22.469  25.404  -3.427  1.00  0.00     0.148 C 
HETATM    3  C7  UNL     1     -21.676  24.406  -4.285  1.00  0.00     0.189 C 
HETATM    4  O1  UNL     1     -22.252  24.477  -5.525  1.00  0.00    -0.370 OA
HETATM    5  C8  UNL     1     -23.554  23.989  -5.598  1.00  0.00     0.118 C 
HETATM    6  C9  UNL     1     -23.410  22.487  -5.839  1.00  0.00     0.051 C 
HETATM    7  C10 UNL     1     -24.704  21.829  -6.180  1.00  0.00     0.048 C 
HETATM    8  C11 UNL     1     -25.731  22.750  -6.752  1.00  0.00     0.064 C 
HETATM    9  N3  UNL     1     -25.163  23.810  -7.446  1.00  0.00    -0.358 N 
HETATM   10  C17 UNL     1     -24.132  24.581  -6.890  1.00  0.00     0.071 C 
HETATM   11  C18 UNL     1     -24.467  26.031  -6.674  1.00  0.00     0.035 C 
HETATM   12  C19 UNL     1     -23.150  26.457  -7.290  1.00  0.00     0.005 C 
HETATM   13  C20 UNL     1     -23.027  25.035  -7.815  1.00  0.00     0.035 C 
HETATM   14  C21 UNL     1     -24.380  24.267  -4.396  1.00  0.00     0.099 C 
ENDROOT
BRANCH   9  15
HETATM   15  C12 UNL     1     -25.534  24.150  -8.739  1.00  0.00     0.096 C 
BRANCH  15  16
HETATM   16  C13 UNL     1     -25.535  23.123  -9.811  1.00  0.00     0.160 C 
HETATM   17  C14 UNL     1     -25.549  23.680 -11.218  1.00  0.00     0.039 C 
HETATM   18  C15 UNL     1     -24.902  22.566 -12.012  1.00  0.00     0.029 C 
HETATM   19  C16 UNL     1     -24.476  21.603 -10.922  1.00  0.00     0.168 C 
HETATM   20  O2  UNL     1     -24.274  22.468  -9.856  1.00  0.00    -0.381 OA
ENDBRANCH  15  16
ENDBRANCH   9  15
BRANCH   1  21
HETATM   21  C5  UNL     1     -23.907  24.247  -2.011  1.00  0.00     0.198 C 
BRANCH  21  22
HETATM   22  C4  UNL     1     -24.966  24.749  -1.140  1.00  0.00     0.099 A 
HETATM   23  N1  UNL     1     -25.148  24.192   0.078  1.00  0.00    -0.354 N 
HETATM   24  C3  UNL     1     -26.102  24.601   0.937  1.00  0.00     0.097 A 
ATOM     25  H1  UNL     1     -24.535  23.427   0.360  1.00  0.00     0.166 HD
HETATM   26  C2  UNL     1     -26.937  25.626   0.580  1.00  0.00    -0.031 A 
HETATM   27  C1  UNL     1     -28.003  26.108   1.501  1.00  0.00     0.051 C 
HETATM   28  C22 UNL     1     -26.751  26.198  -0.669  1.00  0.00     0.097 A 
HETATM   29  N4  UNL     1     -25.782  25.749  -1.486  1.00  0.00    -0.354 N 
ATOM     30  H4  UNL     1     -25.667  26.185  -2.401  1.00  0.00     0.166 HD
ENDBRANCH  21  22
ENDBRANCH   1  21
TORSDOF 4
ENDMDL
MODEL 3
REMARK VINA RESULT: -7.913803106      4.732      7.348
REMARK  4 active torsions:
REMARK  status: ('A' for Active; 'I' for Inactive)
REMARK    1  A    between atoms: C4_6  and  C5_7 
REMARK    2  A    between atoms: C5_7  and  N2_8 
REMARK    3  A    between atoms: N3_16  and  C12_17 
REMARK    4  A    between atoms: C12_17  and  C13_18 
ROOT
HETATM    1  N2  UNL     1     -23.346  24.583 -13.153  1.00  0.00    -0.381 N 
HETATM    2  C6  UNL     1     -23.236  23.293 -13.727  1.00  0.00     0.148 C 
HETATM    3  C7  UNL     1     -22.355  22.464 -12.780  1.00  0.00     0.189 C 
HETATM    4  O1  UNL     1     -23.110  22.308 -11.648  1.00  0.00    -0.370 OA
HETATM    5  C8  UNL     1     -23.337  23.476 -10.925  1.00  0.00     0.118 C 
HETATM    6  C9  UNL     1     -22.128  23.621 -10.001  1.00  0.00     0.051 C 
HETATM    7  C10 UNL     1     -22.306  24.692  -8.980  1.00  0.00     0.048 C 
HETATM    8  C11 UNL     1     -23.729  25.024  -8.677  1.00  0.00     0.064 C 
HETATM    9  N3  UNL     1     -24.576  23.938  -8.854  1.00  0.00    -0.358 N 
HETATM   10  C17 UNL     1     -24.536  23.162 -10.021  1.00  0.00     0.071 C 
HETATM   11  C18 UNL     1     -25.799  23.176 -10.838  1.00  0.00     0.035 C 
HETATM   12  C19 UNL     1     -25.755  21.669 -10.986  1.00  0.00     0.005 C 
HETATM   13  C20 UNL     1     -24.721  21.670  -9.871  1.00  0.00     0.035 C 
HETATM   14  C21 UNL     1     -23.526  24.687 -11.763  1.00  0.00     0.099 C 
ENDROOT
BRANCH   9  15
HETATM   15  C12 UNL     1     -25.474  23.515  -7.885  1.00  0.00     0.096 C 
BRANCH  15  16
HETATM   16  C13 UNL     1     -24.986  23.073  -6.555  1.00  0.00     0.160 C 
HETATM   17  C14 UNL     1     -25.718  21.880  -5.980  1.00  0.00     0.039 C 
HETATM   18  C15 UNL     1     -24.677  21.273  -5.064  1.00  0.00     0.029 C 
HETATM   19  C16 UNL     1     -23.455  22.119  -5.367  1.00  0.00     0.168 C 
HETATM   20  O2  UNL     1     -23.696  22.488  -6.682  1.00  0.00    -0.381 OA
ENDBRANCH  15  16
ENDBRANCH   9  15
BRANCH   1  21
HETATM   21  C5  UNL     1     -22.460  25.484 -13.798  1.00  0.00     0.198 C 
BRANCH  21  22
HETATM   22  C4  UNL     1     -23.062  26.618 -14.496  1.00  0.00     0.099 A 
HETATM   23  N1  UNL     1     -22.320  27.334 -15.369  1.00  0.00    -0.354 N 
HETATM   24  C3  UNL     1     -22.804  28.390 -16.051  1.00  0.00     0.097 A 
ATOM     25  H1  UNL     1     -21.347  27.063 -15.518  1.00  0.00     0.166 HD
HETATM   26  C2  UNL     1     -24.107  28.772 -15.866  1.00  0.00    -0.031 A 
HETATM   27  C1  UNL     1     -24.681  29.933 -16.601  1.00  0.00     0.051 C 
HETATM   28  C22 UNL     1     -24.870  28.037 -14.972  1.00  0.00     0.097 A 
HETATM   29  N4  UNL     1     -24.332  26.992 -14.318  1.00  0.00    -0.354 N 
ATOM     30  H4  UNL     1     -24.914  26.468 -13.664  1.00  0.00     0.166 HD
ENDBRANCH  21  22
ENDBRANCH   1  21
TORSDOF 4
ENDMDL
MODEL 4
REMARK VINA RESULT: -7.665158506      2.053      3.291
REMARK  4 active torsions:
REMARK  status: ('A' for Active; 'I' for Inactive)
REMARK    1  A    between atoms: C4_6  and  C5_7 
REMARK    2  A    between atoms: C5_7  and  N2_8 
REMARK    3  A    between atoms: N3_16  and  C12_17 
REMARK    4  A    between atoms: C12_17  and  C13_18 
ROOT
HETATM    1  N2  UNL     1     -24.498  23.626  -7.785  1.00  0.00    -0.381 N 
HETATM    2  C6  UNL     1     -25.356  22.565  -8.161  1.00  0.00     0.148 C 
HETATM    3  C7  UNL     1     -25.339  21.555  -7.003  1.00  0.00     0.189 C 
HETATM    4  O1  UNL     1     -25.968  22.197  -5.970  1.00  0.00    -0.370 OA
HETATM    5  C8  UNL     1     -25.278  23.287  -5.447  1.00  0.00     0.118 C 
HETATM    6  C9  UNL     1     -24.331  22.702  -4.400  1.00  0.00     0.051 C 
HETATM    7  C10 UNL     1     -23.675  23.748  -3.565  1.00  0.00     0.048 C 
HETATM    8  C11 UNL     1     -24.419  25.040  -3.500  1.00  0.00     0.064 C 
HETATM    9  N3  UNL     1     -25.790  24.869  -3.638  1.00  0.00    -0.358 N 
HETATM   10  C17 UNL     1     -26.329  24.095  -4.675  1.00  0.00     0.071 C 
HETATM   11  C18 UNL     1     -27.198  24.847  -5.645  1.00  0.00     0.035 C 
HETATM   12  C19 UNL     1     -28.256  23.764  -5.583  1.00  0.00     0.005 C 
HETATM   13  C20 UNL     1     -27.533  23.241  -4.352  1.00  0.00     0.035 C 
HETATM   14  C21 UNL     1     -24.539  24.086  -6.458  1.00  0.00     0.099 C 
ENDROOT
BRANCH   9  15
HETATM   15  C12 UNL     1     -26.711  25.402  -2.748  1.00  0.00     0.096 C 
BRANCH  15  16
HETATM   16  C13 UNL     1     -26.406  25.450  -1.297  1.00  0.00     0.160 C 
HETATM   17  C14 UNL     1     -27.067  26.589  -0.551  1.00  0.00     0.039 C 
HETATM   18  C15 UNL     1     -27.153  26.045   0.859  1.00  0.00     0.029 C 
HETATM   19  C16 UNL     1     -26.668  24.619   0.680  1.00  0.00     0.168 C 
HETATM   20  O2  UNL     1     -27.041  24.366  -0.632  1.00  0.00    -0.381 OA
ENDBRANCH  15  16
ENDBRANCH   9  15
BRANCH   1  21
HETATM   21  C5  UNL     1     -23.239  23.489  -8.423  1.00  0.00     0.198 C 
BRANCH  21  22
HETATM   22  C4  UNL     1     -23.232  23.499  -9.884  1.00  0.00     0.099 A 
HETATM   23  N1  UNL     1     -22.688  22.460 -10.556  1.00  0.00    -0.354 N 
HETATM   24  C3  UNL     1     -22.646  22.396 -11.901  1.00  0.00     0.097 A 
ATOM     25  H1  UNL     1     -22.291  21.688 -10.019  1.00  0.00     0.166 HD
HETATM   26  C2  UNL     1     -23.174  23.421 -12.641  1.00  0.00    -0.031 A 
HETATM   27  C1  UNL     1     -23.148  23.389 -14.130  1.00  0.00     0.051 C 
HETATM   28  C22 UNL     1     -23.733  24.487 -11.953  1.00  0.00     0.097 A 
HETATM   29  N4  UNL     1     -23.746  24.497 -10.608  1.00  0.00    -0.354 N 
ATOM     30  H4  UNL     1     -24.162  25.293 -10.126  1.00  0.00     0.166 HD
ENDBRANCH  21  22
ENDBRANCH   1  21
TORSDOF 4
ENDMDL
MODEL 5
REMARK VINA RESULT: -7.650376163      1.521      2.125
REMARK  4 active torsions:
REMARK  status: ('A' for Active; 'I' for Inactive)
REMARK    1  A    between atoms: C4_6  and  C5_7 
REMARK    2  A    between atoms: C5_7  and  N2_8 
REMARK    3  A    between atoms: N3_16  and  C12_17 
REMARK    4  A    between atoms: C12_17  and  C13_18 
ROOT
HETATM    1  N2  UNL     1     -25.238  23.933  -8.193  1.00  0.00    -0.381 N 
HETATM    2  C6  UNL     1     -23.895  24.365  -8.314  1.00  0.00     0.148 C 
HETATM    3  C7  UNL     1     -23.825  25.764  -7.680  1.00  0.00     0.189 C 
HETATM    4  O1  UNL     1     -24.032  25.551  -6.343  1.00  0.00    -0.370 OA
HETATM    5  C8  UNL     1     -25.311  25.116  -6.006  1.00  0.00     0.118 C 
HETATM    6  C9  UNL     1     -26.143  26.389  -5.850  1.00  0.00     0.051 C 
HETATM    7  C10 UNL     1     -27.487  26.132  -5.259  1.00  0.00     0.048 C 
HETATM    8  C11 UNL     1     -27.575  24.881  -4.450  1.00  0.00     0.064 C 
HETATM    9  N3  UNL     1     -26.363  24.545  -3.861  1.00  0.00    -0.358 N 
HETATM   10  C17 UNL     1     -25.173  24.515  -4.601  1.00  0.00     0.071 C 
HETATM   11  C18 UNL     1     -24.514  23.167  -4.693  1.00  0.00     0.035 C 
HETATM   12  C19 UNL     1     -23.165  23.771  -4.363  1.00  0.00     0.005 C 
HETATM   13  C20 UNL     1     -23.919  25.015  -3.923  1.00  0.00     0.035 C 
HETATM   14  C21 UNL     1     -25.921  24.189  -6.992  1.00  0.00     0.099 C 
ENDROOT
BRANCH   9  15
HETATM   15  C12 UNL     1     -26.233  24.266  -2.508  1.00  0.00     0.096 C 
BRANCH  15  16
HETATM   16  C13 UNL     1     -26.898  25.129  -1.500  1.00  0.00     0.160 C 
HETATM   17  C14 UNL     1     -26.812  24.618  -0.078  1.00  0.00     0.039 C 
HETATM   18  C15 UNL     1     -26.932  25.892   0.731  1.00  0.00     0.029 C 
HETATM   19  C16 UNL     1     -26.916  26.956  -0.348  1.00  0.00     0.168 C 
HETATM   20  O2  UNL     1     -26.164  26.335  -1.335  1.00  0.00    -0.381 OA
ENDBRANCH  15  16
ENDBRANCH   9  15
BRANCH   1  21
HETATM   21  C5  UNL     1     -25.924  24.110  -9.422  1.00  0.00     0.198 C 
BRANCH  21  22
HETATM   22  C4  UNL     1     -25.187  23.795 -10.643  1.00  0.00     0.099 A 
HETATM   23  N1  UNL     1     -24.722  24.798 -11.420  1.00  0.00    -0.354 N 
HETATM   24  C3  UNL     1     -24.034  24.587 -12.559  1.00  0.00     0.097 A 
ATOM     25  H1  UNL     1     -24.902  25.760 -11.132  1.00  0.00     0.166 HD
HETATM   26  C2  UNL     1     -23.781  23.303 -12.965  1.00  0.00    -0.031 A 
HETATM   27  C1  UNL     1     -23.023  23.027 -14.217  1.00  0.00     0.051 C 
HETATM   28  C22 UNL     1     -24.256  22.273 -12.168  1.00  0.00     0.097 A 
HETATM   29  N4  UNL     1     -24.939  22.544 -11.042  1.00  0.00    -0.354 N 
ATOM     30  H4  UNL     1     -25.279  21.768 -10.474  1.00  0.00     0.166 HD
ENDBRANCH  21  22
ENDBRANCH   1  21
TORSDOF 4
ENDMDL
