MODEL 1
REMARK VINA RESULT: -8.480391246      0.000      0.000
REMARK  7 active torsions:
REMARK  status: ('A' for Active; 'I' for Inactive)
REMARK    1  A    between atoms: O1_2  and  C2_3 
REMARK    2  A    between atoms: C2_3  and  C3_5 
REMARK    3  A    between atoms: C3_5  and  C4_6 
REMARK    4  A    between atoms: C4_6  and  C5_7 
REMARK    5  A    between atoms: C5_7  and  O3_8 
REMARK    6  A    between atoms: C5_7  and  N1_10 
REMARK    7  A    between atoms: N2_19  and  C13_20 
ROOT
HETATM    1  C4  UNL     1     -26.518  24.445  -5.678  1.00  0.00     0.061 C 
HETATM    2  C10 UNL     1     -26.528  22.970  -5.115  1.00  0.00     0.104 C 
HETATM    3  C11 UNL     1     -25.934  22.174  -6.099  1.00  0.00    -0.162 C 
HETATM    4  C12 UNL     1     -25.345  21.450  -7.161  1.00  0.00     0.203 C 
HETATM    5  N2  UNL     1     -25.056  22.463  -8.222  1.00  0.00    -0.376 N 
HETATM    6  C20 UNL     1     -25.215  23.797  -7.841  1.00  0.00     0.084 C 
HETATM    7  C21 UNL     1     -26.353  24.419  -7.172  1.00  0.00     0.009 C 
ENDROOT
BRANCH   1   8
HETATM    8  C3  UNL     1     -27.764  25.073  -5.238  1.00  0.00     0.134 C 
BRANCH   8   9
HETATM    9  C2  UNL     1     -28.106  26.431  -5.620  1.00  0.00     0.259 C 
HETATM   10  O2  UNL     1     -28.923  26.739  -6.488  1.00  0.00    -0.265 OA
BRANCH   9  11
HETATM   11  O1  UNL     1     -27.484  27.537  -4.981  1.00  0.00    -0.326 OA
HETATM   12  C1  UNL     1     -28.242  28.466  -4.247  1.00  0.00     0.213 C 
ENDBRANCH   9  11
ENDBRANCH   8   9
ENDBRANCH   1   8
BRANCH   1  13
HETATM   13  C5  UNL     1     -25.383  25.125  -5.011  1.00  0.00     0.127 C 
BRANCH  13  14
HETATM   14  O3  UNL     1     -24.870  26.110  -5.715  1.00  0.00    -0.349 OA
ATOM     15  H3  UNL     1     -24.283  26.668  -5.219  1.00  0.00     0.219 HD
ENDBRANCH  13  14
BRANCH  13  16
HETATM   16  N1  UNL     1     -24.761  24.936  -3.807  1.00  0.00    -0.360 N 
HETATM   17  C6  UNL     1     -23.269  24.871  -3.782  1.00  0.00     0.151 C 
HETATM   18  C7  UNL     1     -22.920  23.812  -2.785  1.00  0.00     0.187 C 
HETATM   19  O4  UNL     1     -23.230  24.205  -1.488  1.00  0.00    -0.388 OA
HETATM   20  C8  UNL     1     -24.296  25.063  -1.420  1.00  0.00     0.187 C 
HETATM   21  C9  UNL     1     -25.337  24.757  -2.522  1.00  0.00     0.151 C 
ENDBRANCH  13  16
ENDBRANCH   1  13
BRANCH   5  22
HETATM   22  C13 UNL     1     -25.270  22.002  -9.505  1.00  0.00     0.089 C 
HETATM   23  C14 UNL     1     -25.782  22.996 -10.532  1.00  0.00     0.051 C 
HETATM   24  C15 UNL     1     -25.533  22.324 -11.888  1.00  0.00     0.171 C 
HETATM   25  O5  UNL     1     -25.678  20.959 -11.843  1.00  0.00    -0.381 OA
HETATM   26  C16 UNL     1     -24.715  20.287 -11.128  1.00  0.00     0.055 C 
HETATM   27  C17 UNL     1     -25.425  19.259 -10.246  1.00  0.00     0.045 C 
HETATM   28  C18 UNL     1     -23.687  19.605 -11.960  1.00  0.00     0.045 C 
HETATM   29  C19 UNL     1     -24.095  21.301 -10.151  1.00  0.00     0.062 C 
ENDBRANCH   5  22
TORSDOF 7
ENDMDL
MODEL 2
REMARK VINA RESULT: -8.178912375      1.257      1.775
REMARK  7 active torsions:
REMARK  status: ('A' for Active; 'I' for Inactive)
REMARK    1  A    between atoms: O1_2  and  C2_3 
REMARK    2  A    between atoms: C2_3  and  C3_5 
REMARK    3  A    between atoms: C3_5  and  C4_6 
REMARK    4  A    between atoms: C4_6  and  C5_7 
REMARK    5  A    between atoms: C5_7  and  O3_8 
REMARK    6  A    between atoms: C5_7  and  N1_10 
REMARK    7  A    between atoms: N2_19  and  C13_20 
ROOT
HETATM    1  C4  UNL     1     -26.378  24.294  -5.512  1.00  0.00     0.061 C 
HETATM    2  C10 UNL     1     -26.451  22.807  -4.985  1.00  0.00     0.104 C 
HETATM    3  C11 UNL     1     -25.899  22.010  -5.992  1.00  0.00    -0.162 C 
HETATM    4  C12 UNL     1     -25.349  21.287  -7.075  1.00  0.00     0.203 C 
HETATM    5  N2  UNL     1     -25.020  22.311  -8.113  1.00  0.00    -0.376 N 
HETATM    6  C20 UNL     1     -25.116  23.641  -7.698  1.00  0.00     0.084 C 
HETATM    7  C21 UNL     1     -26.222  24.298  -7.008  1.00  0.00     0.009 C 
ENDROOT
BRANCH   1   8
HETATM    8  C3  UNL     1     -27.591  24.966  -5.049  1.00  0.00     0.134 C 
BRANCH   8   9
HETATM    9  C2  UNL     1     -27.962  26.284  -5.534  1.00  0.00     0.259 C 
HETATM   10  O2  UNL     1     -28.764  26.506  -6.439  1.00  0.00    -0.265 OA
BRANCH   9  11
HETATM   11  O1  UNL     1     -27.387  27.449  -4.960  1.00  0.00    -0.326 OA
HETATM   12  C1  UNL     1     -28.191  28.413  -4.326  1.00  0.00     0.213 C 
ENDBRANCH   9  11
ENDBRANCH   8   9
ENDBRANCH   1   8
BRANCH   1  13
HETATM   13  C5  UNL     1     -25.209  24.905  -4.836  1.00  0.00     0.127 C 
BRANCH  13  14
HETATM   14  O3  UNL     1     -25.482  25.388  -3.643  1.00  0.00    -0.349 OA
ATOM     15  H3  UNL     1     -24.729  25.422  -3.065  1.00  0.00     0.219 HD
ENDBRANCH  13  14
BRANCH  13  16
HETATM   16  N1  UNL     1     -23.901  25.067  -5.202  1.00  0.00    -0.360 N 
HETATM   17  C6  UNL     1     -22.888  24.117  -4.651  1.00  0.00     0.151 C 
HETATM   18  C7  UNL     1     -21.671  24.937  -4.360  1.00  0.00     0.187 C 
HETATM   19  O4  UNL     1     -21.064  25.387  -5.527  1.00  0.00    -0.388 OA
HETATM   20  C8  UNL     1     -21.945  25.580  -6.559  1.00  0.00     0.187 C 
HETATM   21  C9  UNL     1     -23.323  26.054  -6.042  1.00  0.00     0.151 C 
ENDBRANCH  13  16
ENDBRANCH   1  13
BRANCH   5  22
HETATM   22  C13 UNL     1     -25.262  21.892  -9.406  1.00  0.00     0.089 C 
HETATM   23  C14 UNL     1     -25.758  22.927 -10.399  1.00  0.00     0.051 C 
HETATM   24  C15 UNL     1     -25.544  22.287 -11.775  1.00  0.00     0.171 C 
HETATM   25  O5  UNL     1     -25.725  20.926 -11.766  1.00  0.00    -0.381 OA
HETATM   26  C16 UNL     1     -24.773  20.208 -11.082  1.00  0.00     0.055 C 
HETATM   27  C17 UNL     1     -25.502  19.176 -10.220  1.00  0.00     0.045 C 
HETATM   28  C18 UNL     1     -23.774  19.521 -11.944  1.00  0.00     0.045 C 
HETATM   29  C19 UNL     1     -24.115  21.177 -10.085  1.00  0.00     0.062 C 
ENDBRANCH   5  22
TORSDOF 7
ENDMDL
MODEL 3
REMARK VINA RESULT: -8.126031136      1.264      1.582
REMARK  7 active torsions:
REMARK  status: ('A' for Active; 'I' for Inactive)
REMARK    1  A    between atoms: O1_2  and  C2_3 
REMARK    2  A    between atoms: C2_3  and  C3_5 
REMARK    3  A    between atoms: C3_5  and  C4_6 
REMARK    4  A    between atoms: C4_6  and  C5_7 
REMARK    5  A    between atoms: C5_7  and  O3_8 
REMARK    6  A    between atoms: C5_7  and  N1_10 
REMARK    7  A    between atoms: N2_19  and  C13_20 
ROOT
HETATM    1  C4  UNL     1     -26.354  24.226  -5.344  1.00  0.00     0.061 C 
HETATM    2  C10 UNL     1     -26.613  22.694  -5.063  1.00  0.00     0.104 C 
HETATM    3  C11 UNL     1     -26.039  22.000  -6.132  1.00  0.00    -0.162 C 
HETATM    4  C12 UNL     1     -25.453  21.390  -7.264  1.00  0.00     0.203 C 
HETATM    5  N2  UNL     1     -24.933  22.516  -8.100  1.00  0.00    -0.376 N 
HETATM    6  C20 UNL     1     -24.948  23.773  -7.493  1.00  0.00     0.084 C 
HETATM    7  C21 UNL     1     -26.053  24.433  -6.803  1.00  0.00     0.009 C 
ENDROOT
BRANCH   1   8
HETATM    8  C3  UNL     1     -27.542  24.946  -4.886  1.00  0.00     0.134 C 
BRANCH   8   9
HETATM    9  C2  UNL     1     -27.924  26.224  -5.460  1.00  0.00     0.259 C 
HETATM   10  O2  UNL     1     -28.714  26.374  -6.391  1.00  0.00    -0.265 OA
BRANCH   9  11
HETATM   11  O1  UNL     1     -27.379  27.433  -4.951  1.00  0.00    -0.326 OA
HETATM   12  C1  UNL     1     -28.199  28.386  -4.321  1.00  0.00     0.213 C 
ENDBRANCH   9  11
ENDBRANCH   8   9
ENDBRANCH   1   8
BRANCH   1  13
HETATM   13  C5  UNL     1     -25.207  24.607  -4.486  1.00  0.00     0.127 C 
BRANCH  13  14
HETATM   14  O3  UNL     1     -25.531  25.415  -3.501  1.00  0.00    -0.349 OA
ATOM     15  H3  UNL     1     -24.784  25.727  -3.003  1.00  0.00     0.219 HD
ENDBRANCH  13  14
BRANCH  13  16
HETATM   16  N1  UNL     1     -23.879  24.284  -4.512  1.00  0.00    -0.360 N 
HETATM   17  C6  UNL     1     -22.906  25.321  -4.969  1.00  0.00     0.151 C 
HETATM   18  C7  UNL     1     -21.881  24.594  -5.781  1.00  0.00     0.187 C 
HETATM   19  O4  UNL     1     -21.093  23.766  -4.990  1.00  0.00    -0.388 OA
HETATM   20  C8  UNL     1     -21.749  23.282  -3.888  1.00  0.00     0.187 C 
HETATM   21  C9  UNL     1     -23.250  23.056  -4.180  1.00  0.00     0.151 C 
ENDBRANCH  13  16
ENDBRANCH   1  13
BRANCH   5  22
HETATM   22  C13 UNL     1     -25.083  22.318  -9.457  1.00  0.00     0.089 C 
HETATM   23  C14 UNL     1     -25.706  23.440 -10.266  1.00  0.00     0.051 C 
HETATM   24  C15 UNL     1     -25.372  23.108 -11.725  1.00  0.00     0.171 C 
HETATM   25  O5  UNL     1     -25.349  21.758 -11.974  1.00  0.00    -0.381 OA
HETATM   26  C16 UNL     1     -24.315  21.067 -11.389  1.00  0.00     0.055 C 
HETATM   27  C17 UNL     1     -24.899  19.798 -10.766  1.00  0.00     0.045 C 
HETATM   28  C18 UNL     1     -23.207  20.705 -12.314  1.00  0.00     0.045 C 
HETATM   29  C19 UNL     1     -23.828  21.914 -10.201  1.00  0.00     0.062 C 
ENDBRANCH   5  22
TORSDOF 7
ENDMDL
MODEL 4
REMARK VINA RESULT: -8.089913453      3.388      4.780
REMARK  7 active torsions:
REMARK  status: ('A' for Active; 'I' for Inactive)
REMARK    1  A    between atoms: O1_2  and  C2_3 
REMARK    2  A    between atoms: C2_3  and  C3_5 
REMARK    3  A    between atoms: C3_5  and  C4_6 
REMARK    4  A    between atoms: C4_6  and  C5_7 
REMARK    5  A    between atoms: C5_7  and  O3_8 
REMARK    6  A    between atoms: C5_7  and  N1_10 
REMARK    7  A    between atoms: N2_19  and  C13_20 
ROOT
HETATM    1  C4  UNL     1     -26.441  24.540  -3.802  1.00  0.00     0.061 C 
HETATM    2  C10 UNL     1     -27.007  23.245  -4.507  1.00  0.00     0.104 C 
HETATM    3  C11 UNL     1     -25.910  22.404  -4.713  1.00  0.00    -0.162 C 
HETATM    4  C12 UNL     1     -24.739  21.635  -4.901  1.00  0.00     0.203 C 
HETATM    5  N2  UNL     1     -23.624  22.466  -4.351  1.00  0.00    -0.376 N 
HETATM    6  C20 UNL     1     -24.014  23.602  -3.638  1.00  0.00     0.084 C 
HETATM    7  C21 UNL     1     -24.959  24.641  -4.035  1.00  0.00     0.009 C 
ENDROOT
BRANCH   1   8
HETATM    8  C3  UNL     1     -27.195  25.674  -4.335  1.00  0.00     0.134 C 
BRANCH   8   9
HETATM    9  C2  UNL     1     -27.495  25.789  -5.752  1.00  0.00     0.259 C 
HETATM   10  O2  UNL     1     -28.625  25.873  -6.232  1.00  0.00    -0.265 OA
BRANCH   9  11
HETATM   11  O1  UNL     1     -26.447  25.809  -6.710  1.00  0.00    -0.326 OA
HETATM   12  C1  UNL     1     -26.289  24.757  -7.629  1.00  0.00     0.213 C 
ENDBRANCH   9  11
ENDBRANCH   8   9
ENDBRANCH   1   8
BRANCH   1  13
HETATM   13  C5  UNL     1     -26.763  24.390  -2.363  1.00  0.00     0.127 C 
BRANCH  13  14
HETATM   14  O3  UNL     1     -27.547  23.367  -2.102  1.00  0.00    -0.349 OA
ATOM     15  H3  UNL     1     -27.364  22.601  -2.634  1.00  0.00     0.219 HD
ENDBRANCH  13  14
BRANCH  13  16
HETATM   16  N1  UNL     1     -26.406  25.101  -1.251  1.00  0.00    -0.360 N 
HETATM   17  C6  UNL     1     -25.403  24.503  -0.319  1.00  0.00     0.151 C 
HETATM   18  C7  UNL     1     -25.865  24.851   1.060  1.00  0.00     0.187 C 
HETATM   19  O4  UNL     1     -25.744  26.212   1.315  1.00  0.00    -0.388 OA
HETATM   20  C8  UNL     1     -25.880  26.989   0.194  1.00  0.00     0.187 C 
HETATM   21  C9  UNL     1     -26.878  26.364  -0.808  1.00  0.00     0.151 C 
ENDBRANCH  13  16
ENDBRANCH   1  13
BRANCH   5  22
HETATM   22  C13 UNL     1     -22.455  22.383  -5.080  1.00  0.00     0.089 C 
HETATM   23  C14 UNL     1     -22.390  23.143  -6.391  1.00  0.00     0.051 C 
HETATM   24  C15 UNL     1     -20.898  23.193  -6.744  1.00  0.00     0.171 C 
HETATM   25  O5  UNL     1     -20.218  22.068  -6.350  1.00  0.00    -0.381 OA
HETATM   26  C16 UNL     1     -20.078  21.909  -4.992  1.00  0.00     0.055 C 
HETATM   27  C17 UNL     1     -20.407  20.452  -4.660  1.00  0.00     0.045 C 
HETATM   28  C18 UNL     1     -18.729  22.248  -4.462  1.00  0.00     0.045 C 
HETATM   29  C19 UNL     1     -21.190  22.737  -4.328  1.00  0.00     0.062 C 
ENDBRANCH   5  22
TORSDOF 7
ENDMDL
MODEL 5
REMARK VINA RESULT: -7.802133399      2.209      7.737
REMARK  7 active torsions:
REMARK  status: ('A' for Active; 'I' for Inactive)
REMARK    1  A    between atoms: O1_2  and  C2_3 
REMARK    2  A    between atoms: C2_3  and  C3_5 
REMARK    3  A    between atoms: C3_5  and  C4_6 
REMARK    4  A    between atoms: C4_6  and  C5_7 
REMARK    5  A    between atoms: C5_7  and  O3_8 
REMARK    6  A    between atoms: C5_7  and  N1_10 
REMARK    7  A    between atoms: N2_19  and  C13_20 
ROOT
HETATM    1  C4  UNL     1     -24.823  23.694 -10.178  1.00  0.00     0.061 C 
HETATM    2  C10 UNL     1     -23.670  24.753  -9.973  1.00  0.00     0.104 C 
HETATM    3  C11 UNL     1     -23.595  24.984  -8.596  1.00  0.00    -0.162 C 
HETATM    4  C12 UNL     1     -23.612  25.170  -7.195  1.00  0.00     0.203 C 
HETATM    5  N2  UNL     1     -24.706  24.286  -6.689  1.00  0.00    -0.376 N 
HETATM    6  C20 UNL     1     -25.241  23.396  -7.622  1.00  0.00     0.084 C 
HETATM    7  C21 UNL     1     -25.721  23.677  -8.972  1.00  0.00     0.009 C 
ENDROOT
BRANCH   1   8
HETATM    8  C3  UNL     1     -25.513  24.055 -11.415  1.00  0.00     0.134 C 
BRANCH   8   9
HETATM    9  C2  UNL     1     -24.790  24.555 -12.571  1.00  0.00     0.259 C 
HETATM   10  O2  UNL     1     -24.851  25.706 -13.003  1.00  0.00    -0.265 OA
BRANCH   9  11
HETATM   11  O1  UNL     1     -23.928  23.698 -13.306  1.00  0.00    -0.326 OA
HETATM   12  C1  UNL     1     -22.627  24.106 -13.651  1.00  0.00     0.213 C 
ENDBRANCH   9  11
ENDBRANCH   8   9
ENDBRANCH   1   8
BRANCH   1  13
HETATM   13  C5  UNL     1     -24.144  22.391 -10.377  1.00  0.00     0.127 C 
BRANCH  13  14
HETATM   14  O3  UNL     1     -22.837  22.489 -10.489  1.00  0.00    -0.349 OA
ATOM     15  H3  UNL     1     -22.402  21.654 -10.613  1.00  0.00     0.219 HD
ENDBRANCH  13  14
BRANCH  13  16
HETATM   16  N1  UNL     1     -24.603  21.106 -10.464  1.00  0.00    -0.360 N 
HETATM   17  C6  UNL     1     -23.837  20.135 -11.301  1.00  0.00     0.151 C 
HETATM   18  C7  UNL     1     -24.860  19.289 -11.989  1.00  0.00     0.187 C 
HETATM   19  O4  UNL     1     -25.528  18.460 -11.095  1.00  0.00    -0.388 OA
HETATM   20  C8  UNL     1     -25.627  18.988  -9.834  1.00  0.00     0.187 C 
HETATM   21  C9  UNL     1     -25.759  20.528  -9.877  1.00  0.00     0.151 C 
ENDBRANCH  13  16
ENDBRANCH   1  13
BRANCH   5  22
HETATM   22  C13 UNL     1     -25.430  24.835  -5.650  1.00  0.00     0.089 C 
HETATM   23  C14 UNL     1     -26.334  26.011  -5.969  1.00  0.00     0.051 C 
HETATM   24  C15 UNL     1     -27.273  26.125  -4.761  1.00  0.00     0.171 C 
HETATM   25  O5  UNL     1     -26.666  25.783  -3.578  1.00  0.00    -0.381 OA
HETATM   26  C16 UNL     1     -26.353  24.452  -3.439  1.00  0.00     0.055 C 
HETATM   27  C17 UNL     1     -24.928  24.366  -2.888  1.00  0.00     0.045 C 
HETATM   28  C18 UNL     1     -27.275  23.685  -2.559  1.00  0.00     0.045 C 
HETATM   29  C19 UNL     1     -26.275  23.861  -4.858  1.00  0.00     0.062 C 
ENDBRANCH   5  22
TORSDOF 7
ENDMDL
