MODEL 1
REMARK VINA RESULT: -6.281907105      0.000      0.000
REMARK  12 active torsions:
REMARK  status: ('A' for Active; 'I' for Inactive)
REMARK    1  A    between atoms: C1_2  and  C2_4 
REMARK    2  A    between atoms: N4_8  and  C3_9 
REMARK    3  A    between atoms: C3_9  and  C4_10 
REMARK    4  A    between atoms: C4_10  and  O2_11 
REMARK    5  A    between atoms: C4_10  and  C5_13 
REMARK    6  A    between atoms: C5_13  and  O3_14 
REMARK    7  A    between atoms: C5_13  and  C6_16 
REMARK    8  A    between atoms: N5_18  and  C8_19 
REMARK    9  A    between atoms: C9_20  and  C10_21 
REMARK   10  A    between atoms: C10_21  and  N6_22 
REMARK   11  A    between atoms: C10_21  and  O4_26 
REMARK   12  A    between atoms: C15_38  and  O7_39 
ROOT
HETATM    1  C6  UNL     1     -20.766 -11.104 -39.062  1.00  0.00     0.080 A 
HETATM    2  C7  UNL     1     -19.880 -12.198 -39.040  1.00  0.00     0.121 A 
HETATM    3  N5  UNL     1     -20.296 -13.419 -38.631  1.00  0.00    -0.271 N 
HETATM    4  C13 UNL     1     -21.575 -13.566 -38.255  1.00  0.00     0.334 A 
HETATM    5  O5  UNL     1     -22.039 -14.674 -37.879  1.00  0.00    -0.246 OA
HETATM    6  N8  UNL     1     -22.467 -12.525 -38.253  1.00  0.00    -0.274 N 
ATOM      7  H8  UNL     1     -23.429 -12.678 -37.952  1.00  0.00     0.173 HD
HETATM    8  C14 UNL     1     -22.077 -11.309 -38.647  1.00  0.00     0.263 A 
HETATM    9  O6  UNL     1     -22.832 -10.311 -38.679  1.00  0.00    -0.267 OA
ENDROOT
BRANCH   1  10
HETATM   10  C5  UNL     1     -20.332  -9.745 -39.411  1.00  0.00     0.094 C 
BRANCH  10  11
HETATM   11  C4  UNL     1     -19.012  -9.361 -38.865  1.00  0.00     0.215 C 
BRANCH  11  12
HETATM   12  C3  UNL     1     -18.836  -8.851 -37.524  1.00  0.00     0.128 C 
BRANCH  12  13
HETATM   13  N4  UNL     1     -18.176  -9.621 -36.518  1.00  0.00    -0.228 N 
HETATM   14  N3  UNL     1     -17.820 -10.891 -36.597  1.00  0.00    -0.013 NA
HETATM   15  N2  UNL     1     -17.226 -11.260 -35.457  1.00  0.00    -0.275 N 
HETATM   16  C2  UNL     1     -17.215 -10.183 -34.635  1.00  0.00     0.164 A 
ATOM     17  H2  UNL     1     -16.851 -12.184 -35.245  1.00  0.00     0.184 HD
HETATM   18  C15 UNL     1     -17.804  -9.147 -35.291  1.00  0.00     0.193 A 
BRANCH  16  19
HETATM   19  C1  UNL     1     -16.741 -10.249 -33.252  1.00  0.00     0.286 C 
HETATM   20  N1  UNL     1     -17.073  -9.247 -32.277  1.00  0.00    -0.056 NA
HETATM   21  O1  UNL     1     -16.024 -11.214 -32.871  1.00  0.00    -0.269 OA
ENDBRANCH  16  19
BRANCH  18  22
HETATM   22  O7  UNL     1     -17.982  -7.863 -34.802  1.00  0.00    -0.343 OA
ATOM     23  H7  UNL     1     -18.779  -7.348 -34.852  1.00  0.00     0.219 HD
ENDBRANCH  18  22
ENDBRANCH  12  13
ENDBRANCH  11  12
BRANCH  11  24
HETATM   24  O2  UNL     1     -18.384  -8.465 -39.808  1.00  0.00    -0.384 OA
ATOM     25  H2  UNL     1     -19.018  -8.199 -40.464  1.00  0.00     0.211 HD
ENDBRANCH  11  24
ENDBRANCH  10  11
BRANCH  10  26
HETATM   26  O3  UNL     1     -20.864  -9.176 -40.494  1.00  0.00    -0.361 OA
ATOM     27  H3  UNL     1     -20.630  -9.428 -41.380  1.00  0.00     0.217 HD
ENDBRANCH  10  26
ENDBRANCH   1  10
BRANCH   3  28
HETATM   28  C8  UNL     1     -19.333 -14.510 -38.467  1.00  0.00     0.085 A 
HETATM   29  C9  UNL     1     -18.984 -15.369 -39.445  1.00  0.00     0.033 A 
HETATM   30  C11 UNL     1     -18.028 -16.321 -39.115  1.00  0.00     0.065 A 
HETATM   31  S1  UNL     1     -17.662 -15.989 -37.504  1.00  0.00    -0.084 SA
HETATM   32  C12 UNL     1     -18.704 -14.660 -37.248  1.00  0.00     0.115 A 
HETATM   33  N7  UNL     1     -18.780 -13.948 -36.011  1.00  0.00    -0.092 NA
BRANCH  29  34
HETATM   34  C10 UNL     1     -19.475 -15.366 -40.892  1.00  0.00     0.353 C 
BRANCH  34  35
HETATM   35  N6  UNL     1     -20.799 -15.839 -41.061  1.00  0.00    -0.049 N 
ATOM     36  H63 UNL     1     -20.828 -16.856 -40.976  1.00  0.00     0.277 HD
ATOM     37  H62 UNL     1     -21.375 -15.581 -40.259  1.00  0.00     0.277 HD
ATOM     38  H61 UNL     1     -21.245 -15.542 -41.930  1.00  0.00     0.277 HD
ENDBRANCH  34  35
BRANCH  34  39
HETATM   39  O4  UNL     1     -18.662 -16.211 -41.691  1.00  0.00    -0.366 OA
ATOM     40  H4  UNL     1     -19.175 -16.933 -42.036  1.00  0.00     0.212 HD
ENDBRANCH  34  39
ENDBRANCH  29  34
ENDBRANCH   3  28
TORSDOF 12
ENDMDL
MODEL 2
REMARK VINA RESULT: -6.236602954      3.003      4.629
REMARK  12 active torsions:
REMARK  status: ('A' for Active; 'I' for Inactive)
REMARK    1  A    between atoms: C1_2  and  C2_4 
REMARK    2  A    between atoms: N4_8  and  C3_9 
REMARK    3  A    between atoms: C3_9  and  C4_10 
REMARK    4  A    between atoms: C4_10  and  O2_11 
REMARK    5  A    between atoms: C4_10  and  C5_13 
REMARK    6  A    between atoms: C5_13  and  O3_14 
REMARK    7  A    between atoms: C5_13  and  C6_16 
REMARK    8  A    between atoms: N5_18  and  C8_19 
REMARK    9  A    between atoms: C9_20  and  C10_21 
REMARK   10  A    between atoms: C10_21  and  N6_22 
REMARK   11  A    between atoms: C10_21  and  O4_26 
REMARK   12  A    between atoms: C15_38  and  O7_39 
ROOT
HETATM    1  C6  UNL     1     -19.255 -14.956 -37.772  1.00  0.00     0.080 A 
HETATM    2  C7  UNL     1     -20.123 -14.341 -38.695  1.00  0.00     0.121 A 
HETATM    3  N5  UNL     1     -20.037 -14.614 -40.017  1.00  0.00    -0.271 N 
HETATM    4  C13 UNL     1     -19.111 -15.493 -40.429  1.00  0.00     0.334 A 
HETATM    5  O5  UNL     1     -18.983 -15.812 -41.640  1.00  0.00    -0.246 OA
HETATM    6  N8  UNL     1     -18.242 -16.108 -39.565  1.00  0.00    -0.274 N 
ATOM      7  H8  UNL     1     -17.548 -16.764 -39.921  1.00  0.00     0.173 HD
HETATM    8  C14 UNL     1     -18.305 -15.848 -38.256  1.00  0.00     0.263 A 
HETATM    9  O6  UNL     1     -17.551 -16.371 -37.405  1.00  0.00    -0.267 OA
ENDROOT
BRANCH   1  10
HETATM   10  C5  UNL     1     -19.255 -14.618 -36.343  1.00  0.00     0.094 C 
BRANCH  10  11
HETATM   11  C4  UNL     1     -19.999 -13.385 -36.003  1.00  0.00     0.215 C 
BRANCH  11  12
HETATM   12  C3  UNL     1     -19.460 -12.060 -36.213  1.00  0.00     0.128 C 
BRANCH  12  13
HETATM   13  N4  UNL     1     -18.659 -11.418 -35.220  1.00  0.00    -0.228 N 
HETATM   14  N3  UNL     1     -18.930 -11.312 -33.931  1.00  0.00    -0.013 NA
HETATM   15  N2  UNL     1     -17.944 -10.644 -33.321  1.00  0.00    -0.275 N 
HETATM   16  C2  UNL     1     -17.028 -10.320 -34.265  1.00  0.00     0.164 A 
ATOM     17  H2  UNL     1     -17.892 -10.421 -32.328  1.00  0.00     0.184 HD
HETATM   18  C15 UNL     1     -17.463 -10.804 -35.458  1.00  0.00     0.193 A 
BRANCH  16  19
HETATM   19  C1  UNL     1     -15.861  -9.484 -33.978  1.00  0.00     0.286 C 
HETATM   20  N1  UNL     1     -14.898  -9.827 -32.968  1.00  0.00    -0.056 NA
HETATM   21  O1  UNL     1     -15.661  -8.425 -34.635  1.00  0.00    -0.269 OA
ENDBRANCH  16  19
BRANCH  18  22
HETATM   22  O7  UNL     1     -16.808 -10.693 -36.675  1.00  0.00    -0.343 OA
ATOM     23  H7  UNL     1     -17.030 -11.153 -37.476  1.00  0.00     0.219 HD
ENDBRANCH  18  22
ENDBRANCH  12  13
ENDBRANCH  11  12
BRANCH  11  24
HETATM   24  O2  UNL     1     -20.462 -13.507 -34.640  1.00  0.00    -0.384 OA
ATOM     25  H2  UNL     1     -19.756 -13.285 -34.044  1.00  0.00     0.211 HD
ENDBRANCH  11  24
ENDBRANCH  10  11
BRANCH  10  26
HETATM   26  O3  UNL     1     -19.033 -15.598 -35.467  1.00  0.00    -0.361 OA
ATOM     27  H3  UNL     1     -19.440 -16.454 -35.533  1.00  0.00     0.217 HD
ENDBRANCH  10  26
ENDBRANCH   1  10
BRANCH   3  28
HETATM   28  C8  UNL     1     -20.838 -13.857 -40.981  1.00  0.00     0.085 A 
HETATM   29  C9  UNL     1     -21.930 -14.339 -41.606  1.00  0.00     0.033 A 
HETATM   30  C11 UNL     1     -22.585 -13.464 -42.463  1.00  0.00     0.065 A 
HETATM   31  S1  UNL     1     -21.680 -12.046 -42.365  1.00  0.00    -0.084 SA
HETATM   32  C12 UNL     1     -20.487 -12.550 -41.252  1.00  0.00     0.115 A 
HETATM   33  N7  UNL     1     -19.443 -11.697 -40.778  1.00  0.00    -0.092 NA
BRANCH  29  34
HETATM   34  C10 UNL     1     -22.564 -15.717 -41.421  1.00  0.00     0.353 C 
BRANCH  34  35
HETATM   35  N6  UNL     1     -22.001 -16.733 -42.232  1.00  0.00    -0.049 N 
ATOM     36  H63 UNL     1     -22.731 -17.350 -42.589  1.00  0.00     0.277 HD
ATOM     37  H62 UNL     1     -21.661 -16.340 -43.110  1.00  0.00     0.277 HD
ATOM     38  H61 UNL     1     -21.266 -17.276 -41.777  1.00  0.00     0.277 HD
ENDBRANCH  34  35
BRANCH  34  39
HETATM   39  O4  UNL     1     -23.942 -15.676 -41.761  1.00  0.00    -0.366 OA
ATOM     40  H4  UNL     1     -24.475 -15.897 -41.007  1.00  0.00     0.212 HD
ENDBRANCH  34  39
ENDBRANCH  29  34
ENDBRANCH   3  28
TORSDOF 12
ENDMDL
MODEL 3
REMARK VINA RESULT: -6.159235637      2.713      4.817
REMARK  12 active torsions:
REMARK  status: ('A' for Active; 'I' for Inactive)
REMARK    1  A    between atoms: C1_2  and  C2_4 
REMARK    2  A    between atoms: N4_8  and  C3_9 
REMARK    3  A    between atoms: C3_9  and  C4_10 
REMARK    4  A    between atoms: C4_10  and  O2_11 
REMARK    5  A    between atoms: C4_10  and  C5_13 
REMARK    6  A    between atoms: C5_13  and  O3_14 
REMARK    7  A    between atoms: C5_13  and  C6_16 
REMARK    8  A    between atoms: N5_18  and  C8_19 
REMARK    9  A    between atoms: C9_20  and  C10_21 
REMARK   10  A    between atoms: C10_21  and  N6_22 
REMARK   11  A    between atoms: C10_21  and  O4_26 
REMARK   12  A    between atoms: C15_38  and  O7_39 
ROOT
HETATM    1  C6  UNL     1     -19.297 -14.990 -37.718  1.00  0.00     0.080 A 
HETATM    2  C7  UNL     1     -20.206 -14.412 -38.626  1.00  0.00     0.121 A 
HETATM    3  N5  UNL     1     -20.125 -14.675 -39.951  1.00  0.00    -0.271 N 
HETATM    4  C13 UNL     1     -19.166 -15.508 -40.380  1.00  0.00     0.334 A 
HETATM    5  O5  UNL     1     -19.039 -15.815 -41.594  1.00  0.00    -0.246 OA
HETATM    6  N8  UNL     1     -18.257 -16.085 -39.530  1.00  0.00    -0.274 N 
ATOM      7  H8  UNL     1     -17.538 -16.707 -39.900  1.00  0.00     0.173 HD
HETATM    8  C14 UNL     1     -18.314 -15.834 -38.219  1.00  0.00     0.263 A 
HETATM    9  O6  UNL     1     -17.524 -16.326 -37.381  1.00  0.00    -0.267 OA
ENDROOT
BRANCH   1  10
HETATM   10  C5  UNL     1     -19.294 -14.659 -36.288  1.00  0.00     0.094 C 
BRANCH  10  11
HETATM   11  C4  UNL     1     -20.041 -13.430 -35.939  1.00  0.00     0.215 C 
BRANCH  11  12
HETATM   12  C3  UNL     1     -19.519 -12.102 -36.168  1.00  0.00     0.128 C 
BRANCH  12  13
HETATM   13  N4  UNL     1     -18.715 -11.442 -35.190  1.00  0.00    -0.228 N 
HETATM   14  N3  UNL     1     -18.988 -11.299 -33.905  1.00  0.00    -0.013 NA
HETATM   15  N2  UNL     1     -17.997 -10.624 -33.311  1.00  0.00    -0.275 N 
HETATM   16  C2  UNL     1     -17.076 -10.333 -34.260  1.00  0.00     0.164 A 
ATOM     17  H2  UNL     1     -17.945 -10.376 -32.323  1.00  0.00     0.184 HD
HETATM   18  C15 UNL     1     -17.512 -10.844 -35.442  1.00  0.00     0.193 A 
BRANCH  16  19
HETATM   19  C1  UNL     1     -15.902  -9.500 -33.993  1.00  0.00     0.286 C 
HETATM   20  N1  UNL     1     -14.932  -9.838 -32.988  1.00  0.00    -0.056 NA
HETATM   21  O1  UNL     1     -15.703  -8.448 -34.661  1.00  0.00    -0.269 OA
ENDBRANCH  16  19
BRANCH  18  22
HETATM   22  O7  UNL     1     -16.854 -10.771 -36.660  1.00  0.00    -0.343 OA
ATOM     23  H7  UNL     1     -17.154 -11.138 -37.483  1.00  0.00     0.219 HD
ENDBRANCH  18  22
ENDBRANCH  12  13
ENDBRANCH  11  12
BRANCH  11  24
HETATM   24  O2  UNL     1     -20.474 -13.549 -34.565  1.00  0.00    -0.384 OA
ATOM     25  H2  UNL     1     -21.415 -13.427 -34.518  1.00  0.00     0.211 HD
ENDBRANCH  11  24
ENDBRANCH  10  11
BRANCH  10  26
HETATM   26  O3  UNL     1     -19.065 -15.642 -35.417  1.00  0.00    -0.361 OA
ATOM     27  H3  UNL     1     -18.254 -15.723 -34.928  1.00  0.00     0.217 HD
ENDBRANCH  10  26
ENDBRANCH   1  10
BRANCH   3  28
HETATM   28  C8  UNL     1     -20.975 -13.953 -40.900  1.00  0.00     0.085 A 
HETATM   29  C9  UNL     1     -20.762 -12.683 -41.296  1.00  0.00     0.033 A 
HETATM   30  C11 UNL     1     -21.655 -12.172 -42.230  1.00  0.00     0.065 A 
HETATM   31  S1  UNL     1     -22.720 -13.446 -42.512  1.00  0.00    -0.084 SA
HETATM   32  C12 UNL     1     -22.048 -14.613 -41.464  1.00  0.00     0.115 A 
HETATM   33  N7  UNL     1     -22.565 -15.938 -41.326  1.00  0.00    -0.092 NA
BRANCH  29  34
HETATM   34  C10 UNL     1     -19.610 -11.769 -40.881  1.00  0.00     0.353 C 
BRANCH  34  35
HETATM   35  N6  UNL     1     -19.890 -10.946 -39.763  1.00  0.00    -0.049 N 
ATOM     36  H63 UNL     1     -20.884 -10.980 -39.535  1.00  0.00     0.277 HD
ATOM     37  H62 UNL     1     -19.502 -11.356 -38.913  1.00  0.00     0.277 HD
ATOM     38  H61 UNL     1     -19.581  -9.978 -39.864  1.00  0.00     0.277 HD
ENDBRANCH  34  35
BRANCH  34  39
HETATM   39  O4  UNL     1     -19.279 -10.880 -41.937  1.00  0.00    -0.366 OA
ATOM     40  H4  UNL     1     -18.382 -10.582 -41.850  1.00  0.00     0.212 HD
ENDBRANCH  34  39
ENDBRANCH  29  34
ENDBRANCH   3  28
TORSDOF 12
ENDMDL
MODEL 4
REMARK VINA RESULT: -5.942982414      2.609      6.202
REMARK  12 active torsions:
REMARK  status: ('A' for Active; 'I' for Inactive)
REMARK    1  A    between atoms: C1_2  and  C2_4 
REMARK    2  A    between atoms: N4_8  and  C3_9 
REMARK    3  A    between atoms: C3_9  and  C4_10 
REMARK    4  A    between atoms: C4_10  and  O2_11 
REMARK    5  A    between atoms: C4_10  and  C5_13 
REMARK    6  A    between atoms: C5_13  and  O3_14 
REMARK    7  A    between atoms: C5_13  and  C6_16 
REMARK    8  A    between atoms: N5_18  and  C8_19 
REMARK    9  A    between atoms: C9_20  and  C10_21 
REMARK   10  A    between atoms: C10_21  and  N6_22 
REMARK   11  A    between atoms: C10_21  and  O4_26 
REMARK   12  A    between atoms: C15_38  and  O7_39 
ROOT
HETATM    1  C6  UNL     1     -20.451 -10.562 -39.671  1.00  0.00     0.080 A 
HETATM    2  C7  UNL     1     -20.347 -10.874 -38.302  1.00  0.00     0.121 A 
HETATM    3  N5  UNL     1     -20.736  -9.987 -37.356  1.00  0.00    -0.271 N 
HETATM    4  C13 UNL     1     -21.232  -8.806 -37.755  1.00  0.00     0.334 A 
HETATM    5  O5  UNL     1     -21.631  -7.937 -36.936  1.00  0.00    -0.246 OA
HETATM    6  N8  UNL     1     -21.342  -8.461 -39.077  1.00  0.00    -0.274 N 
ATOM      7  H8  UNL     1     -21.717  -7.548 -39.336  1.00  0.00     0.173 HD
HETATM    8  C14 UNL     1     -20.958  -9.318 -40.027  1.00  0.00     0.263 A 
HETATM    9  O6  UNL     1     -21.031  -9.078 -41.253  1.00  0.00    -0.267 OA
ENDROOT
BRANCH   1  10
HETATM   10  C5  UNL     1     -19.955 -11.459 -40.723  1.00  0.00     0.094 C 
BRANCH  10  11
HETATM   11  C4  UNL     1     -20.848 -12.596 -41.034  1.00  0.00     0.215 C 
BRANCH  11  12
HETATM   12  C3  UNL     1     -21.027 -13.721 -40.144  1.00  0.00     0.128 C 
BRANCH  12  13
HETATM   13  N4  UNL     1     -20.006 -14.706 -39.979  1.00  0.00    -0.228 N 
HETATM   14  N3  UNL     1     -19.724 -15.701 -40.802  1.00  0.00    -0.013 NA
HETATM   15  N2  UNL     1     -18.704 -16.412 -40.309  1.00  0.00    -0.275 N 
HETATM   16  C2  UNL     1     -18.339 -15.842 -39.135  1.00  0.00     0.164 A 
ATOM     17  H2  UNL     1     -18.278 -17.233 -40.739  1.00  0.00     0.184 HD
HETATM   18  C15 UNL     1     -19.145 -14.769 -38.919  1.00  0.00     0.193 A 
BRANCH  16  19
HETATM   19  C1  UNL     1     -17.322 -16.423 -38.257  1.00  0.00     0.286 C 
HETATM   20  N1  UNL     1     -16.837 -15.743 -37.088  1.00  0.00    -0.056 NA
HETATM   21  O1  UNL     1     -16.846 -17.565 -38.503  1.00  0.00    -0.269 OA
ENDBRANCH  16  19
BRANCH  18  22
HETATM   22  O7  UNL     1     -19.092 -13.909 -37.834  1.00  0.00    -0.343 OA
ATOM     23  H7  UNL     1     -19.786 -13.329 -37.542  1.00  0.00     0.219 HD
ENDBRANCH  18  22
ENDBRANCH  12  13
ENDBRANCH  11  12
BRANCH  11  24
HETATM   24  O2  UNL     1     -20.515 -13.075 -42.356  1.00  0.00    -0.384 OA
ATOM     25  H2  UNL     1     -21.308 -13.344 -42.805  1.00  0.00     0.211 HD
ENDBRANCH  11  24
ENDBRANCH  10  11
BRANCH  10  26
HETATM   26  O3  UNL     1     -19.064 -10.976 -41.590  1.00  0.00    -0.361 OA
ATOM     27  H3  UNL     1     -18.141 -10.881 -41.386  1.00  0.00     0.217 HD
ENDBRANCH  10  26
ENDBRANCH   1  10
BRANCH   3  28
HETATM   28  C8  UNL     1     -20.484 -10.259 -35.940  1.00  0.00     0.085 A 
HETATM   29  C9  UNL     1     -19.332  -9.969 -35.304  1.00  0.00     0.033 A 
HETATM   30  C11 UNL     1     -19.286 -10.269 -33.949  1.00  0.00     0.065 A 
HETATM   31  S1  UNL     1     -20.806 -10.920 -33.624  1.00  0.00    -0.084 SA
HETATM   32  C12 UNL     1     -21.495 -10.815 -35.183  1.00  0.00     0.115 A 
HETATM   33  N7  UNL     1     -22.832 -11.222 -35.481  1.00  0.00    -0.092 NA
BRANCH  29  34
HETATM   34  C10 UNL     1     -18.100  -9.286 -35.895  1.00  0.00     0.353 C 
BRANCH  34  35
HETATM   35  N6  UNL     1     -16.974 -10.134 -36.040  1.00  0.00    -0.049 N 
ATOM     36  H63 UNL     1     -16.820 -10.357 -37.023  1.00  0.00     0.277 HD
ATOM     37  H62 UNL     1     -16.115  -9.621 -35.840  1.00  0.00     0.277 HD
ATOM     38  H61 UNL     1     -17.017 -10.988 -35.483  1.00  0.00     0.277 HD
ENDBRANCH  34  35
BRANCH  34  39
HETATM   39  O4  UNL     1     -17.674  -8.224 -35.056  1.00  0.00    -0.366 OA
ATOM     40  H4  UNL     1     -16.828  -7.898 -35.339  1.00  0.00     0.212 HD
ENDBRANCH  34  39
ENDBRANCH  29  34
ENDBRANCH   3  28
TORSDOF 12
ENDMDL
MODEL 5
REMARK VINA RESULT: -5.892928116      2.619      4.917
REMARK  12 active torsions:
REMARK  status: ('A' for Active; 'I' for Inactive)
REMARK    1  A    between atoms: C1_2  and  C2_4 
REMARK    2  A    between atoms: N4_8  and  C3_9 
REMARK    3  A    between atoms: C3_9  and  C4_10 
REMARK    4  A    between atoms: C4_10  and  O2_11 
REMARK    5  A    between atoms: C4_10  and  C5_13 
REMARK    6  A    between atoms: C5_13  and  O3_14 
REMARK    7  A    between atoms: C5_13  and  C6_16 
REMARK    8  A    between atoms: N5_18  and  C8_19 
REMARK    9  A    between atoms: C9_20  and  C10_21 
REMARK   10  A    between atoms: C10_21  and  N6_22 
REMARK   11  A    between atoms: C10_21  and  O4_26 
REMARK   12  A    between atoms: C15_38  and  O7_39 
ROOT
HETATM    1  C6  UNL     1     -18.722 -11.372 -36.257  1.00  0.00     0.080 A 
HETATM    2  C7  UNL     1     -18.876 -12.158 -37.415  1.00  0.00     0.121 A 
HETATM    3  N5  UNL     1     -19.514 -13.351 -37.365  1.00  0.00    -0.271 N 
HETATM    4  C13 UNL     1     -20.006 -13.763 -36.187  1.00  0.00     0.334 A 
HETATM    5  O5  UNL     1     -20.626 -14.851 -36.065  1.00  0.00    -0.246 OA
HETATM    6  N8  UNL     1     -19.870 -13.032 -35.035  1.00  0.00    -0.274 N 
ATOM      7  H8  UNL     1     -20.252 -13.387 -34.159  1.00  0.00     0.173 HD
HETATM    8  C14 UNL     1     -19.238 -11.855 -35.060  1.00  0.00     0.263 A 
HETATM    9  O6  UNL     1     -19.079 -11.129 -34.053  1.00  0.00    -0.267 OA
ENDROOT
BRANCH   1  10
HETATM   10  C5  UNL     1     -17.958 -10.118 -36.251  1.00  0.00     0.094 C 
BRANCH  10  11
HETATM   11  C4  UNL     1     -18.776  -8.900 -36.068  1.00  0.00     0.215 C 
BRANCH  11  12
HETATM   12  C3  UNL     1     -19.345  -8.162 -37.173  1.00  0.00     0.128 C 
BRANCH  12  13
HETATM   13  N4  UNL     1     -19.912  -8.833 -38.300  1.00  0.00    -0.228 N 
HETATM   14  N3  UNL     1     -21.077  -9.453 -38.349  1.00  0.00    -0.013 NA
HETATM   15  N2  UNL     1     -21.262  -9.959 -39.574  1.00  0.00    -0.275 N 
HETATM   16  C2  UNL     1     -20.171  -9.645 -40.313  1.00  0.00     0.164 A 
ATOM     17  H2  UNL     1     -22.076 -10.484 -39.892  1.00  0.00     0.184 HD
HETATM   18  C15 UNL     1     -19.319  -8.935 -39.527  1.00  0.00     0.193 A 
BRANCH  16  19
HETATM   19  C1  UNL     1     -19.975 -10.135 -41.679  1.00  0.00     0.286 C 
HETATM   20  N1  UNL     1     -20.958 -10.933 -42.358  1.00  0.00    -0.056 NA
HETATM   21  O1  UNL     1     -18.920  -9.850 -42.311  1.00  0.00    -0.269 OA
ENDBRANCH  16  19
BRANCH  18  22
HETATM   22  O7  UNL     1     -18.091  -8.417 -39.908  1.00  0.00    -0.343 OA
ATOM     23  H7  UNL     1     -17.787  -7.528 -39.764  1.00  0.00     0.219 HD
ENDBRANCH  18  22
ENDBRANCH  12  13
ENDBRANCH  11  12
BRANCH  11  24
HETATM   24  O2  UNL     1     -18.042  -7.996 -35.212  1.00  0.00    -0.384 OA
ATOM     25  H2  UNL     1     -17.725  -8.468 -34.450  1.00  0.00     0.211 HD
ENDBRANCH  11  24
ENDBRANCH  10  11
BRANCH  10  26
HETATM   26  O3  UNL     1     -16.661 -10.176 -35.945  1.00  0.00    -0.361 OA
ATOM     27  H3  UNL     1     -16.057 -10.780 -36.362  1.00  0.00     0.217 HD
ENDBRANCH  10  26
ENDBRANCH   1  10
BRANCH   3  28
HETATM   28  C8  UNL     1     -19.534 -14.226 -38.538  1.00  0.00     0.085 A 
HETATM   29  C9  UNL     1     -18.665 -15.233 -38.750  1.00  0.00     0.033 A 
HETATM   30  C11 UNL     1     -18.859 -15.981 -39.904  1.00  0.00     0.065 A 
HETATM   31  S1  UNL     1     -20.208 -15.273 -40.625  1.00  0.00    -0.084 SA
HETATM   32  C12 UNL     1     -20.526 -14.046 -39.482  1.00  0.00     0.115 A 
HETATM   33  N7  UNL     1     -21.619 -13.132 -39.592  1.00  0.00    -0.092 NA
BRANCH  29  34
HETATM   34  C10 UNL     1     -17.534 -15.684 -37.826  1.00  0.00     0.353 C 
BRANCH  34  35
HETATM   35  N6  UNL     1     -16.741 -16.738 -38.344  1.00  0.00    -0.049 N 
ATOM     36  H63 UNL     1     -17.231 -17.628 -38.256  1.00  0.00     0.277 HD
ATOM     37  H62 UNL     1     -16.682 -16.672 -39.361  1.00  0.00     0.277 HD
ATOM     38  H61 UNL     1     -15.808 -16.802 -37.936  1.00  0.00     0.277 HD
ENDBRANCH  34  35
BRANCH  34  39
HETATM   39  O4  UNL     1     -18.061 -16.169 -36.601  1.00  0.00    -0.366 OA
ATOM     40  H4  UNL     1     -17.429 -16.732 -36.169  1.00  0.00     0.212 HD
ENDBRANCH  34  39
ENDBRANCH  29  34
ENDBRANCH   3  28
TORSDOF 12
ENDMDL
