MODEL 1
REMARK VINA RESULT: -6.375596627      0.000      0.000
REMARK  14 active torsions:
REMARK  status: ('A' for Active; 'I' for Inactive)
REMARK    1  A    between atoms: N1_1  and  C1_5 
REMARK    2  A    between atoms: C4_8  and  O1_9 
REMARK    3  A    between atoms: O1_9  and  C5_10 
REMARK    4  A    between atoms: C7_12  and  N2_13 
REMARK    5  A    between atoms: C8_17  and  O2_18 
REMARK    6  A    between atoms: C8_17  and  O3_20 
REMARK    7  A    between atoms: C9_22  and  O4_23 
REMARK    8  A    between atoms: C10_27  and  C11_28 
REMARK    9  A    between atoms: C11_28  and  O7_29 
REMARK   10  A    between atoms: O7_29  and  C12_30 
REMARK   11  A    between atoms: C13_32  and  C14_33 
REMARK   12  A    between atoms: C14_33  and  O9_34 
REMARK   13  A    between atoms: C15_36  and  O10_37 
REMARK   14  A    between atoms: C17_40  and  N3_41 
ROOT
HETATM    1  C1  UNL     1     -21.235 -11.654 -41.138  1.00  0.00     0.214 C 
HETATM    2  C2  UNL     1     -21.161 -10.708 -42.325  1.00  0.00     0.040 C 
HETATM    3  C3  UNL     1     -19.934  -9.820 -42.076  1.00  0.00     0.063 C 
HETATM    4  C4  UNL     1     -19.776  -9.678 -40.601  1.00  0.00     0.263 C 
HETATM    5  O6  UNL     1     -19.367 -10.884 -40.050  1.00  0.00    -0.352 OA
HETATM    6  C10 UNL     1     -19.765 -12.003 -40.820  1.00  0.00     0.178 C 
ENDROOT
BRANCH   4   7
HETATM    7  O1  UNL     1     -18.810  -8.742 -40.239  1.00  0.00    -0.331 OA
BRANCH   7   8
HETATM    8  C5  UNL     1     -18.469  -7.875 -41.235  1.00  0.00     0.268 C 
HETATM    9  C6  UNL     1     -18.715  -6.425 -40.877  1.00  0.00     0.099 C 
HETATM   10  C7  UNL     1     -18.056  -5.481 -41.843  1.00  0.00     0.255 C 
HETATM   11  C8  UNL     1     -17.396  -6.166 -42.995  1.00  0.00     0.239 C 
HETATM   12  C9  UNL     1     -16.790  -7.490 -42.685  1.00  0.00     0.324 C 
HETATM   13  O5  UNL     1     -17.098  -8.008 -41.454  1.00  0.00    -0.326 OA
BRANCH  10  14
HETATM   14  N2  UNL     1     -17.177  -4.527 -41.179  1.00  0.00    -0.070 N 
ATOM     15  H23 UNL     1     -16.869  -4.881 -40.273  1.00  0.00     0.275 HD
ATOM     16  H22 UNL     1     -16.273  -4.472 -41.649  1.00  0.00     0.275 HD
ATOM     17  H21 UNL     1     -17.600  -3.603 -41.087  1.00  0.00     0.275 HD
ENDBRANCH  10  14
BRANCH  11  18
HETATM   18  O2  UNL     1     -16.370  -5.345 -43.516  1.00  0.00    -0.360 OA
ATOM     19  H2  UNL     1     -16.688  -4.879 -44.281  1.00  0.00     0.213 HD
ENDBRANCH  11  18
BRANCH  11  20
HETATM   20  O3  UNL     1     -18.314  -6.332 -44.058  1.00  0.00    -0.360 OA
ATOM     21  H3  UNL     1     -17.959  -6.925 -44.710  1.00  0.00     0.213 HD
ENDBRANCH  11  20
BRANCH  12  22
HETATM   22  O4  UNL     1     -15.379  -7.457 -42.772  1.00  0.00    -0.366 OA
ATOM     23  H4  UNL     1     -15.075  -7.603 -43.660  1.00  0.00     0.212 HD
ENDBRANCH  12  22
ENDBRANCH   7   8
ENDBRANCH   4   7
BRANCH   6  24
HETATM   24  C11 UNL     1     -19.619 -13.169 -39.918  1.00  0.00     0.205 C 
BRANCH  24  25
HETATM   25  O7  UNL     1     -20.316 -13.207 -38.753  1.00  0.00    -0.357 OA
BRANCH  25  26
HETATM   26  C12 UNL     1     -19.838 -14.117 -37.810  1.00  0.00     0.290 C 
HETATM   27  O8  UNL     1     -19.148 -15.075 -38.520  1.00  0.00    -0.349 OA
HETATM   28  C13 UNL     1     -18.390 -15.950 -37.823  1.00  0.00     0.177 C 
HETATM   29  C15 UNL     1     -17.818 -15.447 -36.534  1.00  0.00     0.151 C 
HETATM   30  C16 UNL     1     -17.675 -13.946 -36.650  1.00  0.00     0.072 C 
HETATM   31  C17 UNL     1     -19.110 -13.424 -36.752  1.00  0.00     0.240 C 
BRANCH  28  32
HETATM   32  C14 UNL     1     -17.240 -16.403 -38.697  1.00  0.00     0.198 C 
BRANCH  32  33
HETATM   33  O9  UNL     1     -16.991 -17.756 -38.607  1.00  0.00    -0.398 OA
ATOM     34  H9  UNL     1     -16.441 -18.082 -39.311  1.00  0.00     0.209 HD
ENDBRANCH  32  33
ENDBRANCH  28  32
BRANCH  29  35
HETATM   35  O10 UNL     1     -18.580 -15.732 -35.429  1.00  0.00    -0.393 OA
ATOM     36  H10 UNL     1     -18.539 -15.074 -34.745  1.00  0.00     0.210 HD
ENDBRANCH  29  35
BRANCH  31  37
HETATM   37  N3  UNL     1     -19.744 -13.423 -35.445  1.00  0.00    -0.070 N 
ATOM     38  H33 UNL     1     -19.973 -12.467 -35.173  1.00  0.00     0.274 HD
ATOM     39  H32 UNL     1     -20.679 -13.823 -35.512  1.00  0.00     0.274 HD
ATOM     40  H31 UNL     1     -19.222 -13.881 -34.698  1.00  0.00     0.274 HD
ENDBRANCH  31  37
ENDBRANCH  25  26
ENDBRANCH  24  25
ENDBRANCH   6  24
BRANCH   1  41
HETATM   41  N1  UNL     1     -22.028 -12.796 -41.464  1.00  0.00    -0.072 N 
ATOM     42  H13 UNL     1     -22.592 -13.106 -40.673  1.00  0.00     0.274 HD
ATOM     43  H12 UNL     1     -22.785 -12.563 -42.107  1.00  0.00     0.274 HD
ATOM     44  H11 UNL     1     -21.438 -13.545 -41.827  1.00  0.00     0.274 HD
ENDBRANCH   1  41
TORSDOF 14
ENDMDL
MODEL 2
REMARK VINA RESULT: -6.373228909      3.883      6.277
REMARK  14 active torsions:
REMARK  status: ('A' for Active; 'I' for Inactive)
REMARK    1  A    between atoms: N1_1  and  C1_5 
REMARK    2  A    between atoms: C4_8  and  O1_9 
REMARK    3  A    between atoms: O1_9  and  C5_10 
REMARK    4  A    between atoms: C7_12  and  N2_13 
REMARK    5  A    between atoms: C8_17  and  O2_18 
REMARK    6  A    between atoms: C8_17  and  O3_20 
REMARK    7  A    between atoms: C9_22  and  O4_23 
REMARK    8  A    between atoms: C10_27  and  C11_28 
REMARK    9  A    between atoms: C11_28  and  O7_29 
REMARK   10  A    between atoms: O7_29  and  C12_30 
REMARK   11  A    between atoms: C13_32  and  C14_33 
REMARK   12  A    between atoms: C14_33  and  O9_34 
REMARK   13  A    between atoms: C15_36  and  O10_37 
REMARK   14  A    between atoms: C17_40  and  N3_41 
ROOT
HETATM    1  C1  UNL     1     -21.282  -9.681 -38.242  1.00  0.00     0.214 C 
HETATM    2  C2  UNL     1     -21.180  -8.166 -38.179  1.00  0.00     0.040 C 
HETATM    3  C3  UNL     1     -19.753  -7.862 -37.698  1.00  0.00     0.063 C 
HETATM    4  C4  UNL     1     -19.329  -8.987 -36.818  1.00  0.00     0.263 C 
HETATM    5  O6  UNL     1     -19.133 -10.133 -37.575  1.00  0.00    -0.352 OA
HETATM    6  C10 UNL     1     -19.905 -10.147 -38.762  1.00  0.00     0.178 C 
ENDROOT
BRANCH   4   7
HETATM    7  O1  UNL     1     -18.124  -8.748 -36.162  1.00  0.00    -0.331 OA
BRANCH   7   8
HETATM    8  C5  UNL     1     -18.143  -9.038 -34.829  1.00  0.00     0.268 C 
HETATM    9  C6  UNL     1     -19.499  -9.491 -34.336  1.00  0.00     0.099 C 
HETATM   10  C7  UNL     1     -19.431 -10.095 -32.961  1.00  0.00     0.255 C 
HETATM   11  C8  UNL     1     -18.074 -10.025 -32.342  1.00  0.00     0.239 C 
HETATM   12  C9  UNL     1     -16.935 -10.153 -33.291  1.00  0.00     0.324 C 
HETATM   13  O5  UNL     1     -17.263 -10.100 -34.621  1.00  0.00    -0.326 OA
BRANCH  10  14
HETATM   14  N2  UNL     1     -20.001 -11.436 -32.913  1.00  0.00    -0.070 N 
ATOM     15  H23 UNL     1     -20.974 -11.433 -33.221  1.00  0.00     0.275 HD
ATOM     16  H22 UNL     1     -19.602 -12.032 -33.638  1.00  0.00     0.275 HD
ATOM     17  H21 UNL     1     -19.909 -11.867 -31.992  1.00  0.00     0.275 HD
ENDBRANCH  10  14
BRANCH  11  18
HETATM   18  O2  UNL     1     -17.934 -11.048 -31.376  1.00  0.00    -0.360 OA
ATOM     19  H2  UNL     1     -17.299 -11.688 -31.675  1.00  0.00     0.213 HD
ENDBRANCH  11  18
BRANCH  11  20
HETATM   20  O3  UNL     1     -17.925  -8.815 -31.624  1.00  0.00    -0.360 OA
ATOM     21  H3  UNL     1     -17.008  -8.654 -31.436  1.00  0.00     0.213 HD
ENDBRANCH  11  20
BRANCH  12  22
HETATM   22  O4  UNL     1     -16.217 -11.356 -33.095  1.00  0.00    -0.366 OA
ATOM     23  H4  UNL     1     -15.522 -11.254 -32.456  1.00  0.00     0.212 HD
ENDBRANCH  12  22
ENDBRANCH   7   8
ENDBRANCH   4   7
BRANCH   6  24
HETATM   24  C11 UNL     1     -19.894 -11.557 -39.217  1.00  0.00     0.205 C 
BRANCH  24  25
HETATM   25  O7  UNL     1     -18.774 -12.306 -39.055  1.00  0.00    -0.357 OA
BRANCH  25  26
HETATM   26  C12 UNL     1     -18.877 -13.321 -38.103  1.00  0.00     0.290 C 
HETATM   27  O8  UNL     1     -18.634 -14.499 -38.775  1.00  0.00    -0.349 OA
HETATM   28  C13 UNL     1     -18.448 -15.616 -38.037  1.00  0.00     0.177 C 
HETATM   29  C15 UNL     1     -17.853 -15.417 -36.677  1.00  0.00     0.151 C 
HETATM   30  C16 UNL     1     -17.022 -14.156 -36.720  1.00  0.00     0.072 C 
HETATM   31  C17 UNL     1     -18.033 -13.030 -36.950  1.00  0.00     0.240 C 
BRANCH  28  32
HETATM   32  C14 UNL     1     -17.549 -16.562 -38.805  1.00  0.00     0.198 C 
BRANCH  32  33
HETATM   33  O9  UNL     1     -16.534 -17.090 -38.036  1.00  0.00    -0.398 OA
ATOM     34  H9  UNL     1     -15.826 -17.457 -38.553  1.00  0.00     0.209 HD
ENDBRANCH  32  33
ENDBRANCH  28  32
BRANCH  29  35
HETATM   35  O10 UNL     1     -18.777 -15.302 -35.670  1.00  0.00    -0.393 OA
ATOM     36  H10 UNL     1     -18.711 -14.497 -35.169  1.00  0.00     0.210 HD
ENDBRANCH  29  35
BRANCH  31  37
HETATM   37  N3  UNL     1     -18.733 -12.717 -35.716  1.00  0.00    -0.070 N 
ATOM     38  H33 UNL     1     -19.727 -12.919 -35.821  1.00  0.00     0.274 HD
ATOM     39  H32 UNL     1     -18.484 -13.394 -34.995  1.00  0.00     0.274 HD
ATOM     40  H31 UNL     1     -18.606 -11.769 -35.362  1.00  0.00     0.274 HD
ENDBRANCH  31  37
ENDBRANCH  25  26
ENDBRANCH  24  25
ENDBRANCH   6  24
BRANCH   1  41
HETATM   41  N1  UNL     1     -22.365 -10.069 -39.088  1.00  0.00    -0.072 N 
ATOM     42  H13 UNL     1     -23.270  -9.882 -38.657  1.00  0.00     0.274 HD
ATOM     43  H12 UNL     1     -22.453  -9.456 -39.899  1.00  0.00     0.274 HD
ATOM     44  H11 UNL     1     -22.268 -11.047 -39.360  1.00  0.00     0.274 HD
ENDBRANCH   1  41
TORSDOF 14
ENDMDL
MODEL 3
REMARK VINA RESULT: -6.247449869      4.561      7.736
REMARK  14 active torsions:
REMARK  status: ('A' for Active; 'I' for Inactive)
REMARK    1  A    between atoms: N1_1  and  C1_5 
REMARK    2  A    between atoms: C4_8  and  O1_9 
REMARK    3  A    between atoms: O1_9  and  C5_10 
REMARK    4  A    between atoms: C7_12  and  N2_13 
REMARK    5  A    between atoms: C8_17  and  O2_18 
REMARK    6  A    between atoms: C8_17  and  O3_20 
REMARK    7  A    between atoms: C9_22  and  O4_23 
REMARK    8  A    between atoms: C10_27  and  C11_28 
REMARK    9  A    between atoms: C11_28  and  O7_29 
REMARK   10  A    between atoms: O7_29  and  C12_30 
REMARK   11  A    between atoms: C13_32  and  C14_33 
REMARK   12  A    between atoms: C14_33  and  O9_34 
REMARK   13  A    between atoms: C15_36  and  O10_37 
REMARK   14  A    between atoms: C17_40  and  N3_41 
ROOT
HETATM    1  C1  UNL     1     -21.574  -9.655 -36.308  1.00  0.00     0.214 C 
HETATM    2  C2  UNL     1     -22.183 -10.996 -35.934  1.00  0.00     0.040 C 
HETATM    3  C3  UNL     1     -21.403 -12.049 -36.734  1.00  0.00     0.063 C 
HETATM    4  C4  UNL     1     -20.961 -11.407 -38.005  1.00  0.00     0.263 C 
HETATM    5  O6  UNL     1     -19.976 -10.465 -37.742  1.00  0.00    -0.352 OA
HETATM    6  C10 UNL     1     -20.060  -9.932 -36.434  1.00  0.00     0.178 C 
ENDROOT
BRANCH   4   7
HETATM    7  O1  UNL     1     -20.402 -12.306 -38.910  1.00  0.00    -0.331 OA
BRANCH   7   8
HETATM    8  C5  UNL     1     -19.854 -13.414 -38.332  1.00  0.00     0.268 C 
HETATM    9  C6  UNL     1     -20.077 -14.679 -39.132  1.00  0.00     0.099 C 
HETATM   10  C7  UNL     1     -19.217 -15.814 -38.653  1.00  0.00     0.255 C 
HETATM   11  C8  UNL     1     -18.413 -15.486 -37.439  1.00  0.00     0.239 C 
HETATM   12  C9  UNL     1     -17.939 -14.078 -37.351  1.00  0.00     0.324 C 
HETATM   13  O5  UNL     1     -18.475 -13.215 -38.272  1.00  0.00    -0.326 OA
BRANCH  10  14
HETATM   14  N2  UNL     1     -18.411 -16.392 -39.722  1.00  0.00    -0.070 N 
ATOM     15  H23 UNL     1     -18.863 -16.274 -40.628  1.00  0.00     0.275 HD
ATOM     16  H22 UNL     1     -17.569 -15.839 -39.885  1.00  0.00     0.275 HD
ATOM     17  H21 UNL     1     -18.180 -17.371 -39.551  1.00  0.00     0.275 HD
ENDBRANCH  10  14
BRANCH  11  18
HETATM   18  O2  UNL     1     -17.272 -16.319 -37.380  1.00  0.00    -0.360 OA
ATOM     19  H2  UNL     1     -16.589 -15.893 -36.874  1.00  0.00     0.213 HD
ENDBRANCH  11  18
BRANCH  11  20
HETATM   20  O3  UNL     1     -19.150 -15.784 -36.268  1.00  0.00    -0.360 OA
ATOM     21  H3  UNL     1     -19.730 -15.063 -36.051  1.00  0.00     0.213 HD
ENDBRANCH  11  20
BRANCH  12  22
HETATM   22  O4  UNL     1     -16.534 -13.986 -37.476  1.00  0.00    -0.366 OA
ATOM     23  H4  UNL     1     -16.100 -14.028 -36.632  1.00  0.00     0.212 HD
ENDBRANCH  12  22
ENDBRANCH   7   8
ENDBRANCH   4   7
BRANCH   6  24
HETATM   24  C11 UNL     1     -19.238  -8.700 -36.461  1.00  0.00     0.205 C 
BRANCH  24  25
HETATM   25  O7  UNL     1     -18.587  -8.302 -35.338  1.00  0.00    -0.357 OA
BRANCH  25  26
HETATM   26  C12 UNL     1     -17.776  -9.274 -34.752  1.00  0.00     0.290 C 
HETATM   27  O8  UNL     1     -16.481  -8.829 -34.900  1.00  0.00    -0.349 OA
HETATM   28  C13 UNL     1     -15.512  -9.477 -34.214  1.00  0.00     0.177 C 
HETATM   29  C15 UNL     1     -15.925 -10.099 -32.916  1.00  0.00     0.151 C 
HETATM   30  C16 UNL     1     -17.103  -9.315 -32.386  1.00  0.00     0.072 C 
HETATM   31  C17 UNL     1     -18.226  -9.567 -33.395  1.00  0.00     0.240 C 
BRANCH  28  32
HETATM   32  C14 UNL     1     -14.386  -8.506 -33.928  1.00  0.00     0.198 C 
BRANCH  32  33
HETATM   33  O9  UNL     1     -13.262  -8.739 -34.691  1.00  0.00    -0.398 OA
ATOM     34  H9  UNL     1     -13.459  -9.122 -35.539  1.00  0.00     0.209 HD
ENDBRANCH  32  33
ENDBRANCH  28  32
BRANCH  29  35
HETATM   35  O10 UNL     1     -16.283 -11.420 -33.013  1.00  0.00    -0.393 OA
ATOM     36  H10 UNL     1     -17.219 -11.567 -33.078  1.00  0.00     0.210 HD
ENDBRANCH  29  35
BRANCH  31  37
HETATM   37  N3  UNL     1     -18.806 -10.883 -33.191  1.00  0.00    -0.070 N 
ATOM     38  H33 UNL     1     -19.357 -10.889 -32.332  1.00  0.00     0.274 HD
ATOM     39  H32 UNL     1     -19.539 -11.050 -33.879  1.00  0.00     0.274 HD
ATOM     40  H31 UNL     1     -18.148 -11.663 -33.187  1.00  0.00     0.274 HD
ENDBRANCH  31  37
ENDBRANCH  25  26
ENDBRANCH  24  25
ENDBRANCH   6  24
BRANCH   1  41
HETATM   41  N1  UNL     1     -21.888  -8.675 -35.318  1.00  0.00    -0.072 N 
ATOM     42  H13 UNL     1     -22.292  -7.834 -35.730  1.00  0.00     0.274 HD
ATOM     43  H12 UNL     1     -22.681  -8.957 -34.742  1.00  0.00     0.274 HD
ATOM     44  H11 UNL     1     -21.064  -8.465 -34.755  1.00  0.00     0.274 HD
ENDBRANCH   1  41
TORSDOF 14
ENDMDL
MODEL 4
REMARK VINA RESULT: -6.243958957      3.685      5.991
REMARK  14 active torsions:
REMARK  status: ('A' for Active; 'I' for Inactive)
REMARK    1  A    between atoms: N1_1  and  C1_5 
REMARK    2  A    between atoms: C4_8  and  O1_9 
REMARK    3  A    between atoms: O1_9  and  C5_10 
REMARK    4  A    between atoms: C7_12  and  N2_13 
REMARK    5  A    between atoms: C8_17  and  O2_18 
REMARK    6  A    between atoms: C8_17  and  O3_20 
REMARK    7  A    between atoms: C9_22  and  O4_23 
REMARK    8  A    between atoms: C10_27  and  C11_28 
REMARK    9  A    between atoms: C11_28  and  O7_29 
REMARK   10  A    between atoms: O7_29  and  C12_30 
REMARK   11  A    between atoms: C13_32  and  C14_33 
REMARK   12  A    between atoms: C14_33  and  O9_34 
REMARK   13  A    between atoms: C15_36  and  O10_37 
REMARK   14  A    between atoms: C17_40  and  N3_41 
ROOT
HETATM    1  C1  UNL     1     -21.406  -9.446 -38.864  1.00  0.00     0.214 C 
HETATM    2  C2  UNL     1     -21.032  -8.002 -39.152  1.00  0.00     0.040 C 
HETATM    3  C3  UNL     1     -19.639  -7.800 -38.539  1.00  0.00     0.063 C 
HETATM    4  C4  UNL     1     -19.536  -8.702 -37.357  1.00  0.00     0.263 C 
HETATM    5  O6  UNL     1     -19.471 -10.024 -37.775  1.00  0.00    -0.352 OA
HETATM    6  C10 UNL     1     -20.090 -10.235 -39.030  1.00  0.00     0.178 C 
ENDROOT
BRANCH   4   7
HETATM    7  O1  UNL     1     -18.390  -8.482 -36.596  1.00  0.00    -0.331 OA
BRANCH   7   8
HETATM    8  C5  UNL     1     -18.363  -9.163 -35.415  1.00  0.00     0.268 C 
HETATM    9  C6  UNL     1     -17.016  -9.785 -35.114  1.00  0.00     0.099 C 
HETATM   10  C7  UNL     1     -16.913 -10.257 -33.691  1.00  0.00     0.255 C 
HETATM   11  C8  UNL     1     -18.182 -10.110 -32.917  1.00  0.00     0.239 C 
HETATM   12  C9  UNL     1     -19.009  -8.923 -33.272  1.00  0.00     0.324 C 
HETATM   13  O5  UNL     1     -18.618  -8.245 -34.397  1.00  0.00    -0.326 OA
BRANCH  10  14
HETATM   14  N2  UNL     1     -15.763  -9.690 -32.997  1.00  0.00    -0.070 N 
ATOM     15  H23 UNL     1     -15.679  -8.691 -33.182  1.00  0.00     0.275 HD
ATOM     16  H22 UNL     1     -15.922  -9.658 -31.990  1.00  0.00     0.275 HD
ATOM     17  H21 UNL     1     -14.895 -10.179 -33.217  1.00  0.00     0.275 HD
ENDBRANCH  10  14
BRANCH  11  18
HETATM   18  O2  UNL     1     -17.894 -10.024 -31.536  1.00  0.00    -0.360 OA
ATOM     19  H2  UNL     1     -17.925 -10.890 -31.146  1.00  0.00     0.213 HD
ENDBRANCH  11  18
BRANCH  11  20
HETATM   20  O3  UNL     1     -18.980 -11.269 -33.058  1.00  0.00    -0.360 OA
ATOM     21  H3  UNL     1     -18.447 -12.050 -32.963  1.00  0.00     0.213 HD
ENDBRANCH  11  20
BRANCH  12  22
HETATM   22  O4  UNL     1     -19.053  -7.978 -32.220  1.00  0.00    -0.366 OA
ATOM     23  H4  UNL     1     -19.903  -7.558 -32.158  1.00  0.00     0.212 HD
ENDBRANCH  12  22
ENDBRANCH   7   8
ENDBRANCH   4   7
BRANCH   6  24
HETATM   24  C11 UNL     1     -20.289 -11.700 -39.125  1.00  0.00     0.205 C 
BRANCH  24  25
HETATM   25  O7  UNL     1     -19.210 -12.521 -39.184  1.00  0.00    -0.357 OA
BRANCH  25  26
HETATM   26  C12 UNL     1     -19.150 -13.488 -38.179  1.00  0.00     0.290 C 
HETATM   27  O8  UNL     1     -18.790 -14.663 -38.802  1.00  0.00    -0.349 OA
HETATM   28  C13 UNL     1     -18.438 -15.707 -38.018  1.00  0.00     0.177 C 
HETATM   29  C15 UNL     1     -17.820 -15.363 -36.699  1.00  0.00     0.151 C 
HETATM   30  C16 UNL     1     -17.153 -14.014 -36.843  1.00  0.00     0.072 C 
HETATM   31  C17 UNL     1     -18.303 -13.033 -37.081  1.00  0.00     0.240 C 
BRANCH  28  32
HETATM   32  C14 UNL     1     -17.460 -16.578 -38.779  1.00  0.00     0.198 C 
BRANCH  32  33
HETATM   33  O9  UNL     1     -16.491 -17.135 -37.973  1.00  0.00    -0.398 OA
ATOM     34  H9  UNL     1     -15.728 -17.431 -38.456  1.00  0.00     0.209 HD
ENDBRANCH  32  33
ENDBRANCH  28  32
BRANCH  29  35
HETATM   35  O10 UNL     1     -18.711 -15.305 -35.657  1.00  0.00    -0.393 OA
ATOM     36  H10 UNL     1     -18.305 -15.268 -34.798  1.00  0.00     0.210 HD
ENDBRANCH  29  35
BRANCH  31  37
HETATM   37  N3  UNL     1     -18.987 -12.740 -35.834  1.00  0.00    -0.070 N 
ATOM     38  H33 UNL     1     -19.903 -12.333 -36.028  1.00  0.00     0.274 HD
ATOM     39  H32 UNL     1     -19.267 -13.609 -35.379  1.00  0.00     0.274 HD
ATOM     40  H31 UNL     1     -18.478 -12.151 -35.176  1.00  0.00     0.274 HD
ENDBRANCH  31  37
ENDBRANCH  25  26
ENDBRANCH  24  25
ENDBRANCH   6  24
BRANCH   1  41
HETATM   41  N1  UNL     1     -22.438  -9.877 -39.753  1.00  0.00    -0.072 N 
ATOM     42  H13 UNL     1     -23.339  -9.457 -39.523  1.00  0.00     0.274 HD
ATOM     43  H12 UNL     1     -22.323  -9.486 -40.688  1.00  0.00     0.274 HD
ATOM     44  H11 UNL     1     -22.487 -10.896 -39.770  1.00  0.00     0.274 HD
ENDBRANCH   1  41
TORSDOF 14
ENDMDL
MODEL 5
REMARK VINA RESULT: -6.233000484      5.979      8.899
REMARK  14 active torsions:
REMARK  status: ('A' for Active; 'I' for Inactive)
REMARK    1  A    between atoms: N1_1  and  C1_5 
REMARK    2  A    between atoms: C4_8  and  O1_9 
REMARK    3  A    between atoms: O1_9  and  C5_10 
REMARK    4  A    between atoms: C7_12  and  N2_13 
REMARK    5  A    between atoms: C8_17  and  O2_18 
REMARK    6  A    between atoms: C8_17  and  O3_20 
REMARK    7  A    between atoms: C9_22  and  O4_23 
REMARK    8  A    between atoms: C10_27  and  C11_28 
REMARK    9  A    between atoms: C11_28  and  O7_29 
REMARK   10  A    between atoms: O7_29  and  C12_30 
REMARK   11  A    between atoms: C13_32  and  C14_33 
REMARK   12  A    between atoms: C14_33  and  O9_34 
REMARK   13  A    between atoms: C15_36  and  O10_37 
REMARK   14  A    between atoms: C17_40  and  N3_41 
ROOT
HETATM    1  C1  UNL     1     -19.145 -16.800 -31.311  1.00  0.00     0.214 C 
HETATM    2  C2  UNL     1     -20.037 -16.766 -30.082  1.00  0.00     0.040 C 
HETATM    3  C3  UNL     1     -21.006 -15.595 -30.300  1.00  0.00     0.063 C 
HETATM    4  C4  UNL     1     -20.294 -14.572 -31.118  1.00  0.00     0.263 C 
HETATM    5  O6  UNL     1     -20.119 -15.040 -32.413  1.00  0.00    -0.352 OA
HETATM    6  C10 UNL     1     -20.081 -16.453 -32.488  1.00  0.00     0.178 C 
ENDROOT
BRANCH   4   7
HETATM    7  O1  UNL     1     -20.995 -13.375 -31.233  1.00  0.00    -0.331 OA
BRANCH   7   8
HETATM    8  C5  UNL     1     -20.299 -12.374 -31.846  1.00  0.00     0.268 C 
HETATM    9  C6  UNL     1     -21.148 -11.541 -32.781  1.00  0.00     0.099 C 
HETATM   10  C7  UNL     1     -20.456 -10.275 -33.201  1.00  0.00     0.255 C 
HETATM   11  C8  UNL     1     -19.056 -10.161 -32.697  1.00  0.00     0.239 C 
HETATM   12  C9  UNL     1     -18.814 -10.756 -31.353  1.00  0.00     0.324 C 
HETATM   13  O5  UNL     1     -19.838 -11.515 -30.849  1.00  0.00    -0.326 OA
BRANCH  10  14
HETATM   14  N2  UNL     1     -21.252  -9.085 -32.922  1.00  0.00    -0.070 N 
ATOM     15  H23 UNL     1     -21.967  -8.946 -33.636  1.00  0.00     0.275 HD
ATOM     16  H22 UNL     1     -21.856  -9.230 -32.112  1.00  0.00     0.275 HD
ATOM     17  H21 UNL     1     -20.678  -8.249 -32.809  1.00  0.00     0.275 HD
ENDBRANCH  10  14
BRANCH  11  18
HETATM   18  O2  UNL     1     -18.679  -8.800 -32.628  1.00  0.00    -0.360 OA
ATOM     19  H2  UNL     1     -17.805  -8.726 -32.264  1.00  0.00     0.213 HD
ENDBRANCH  11  18
BRANCH  11  20
HETATM   20  O3  UNL     1     -18.154 -10.749 -33.615  1.00  0.00    -0.360 OA
ATOM     21  H3  UNL     1     -17.585 -10.086 -33.988  1.00  0.00     0.213 HD
ENDBRANCH  11  20
BRANCH  12  22
HETATM   22  O4  UNL     1     -18.523  -9.768 -30.384  1.00  0.00    -0.366 OA
ATOM     23  H4  UNL     1     -17.974 -10.107 -29.687  1.00  0.00     0.212 HD
ENDBRANCH  12  22
ENDBRANCH   7   8
ENDBRANCH   4   7
BRANCH   6  24
HETATM   24  C11 UNL     1     -19.497 -16.758 -33.815  1.00  0.00     0.205 C 
BRANCH  24  25
HETATM   25  O7  UNL     1     -19.929 -16.081 -34.909  1.00  0.00    -0.357 OA
BRANCH  25  26
HETATM   26  C12 UNL     1     -18.948 -15.341 -35.569  1.00  0.00     0.290 C 
HETATM   27  O8  UNL     1     -18.315 -16.221 -36.419  1.00  0.00    -0.349 OA
HETATM   28  C13 UNL     1     -17.473 -15.707 -37.343  1.00  0.00     0.177 C 
HETATM   29  C15 UNL     1     -17.790 -14.326 -37.829  1.00  0.00     0.151 C 
HETATM   30  C16 UNL     1     -19.279 -14.117 -37.677  1.00  0.00     0.072 C 
HETATM   31  C17 UNL     1     -19.525 -14.142 -36.167  1.00  0.00     0.240 C 
BRANCH  28  32
HETATM   32  C14 UNL     1     -17.446 -16.628 -38.545  1.00  0.00     0.198 C 
BRANCH  32  33
HETATM   33  O9  UNL     1     -16.414 -17.541 -38.505  1.00  0.00    -0.398 OA
ATOM     34  H9  UNL     1     -16.529 -18.261 -39.115  1.00  0.00     0.209 HD
ENDBRANCH  32  33
ENDBRANCH  28  32
BRANCH  29  35
HETATM   35  O10 UNL     1     -17.134 -13.327 -37.154  1.00  0.00    -0.393 OA
ATOM     36  H10 UNL     1     -17.608 -12.505 -37.117  1.00  0.00     0.210 HD
ENDBRANCH  29  35
BRANCH  31  37
HETATM   37  N3  UNL     1     -19.126 -12.881 -35.567  1.00  0.00    -0.070 N 
ATOM     38  H33 UNL     1     -18.395 -12.446 -36.129  1.00  0.00     0.274 HD
ATOM     39  H32 UNL     1     -19.872 -12.194 -35.674  1.00  0.00     0.274 HD
ATOM     40  H31 UNL     1     -18.833 -12.927 -34.590  1.00  0.00     0.274 HD
ENDBRANCH  31  37
ENDBRANCH  25  26
ENDBRANCH  24  25
ENDBRANCH   6  24
BRANCH   1  41
HETATM   41  N1  UNL     1     -18.530 -18.083 -31.439  1.00  0.00    -0.072 N 
ATOM     42  H13 UNL     1     -18.032 -18.353 -30.590  1.00  0.00     0.274 HD
ATOM     43  H12 UNL     1     -19.218 -18.835 -31.458  1.00  0.00     0.274 HD
ATOM     44  H11 UNL     1     -17.922 -18.103 -32.258  1.00  0.00     0.274 HD
ENDBRANCH   1  41
TORSDOF 14
ENDMDL
