MODEL 1
REMARK VINA RESULT: -6.494712349      0.000      0.000
REMARK  12 active torsions:
REMARK  status: ('A' for Active; 'I' for Inactive)
REMARK    1  A    between atoms: N1_1  and  C1_5 
REMARK    2  A    between atoms: C3_7  and  N2_8 
REMARK    3  A    between atoms: C4_12  and  O1_13 
REMARK    4  A    between atoms: C5_15  and  N3_16 
REMARK       I    between atoms: N3_16  and  C6_18 
REMARK    5  A    between atoms: C6_18  and  C7_20 
REMARK    6  A    between atoms: C7_20  and  C8_21 
REMARK    7  A    between atoms: N4_23  and  C10_24 
REMARK    8  A    between atoms: C10_24  and  C11_25 
REMARK    9  A    between atoms: C11_25  and  N5_26 
REMARK   10  A    between atoms: C13_33  and  O4_34 
REMARK   11  A    between atoms: C14_36  and  O5_37 
REMARK   12  A    between atoms: C15_39  and  N6_40 
ROOT
HETATM    1  C8  UNL     1     -20.450 -10.271 -40.819  1.00  0.00     0.053 A 
HETATM    2  C9  UNL     1     -20.953 -11.381 -40.162  1.00  0.00     0.138 A 
HETATM    3  N4  UNL     1     -20.410 -12.477 -40.675  1.00  0.00    -0.282 N 
HETATM    4  N7  UNL     1     -19.588 -12.056 -41.628  1.00  0.00    -0.241 N 
ATOM      5  H7  UNL     1     -19.022 -12.674 -42.208  1.00  0.00     0.208 HD
HETATM    6  N8  UNL     1     -19.592 -10.754 -41.735  1.00  0.00    -0.289 N 
ATOM      7  H8  UNL     1     -19.044 -10.202 -42.394  1.00  0.00     0.188 HD
ENDROOT
BRANCH   1   8
HETATM    8  C7  UNL     1     -20.793  -8.848 -40.558  1.00  0.00     0.162 C 
BRANCH   8   9
HETATM    9  C6  UNL     1     -20.045  -8.005 -41.533  1.00  0.00     0.223 C 
HETATM   10  N3  UNL     1     -18.782  -7.434 -41.214  1.00  0.00    -0.354 N 
ATOM     11  H3  UNL     1     -18.373  -7.602 -40.295  1.00  0.00     0.163 HD
HETATM   12  O2  UNL     1     -20.524  -7.771 -42.694  1.00  0.00    -0.273 OA
BRANCH  10  13
HETATM   13  C5  UNL     1     -18.067  -6.616 -42.174  1.00  0.00     0.117 C 
HETATM   14  C4  UNL     1     -16.789  -7.342 -42.537  1.00  0.00     0.171 C 
HETATM   15  C3  UNL     1     -15.739  -6.906 -41.519  1.00  0.00     0.216 C 
HETATM   16  C2  UNL     1     -15.334  -5.496 -41.906  1.00  0.00     0.068 C 
HETATM   17  C1  UNL     1     -16.549  -4.625 -42.021  1.00  0.00     0.187 C 
HETATM   18  C16 UNL     1     -17.802  -5.284 -41.518  1.00  0.00     0.060 C 
BRANCH  14  19
HETATM   19  O1  UNL     1     -17.017  -8.722 -42.449  1.00  0.00    -0.391 OA
ATOM     20  H1  UNL     1     -17.927  -8.923 -42.633  1.00  0.00     0.210 HD
ENDBRANCH  14  19
BRANCH  15  21
HETATM   21  N2  UNL     1     -14.601  -7.789 -41.519  1.00  0.00    -0.072 N 
ATOM     22  H23 UNL     1     -14.088  -7.742 -42.399  1.00  0.00     0.274 HD
ATOM     23  H22 UNL     1     -13.867  -7.456 -40.894  1.00  0.00     0.274 HD
ATOM     24  H21 UNL     1     -14.880  -8.744 -41.297  1.00  0.00     0.274 HD
ENDBRANCH  15  21
BRANCH  17  25
HETATM   25  N1  UNL     1     -16.333  -3.423 -41.237  1.00  0.00    -0.075 N 
ATOM     26  H13 UNL     1     -16.489  -3.573 -40.240  1.00  0.00     0.274 HD
ATOM     27  H12 UNL     1     -15.349  -3.160 -41.187  1.00  0.00     0.274 HD
ATOM     28  H11 UNL     1     -16.918  -2.678 -41.615  1.00  0.00     0.274 HD
ENDBRANCH  17  25
ENDBRANCH  10  13
ENDBRANCH   8   9
ENDBRANCH   1   8
BRANCH   3  29
HETATM   29  C10 UNL     1     -20.622 -13.843 -40.346  1.00  0.00     0.220 C 
BRANCH  29  30
HETATM   30  C11 UNL     1     -19.725 -14.541 -39.417  1.00  0.00     0.274 C 
HETATM   31  O3  UNL     1     -18.721 -13.673 -38.907  1.00  0.00    -0.332 OA
HETATM   32  C12 UNL     1     -18.246 -14.078 -37.686  1.00  0.00     0.228 C 
HETATM   33  S1  UNL     1     -19.156 -13.384 -36.274  1.00  0.00    -0.060 SA
HETATM   34  C13 UNL     1     -18.049 -15.565 -37.561  1.00  0.00     0.189 C 
HETATM   35  C14 UNL     1     -17.862 -16.102 -38.953  1.00  0.00     0.185 C 
HETATM   36  C15 UNL     1     -19.188 -15.878 -39.715  1.00  0.00     0.279 C 
BRANCH  30  37
HETATM   37  N5  UNL     1     -20.588 -14.740 -38.196  1.00  0.00    -0.043 N 
ATOM     38  H53 UNL     1     -20.567 -13.967 -37.530  1.00  0.00     0.278 HD
ATOM     39  H52 UNL     1     -21.591 -14.698 -38.372  1.00  0.00     0.278 HD
ATOM     40  H51 UNL     1     -20.259 -15.631 -37.823  1.00  0.00     0.278 HD
ENDBRANCH  30  37
BRANCH  34  41
HETATM   41  O4  UNL     1     -16.863 -15.782 -36.805  1.00  0.00    -0.389 OA
ATOM     42  H4  UNL     1     -16.662 -16.711 -36.842  1.00  0.00     0.210 HD
ENDBRANCH  34  41
BRANCH  35  43
HETATM   43  O5  UNL     1     -17.503 -17.426 -38.979  1.00  0.00    -0.391 OA
ATOM     44  H5  UNL     1     -18.240 -18.017 -38.868  1.00  0.00     0.210 HD
ENDBRANCH  35  43
BRANCH  36  45
HETATM   45  N6  UNL     1     -18.922 -16.222 -41.072  1.00  0.00    -0.068 N 
ATOM     46  H63 UNL     1     -19.671 -15.855 -41.658  1.00  0.00     0.275 HD
ATOM     47  H62 UNL     1     -18.126 -15.675 -41.401  1.00  0.00     0.275 HD
ATOM     48  H61 UNL     1     -18.768 -17.202 -41.308  1.00  0.00     0.275 HD
ENDBRANCH  36  45
ENDBRANCH  29  30
ENDBRANCH   3  29
TORSDOF 12
ENDMDL
MODEL 2
REMARK VINA RESULT: -5.909389127      1.169      1.946
REMARK  12 active torsions:
REMARK  status: ('A' for Active; 'I' for Inactive)
REMARK    1  A    between atoms: N1_1  and  C1_5 
REMARK    2  A    between atoms: C3_7  and  N2_8 
REMARK    3  A    between atoms: C4_12  and  O1_13 
REMARK    4  A    between atoms: C5_15  and  N3_16 
REMARK       I    between atoms: N3_16  and  C6_18 
REMARK    5  A    between atoms: C6_18  and  C7_20 
REMARK    6  A    between atoms: C7_20  and  C8_21 
REMARK    7  A    between atoms: N4_23  and  C10_24 
REMARK    8  A    between atoms: C10_24  and  C11_25 
REMARK    9  A    between atoms: C11_25  and  N5_26 
REMARK   10  A    between atoms: C13_33  and  O4_34 
REMARK   11  A    between atoms: C14_36  and  O5_37 
REMARK   12  A    between atoms: C15_39  and  N6_40 
ROOT
HETATM    1  C8  UNL     1     -20.367 -10.620 -41.065  1.00  0.00     0.053 A 
HETATM    2  C9  UNL     1     -20.880 -11.598 -40.229  1.00  0.00     0.138 A 
HETATM    3  N4  UNL     1     -20.404 -12.781 -40.597  1.00  0.00    -0.282 N 
HETATM    4  N7  UNL     1     -19.615 -12.541 -41.636  1.00  0.00    -0.241 N 
ATOM      5  H7  UNL     1     -19.101 -13.263 -42.141  1.00  0.00     0.208 HD
HETATM    6  N8  UNL     1     -19.574 -11.270 -41.935  1.00  0.00    -0.289 N 
ATOM      7  H8  UNL     1     -19.037 -10.847 -42.691  1.00  0.00     0.188 HD
ENDROOT
BRANCH   1   8
HETATM    8  C7  UNL     1     -20.642  -9.160 -41.005  1.00  0.00     0.162 C 
BRANCH   8   9
HETATM    9  C6  UNL     1     -19.390  -8.469 -40.589  1.00  0.00     0.223 C 
HETATM   10  N3  UNL     1     -18.830  -7.408 -41.354  1.00  0.00    -0.354 N 
ATOM     11  H3  UNL     1     -19.295  -7.108 -42.210  1.00  0.00     0.163 HD
HETATM   12  O2  UNL     1     -18.777  -8.816 -39.522  1.00  0.00    -0.273 OA
BRANCH  10  13
HETATM   13  C5  UNL     1     -17.610  -6.746 -40.935  1.00  0.00     0.117 C 
HETATM   14  C4  UNL     1     -17.736  -5.279 -41.290  1.00  0.00     0.171 C 
HETATM   15  C3  UNL     1     -17.217  -5.135 -42.718  1.00  0.00     0.216 C 
HETATM   16  C2  UNL     1     -15.706  -5.235 -42.632  1.00  0.00     0.068 C 
HETATM   17  C1  UNL     1     -15.313  -6.486 -41.908  1.00  0.00     0.187 C 
HETATM   18  C16 UNL     1     -16.467  -7.415 -41.657  1.00  0.00     0.060 C 
BRANCH  14  19
HETATM   19  O1  UNL     1     -19.087  -4.915 -41.218  1.00  0.00    -0.391 OA
ATOM     20  H1  UNL     1     -19.643  -5.684 -41.256  1.00  0.00     0.210 HD
ENDBRANCH  14  19
BRANCH  15  21
HETATM   21  N2  UNL     1     -17.620  -3.883 -43.305  1.00  0.00    -0.072 N 
ATOM     22  H23 UNL     1     -18.303  -3.398 -42.723  1.00  0.00     0.274 HD
ATOM     23  H22 UNL     1     -16.870  -3.193 -43.271  1.00  0.00     0.274 HD
ATOM     24  H21 UNL     1     -17.964  -4.018 -44.255  1.00  0.00     0.274 HD
ENDBRANCH  15  21
BRANCH  17  25
HETATM   25  N1  UNL     1     -14.335  -7.200 -42.710  1.00  0.00    -0.075 N 
ATOM     26  H13 UNL     1     -13.597  -6.589 -43.060  1.00  0.00     0.274 HD
ATOM     27  H12 UNL     1     -13.751  -7.822 -42.152  1.00  0.00     0.274 HD
ATOM     28  H11 UNL     1     -14.824  -7.690 -43.459  1.00  0.00     0.274 HD
ENDBRANCH  17  25
ENDBRANCH  10  13
ENDBRANCH   8   9
ENDBRANCH   1   8
BRANCH   3  29
HETATM   29  C10 UNL     1     -20.652 -14.072 -40.059  1.00  0.00     0.220 C 
BRANCH  29  30
HETATM   30  C11 UNL     1     -19.687 -14.709 -39.155  1.00  0.00     0.274 C 
HETATM   31  O3  UNL     1     -18.721 -13.779 -38.681  1.00  0.00    -0.332 OA
HETATM   32  C12 UNL     1     -18.185 -14.147 -37.474  1.00  0.00     0.228 C 
HETATM   33  S1  UNL     1     -19.091 -13.501 -36.038  1.00  0.00    -0.060 SA
HETATM   34  C13 UNL     1     -17.894 -15.619 -37.349  1.00  0.00     0.189 C 
HETATM   35  C14 UNL     1     -17.719 -16.151 -38.743  1.00  0.00     0.185 C 
HETATM   36  C15 UNL     1     -19.079 -16.013 -39.465  1.00  0.00     0.279 C 
BRANCH  30  37
HETATM   37  N5  UNL     1     -20.497 -14.952 -37.907  1.00  0.00    -0.043 N 
ATOM     38  H53 UNL     1     -21.049 -14.153 -37.596  1.00  0.00     0.278 HD
ATOM     39  H52 UNL     1     -21.289 -15.583 -38.030  1.00  0.00     0.278 HD
ATOM     40  H51 UNL     1     -19.798 -15.273 -37.237  1.00  0.00     0.278 HD
ENDBRANCH  30  37
BRANCH  34  41
HETATM   41  O4  UNL     1     -16.674 -15.759 -36.630  1.00  0.00    -0.389 OA
ATOM     42  H4  UNL     1     -16.092 -15.063 -36.910  1.00  0.00     0.210 HD
ENDBRANCH  34  41
BRANCH  35  43
HETATM   43  O5  UNL     1     -17.282 -17.452 -38.776  1.00  0.00    -0.391 OA
ATOM     44  H5  UNL     1     -16.564 -17.622 -38.176  1.00  0.00     0.210 HD
ENDBRANCH  35  43
BRANCH  36  45
HETATM   45  N6  UNL     1     -18.835 -16.349 -40.828  1.00  0.00    -0.068 N 
ATOM     46  H63 UNL     1     -19.570 -15.941 -41.405  1.00  0.00     0.275 HD
ATOM     47  H62 UNL     1     -18.017 -15.832 -41.154  1.00  0.00     0.275 HD
ATOM     48  H61 UNL     1     -18.725 -17.331 -41.079  1.00  0.00     0.275 HD
ENDBRANCH  36  45
ENDBRANCH  29  30
ENDBRANCH   3  29
TORSDOF 12
ENDMDL
MODEL 3
REMARK VINA RESULT: -5.804202916      9.986     13.091
REMARK  12 active torsions:
REMARK  status: ('A' for Active; 'I' for Inactive)
REMARK    1  A    between atoms: N1_1  and  C1_5 
REMARK    2  A    between atoms: C3_7  and  N2_8 
REMARK    3  A    between atoms: C4_12  and  O1_13 
REMARK    4  A    between atoms: C5_15  and  N3_16 
REMARK       I    between atoms: N3_16  and  C6_18 
REMARK    5  A    between atoms: C6_18  and  C7_20 
REMARK    6  A    between atoms: C7_20  and  C8_21 
REMARK    7  A    between atoms: N4_23  and  C10_24 
REMARK    8  A    between atoms: C10_24  and  C11_25 
REMARK    9  A    between atoms: C11_25  and  N5_26 
REMARK   10  A    between atoms: C13_33  and  O4_34 
REMARK   11  A    between atoms: C14_36  and  O5_37 
REMARK   12  A    between atoms: C15_39  and  N6_40 
ROOT
HETATM    1  C8  UNL     1     -13.368  -7.570 -32.753  1.00  0.00     0.053 A 
HETATM    2  C9  UNL     1     -13.187  -6.279 -33.219  1.00  0.00     0.138 A 
HETATM    3  N4  UNL     1     -12.862  -5.490 -32.202  1.00  0.00    -0.282 N 
HETATM    4  N7  UNL     1     -12.841  -6.275 -31.133  1.00  0.00    -0.241 N 
ATOM      5  H7  UNL     1     -12.620  -5.952 -30.192  1.00  0.00     0.208 HD
HETATM    6  N8  UNL     1     -13.136  -7.512 -31.430  1.00  0.00    -0.289 N 
ATOM      7  H8  UNL     1     -13.183  -8.294 -30.777  1.00  0.00     0.188 HD
ENDROOT
BRANCH   1   8
HETATM    8  C7  UNL     1     -13.740  -8.765 -33.558  1.00  0.00     0.162 C 
BRANCH   8   9
HETATM    9  C6  UNL     1     -15.216  -8.948 -33.460  1.00  0.00     0.223 C 
HETATM   10  N3  UNL     1     -16.020  -9.169 -34.612  1.00  0.00    -0.354 N 
ATOM     11  H3  UNL     1     -15.581  -9.204 -35.532  1.00  0.00     0.163 HD
HETATM   12  O2  UNL     1     -15.804  -8.912 -32.327  1.00  0.00    -0.273 OA
BRANCH  10  13
HETATM   13  C5  UNL     1     -17.455  -9.345 -34.501  1.00  0.00     0.117 C 
HETATM   14  C4  UNL     1     -17.731 -10.831 -34.403  1.00  0.00     0.171 C 
HETATM   15  C3  UNL     1     -17.871 -11.340 -35.835  1.00  0.00     0.216 C 
HETATM   16  C2  UNL     1     -19.230 -10.873 -36.320  1.00  0.00     0.068 C 
HETATM   17  C1  UNL     1     -19.365  -9.393 -36.126  1.00  0.00     0.187 C 
HETATM   18  C16 UNL     1     -18.079  -8.726 -35.726  1.00  0.00     0.060 C 
BRANCH  14  19
HETATM   19  O1  UNL     1     -16.645 -11.448 -33.765  1.00  0.00    -0.391 OA
ATOM     20  H1  UNL     1     -16.950 -12.062 -33.107  1.00  0.00     0.210 HD
ENDBRANCH  14  19
BRANCH  15  21
HETATM   21  N2  UNL     1     -17.763 -12.775 -35.901  1.00  0.00    -0.072 N 
ATOM     22  H23 UNL     1     -17.760 -13.195 -34.971  1.00  0.00     0.274 HD
ATOM     23  H22 UNL     1     -18.618 -13.200 -36.260  1.00  0.00     0.274 HD
ATOM     24  H21 UNL     1     -16.946 -13.056 -36.443  1.00  0.00     0.274 HD
ENDBRANCH  15  21
BRANCH  17  25
HETATM   25  N1  UNL     1     -19.803  -8.799 -37.376  1.00  0.00    -0.075 N 
ATOM     26  H13 UNL     1     -20.524  -9.352 -37.840  1.00  0.00     0.274 HD
ATOM     27  H12 UNL     1     -20.348  -7.949 -37.234  1.00  0.00     0.274 HD
ATOM     28  H11 UNL     1     -18.987  -8.646 -37.968  1.00  0.00     0.274 HD
ENDBRANCH  17  25
ENDBRANCH  10  13
ENDBRANCH   8   9
ENDBRANCH   1   8
BRANCH   3  29
HETATM   29  C10 UNL     1     -12.596  -4.094 -32.178  1.00  0.00     0.220 C 
BRANCH  29  30
HETATM   30  C11 UNL     1     -11.325  -3.579 -31.656  1.00  0.00     0.274 C 
HETATM   31  O3  UNL     1     -10.423  -4.632 -31.341  1.00  0.00    -0.332 OA
HETATM   32  C12 UNL     1      -9.112  -4.237 -31.396  1.00  0.00     0.228 C 
HETATM   33  S1  UNL     1      -8.343  -4.455 -33.028  1.00  0.00    -0.060 SA
HETATM   34  C13 UNL     1      -8.854  -2.868 -30.823  1.00  0.00     0.189 C 
HETATM   35  C14 UNL     1      -9.961  -2.586 -29.846  1.00  0.00     0.185 C 
HETATM   36  C15 UNL     1     -11.278  -2.505 -30.652  1.00  0.00     0.279 C 
BRANCH  30  37
HETATM   37  N5  UNL     1     -10.669  -2.988 -32.879  1.00  0.00    -0.043 N 
ATOM     38  H53 UNL     1      -9.817  -2.459 -32.690  1.00  0.00     0.278 HD
ATOM     39  H52 UNL     1     -10.232  -3.670 -33.499  1.00  0.00     0.278 HD
ATOM     40  H51 UNL     1     -11.420  -2.445 -33.304  1.00  0.00     0.278 HD
ENDBRANCH  30  37
BRANCH  34  41
HETATM   41  O4  UNL     1      -7.611  -2.915 -30.132  1.00  0.00    -0.389 OA
ATOM     42  H4  UNL     1      -7.321  -2.020 -29.999  1.00  0.00     0.210 HD
ENDBRANCH  34  41
BRANCH  35  43
HETATM   43  O5  UNL     1      -9.763  -1.437 -29.121  1.00  0.00    -0.391 OA
ATOM     44  H5  UNL     1      -8.846  -1.223 -29.000  1.00  0.00     0.210 HD
ENDBRANCH  35  43
BRANCH  36  45
HETATM   45  N6  UNL     1     -12.322  -2.424 -29.686  1.00  0.00    -0.068 N 
ATOM     46  H63 UNL     1     -12.777  -3.334 -29.614  1.00  0.00     0.275 HD
ATOM     47  H62 UNL     1     -11.907  -2.335 -28.758  1.00  0.00     0.275 HD
ATOM     48  H61 UNL     1     -13.038  -1.706 -29.797  1.00  0.00     0.275 HD
ENDBRANCH  36  45
ENDBRANCH  29  30
ENDBRANCH   3  29
TORSDOF 12
ENDMDL
MODEL 4
REMARK VINA RESULT: -5.718197628      3.066      3.713
REMARK  12 active torsions:
REMARK  status: ('A' for Active; 'I' for Inactive)
REMARK    1  A    between atoms: N1_1  and  C1_5 
REMARK    2  A    between atoms: C3_7  and  N2_8 
REMARK    3  A    between atoms: C4_12  and  O1_13 
REMARK    4  A    between atoms: C5_15  and  N3_16 
REMARK       I    between atoms: N3_16  and  C6_18 
REMARK    5  A    between atoms: C6_18  and  C7_20 
REMARK    6  A    between atoms: C7_20  and  C8_21 
REMARK    7  A    between atoms: N4_23  and  C10_24 
REMARK    8  A    between atoms: C10_24  and  C11_25 
REMARK    9  A    between atoms: C11_25  and  N5_26 
REMARK   10  A    between atoms: C13_33  and  O4_34 
REMARK   11  A    between atoms: C14_36  and  O5_37 
REMARK   12  A    between atoms: C15_39  and  N6_40 
ROOT
HETATM    1  C8  UNL     1     -21.063 -10.716 -41.271  1.00  0.00     0.053 A 
HETATM    2  C9  UNL     1     -21.578 -11.843 -40.655  1.00  0.00     0.138 A 
HETATM    3  N4  UNL     1     -20.731 -12.853 -40.811  1.00  0.00    -0.282 N 
HETATM    4  N7  UNL     1     -19.715 -12.361 -41.507  1.00  0.00    -0.241 N 
ATOM      5  H7  UNL     1     -18.898 -12.905 -41.786  1.00  0.00     0.208 HD
HETATM    6  N8  UNL     1     -19.884 -11.098 -41.793  1.00  0.00    -0.289 N 
ATOM      7  H8  UNL     1     -19.239 -10.508 -42.317  1.00  0.00     0.188 HD
ENDROOT
BRANCH   1   8
HETATM    8  C7  UNL     1     -21.689  -9.368 -41.336  1.00  0.00     0.162 C 
BRANCH   8   9
HETATM    9  C6  UNL     1     -20.986  -8.484 -40.364  1.00  0.00     0.223 C 
HETATM   10  N3  UNL     1     -20.807  -8.859 -39.004  1.00  0.00    -0.354 N 
ATOM     11  H3  UNL     1     -21.167  -9.757 -38.679  1.00  0.00     0.163 HD
HETATM   12  O2  UNL     1     -20.521  -7.352 -40.731  1.00  0.00    -0.273 OA
BRANCH  10  13
HETATM   13  C5  UNL     1     -20.121  -7.987 -38.071  1.00  0.00     0.117 C 
HETATM   14  C4  UNL     1     -18.698  -8.487 -37.933  1.00  0.00     0.171 C 
HETATM   15  C3  UNL     1     -18.710  -9.525 -36.814  1.00  0.00     0.216 C 
HETATM   16  C2  UNL     1     -18.820  -8.747 -35.517  1.00  0.00     0.068 C 
HETATM   17  C1  UNL     1     -19.994  -7.817 -35.572  1.00  0.00     0.187 C 
HETATM   18  C16 UNL     1     -20.876  -8.043 -36.767  1.00  0.00     0.060 C 
BRANCH  14  19
HETATM   19  O1  UNL     1     -18.310  -9.075 -39.146  1.00  0.00    -0.391 OA
ATOM     20  H1  UNL     1     -18.786  -9.884 -39.292  1.00  0.00     0.210 HD
ENDBRANCH  14  19
BRANCH  15  21
HETATM   21  N2  UNL     1     -17.521 -10.338 -36.831  1.00  0.00    -0.072 N 
ATOM     22  H23 UNL     1     -17.555 -11.068 -36.121  1.00  0.00     0.274 HD
ATOM     23  H22 UNL     1     -17.483 -10.930 -37.661  1.00  0.00     0.274 HD
ATOM     24  H21 UNL     1     -16.684  -9.763 -36.740  1.00  0.00     0.274 HD
ENDBRANCH  15  21
BRANCH  17  25
HETATM   25  N1  UNL     1     -20.800  -8.016 -34.381  1.00  0.00    -0.075 N 
ATOM     26  H13 UNL     1     -21.211  -7.148 -34.037  1.00  0.00     0.274 HD
ATOM     27  H12 UNL     1     -21.668  -8.515 -34.576  1.00  0.00     0.274 HD
ATOM     28  H11 UNL     1     -20.230  -8.484 -33.676  1.00  0.00     0.274 HD
ENDBRANCH  17  25
ENDBRANCH  10  13
ENDBRANCH   8   9
ENDBRANCH   1   8
BRANCH   3  29
HETATM   29  C10 UNL     1     -20.827 -14.202 -40.375  1.00  0.00     0.220 C 
BRANCH  29  30
HETATM   30  C11 UNL     1     -19.864 -14.753 -39.415  1.00  0.00     0.274 C 
HETATM   31  O3  UNL     1     -18.980 -13.751 -38.927  1.00  0.00    -0.332 OA
HETATM   32  C12 UNL     1     -18.474 -14.054 -37.689  1.00  0.00     0.228 C 
HETATM   33  S1  UNL     1     -19.480 -13.431 -36.309  1.00  0.00    -0.060 SA
HETATM   34  C13 UNL     1     -18.097 -15.500 -37.511  1.00  0.00     0.189 C 
HETATM   35  C14 UNL     1     -17.828 -16.055 -38.882  1.00  0.00     0.185 C 
HETATM   36  C15 UNL     1     -19.162 -16.022 -39.663  1.00  0.00     0.279 C 
BRANCH  30  37
HETATM   37  N5  UNL     1     -20.710 -15.016 -38.195  1.00  0.00    -0.043 N 
ATOM     38  H53 UNL     1     -21.460 -15.693 -38.336  1.00  0.00     0.278 HD
ATOM     39  H52 UNL     1     -20.239 -15.535 -37.454  1.00  0.00     0.278 HD
ATOM     40  H51 UNL     1     -21.025 -14.084 -37.927  1.00  0.00     0.278 HD
ENDBRANCH  30  37
BRANCH  34  41
HETATM   41  O4  UNL     1     -16.903 -15.544 -36.739  1.00  0.00    -0.389 OA
ATOM     42  H4  UNL     1     -16.181 -15.720 -37.332  1.00  0.00     0.210 HD
ENDBRANCH  34  41
BRANCH  35  43
HETATM   43  O5  UNL     1     -17.309 -17.325 -38.860  1.00  0.00    -0.391 OA
ATOM     44  H5  UNL     1     -16.716 -17.501 -39.582  1.00  0.00     0.210 HD
ENDBRANCH  35  43
BRANCH  36  45
HETATM   45  N6  UNL     1     -18.839 -16.375 -41.005  1.00  0.00    -0.068 N 
ATOM     46  H63 UNL     1     -19.453 -15.864 -41.638  1.00  0.00     0.275 HD
ATOM     47  H62 UNL     1     -17.931 -15.973 -41.242  1.00  0.00     0.275 HD
ATOM     48  H61 UNL     1     -18.841 -17.361 -41.267  1.00  0.00     0.275 HD
ENDBRANCH  36  45
ENDBRANCH  29  30
ENDBRANCH   3  29
TORSDOF 12
ENDMDL
MODEL 5
REMARK VINA RESULT: -5.635584574      2.088      2.727
REMARK  12 active torsions:
REMARK  status: ('A' for Active; 'I' for Inactive)
REMARK    1  A    between atoms: N1_1  and  C1_5 
REMARK    2  A    between atoms: C3_7  and  N2_8 
REMARK    3  A    between atoms: C4_12  and  O1_13 
REMARK    4  A    between atoms: C5_15  and  N3_16 
REMARK       I    between atoms: N3_16  and  C6_18 
REMARK    5  A    between atoms: C6_18  and  C7_20 
REMARK    6  A    between atoms: C7_20  and  C8_21 
REMARK    7  A    between atoms: N4_23  and  C10_24 
REMARK    8  A    between atoms: C10_24  and  C11_25 
REMARK    9  A    between atoms: C11_25  and  N5_26 
REMARK   10  A    between atoms: C13_33  and  O4_34 
REMARK   11  A    between atoms: C14_36  and  O5_37 
REMARK   12  A    between atoms: C15_39  and  N6_40 
ROOT
HETATM    1  C8  UNL     1     -21.548 -12.828 -42.352  1.00  0.00     0.053 A 
HETATM    2  C9  UNL     1     -22.022 -13.418 -41.193  1.00  0.00     0.138 A 
HETATM    3  N4  UNL     1     -21.022 -14.032 -40.574  1.00  0.00    -0.282 N 
HETATM    4  N7  UNL     1     -19.953 -13.826 -41.333  1.00  0.00    -0.241 N 
ATOM      5  H7  UNL     1     -19.022 -14.181 -41.115  1.00  0.00     0.208 HD
HETATM    6  N8  UNL     1     -20.236 -13.116 -42.391  1.00  0.00    -0.289 N 
ATOM      7  H8  UNL     1     -19.579 -12.831 -43.118  1.00  0.00     0.188 HD
ENDROOT
BRANCH   1   8
HETATM    8  C7  UNL     1     -22.335 -12.041 -43.339  1.00  0.00     0.162 C 
BRANCH   8   9
HETATM    9  C6  UNL     1     -21.903 -10.618 -43.247  1.00  0.00     0.223 C 
HETATM   10  N3  UNL     1     -20.560 -10.225 -43.501  1.00  0.00    -0.354 N 
ATOM     11  H3  UNL     1     -19.870 -10.932 -43.754  1.00  0.00     0.163 HD
HETATM   12  O2  UNL     1     -22.738  -9.703 -42.932  1.00  0.00    -0.273 OA
BRANCH  10  13
HETATM   13  C5  UNL     1     -20.156  -8.836 -43.407  1.00  0.00     0.117 C 
HETATM   14  C4  UNL     1     -18.965  -8.639 -44.320  1.00  0.00     0.171 C 
HETATM   15  C3  UNL     1     -17.726  -8.961 -43.490  1.00  0.00     0.216 C 
HETATM   16  C2  UNL     1     -17.518  -7.779 -42.562  1.00  0.00     0.068 C 
HETATM   17  C1  UNL     1     -18.775  -7.499 -41.796  1.00  0.00     0.187 C 
HETATM   18  C16 UNL     1     -19.822  -8.564 -41.962  1.00  0.00     0.060 C 
BRANCH  14  19
HETATM   19  O1  UNL     1     -19.077  -9.524 -45.401  1.00  0.00    -0.391 OA
ATOM     20  H1  UNL     1     -18.337 -10.119 -45.424  1.00  0.00     0.210 HD
ENDBRANCH  14  19
BRANCH  15  21
HETATM   21  N2  UNL     1     -16.570  -9.175 -44.323  1.00  0.00    -0.072 N 
ATOM     22  H23 UNL     1     -16.738  -9.899 -45.021  1.00  0.00     0.274 HD
ATOM     23  H22 UNL     1     -16.409  -8.388 -44.951  1.00  0.00     0.274 HD
ATOM     24  H21 UNL     1     -15.746  -9.381 -43.759  1.00  0.00     0.274 HD
ENDBRANCH  15  21
BRANCH  17  25
HETATM   25  N1  UNL     1     -18.448  -7.413 -40.384  1.00  0.00    -0.075 N 
ATOM     26  H13 UNL     1     -19.189  -7.783 -39.788  1.00  0.00     0.274 HD
ATOM     27  H12 UNL     1     -17.711  -8.064 -40.114  1.00  0.00     0.274 HD
ATOM     28  H11 UNL     1     -18.215  -6.445 -40.162  1.00  0.00     0.274 HD
ENDBRANCH  17  25
ENDBRANCH  10  13
ENDBRANCH   8   9
ENDBRANCH   1   8
BRANCH   3  29
HETATM   29  C10 UNL     1     -21.017 -14.784 -39.369  1.00  0.00     0.220 C 
BRANCH  29  30
HETATM   30  C11 UNL     1     -19.815 -14.855 -38.530  1.00  0.00     0.274 C 
HETATM   31  O3  UNL     1     -19.112 -13.619 -38.517  1.00  0.00    -0.332 OA
HETATM   32  C12 UNL     1     -18.362 -13.452 -37.382  1.00  0.00     0.228 C 
HETATM   33  S1  UNL     1     -19.250 -12.631 -36.026  1.00  0.00    -0.060 SA
HETATM   34  C13 UNL     1     -17.646 -14.695 -36.925  1.00  0.00     0.189 C 
HETATM   35  C14 UNL     1     -17.481 -15.575 -38.132  1.00  0.00     0.185 C 
HETATM   36  C15 UNL     1     -18.895 -16.002 -38.589  1.00  0.00     0.279 C 
BRANCH  30  37
HETATM   37  N5  UNL     1     -20.376 -14.887 -37.131  1.00  0.00    -0.043 N 
ATOM     38  H53 UNL     1     -20.131 -14.081 -36.556  1.00  0.00     0.278 HD
ATOM     39  H52 UNL     1     -21.385 -14.751 -37.074  1.00  0.00     0.278 HD
ATOM     40  H51 UNL     1     -20.047 -15.782 -36.770  1.00  0.00     0.278 HD
ENDBRANCH  30  37
BRANCH  34  41
HETATM   41  O4  UNL     1     -16.366 -14.304 -36.442  1.00  0.00    -0.389 OA
ATOM     42  H4  UNL     1     -16.021 -13.648 -37.037  1.00  0.00     0.210 HD
ENDBRANCH  34  41
BRANCH  35  43
HETATM   43  O5  UNL     1     -16.693 -16.674 -37.897  1.00  0.00    -0.391 OA
ATOM     44  H5  UNL     1     -16.635 -17.260 -38.643  1.00  0.00     0.210 HD
ENDBRANCH  35  43
BRANCH  36  45
HETATM   45  N6  UNL     1     -18.717 -16.675 -39.832  1.00  0.00    -0.068 N 
ATOM     46  H63 UNL     1     -18.458 -17.644 -39.649  1.00  0.00     0.275 HD
ATOM     47  H62 UNL     1     -19.628 -16.793 -40.276  1.00  0.00     0.275 HD
ATOM     48  H61 UNL     1     -18.067 -16.283 -40.514  1.00  0.00     0.275 HD
ENDBRANCH  36  45
ENDBRANCH  29  30
ENDBRANCH   3  29
TORSDOF 12
ENDMDL
