MODEL 1
REMARK VINA RESULT: -5.545450020      0.000      0.000
REMARK  4 active torsions:
REMARK  status: ('A' for Active; 'I' for Inactive)
REMARK    1  A    between atoms: C2_2  and  C3_3 
REMARK    2  A    between atoms: C3_3  and  C4_4 
REMARK    3  A    between atoms: C4_4  and  C5_5 
REMARK    4  A    between atoms: N1_6  and  O1_7 
ROOT
HETATM    1  C5  UNL     1      14.949   9.237  -0.986  1.00  0.00     0.118 C 
HETATM    2  N1  UNL     1      14.538  10.495  -0.347  1.00  0.00    -0.132 NA
HETATM    3  S1  UNL     1      13.081  10.609  -1.336  1.00  0.00    -0.043 SA
HETATM    4  C6  UNL     1      14.290   9.638  -2.253  1.00  0.00     0.044 C 
HETATM    5  C7  UNL     1      13.744   8.564  -3.129  1.00  0.00     0.023 C 
HETATM    6  C8  UNL     1      13.840   9.151  -4.542  1.00  0.00     0.002 C 
HETATM    7  C9  UNL     1      15.172   9.874  -4.501  1.00  0.00     0.002 C 
HETATM    8  C10 UNL     1      15.192  10.463  -3.122  1.00  0.00     0.023 C 
ENDROOT
BRANCH   1   9
HETATM    9  C4  UNL     1      14.340   8.091  -0.224  1.00  0.00     0.024 C 
BRANCH   9  10
HETATM   10  C3  UNL     1      14.460   8.453   1.261  1.00  0.00     0.001 C 
BRANCH  10  11
HETATM   11  C2  UNL     1      13.278   7.923   2.040  1.00  0.00    -0.004 C 
HETATM   12  C1  UNL     1      12.312   9.021   2.393  1.00  0.00     0.005 C 
ENDBRANCH  10  11
ENDBRANCH   9  10
ENDBRANCH   1   9
BRANCH   2  13
HETATM   13  O1  UNL     1      15.435  11.485  -0.543  1.00  0.00    -0.302 OA
ATOM     14  H1  UNL     1      16.029  11.295  -1.259  1.00  0.00     0.238 HD
ENDBRANCH   2  13
TORSDOF 4
ENDMDL
MODEL 2
REMARK VINA RESULT: -5.542513713      4.390      5.191
REMARK  4 active torsions:
REMARK  status: ('A' for Active; 'I' for Inactive)
REMARK    1  A    between atoms: C2_2  and  C3_3 
REMARK    2  A    between atoms: C3_3  and  C4_4 
REMARK    3  A    between atoms: C4_4  and  C5_5 
REMARK    4  A    between atoms: N1_6  and  O1_7 
ROOT
HETATM    1  C5  UNL     1      18.712  10.474   1.770  1.00  0.00     0.118 C 
HETATM    2  N1  UNL     1      19.435  11.708   1.435  1.00  0.00    -0.132 NA
HETATM    3  S1  UNL     1      17.952  12.664   1.423  1.00  0.00    -0.043 SA
HETATM    4  C6  UNL     1      17.507  10.958   1.054  1.00  0.00     0.044 C 
HETATM    5  C7  UNL     1      16.173  10.506   1.541  1.00  0.00     0.023 C 
HETATM    6  C8  UNL     1      15.296  10.513   0.284  1.00  0.00     0.002 C 
HETATM    7  C9  UNL     1      16.243   9.985  -0.774  1.00  0.00     0.002 C 
HETATM    8  C10 UNL     1      17.548  10.627  -0.408  1.00  0.00     0.023 C 
ENDROOT
BRANCH   1   9
HETATM    9  C4  UNL     1      18.626  10.361   3.269  1.00  0.00     0.024 C 
BRANCH   9  10
HETATM   10  C3  UNL     1      18.919   8.895   3.605  1.00  0.00     0.001 C 
BRANCH  10  11
HETATM   11  C2  UNL     1      18.515   8.579   5.027  1.00  0.00    -0.004 C 
HETATM   12  C1  UNL     1      17.203   9.221   5.384  1.00  0.00     0.005 C 
ENDBRANCH  10  11
ENDBRANCH   9  10
ENDBRANCH   1   9
BRANCH   2  13
HETATM   13  O1  UNL     1      20.065  11.623   0.243  1.00  0.00    -0.302 OA
ATOM     14  H1  UNL     1      20.666  10.888   0.206  1.00  0.00     0.238 HD
ENDBRANCH   2  13
TORSDOF 4
ENDMDL
MODEL 3
REMARK VINA RESULT: -5.537913635      2.630      4.780
REMARK  4 active torsions:
REMARK  status: ('A' for Active; 'I' for Inactive)
REMARK    1  A    between atoms: C2_2  and  C3_3 
REMARK    2  A    between atoms: C3_3  and  C4_4 
REMARK    3  A    between atoms: C4_4  and  C5_5 
REMARK    4  A    between atoms: N1_6  and  O1_7 
ROOT
HETATM    1  C5  UNL     1      15.004  10.713   1.185  1.00  0.00     0.118 C 
HETATM    2  N1  UNL     1      15.733  11.245   2.344  1.00  0.00    -0.132 NA
HETATM    3  S1  UNL     1      15.970   9.636   3.029  1.00  0.00    -0.043 SA
HETATM    4  C6  UNL     1      14.497   9.579   1.995  1.00  0.00     0.044 C 
HETATM    5  C7  UNL     1      14.229   8.287   1.303  1.00  0.00     0.023 C 
HETATM    6  C8  UNL     1      13.104   7.650   2.127  1.00  0.00     0.002 C 
HETATM    7  C9  UNL     1      12.232   8.843   2.461  1.00  0.00     0.002 C 
HETATM    8  C10 UNL     1      13.234   9.928   2.725  1.00  0.00     0.023 C 
ENDROOT
BRANCH   1   9
HETATM    9  C4  UNL     1      15.997  10.395   0.099  1.00  0.00     0.024 C 
BRANCH   9  10
HETATM   10  C3  UNL     1      15.207  10.387  -1.214  1.00  0.00     0.001 C 
BRANCH  10  11
HETATM   11  C2  UNL     1      13.892  11.116  -1.055  1.00  0.00    -0.004 C 
HETATM   12  C1  UNL     1      12.752  10.332  -1.644  1.00  0.00     0.005 C 
ENDBRANCH  10  11
ENDBRANCH   9  10
ENDBRANCH   1   9
BRANCH   2  13
HETATM   13  O1  UNL     1      14.971  12.073   3.091  1.00  0.00    -0.302 OA
ATOM     14  H1  UNL     1      15.252  12.978   3.024  1.00  0.00     0.238 HD
ENDBRANCH   2  13
TORSDOF 4
ENDMDL
MODEL 4
REMARK VINA RESULT: -5.477977071      1.334      4.728
REMARK  4 active torsions:
REMARK  status: ('A' for Active; 'I' for Inactive)
REMARK    1  A    between atoms: C2_2  and  C3_3 
REMARK    2  A    between atoms: C3_3  and  C4_4 
REMARK    3  A    between atoms: C4_4  and  C5_5 
REMARK    4  A    between atoms: N1_6  and  O1_7 
ROOT
HETATM    1  C5  UNL     1      13.710   9.514  -1.560  1.00  0.00     0.118 C 
HETATM    2  N1  UNL     1      14.294  10.862  -1.517  1.00  0.00    -0.132 NA
HETATM    3  S1  UNL     1      15.520  10.374  -0.344  1.00  0.00    -0.043 SA
HETATM    4  C6  UNL     1      14.110   9.270  -0.154  1.00  0.00     0.044 C 
HETATM    5  C7  UNL     1      14.420   7.871   0.254  1.00  0.00     0.023 C 
HETATM    6  C8  UNL     1      14.058   7.828   1.743  1.00  0.00     0.002 C 
HETATM    7  C9  UNL     1      12.794   8.662   1.792  1.00  0.00     0.002 C 
HETATM    8  C10 UNL     1      13.082   9.767   0.819  1.00  0.00     0.023 C 
ENDROOT
BRANCH   1   9
HETATM    9  C4  UNL     1      14.417   8.720  -2.627  1.00  0.00     0.024 C 
BRANCH   9  10
HETATM   10  C3  UNL     1      13.439   8.616  -3.802  1.00  0.00     0.001 C 
BRANCH  10  11
HETATM   11  C2  UNL     1      13.707   9.699  -4.822  1.00  0.00    -0.004 C 
HETATM   12  C1  UNL     1      15.150   9.714  -5.245  1.00  0.00     0.005 C 
ENDBRANCH  10  11
ENDBRANCH   9  10
ENDBRANCH   1   9
BRANCH   2  13
HETATM   13  O1  UNL     1      13.417  11.785  -1.069  1.00  0.00    -0.302 OA
ATOM     14  H1  UNL     1      12.816  11.428  -0.426  1.00  0.00     0.238 HD
ENDBRANCH   2  13
TORSDOF 4
ENDMDL
MODEL 5
REMARK VINA RESULT: -5.421708592      2.098      4.935
REMARK  4 active torsions:
REMARK  status: ('A' for Active; 'I' for Inactive)
REMARK    1  A    between atoms: C2_2  and  C3_3 
REMARK    2  A    between atoms: C3_3  and  C4_4 
REMARK    3  A    between atoms: C4_4  and  C5_5 
REMARK    4  A    between atoms: N1_6  and  O1_7 
ROOT
HETATM    1  C5  UNL     1      14.419  10.585  -0.381  1.00  0.00     0.118 C 
HETATM    2  N1  UNL     1      15.051   9.320  -0.783  1.00  0.00    -0.132 NA
HETATM    3  S1  UNL     1      14.192   8.409   0.460  1.00  0.00    -0.043 SA
HETATM    4  C6  UNL     1      14.318  10.116   1.022  1.00  0.00     0.044 C 
HETATM    5  C7  UNL     1      13.187  10.621   1.850  1.00  0.00     0.023 C 
HETATM    6  C8  UNL     1      13.737  10.602   3.281  1.00  0.00     0.002 C 
HETATM    7  C9  UNL     1      15.165  11.072   3.085  1.00  0.00     0.002 C 
HETATM    8  C10 UNL     1      15.565  10.402   1.804  1.00  0.00     0.023 C 
ENDROOT
BRANCH   1   9
HETATM    9  C4  UNL     1      13.134  10.743  -1.150  1.00  0.00     0.024 C 
BRANCH   9  10
HETATM   10  C3  UNL     1      13.447  10.339  -2.595  1.00  0.00     0.001 C 
BRANCH  10  11
HETATM   11  C2  UNL     1      12.287   9.588  -3.206  1.00  0.00    -0.004 C 
HETATM   12  C1  UNL     1      12.438   9.456  -4.697  1.00  0.00     0.005 C 
ENDBRANCH  10  11
ENDBRANCH   9  10
ENDBRANCH   1   9
BRANCH   2  13
HETATM   13  O1  UNL     1      16.393   9.351  -0.639  1.00  0.00    -0.302 OA
ATOM     14  H1  UNL     1      16.660   9.843   0.129  1.00  0.00     0.238 HD
ENDBRANCH   2  13
TORSDOF 4
ENDMDL
