MODEL 1
REMARK VINA RESULT: -6.558202275      0.000      0.000
REMARK  3 active torsions:
REMARK  status: ('A' for Active; 'I' for Inactive)
REMARK    1  A    between atoms: C2_2  and  N1_3 
REMARK    2  A    between atoms: C5_6  and  N2_7 
REMARK    3  A    between atoms: N2_7  and  N3_9 
ROOT
HETATM    1  N2  UNL     1      16.009   9.685  -0.218  1.00  0.00    -0.332 N 
ATOM      2  H2  UNL     1      16.993   9.450  -0.345  1.00  0.00     0.180 HD
ENDROOT
BRANCH   1   3
HETATM    3  C5  UNL     1      15.218  10.264  -1.289  1.00  0.00     0.102 C 
HETATM    4  C4  UNL     1      13.808   9.807  -1.105  1.00  0.00     0.057 C 
HETATM    5  C3  UNL     1      12.976   9.918  -2.355  1.00  0.00     0.274 C 
HETATM    6  N1  UNL     1      13.631   9.299  -3.495  1.00  0.00     0.088 N 
HETATM    7  C12 UNL     1      14.917   9.892  -3.761  1.00  0.00     0.274 C 
HETATM    8  C11 UNL     1      15.841   9.892  -2.584  1.00  0.00     0.057 C 
BRANCH   6   9
HETATM    9  C2  UNL     1      12.787   9.573  -4.649  1.00  0.00     0.268 C 
HETATM   10  C1  UNL     1      11.342   9.223  -4.373  1.00  0.00     0.037 C 
ENDBRANCH   6   9
ENDBRANCH   1   3
BRANCH   1  11
HETATM   11  N3  UNL     1      15.355   9.466   0.997  1.00  0.00    -0.313 N 
HETATM   12  C6  UNL     1      15.692  10.060   2.088  1.00  0.00     0.003 C 
HETATM   13  C7  UNL     1      16.796  11.044   2.224  1.00  0.00     0.054 C 
HETATM   14  C10 UNL     1      15.089   9.922   3.435  1.00  0.00     0.054 C 
HETATM   15  C8  UNL     1      16.412  11.882   3.425  1.00  0.00     0.006 C 
HETATM   16  C9  UNL     1      15.115  11.348   3.937  1.00  0.00     0.006 C 
ATOM     17  H3  UNL     1      14.577   8.807   1.021  1.00  0.00     0.186 HD
ENDBRANCH   1  11
TORSDOF 3
ENDMDL
MODEL 2
REMARK VINA RESULT: -6.488807466      0.873      1.507
REMARK  3 active torsions:
REMARK  status: ('A' for Active; 'I' for Inactive)
REMARK    1  A    between atoms: C2_2  and  N1_3 
REMARK    2  A    between atoms: C5_6  and  N2_7 
REMARK    3  A    between atoms: N2_7  and  N3_9 
ROOT
HETATM    1  N2  UNL     1      15.481   9.802   0.421  1.00  0.00    -0.332 N 
ATOM      2  H2  UNL     1      15.779   8.829   0.490  1.00  0.00     0.180 HD
ENDROOT
BRANCH   1   3
HETATM    3  C5  UNL     1      14.917  10.342  -0.804  1.00  0.00     0.102 C 
HETATM    4  C4  UNL     1      13.468   9.978  -0.830  1.00  0.00     0.057 C 
HETATM    5  C3  UNL     1      12.861  10.042  -2.207  1.00  0.00     0.274 C 
HETATM    6  N1  UNL     1      13.652   9.302  -3.177  1.00  0.00     0.088 N 
HETATM    7  C12 UNL     1      15.001   9.802  -3.261  1.00  0.00     0.274 C 
HETATM    8  C11 UNL     1      15.717   9.840  -1.948  1.00  0.00     0.057 C 
BRANCH   6   9
HETATM    9  C2  UNL     1      13.028   9.535  -4.472  1.00  0.00     0.268 C 
HETATM   10  C1  UNL     1      11.543   9.255  -4.430  1.00  0.00     0.037 C 
ENDBRANCH   6   9
ENDBRANCH   1   3
BRANCH   1  11
HETATM   11  N3  UNL     1      15.595  10.682   1.500  1.00  0.00    -0.313 N 
HETATM   12  C6  UNL     1      14.916  10.547   2.585  1.00  0.00     0.003 C 
HETATM   13  C7  UNL     1      13.933   9.467   2.854  1.00  0.00     0.054 C 
HETATM   14  C10 UNL     1      14.939  11.401   3.797  1.00  0.00     0.054 C 
HETATM   15  C8  UNL     1      13.895   9.356   4.364  1.00  0.00     0.006 C 
HETATM   16  C9  UNL     1      14.843  10.375   4.904  1.00  0.00     0.006 C 
ATOM     17  H3  UNL     1      16.244  11.465   1.424  1.00  0.00     0.186 HD
ENDBRANCH   1  11
TORSDOF 3
ENDMDL
MODEL 3
REMARK VINA RESULT: -6.462971729      1.211      1.832
REMARK  3 active torsions:
REMARK  status: ('A' for Active; 'I' for Inactive)
REMARK    1  A    between atoms: C2_2  and  N1_3 
REMARK    2  A    between atoms: C5_6  and  N2_7 
REMARK    3  A    between atoms: N2_7  and  N3_9 
ROOT
HETATM    1  N2  UNL     1      15.071  10.223   0.720  1.00  0.00    -0.332 N 
ATOM      2  H2  UNL     1      14.334  10.128   1.418  1.00  0.00     0.180 HD
ENDROOT
BRANCH   1   3
HETATM    3  C5  UNL     1      14.784  10.646  -0.640  1.00  0.00     0.102 C 
HETATM    4  C4  UNL     1      13.378  10.248  -0.946  1.00  0.00     0.057 C 
HETATM    5  C3  UNL     1      13.084  10.183  -2.423  1.00  0.00     0.274 C 
HETATM    6  N1  UNL     1      14.070   9.384  -3.132  1.00  0.00     0.088 N 
HETATM    7  C12 UNL     1      15.402   9.907  -2.965  1.00  0.00     0.274 C 
HETATM    8  C11 UNL     1      15.816  10.070  -1.537  1.00  0.00     0.057 C 
BRANCH   6   9
HETATM    9  C2  UNL     1      13.741   9.495  -4.546  1.00  0.00     0.268 C 
HETATM   10  C1  UNL     1      14.952   9.873  -5.369  1.00  0.00     0.037 C 
ENDBRANCH   6   9
ENDBRANCH   1   3
BRANCH   1  11
HETATM   11  N3  UNL     1      16.408   9.953   1.023  1.00  0.00    -0.313 N 
HETATM   12  C6  UNL     1      17.030  10.518   1.998  1.00  0.00     0.003 C 
HETATM   13  C7  UNL     1      16.443  11.517   2.927  1.00  0.00     0.054 C 
HETATM   14  C10 UNL     1      18.436  10.326   2.426  1.00  0.00     0.054 C 
HETATM   15  C8  UNL     1      17.276  11.399   4.186  1.00  0.00     0.006 C 
HETATM   16  C9  UNL     1      18.309  10.351   3.933  1.00  0.00     0.006 C 
ATOM     17  H3  UNL     1      16.913   9.279   0.447  1.00  0.00     0.186 HD
ENDBRANCH   1  11
TORSDOF 3
ENDMDL
MODEL 4
REMARK VINA RESULT: -6.391228028      1.209      1.992
REMARK  3 active torsions:
REMARK  status: ('A' for Active; 'I' for Inactive)
REMARK    1  A    between atoms: C2_2  and  N1_3 
REMARK    2  A    between atoms: C5_6  and  N2_7 
REMARK    3  A    between atoms: N2_7  and  N3_9 
ROOT
HETATM    1  N2  UNL     1      15.373   9.565   0.849  1.00  0.00    -0.332 N 
ATOM      2  H2  UNL     1      15.484   8.554   0.923  1.00  0.00     0.180 HD
ENDROOT
BRANCH   1   3
HETATM    3  C5  UNL     1      15.004  10.203  -0.403  1.00  0.00     0.102 C 
HETATM    4  C4  UNL     1      13.588   9.832  -0.695  1.00  0.00     0.057 C 
HETATM    5  C3  UNL     1      13.211  10.007  -2.143  1.00  0.00     0.274 C 
HETATM    6  N1  UNL     1      14.165   9.358  -3.028  1.00  0.00     0.088 N 
HETATM    7  C12 UNL     1      15.498   9.873  -2.849  1.00  0.00     0.274 C 
HETATM    8  C11 UNL     1      15.991   9.805  -1.437  1.00  0.00     0.057 C 
BRANCH   6   9
HETATM    9  C2  UNL     1      13.755   9.695  -4.384  1.00  0.00     0.268 C 
HETATM   10  C1  UNL     1      14.949   9.880  -5.294  1.00  0.00     0.037 C 
ENDBRANCH   6   9
ENDBRANCH   1   3
BRANCH   1  11
HETATM   11  N3  UNL     1      15.568  10.407   1.948  1.00  0.00    -0.313 N 
HETATM   12  C6  UNL     1      14.893  10.298   3.038  1.00  0.00     0.003 C 
HETATM   13  C7  UNL     1      13.831   9.292   3.294  1.00  0.00     0.054 C 
HETATM   14  C10 UNL     1      14.997  11.118   4.269  1.00  0.00     0.054 C 
HETATM   15  C8  UNL     1      13.802   9.147   4.801  1.00  0.00     0.006 C 
HETATM   16  C9  UNL     1      14.833  10.075   5.353  1.00  0.00     0.006 C 
ATOM     17  H3  UNL     1      16.276  11.138   1.882  1.00  0.00     0.186 HD
ENDBRANCH   1  11
TORSDOF 3
ENDMDL
MODEL 5
REMARK VINA RESULT: -6.385604403      1.535      1.902
REMARK  3 active torsions:
REMARK  status: ('A' for Active; 'I' for Inactive)
REMARK    1  A    between atoms: C2_2  and  N1_3 
REMARK    2  A    between atoms: C5_6  and  N2_7 
REMARK    3  A    between atoms: N2_7  and  N3_9 
ROOT
HETATM    1  N2  UNL     1      15.185  10.662   0.774  1.00  0.00    -0.332 N 
ATOM      2  H2  UNL     1      16.086  10.902   1.188  1.00  0.00     0.180 HD
ENDROOT
BRANCH   1   3
HETATM    3  C5  UNL     1      14.903  10.905  -0.630  1.00  0.00     0.102 C 
HETATM    4  C4  UNL     1      13.487  10.502  -0.880  1.00  0.00     0.057 C 
HETATM    5  C3  UNL     1      13.187  10.245  -2.334  1.00  0.00     0.274 C 
HETATM    6  N1  UNL     1      14.152   9.336  -2.930  1.00  0.00     0.088 N 
HETATM    7  C12 UNL     1      15.497   9.845  -2.835  1.00  0.00     0.274 C 
HETATM    8  C11 UNL     1      15.919  10.190  -1.442  1.00  0.00     0.057 C 
BRANCH   6   9
HETATM    9  C2  UNL     1      13.821   9.263  -4.346  1.00  0.00     0.268 C 
HETATM   10  C1  UNL     1      14.942   9.804  -5.205  1.00  0.00     0.037 C 
ENDBRANCH   6   9
ENDBRANCH   1   3
BRANCH   1  11
HETATM   11  N3  UNL     1      14.162  10.083   1.528  1.00  0.00    -0.313 N 
HETATM   12  C6  UNL     1      14.376   9.470   2.639  1.00  0.00     0.003 C 
HETATM   13  C7  UNL     1      15.704   9.284   3.276  1.00  0.00     0.054 C 
HETATM   14  C10 UNL     1      13.390   8.815   3.533  1.00  0.00     0.054 C 
HETATM   15  C8  UNL     1      15.398   9.107   4.748  1.00  0.00     0.006 C 
HETATM   16  C9  UNL     1      13.915   9.187   4.901  1.00  0.00     0.006 C 
ATOM     17  H3  UNL     1      13.204  10.151   1.184  1.00  0.00     0.186 HD
ENDBRANCH   1  11
TORSDOF 3
ENDMDL
