MODEL 1
REMARK VINA RESULT: -5.492857068      0.000      0.000
REMARK  3 active torsions:
REMARK  status: ('A' for Active; 'I' for Inactive)
REMARK    1  A    between atoms: C4_4  and  S1_5 
REMARK    2  A    between atoms: S1_5  and  C5_6 
REMARK    3  A    between atoms: C5_6  and  C6_7 
ROOT
HETATM    1  C6  UNL     1      14.486  10.340  -2.457  1.00  0.00     0.004 C 
HETATM    2  C7  UNL     1      13.093   9.930  -2.189  1.00  0.00     0.050 C 
HETATM    3  C8  UNL     1      12.234   9.625  -3.355  1.00  0.00     0.060 C 
HETATM    4  N1  UNL     1      12.861   9.345  -4.575  1.00  0.00    -0.382 N 
ATOM      5  H1  UNL     1      12.319   9.336  -5.439  1.00  0.00     0.163 HD
HETATM    6  C9  UNL     1      14.234   9.076  -4.604  1.00  0.00     0.060 C 
HETATM    7  C10 UNL     1      14.995  10.100  -3.831  1.00  0.00     0.050 C 
ENDROOT
BRANCH   1   8
HETATM    8  C5  UNL     1      15.417   9.600  -1.486  1.00  0.00     0.079 C 
BRANCH   8   9
HETATM    9  S1  UNL     1      14.424   8.457  -0.515  1.00  0.00    -0.164 SA
BRANCH   9  10
HETATM   10  C4  UNL     1      14.710   8.814   1.232  1.00  0.00     0.047 C 
HETATM   11  C3  UNL     1      13.668   8.106   2.032  1.00  0.00     0.015 C 
HETATM   12  C2  UNL     1      12.534   9.080   2.156  1.00  0.00     0.001 C 
HETATM   13  C1  UNL     1      12.979  10.378   1.563  1.00  0.00     0.001 C 
HETATM   14  C11 UNL     1      14.477  10.292   1.451  1.00  0.00     0.015 C 
ENDBRANCH   9  10
ENDBRANCH   8   9
ENDBRANCH   1   8
TORSDOF 3
ENDMDL
MODEL 2
REMARK VINA RESULT: -5.453989025      2.628      5.435
REMARK  3 active torsions:
REMARK  status: ('A' for Active; 'I' for Inactive)
REMARK    1  A    between atoms: C4_4  and  S1_5 
REMARK    2  A    between atoms: S1_5  and  C5_6 
REMARK    3  A    between atoms: C5_6  and  C6_7 
ROOT
HETATM    1  C6  UNL     1      14.450   9.523   0.146  1.00  0.00     0.004 C 
HETATM    2  C7  UNL     1      13.794   8.753   1.222  1.00  0.00     0.050 C 
HETATM    3  C8  UNL     1      14.602   8.423   2.417  1.00  0.00     0.060 C 
HETATM    4  N1  UNL     1      15.761   9.173   2.651  1.00  0.00    -0.382 N 
ATOM      5  H1  UNL     1      16.451   8.852   3.331  1.00  0.00     0.163 HD
HETATM    6  C9  UNL     1      15.970  10.365   1.948  1.00  0.00     0.060 C 
HETATM    7  C10 UNL     1      15.741  10.173   0.487  1.00  0.00     0.050 C 
ENDROOT
BRANCH   1   8
HETATM    8  C5  UNL     1      13.493  10.626  -0.330  1.00  0.00     0.079 C 
BRANCH   8   9
HETATM    9  S1  UNL     1      12.951  10.220  -1.996  1.00  0.00    -0.164 SA
BRANCH   9  10
HETATM   10  C4  UNL     1      14.188   9.131  -2.736  1.00  0.00     0.047 C 
HETATM   11  C3  UNL     1      15.305   9.975  -3.256  1.00  0.00     0.015 C 
HETATM   12  C2  UNL     1      14.932  10.294  -4.673  1.00  0.00     0.001 C 
HETATM   13  C1  UNL     1      13.695   9.525  -5.005  1.00  0.00     0.001 C 
HETATM   14  C11 UNL     1      13.564   8.468  -3.942  1.00  0.00     0.015 C 
ENDBRANCH   9  10
ENDBRANCH   8   9
ENDBRANCH   1   8
TORSDOF 3
ENDMDL
MODEL 3
REMARK VINA RESULT: -5.413060174      2.570      5.521
REMARK  3 active torsions:
REMARK  status: ('A' for Active; 'I' for Inactive)
REMARK    1  A    between atoms: C4_4  and  S1_5 
REMARK    2  A    between atoms: S1_5  and  C5_6 
REMARK    3  A    between atoms: C5_6  and  C6_7 
ROOT
HETATM    1  C6  UNL     1      14.381   9.870   0.868  1.00  0.00     0.004 C 
HETATM    2  C7  UNL     1      13.067   9.209   0.996  1.00  0.00     0.050 C 
HETATM    3  C8  UNL     1      12.506   9.059   2.357  1.00  0.00     0.060 C 
HETATM    4  N1  UNL     1      13.018   9.879   3.370  1.00  0.00    -0.382 N 
ATOM      5  H1  UNL     1      12.817   9.671   4.348  1.00  0.00     0.163 HD
HETATM    6  C9  UNL     1      13.807  10.986   3.034  1.00  0.00     0.060 C 
HETATM    7  C10 UNL     1      14.870  10.609   2.059  1.00  0.00     0.050 C 
ENDROOT
BRANCH   1   8
HETATM    8  C5  UNL     1      14.324  10.867  -0.299  1.00  0.00     0.079 C 
BRANCH   8   9
HETATM    9  S1  UNL     1      13.311  10.151  -1.601  1.00  0.00    -0.164 SA
BRANCH   9  10
HETATM   10  C4  UNL     1      14.354   9.043  -2.575  1.00  0.00     0.047 C 
HETATM   11  C3  UNL     1      15.445   9.852  -3.196  1.00  0.00     0.015 C 
HETATM   12  C2  UNL     1      14.904  10.293  -4.524  1.00  0.00     0.001 C 
HETATM   13  C1  UNL     1      13.581   9.627  -4.723  1.00  0.00     0.001 C 
HETATM   14  C11 UNL     1      13.524   8.507  -3.719  1.00  0.00     0.015 C 
ENDBRANCH   9  10
ENDBRANCH   8   9
ENDBRANCH   1   8
TORSDOF 3
ENDMDL
MODEL 4
REMARK VINA RESULT: -5.368836561      3.266      6.001
REMARK  3 active torsions:
REMARK  status: ('A' for Active; 'I' for Inactive)
REMARK    1  A    between atoms: C4_4  and  S1_5 
REMARK    2  A    between atoms: S1_5  and  C5_6 
REMARK    3  A    between atoms: C5_6  and  C6_7 
ROOT
HETATM    1  C6  UNL     1      14.658  10.806   2.825  1.00  0.00     0.004 C 
HETATM    2  C7  UNL     1      15.360  10.997   4.110  1.00  0.00     0.050 C 
HETATM    3  C8  UNL     1      14.667  10.552   5.340  1.00  0.00     0.060 C 
HETATM    4  N1  UNL     1      13.616   9.636   5.205  1.00  0.00    -0.382 N 
ATOM      5  H1  UNL     1      12.983   9.464   5.986  1.00  0.00     0.163 HD
HETATM    6  C9  UNL     1      13.439   8.958   3.993  1.00  0.00     0.060 C 
HETATM    7  C10 UNL     1      13.480   9.902   2.840  1.00  0.00     0.050 C 
ENDROOT
BRANCH   1   8
HETATM    8  C5  UNL     1      15.651  10.249   1.795  1.00  0.00     0.079 C 
BRANCH   8   9
HETATM    9  S1  UNL     1      14.712   9.523   0.445  1.00  0.00    -0.164 SA
BRANCH   9  10
HETATM   10  C4  UNL     1      14.638  10.731  -0.897  1.00  0.00     0.047 C 
HETATM   11  C3  UNL     1      13.203  11.044  -1.166  1.00  0.00     0.015 C 
HETATM   12  C2  UNL     1      12.771  10.057  -2.210  1.00  0.00     0.001 C 
HETATM   13  C1  UNL     1      13.978   9.286  -2.638  1.00  0.00     0.001 C 
HETATM   14  C11 UNL     1      15.166  10.070  -2.149  1.00  0.00     0.015 C 
ENDBRANCH   9  10
ENDBRANCH   8   9
ENDBRANCH   1   8
TORSDOF 3
ENDMDL
MODEL 5
REMARK VINA RESULT: -5.368524595      1.647      1.882
REMARK  3 active torsions:
REMARK  status: ('A' for Active; 'I' for Inactive)
REMARK    1  A    between atoms: C4_4  and  S1_5 
REMARK    2  A    between atoms: S1_5  and  C5_6 
REMARK    3  A    between atoms: C5_6  and  C6_7 
ROOT
HETATM    1  C6  UNL     1      15.121  10.653  -0.979  1.00  0.00     0.004 C 
HETATM    2  C7  UNL     1      13.709  10.786  -0.567  1.00  0.00     0.050 C 
HETATM    3  C8  UNL     1      12.671  10.531  -1.590  1.00  0.00     0.060 C 
HETATM    4  N1  UNL     1      13.039   9.803  -2.729  1.00  0.00    -0.382 N 
ATOM      5  H1  UNL     1      12.426   9.782  -3.544  1.00  0.00     0.163 HD
HETATM    6  C9  UNL     1      14.252   9.104  -2.743  1.00  0.00     0.060 C 
HETATM    7  C10 UNL     1      15.373   9.967  -2.272  1.00  0.00     0.050 C 
ENDROOT
BRANCH   1   8
HETATM    8  C5  UNL     1      15.885   9.881   0.106  1.00  0.00     0.079 C 
BRANCH   8   9
HETATM    9  S1  UNL     1      15.317  10.459   1.712  1.00  0.00    -0.164 SA
BRANCH   9  10
HETATM   10  C4  UNL     1      14.950   9.012   2.729  1.00  0.00     0.047 C 
HETATM   11  C3  UNL     1      14.325   7.973   1.857  1.00  0.00     0.015 C 
HETATM   12  C2  UNL     1      12.849   8.232   1.929  1.00  0.00     0.001 C 
HETATM   13  C1  UNL     1      12.623   9.309   2.941  1.00  0.00     0.001 C 
HETATM   14  C11 UNL     1      13.896   9.406   3.737  1.00  0.00     0.015 C 
ENDBRANCH   9  10
ENDBRANCH   8   9
ENDBRANCH   1   8
TORSDOF 3
ENDMDL
