MODEL 1
REMARK VINA RESULT: -5.618455009      0.000      0.000
REMARK  1 active torsions:
REMARK  status: ('A' for Active; 'I' for Inactive)
REMARK    1  A    between atoms: C2_3  and  C3_4 
ROOT
HETATM    1  N1  UNL     1     -20.007  -2.006   0.591  1.00  0.00    -0.197 NA
HETATM    2  C1  UNL     1     -19.634  -0.963   0.248  1.00  0.00     0.060 C 
HETATM    3  C2  UNL     1     -19.174   0.373  -0.172  1.00  0.00     0.148 C 
ENDROOT
BRANCH   3   4
HETATM    4  C3  UNL     1     -18.160   0.115  -1.301  1.00  0.00     0.062 C 
HETATM    5  C4  UNL     1     -17.757   1.406  -1.800  1.00  0.00     0.070 C 
HETATM    6  N2  UNL     1     -17.430   2.456  -2.209  1.00  0.00    -0.196 NA
HETATM    7  C5  UNL     1     -18.858  -0.724  -2.301  1.00  0.00     0.027 C 
HETATM    8  C6  UNL     1     -18.204  -0.978  -3.578  1.00  0.00     0.029 C 
HETATM    9  C7  UNL     1     -16.726  -0.951  -3.630  1.00  0.00     0.232 C 
HETATM   10  N3  UNL     1     -16.054  -1.574  -2.539  1.00  0.00    -0.075 N 
HETATM   11  C8  UNL     1     -15.814  -0.552  -1.531  1.00  0.00     0.234 C 
ATOM     12  H32 UNL     1     -16.555  -2.384  -2.174  1.00  0.00     0.277 HD
ATOM     13  H31 UNL     1     -15.204  -2.061  -2.823  1.00  0.00     0.277 HD
HETATM   14  C9  UNL     1     -17.003  -0.572  -0.613  1.00  0.00     0.053 C 
ENDBRANCH   3   4
TORSDOF 1
ENDMDL
MODEL 2
REMARK VINA RESULT: -5.569681226      4.081      5.905
REMARK  1 active torsions:
REMARK  status: ('A' for Active; 'I' for Inactive)
REMARK    1  A    between atoms: C2_3  and  C3_4 
ROOT
HETATM    1  N1  UNL     1     -12.035  -2.279  -2.102  1.00  0.00    -0.197 NA
HETATM    2  C1  UNL     1     -12.994  -1.698  -1.807  1.00  0.00     0.060 C 
HETATM    3  C2  UNL     1     -14.214  -0.951  -1.452  1.00  0.00     0.148 C 
ENDROOT
BRANCH   3   4
HETATM    4  C3  UNL     1     -14.403  -1.178   0.059  1.00  0.00     0.062 C 
HETATM    5  C4  UNL     1     -14.541  -2.601   0.250  1.00  0.00     0.070 C 
HETATM    6  N2  UNL     1     -14.656  -3.758   0.406  1.00  0.00    -0.196 NA
HETATM    7  C5  UNL     1     -15.601  -0.401   0.447  1.00  0.00     0.027 C 
HETATM    8  C6  UNL     1     -16.138  -0.571   1.791  1.00  0.00     0.029 C 
HETATM    9  C7  UNL     1     -15.213  -0.978   2.872  1.00  0.00     0.232 C 
HETATM   10  N3  UNL     1     -13.938  -0.343   2.870  1.00  0.00    -0.075 N 
HETATM   11  C8  UNL     1     -13.035  -1.178   2.090  1.00  0.00     0.234 C 
ATOM     12  H32 UNL     1     -13.974   0.621   2.540  1.00  0.00     0.277 HD
ATOM     13  H31 UNL     1     -13.589  -0.149   3.808  1.00  0.00     0.277 HD
HETATM   14  C9  UNL     1     -13.115  -0.684   0.674  1.00  0.00     0.053 C 
ENDBRANCH   3   4
TORSDOF 1
ENDMDL
MODEL 3
REMARK VINA RESULT: -5.559925177      1.928      2.708
REMARK  1 active torsions:
REMARK  status: ('A' for Active; 'I' for Inactive)
REMARK    1  A    between atoms: C2_3  and  C3_4 
ROOT
HETATM    1  N1  UNL     1     -21.400   0.884  -0.531  1.00  0.00    -0.197 NA
HETATM    2  C1  UNL     1     -20.510   0.482  -1.158  1.00  0.00     0.060 C 
HETATM    3  C2  UNL     1     -19.393  -0.028  -1.973  1.00  0.00     0.148 C 
ENDROOT
BRANCH   3   4
HETATM    4  C3  UNL     1     -18.230  -0.228  -0.984  1.00  0.00     0.062 C 
HETATM    5  C4  UNL     1     -17.967   1.058  -0.388  1.00  0.00     0.070 C 
HETATM    6  N2  UNL     1     -17.750   2.104   0.096  1.00  0.00    -0.196 NA
HETATM    7  C5  UNL     1     -17.102  -0.765  -1.777  1.00  0.00     0.027 C 
HETATM    8  C6  UNL     1     -15.795  -0.882  -1.142  1.00  0.00     0.029 C 
HETATM    9  C7  UNL     1     -15.740  -1.063   0.326  1.00  0.00     0.232 C 
HETATM   10  N3  UNL     1     -16.698  -1.961   0.878  1.00  0.00    -0.075 N 
HETATM   11  C8  UNL     1     -17.871  -1.180   1.244  1.00  0.00     0.234 C 
ATOM     12  H32 UNL     1     -16.916  -2.740   0.257  1.00  0.00     0.277 HD
ATOM     13  H31 UNL     1     -16.327  -2.510   1.654  1.00  0.00     0.277 HD
HETATM   14  C9  UNL     1     -18.778  -1.188   0.046  1.00  0.00     0.053 C 
ENDBRANCH   3   4
TORSDOF 1
ENDMDL
MODEL 4
REMARK VINA RESULT: -5.555003018      3.362      5.044
REMARK  1 active torsions:
REMARK  status: ('A' for Active; 'I' for Inactive)
REMARK    1  A    between atoms: C2_3  and  C3_4 
ROOT
HETATM    1  N1  UNL     1     -17.795   1.455   0.417  1.00  0.00    -0.197 NA
HETATM    2  C1  UNL     1     -17.485   0.338   0.368  1.00  0.00     0.060 C 
HETATM    3  C2  UNL     1     -17.113  -1.086   0.298  1.00  0.00     0.148 C 
ENDROOT
BRANCH   3   4
HETATM    4  C3  UNL     1     -15.707  -1.167   0.920  1.00  0.00     0.062 C 
HETATM    5  C4  UNL     1     -15.239  -2.516   0.713  1.00  0.00     0.070 C 
HETATM    6  N2  UNL     1     -14.859  -3.613   0.548  1.00  0.00    -0.196 NA
HETATM    7  C5  UNL     1     -15.863  -0.797   2.344  1.00  0.00     0.027 C 
HETATM    8  C6  UNL     1     -14.724  -0.964   3.238  1.00  0.00     0.029 C 
HETATM    9  C7  UNL     1     -13.363  -0.892   2.663  1.00  0.00     0.232 C 
HETATM   10  N3  UNL     1     -13.151   0.130   1.694  1.00  0.00    -0.075 N 
HETATM   11  C8  UNL     1     -13.429  -0.443   0.385  1.00  0.00     0.234 C 
ATOM     12  H32 UNL     1     -13.691   0.975   1.881  1.00  0.00     0.277 HD
ATOM     13  H31 UNL     1     -12.223   0.550   1.755  1.00  0.00     0.277 HD
HETATM   14  C9  UNL     1     -14.884  -0.192   0.111  1.00  0.00     0.053 C 
ENDBRANCH   3   4
TORSDOF 1
ENDMDL
MODEL 5
REMARK VINA RESULT: -5.475003379      4.287      5.393
REMARK  1 active torsions:
REMARK  status: ('A' for Active; 'I' for Inactive)
REMARK    1  A    between atoms: C2_3  and  C3_4 
ROOT
HETATM    1  N1  UNL     1     -14.383  -0.535   5.381  1.00  0.00    -0.197 NA
HETATM    2  C1  UNL     1     -14.100  -1.185   4.464  1.00  0.00     0.060 C 
HETATM    3  C2  UNL     1     -13.727  -2.026   3.312  1.00  0.00     0.148 C 
ENDROOT
BRANCH   3   4
HETATM    4  C3  UNL     1     -14.399  -1.364   2.095  1.00  0.00     0.062 C 
HETATM    5  C4  UNL     1     -13.634  -0.180   1.792  1.00  0.00     0.070 C 
HETATM    6  N2  UNL     1     -13.013   0.784   1.545  1.00  0.00    -0.196 NA
HETATM    7  C5  UNL     1     -15.798  -1.089   2.494  1.00  0.00     0.027 C 
HETATM    8  C6  UNL     1     -16.633  -0.293   1.604  1.00  0.00     0.029 C 
HETATM    9  C7  UNL     1     -16.330  -0.306   0.156  1.00  0.00     0.232 C 
HETATM   10  N3  UNL     1     -15.997  -1.575  -0.399  1.00  0.00    -0.075 N 
HETATM   11  C8  UNL     1     -14.550  -1.719  -0.323  1.00  0.00     0.234 C 
ATOM     12  H32 UNL     1     -16.497  -2.346   0.043  1.00  0.00     0.277 HD
ATOM     13  H31 UNL     1     -16.361  -1.704  -1.343  1.00  0.00     0.277 HD
HETATM   14  C9  UNL     1     -14.257  -2.385   0.991  1.00  0.00     0.053 C 
ENDBRANCH   3   4
TORSDOF 1
ENDMDL
