MODEL 1
REMARK VINA RESULT: -5.939212322      0.000      0.000
REMARK  2 active torsions:
REMARK  status: ('A' for Active; 'I' for Inactive)
REMARK    1  A    between atoms: C6_8  and  C8_10 
REMARK    2  A    between atoms: N1_11  and  O3_13 
ROOT
HETATM    1  C1  UNL     1      13.897  10.390   6.452  1.00  0.00     0.019 C 
HETATM    2  C2  UNL     1      13.726   9.782   7.809  1.00  0.00    -0.002 A 
HETATM    3  C3  UNL     1      12.518   8.837   7.718  1.00  0.00     0.019 C 
HETATM    4  C4  UNL     1      13.330  10.870   8.769  1.00  0.00     0.123 A 
HETATM    5  C5  UNL     1      14.349  10.763   9.842  1.00  0.00     0.260 A 
HETATM    6  O1  UNL     1      14.329  11.477  10.875  1.00  0.00    -0.265 OA
HETATM    7  O2  UNL     1      15.272   9.804   9.541  1.00  0.00    -0.304 OA
HETATM    8  C6  UNL     1      14.930   9.103   8.347  1.00  0.00     0.108 A 
HETATM    9  C7  UNL     1      14.656   7.665   8.771  1.00  0.00     0.053 C 
ENDROOT
BRANCH   8  10
HETATM   10  C8  UNL     1      16.117   9.180   7.461  1.00  0.00     0.125 C 
HETATM   11  N1  UNL     1      16.704   8.127   7.016  1.00  0.00    -0.281 N 
ATOM     12  H1  UNL     1      16.330   7.219   7.291  1.00  0.00     0.193 HD
BRANCH  11  13
HETATM   13  O3  UNL     1      17.795   8.149   6.200  1.00  0.00    -0.290 OA
ATOM     14  H3  UNL     1      18.340   7.392   6.020  1.00  0.00     0.244 HD
ENDBRANCH  11  13
ENDBRANCH   8  10
TORSDOF 2
ENDMDL
MODEL 2
REMARK VINA RESULT: -5.783779862      7.559      9.430
REMARK  2 active torsions:
REMARK  status: ('A' for Active; 'I' for Inactive)
REMARK    1  A    between atoms: C6_8  and  C8_10 
REMARK    2  A    between atoms: N1_11  and  O3_13 
ROOT
HETATM    1  C1  UNL     1      14.586   7.892  -0.765  1.00  0.00     0.019 C 
HETATM    2  C2  UNL     1      14.621   9.261  -1.369  1.00  0.00    -0.002 A 
HETATM    3  C3  UNL     1      14.057   9.128  -2.791  1.00  0.00     0.019 C 
HETATM    4  C4  UNL     1      16.059   9.671  -1.530  1.00  0.00     0.123 A 
HETATM    5  C5  UNL     1      16.124  10.969  -0.815  1.00  0.00     0.260 A 
HETATM    6  O1  UNL     1      17.164  11.672  -0.770  1.00  0.00    -0.265 OA
HETATM    7  O2  UNL     1      14.923  11.267  -0.238  1.00  0.00    -0.304 OA
HETATM    8  C6  UNL     1      13.924  10.309  -0.584  1.00  0.00     0.108 A 
HETATM    9  C7  UNL     1      12.887  11.067  -1.405  1.00  0.00     0.053 C 
ENDROOT
BRANCH   8  10
HETATM   10  C8  UNL     1      13.344   9.827   0.692  1.00  0.00     0.125 C 
HETATM   11  N1  UNL     1      13.405  10.520   1.772  1.00  0.00    -0.281 N 
ATOM     12  H1  UNL     1      13.869  11.428   1.733  1.00  0.00     0.193 HD
BRANCH  11  13
HETATM   13  O3  UNL     1      12.887  10.119   2.967  1.00  0.00    -0.290 OA
ATOM     14  H3  UNL     1      12.571  10.714   3.637  1.00  0.00     0.244 HD
ENDBRANCH  11  13
ENDBRANCH   8  10
TORSDOF 2
ENDMDL
MODEL 3
REMARK VINA RESULT: -5.598733468      3.549      4.832
REMARK  2 active torsions:
REMARK  status: ('A' for Active; 'I' for Inactive)
REMARK    1  A    between atoms: C6_8  and  C8_10 
REMARK    2  A    between atoms: N1_11  and  O3_13 
ROOT
HETATM    1  C1  UNL     1      17.126   8.790   3.503  1.00  0.00     0.019 C 
HETATM    2  C2  UNL     1      15.815   9.510   3.461  1.00  0.00    -0.002 A 
HETATM    3  C3  UNL     1      14.903   8.708   2.520  1.00  0.00     0.019 C 
HETATM    4  C4  UNL     1      16.027  10.843   2.796  1.00  0.00     0.123 A 
HETATM    5  C5  UNL     1      15.497  11.807   3.791  1.00  0.00     0.260 A 
HETATM    6  O1  UNL     1      15.443  13.044   3.580  1.00  0.00    -0.265 OA
HETATM    7  O2  UNL     1      15.094  11.163   4.925  1.00  0.00    -0.304 OA
HETATM    8  C6  UNL     1      15.187   9.746   4.784  1.00  0.00     0.108 A 
HETATM    9  C7  UNL     1      13.757   9.225   4.860  1.00  0.00     0.053 C 
ENDROOT
BRANCH   8  10
HETATM   10  C8  UNL     1      15.992   9.263   5.932  1.00  0.00     0.125 C 
HETATM   11  N1  UNL     1      15.568   8.342   6.721  1.00  0.00    -0.281 N 
ATOM     12  H1  UNL     1      14.647   7.943   6.539  1.00  0.00     0.193 HD
BRANCH  11  13
HETATM   13  O3  UNL     1      16.271   7.866   7.786  1.00  0.00    -0.290 OA
ATOM     14  H3  UNL     1      16.294   6.952   8.043  1.00  0.00     0.244 HD
ENDBRANCH  11  13
ENDBRANCH   8  10
TORSDOF 2
ENDMDL
MODEL 4
REMARK VINA RESULT: -5.565255871      7.492      8.562
REMARK  2 active torsions:
REMARK  status: ('A' for Active; 'I' for Inactive)
REMARK    1  A    between atoms: C6_8  and  C8_10 
REMARK    2  A    between atoms: N1_11  and  O3_13 
ROOT
HETATM    1  C1  UNL     1      14.263   9.028  -1.964  1.00  0.00     0.019 C 
HETATM    2  C2  UNL     1      14.159  10.101  -0.926  1.00  0.00    -0.002 A 
HETATM    3  C3  UNL     1      12.965  10.982  -1.323  1.00  0.00     0.019 C 
HETATM    4  C4  UNL     1      15.375  10.979  -1.029  1.00  0.00     0.123 A 
HETATM    5  C5  UNL     1      15.928  10.957   0.348  1.00  0.00     0.260 A 
HETATM    6  O1  UNL     1      16.932  11.628   0.690  1.00  0.00    -0.265 OA
HETATM    7  O2  UNL     1      15.200  10.126   1.150  1.00  0.00    -0.304 OA
HETATM    8  C6  UNL     1      14.055   9.612   0.471  1.00  0.00     0.108 A 
HETATM    9  C7  UNL     1      12.846  10.179   1.205  1.00  0.00     0.053 C 
ENDROOT
BRANCH   8  10
HETATM   10  C8  UNL     1      14.116   8.137   0.604  1.00  0.00     0.125 C 
HETATM   11  N1  UNL     1      13.357   7.495   1.418  1.00  0.00    -0.281 N 
ATOM     12  H1  UNL     1      12.699   8.032   1.983  1.00  0.00     0.193 HD
BRANCH  11  13
HETATM   13  O3  UNL     1      13.377   6.141   1.574  1.00  0.00    -0.290 OA
ATOM     14  H3  UNL     1      12.730   5.653   2.069  1.00  0.00     0.244 HD
ENDBRANCH  11  13
ENDBRANCH   8  10
TORSDOF 2
ENDMDL
MODEL 5
REMARK VINA RESULT: -5.546294608      6.310      8.068
REMARK  2 active torsions:
REMARK  status: ('A' for Active; 'I' for Inactive)
REMARK    1  A    between atoms: C6_8  and  C8_10 
REMARK    2  A    between atoms: N1_11  and  O3_13 
ROOT
HETATM    1  C1  UNL     1      14.577   8.107  -0.630  1.00  0.00     0.019 C 
HETATM    2  C2  UNL     1      14.345   9.552  -0.317  1.00  0.00    -0.002 A 
HETATM    3  C3  UNL     1      12.945   9.897  -0.846  1.00  0.00     0.019 C 
HETATM    4  C4  UNL     1      15.310  10.373  -1.128  1.00  0.00     0.123 A 
HETATM    5  C5  UNL     1      16.001  11.195  -0.104  1.00  0.00     0.260 A 
HETATM    6  O1  UNL     1      16.857  12.067  -0.394  1.00  0.00    -0.265 OA
HETATM    7  O2  UNL     1      15.576  10.866   1.150  1.00  0.00    -0.304 OA
HETATM    8  C6  UNL     1      14.511   9.918   1.112  1.00  0.00     0.108 A 
HETATM    9  C7  UNL     1      13.293  10.634   1.681  1.00  0.00     0.053 C 
ENDROOT
BRANCH   8  10
HETATM   10  C8  UNL     1      14.922   8.790   1.982  1.00  0.00     0.125 C 
HETATM   11  N1  UNL     1      16.006   8.822   2.670  1.00  0.00    -0.281 N 
ATOM     12  H1  UNL     1      16.591   9.655   2.604  1.00  0.00     0.193 HD
BRANCH  11  13
HETATM   13  O3  UNL     1      16.423   7.811   3.484  1.00  0.00    -0.290 OA
ATOM     14  H3  UNL     1      16.598   6.926   3.186  1.00  0.00     0.244 HD
ENDBRANCH  11  13
ENDBRANCH   8  10
TORSDOF 2
ENDMDL
