MODEL 1
REMARK VINA RESULT: -5.673736488      0.000      0.000
REMARK  2 active torsions:
REMARK  status: ('A' for Active; 'I' for Inactive)
REMARK    1  A    between atoms: C2_2  and  C3_3 
REMARK    2  A    between atoms: N3_8  and  O1_9 
ROOT
HETATM    1  C3  UNL     1      16.279  10.299   1.824  1.00  0.00     0.148 C 
HETATM    2  N1  UNL     1      17.046  11.397   1.349  1.00  0.00    -0.349 N 
ATOM      3  H1  UNL     1      17.549  11.970   2.026  1.00  0.00     0.163 HD
HETATM    4  C4  UNL     1      17.132  11.698   0.108  1.00  0.00     0.212 C 
HETATM    5  N2  UNL     1      17.931  12.831  -0.312  1.00  0.00    -0.062 NA
HETATM    6  N3  UNL     1      16.491  10.992  -0.909  1.00  0.00    -0.213 N 
HETATM    7  C5  UNL     1      15.197  10.342  -0.822  1.00  0.00     0.104 C 
HETATM    8  C6  UNL     1      14.173  11.307  -1.379  1.00  0.00     0.053 C 
HETATM    9  C7  UNL     1      15.229   9.082  -1.647  1.00  0.00     0.053 C 
HETATM   10  S1  UNL     1      14.750  10.007   0.903  1.00  0.00    -0.111 SA
ENDROOT
BRANCH   1  11
HETATM   11  C2  UNL     1      15.900  10.478   3.294  1.00  0.00     0.032 C 
HETATM   12  C1  UNL     1      16.429  11.821   3.719  1.00  0.00     0.008 C 
ENDBRANCH   1  11
BRANCH   6  13
HETATM   13  O1  UNL     1      17.100  10.885  -2.103  1.00  0.00    -0.283 OA
ATOM     14  H1  UNL     1      16.632  10.468  -2.818  1.00  0.00     0.245 HD
ENDBRANCH   6  13
TORSDOF 2
ENDMDL
MODEL 2
REMARK VINA RESULT: -5.521830264      3.198      5.009
REMARK  2 active torsions:
REMARK  status: ('A' for Active; 'I' for Inactive)
REMARK    1  A    between atoms: C2_2  and  C3_3 
REMARK    2  A    between atoms: N3_8  and  O1_9 
ROOT
HETATM    1  C3  UNL     1      14.747   8.916  -0.997  1.00  0.00     0.148 C 
HETATM    2  N1  UNL     1      14.106   7.851  -0.307  1.00  0.00    -0.349 N 
ATOM      3  H1  UNL     1      13.583   7.163  -0.849  1.00  0.00     0.163 HD
HETATM    4  C4  UNL     1      14.156   7.718   0.964  1.00  0.00     0.212 C 
HETATM    5  N2  UNL     1      13.480   6.609   1.608  1.00  0.00    -0.062 NA
HETATM    6  N3  UNL     1      14.837   8.591   1.811  1.00  0.00    -0.213 N 
HETATM    7  C5  UNL     1      14.990  10.023   1.628  1.00  0.00     0.104 C 
HETATM    8  C6  UNL     1      13.907  10.696   2.445  1.00  0.00     0.053 C 
HETATM    9  C7  UNL     1      16.349  10.435   2.127  1.00  0.00     0.053 C 
HETATM   10  S1  UNL     1      14.737  10.490  -0.105  1.00  0.00    -0.111 SA
ENDROOT
BRANCH   1  11
HETATM   11  C2  UNL     1      14.108   9.161  -2.363  1.00  0.00     0.032 C 
HETATM   12  C1  UNL     1      13.016  10.176  -2.157  1.00  0.00     0.008 C 
ENDBRANCH   1  11
BRANCH   6  13
HETATM   13  O1  UNL     1      15.419   8.097   2.917  1.00  0.00    -0.283 OA
ATOM     14  H1  UNL     1      16.149   8.570   3.300  1.00  0.00     0.245 HD
ENDBRANCH   6  13
TORSDOF 2
ENDMDL
MODEL 3
REMARK VINA RESULT: -5.456738339      1.808      3.941
REMARK  2 active torsions:
REMARK  status: ('A' for Active; 'I' for Inactive)
REMARK    1  A    between atoms: C2_2  and  C3_3 
REMARK    2  A    between atoms: N3_8  and  O1_9 
ROOT
HETATM    1  C3  UNL     1      15.302  10.451   0.355  1.00  0.00     0.148 C 
HETATM    2  N1  UNL     1      16.365  11.131  -0.300  1.00  0.00    -0.349 N 
ATOM      3  H1  UNL     1      16.484  10.999  -1.304  1.00  0.00     0.163 HD
HETATM    4  C4  UNL     1      17.180  11.900   0.317  1.00  0.00     0.212 C 
HETATM    5  N2  UNL     1      18.245  12.565  -0.408  1.00  0.00    -0.062 NA
HETATM    6  N3  UNL     1      17.122  12.157   1.686  1.00  0.00    -0.213 N 
HETATM    7  C5  UNL     1      16.708  11.227   2.720  1.00  0.00     0.104 C 
HETATM    8  C6  UNL     1      17.965  10.602   3.287  1.00  0.00     0.053 C 
HETATM    9  C7  UNL     1      15.974  11.986   3.793  1.00  0.00     0.053 C 
HETATM   10  S1  UNL     1      15.698   9.890   2.028  1.00  0.00    -0.111 SA
ENDROOT
BRANCH   1  11
HETATM   11  C2  UNL     1      14.848   9.227  -0.442  1.00  0.00     0.032 C 
HETATM   12  C1  UNL     1      13.695   9.671  -1.301  1.00  0.00     0.008 C 
ENDBRANCH   1  11
BRANCH   6  13
HETATM   13  O1  UNL     1      17.478  13.375   2.130  1.00  0.00    -0.283 OA
ATOM     14  H1  UNL     1      18.332  13.717   1.891  1.00  0.00     0.245 HD
ENDBRANCH   6  13
TORSDOF 2
ENDMDL
MODEL 4
REMARK VINA RESULT: -5.331310784      2.714      3.521
REMARK  2 active torsions:
REMARK  status: ('A' for Active; 'I' for Inactive)
REMARK    1  A    between atoms: C2_2  and  C3_3 
REMARK    2  A    between atoms: N3_8  and  O1_9 
ROOT
HETATM    1  C3  UNL     1      16.198  10.775   0.962  1.00  0.00     0.148 C 
HETATM    2  N1  UNL     1      15.781   9.583   1.617  1.00  0.00    -0.349 N 
ATOM      3  H1  UNL     1      16.369   9.202   2.358  1.00  0.00     0.163 HD
HETATM    4  C4  UNL     1      14.700   8.970   1.317  1.00  0.00     0.212 C 
HETATM    5  N2  UNL     1      14.330   7.759   2.022  1.00  0.00    -0.062 NA
HETATM    6  N3  UNL     1      13.816   9.391   0.324  1.00  0.00    -0.213 N 
HETATM    7  C5  UNL     1      14.169  10.053  -0.918  1.00  0.00     0.104 C 
HETATM    8  C6  UNL     1      14.246   8.984  -1.987  1.00  0.00     0.053 C 
HETATM    9  C7  UNL     1      13.096  11.053  -1.258  1.00  0.00     0.053 C 
HETATM   10  S1  UNL     1      15.803  10.829  -0.803  1.00  0.00    -0.111 SA
ENDROOT
BRANCH   1  11
HETATM   11  C2  UNL     1      17.705  10.987   1.099  1.00  0.00     0.032 C 
HETATM   12  C1  UNL     1      18.014  12.324   0.481  1.00  0.00     0.008 C 
ENDBRANCH   1  11
BRANCH   6  13
HETATM   13  O1  UNL     1      12.500   9.179   0.498  1.00  0.00    -0.283 OA
ATOM     14  H1  UNL     1      12.200   8.297   0.691  1.00  0.00     0.245 HD
ENDBRANCH   6  13
TORSDOF 2
ENDMDL
MODEL 5
REMARK VINA RESULT: -5.324460910      1.215      1.215
REMARK  2 active torsions:
REMARK  status: ('A' for Active; 'I' for Inactive)
REMARK    1  A    between atoms: C2_2  and  C3_3 
REMARK    2  A    between atoms: N3_8  and  O1_9 
ROOT
HETATM    1  C3  UNL     1      15.210   9.678   1.483  1.00  0.00     0.148 C 
HETATM    2  N1  UNL     1      16.118  10.743   1.233  1.00  0.00    -0.349 N 
ATOM      3  H1  UNL     1      16.607  11.162   2.024  1.00  0.00     0.163 HD
HETATM    4  C4  UNL     1      16.347  11.199   0.060  1.00  0.00     0.212 C 
HETATM    5  N2  UNL     1      17.285  12.288  -0.128  1.00  0.00    -0.062 NA
HETATM    6  N3  UNL     1      15.740  10.710  -1.096  1.00  0.00    -0.213 N 
HETATM    7  C5  UNL     1      14.388  10.195  -1.207  1.00  0.00     0.104 C 
HETATM    8  C6  UNL     1      13.516  11.330  -1.697  1.00  0.00     0.053 C 
HETATM    9  C7  UNL     1      14.378   9.063  -2.200  1.00  0.00     0.053 C 
HETATM   10  S1  UNL     1      13.753   9.678   0.411  1.00  0.00    -0.111 SA
ENDROOT
BRANCH   1  11
HETATM   11  C2  UNL     1      14.714   9.695   2.928  1.00  0.00     0.032 C 
HETATM   12  C1  UNL     1      14.141  11.064   3.175  1.00  0.00     0.008 C 
ENDBRANCH   1  11
BRANCH   6  13
HETATM   13  O1  UNL     1      16.444  10.702  -2.241  1.00  0.00    -0.283 OA
ATOM     14  H1  UNL     1      16.483  11.498  -2.760  1.00  0.00     0.245 HD
ENDBRANCH   6  13
TORSDOF 2
ENDMDL
