MODEL 1
REMARK VINA RESULT: -6.182311775      0.000      0.000
REMARK  3 active torsions:
REMARK  status: ('A' for Active; 'I' for Inactive)
REMARK    1  A    between atoms: C2_2  and  O1_4 
REMARK    2  A    between atoms: O1_4  and  N1_5 
REMARK    3  A    between atoms: N2_10  and  O2_12 
ROOT
HETATM    1  N1  UNL     1      14.007  10.644   7.888  1.00  0.00    -0.182 NA
HETATM    2  C4  UNL     1      14.307   9.507   8.659  1.00  0.00     0.089 C 
HETATM    3  C5  UNL     1      15.258   9.922   9.762  1.00  0.00     0.028 C 
HETATM    4  C6  UNL     1      14.667  11.075  10.575  1.00  0.00     0.058 C 
HETATM    5  C7  UNL     1      13.488  11.658   9.917  1.00  0.00     0.030 C 
HETATM    6  N2  UNL     1      12.973  12.730  10.338  1.00  0.00    -0.276 N 
ATOM      7  H2  UNL     1      13.420  13.157  11.150  1.00  0.00     0.193 HD
HETATM    8  C8  UNL     1      12.920  10.960   8.750  1.00  0.00     0.135 C 
HETATM    9  C9  UNL     1      12.915   9.484   9.181  1.00  0.00     0.050 C 
ENDROOT
BRANCH   1  10
HETATM   10  O1  UNL     1      13.940  10.676   6.621  1.00  0.00    -0.298 OA
BRANCH  10  11
HETATM   11  C2  UNL     1      14.670   9.857   5.839  1.00  0.00     0.137 C 
HETATM   12  C1  UNL     1      13.703   8.969   5.044  1.00  0.00     0.041 C 
HETATM   13  C3  UNL     1      15.468  10.612   4.767  1.00  0.00     0.041 C 
ENDBRANCH  10  11
ENDBRANCH   1  10
BRANCH   6  14
HETATM   14  O2  UNL     1      11.897  13.378   9.837  1.00  0.00    -0.290 OA
ATOM     15  H2  UNL     1      10.980  13.176   9.985  1.00  0.00     0.244 HD
ENDBRANCH   6  14
TORSDOF 3
ENDMDL
MODEL 2
REMARK VINA RESULT: -6.166932347      7.499     10.466
REMARK  3 active torsions:
REMARK  status: ('A' for Active; 'I' for Inactive)
REMARK    1  A    between atoms: C2_2  and  O1_4 
REMARK    2  A    between atoms: O1_4  and  N1_5 
REMARK    3  A    between atoms: N2_10  and  O2_12 
ROOT
HETATM    1  N1  UNL     1      13.432   9.567  -0.797  1.00  0.00    -0.182 NA
HETATM    2  C4  UNL     1      14.545  10.421  -0.876  1.00  0.00     0.089 C 
HETATM    3  C5  UNL     1      15.467   9.894  -1.956  1.00  0.00     0.028 C 
HETATM    4  C6  UNL     1      14.715   9.743  -3.278  1.00  0.00     0.058 C 
HETATM    5  C7  UNL     1      13.262   9.873  -3.096  1.00  0.00     0.030 C 
HETATM    6  N2  UNL     1      12.463   9.600  -4.035  1.00  0.00    -0.276 N 
ATOM      7  H2  UNL     1      12.884   9.290  -4.910  1.00  0.00     0.193 HD
HETATM    8  C8  UNL     1      12.757  10.330  -1.790  1.00  0.00     0.135 C 
HETATM    9  C9  UNL     1      13.690  11.500  -1.434  1.00  0.00     0.050 C 
ENDROOT
BRANCH   1  10
HETATM   10  O1  UNL     1      12.888   9.165   0.278  1.00  0.00    -0.298 OA
BRANCH  10  11
HETATM   11  C2  UNL     1      13.609   8.717   1.325  1.00  0.00     0.137 C 
HETATM   12  C1  UNL     1      12.702   8.721   2.564  1.00  0.00     0.041 C 
HETATM   13  C3  UNL     1      14.037   7.250   1.168  1.00  0.00     0.041 C 
ENDBRANCH  10  11
ENDBRANCH   1  10
BRANCH   6  14
HETATM   14  O2  UNL     1      11.112   9.672  -4.012  1.00  0.00    -0.290 OA
ATOM     15  H2  UNL     1      10.552  10.199  -4.570  1.00  0.00     0.244 HD
ENDBRANCH   6  14
TORSDOF 3
ENDMDL
MODEL 3
REMARK VINA RESULT: -5.930644055      3.652      4.340
REMARK  3 active torsions:
REMARK  status: ('A' for Active; 'I' for Inactive)
REMARK    1  A    between atoms: C2_2  and  O1_4 
REMARK    2  A    between atoms: O1_4  and  N1_5 
REMARK    3  A    between atoms: N2_10  and  O2_12 
ROOT
HETATM    1  N1  UNL     1      13.904   8.647   5.460  1.00  0.00    -0.182 NA
HETATM    2  C4  UNL     1      13.179   9.284   6.481  1.00  0.00     0.089 C 
HETATM    3  C5  UNL     1      13.173   8.376   7.693  1.00  0.00     0.028 C 
HETATM    4  C6  UNL     1      14.600   8.006   8.095  1.00  0.00     0.058 C 
HETATM    5  C7  UNL     1      15.573   8.384   7.059  1.00  0.00     0.030 C 
HETATM    6  N2  UNL     1      16.774   8.000   7.125  1.00  0.00    -0.276 N 
ATOM      7  H2  UNL     1      17.020   7.422   7.928  1.00  0.00     0.193 HD
HETATM    8  C8  UNL     1      15.114   9.223   5.939  1.00  0.00     0.135 C 
HETATM    9  C9  UNL     1      14.255  10.299   6.624  1.00  0.00     0.050 C 
ENDROOT
BRANCH   1  10
HETATM   10  O1  UNL     1      13.573   8.611   4.235  1.00  0.00    -0.298 OA
BRANCH  10  11
HETATM   11  C2  UNL     1      14.285   9.237   3.278  1.00  0.00     0.137 C 
HETATM   12  C1  UNL     1      14.191   8.404   1.992  1.00  0.00     0.041 C 
HETATM   13  C3  UNL     1      13.695  10.603   2.895  1.00  0.00     0.041 C 
ENDBRANCH  10  11
ENDBRANCH   1  10
BRANCH   6  14
HETATM   14  O2  UNL     1      17.772   8.267   6.251  1.00  0.00    -0.290 OA
ATOM     15  H2  UNL     1      18.265   7.645   5.730  1.00  0.00     0.244 HD
ENDBRANCH   6  14
TORSDOF 3
ENDMDL
MODEL 4
REMARK VINA RESULT: -5.920515419      2.153      4.456
REMARK  3 active torsions:
REMARK  status: ('A' for Active; 'I' for Inactive)
REMARK    1  A    between atoms: C2_2  and  O1_4 
REMARK    2  A    between atoms: O1_4  and  N1_5 
REMARK    3  A    between atoms: N2_10  and  O2_12 
ROOT
HETATM    1  N1  UNL     1      14.809   9.579   8.255  1.00  0.00    -0.182 NA
HETATM    2  C4  UNL     1      14.945   8.185   8.151  1.00  0.00     0.089 C 
HETATM    3  C5  UNL     1      13.722   7.642   7.442  1.00  0.00     0.028 C 
HETATM    4  C6  UNL     1      13.528   8.340   6.096  1.00  0.00     0.058 C 
HETATM    5  C7  UNL     1      14.390   9.525   5.967  1.00  0.00     0.030 C 
HETATM    6  N2  UNL     1      14.244  10.333   5.009  1.00  0.00    -0.276 N 
ATOM      7  H2  UNL     1      13.504  10.114   4.342  1.00  0.00     0.193 HD
HETATM    8  C8  UNL     1      15.430   9.749   6.986  1.00  0.00     0.135 C 
HETATM    9  C9  UNL     1      16.053   8.355   7.176  1.00  0.00     0.050 C 
ENDROOT
BRANCH   1  10
HETATM   10  O1  UNL     1      15.092  10.272   9.280  1.00  0.00    -0.298 OA
BRANCH  10  11
HETATM   11  C2  UNL     1      14.357  11.338   9.655  1.00  0.00     0.137 C 
HETATM   12  C1  UNL     1      12.947  11.173   9.070  1.00  0.00     0.041 C 
HETATM   13  C3  UNL     1      14.138  11.406  11.173  1.00  0.00     0.041 C 
ENDBRANCH  10  11
ENDBRANCH   1  10
BRANCH   6  14
HETATM   14  O2  UNL     1      14.957  11.457   4.764  1.00  0.00    -0.290 OA
ATOM     15  H2  UNL     1      15.871  11.517   4.512  1.00  0.00     0.244 HD
ENDBRANCH   6  14
TORSDOF 3
ENDMDL
MODEL 5
REMARK VINA RESULT: -5.907486855      8.544      9.693
REMARK  3 active torsions:
REMARK  status: ('A' for Active; 'I' for Inactive)
REMARK    1  A    between atoms: C2_2  and  O1_4 
REMARK    2  A    between atoms: O1_4  and  N1_5 
REMARK    3  A    between atoms: N2_10  and  O2_12 
ROOT
HETATM    1  N1  UNL     1      15.175  10.763  -0.402  1.00  0.00    -0.182 NA
HETATM    2  C4  UNL     1      14.260  11.173  -1.385  1.00  0.00     0.089 C 
HETATM    3  C5  UNL     1      14.462  10.306  -2.610  1.00  0.00     0.028 C 
HETATM    4  C6  UNL     1      14.346   8.826  -2.245  1.00  0.00     0.058 C 
HETATM    5  C7  UNL     1      14.352   8.621  -0.788  1.00  0.00     0.030 C 
HETATM    6  N2  UNL     1      14.448   7.464  -0.295  1.00  0.00    -0.276 N 
ATOM      7  H2  UNL     1      14.519   6.694  -0.961  1.00  0.00     0.193 HD
HETATM    8  C8  UNL     1      14.245   9.803   0.085  1.00  0.00     0.135 C 
HETATM    9  C9  UNL     1      13.135  10.638  -0.574  1.00  0.00     0.050 C 
ENDROOT
BRANCH   1  10
HETATM   10  O1  UNL     1      15.850  11.537   0.345  1.00  0.00    -0.298 OA
BRANCH  10  11
HETATM   11  C2  UNL     1      17.165  11.352   0.573  1.00  0.00     0.137 C 
HETATM   12  C1  UNL     1      17.857  11.134  -0.780  1.00  0.00     0.041 C 
HETATM   13  C3  UNL     1      17.849  12.596   1.158  1.00  0.00     0.041 C 
ENDBRANCH  10  11
ENDBRANCH   1  10
BRANCH   6  14
HETATM   14  O2  UNL     1      14.467   7.126   1.014  1.00  0.00    -0.290 OA
ATOM     15  H2  UNL     1      14.716   6.291   1.392  1.00  0.00     0.244 HD
ENDBRANCH   6  14
TORSDOF 3
ENDMDL
