MODEL 1
REMARK VINA RESULT: -7.619091705      0.000      0.000
REMARK  6 active torsions:
REMARK  status: ('A' for Active; 'I' for Inactive)
REMARK    1  A    between atoms: N1_2  and  O1_3 
REMARK       I    between atoms: N1_2  and  C2_5 
REMARK    2  A    between atoms: C2_5  and  C3_7 
REMARK    3  A    between atoms: C3_7  and  C4_8 
REMARK    4  A    between atoms: C4_8  and  N2_9 
REMARK    5  A    between atoms: C5_10  and  O3_11 
REMARK    6  A    between atoms: C8_15  and  O4_16 
ROOT
HETATM    1  N2  UNL     1      -5.878  53.800  13.023  1.00  0.00    -0.307 N 
HETATM    2  C5  UNL     1      -4.570  54.149  12.912  1.00  0.00     0.151 A 
HETATM    3  C6  UNL     1      -3.861  53.021  12.554  1.00  0.00     0.004 A 
HETATM    4  C7  UNL     1      -4.767  52.007  12.454  1.00  0.00     0.008 A 
HETATM    5  C8  UNL     1      -5.999  52.486  12.742  1.00  0.00     0.151 A 
HETATM    6  C9  UNL     1      -4.408  50.588  12.079  1.00  0.00     0.024 C 
HETATM    7  C10 UNL     1      -3.715  50.737  10.726  1.00  0.00     0.014 C 
HETATM    8  C11 UNL     1      -2.271  51.022  10.813  1.00  0.00    -0.009 C 
HETATM    9  C12 UNL     1      -1.636  49.798  11.511  1.00  0.00     0.010 C 
HETATM   10  C13 UNL     1      -1.995  50.573  12.798  1.00  0.00    -0.009 C 
HETATM   11  C14 UNL     1      -3.377  50.189  13.137  1.00  0.00     0.014 C 
HETATM   12  C15 UNL     1      -1.780  51.782  11.987  1.00  0.00    -0.002 C 
HETATM   13  C16 UNL     1      -2.413  53.040  12.348  1.00  0.00     0.049 C 
ENDROOT
BRANCH   1  14
HETATM   14  C4  UNL     1      -6.976  54.665  13.379  1.00  0.00     0.142 C 
BRANCH  14  15
HETATM   15  C3  UNL     1      -7.750  55.154  12.200  1.00  0.00     0.125 C 
BRANCH  15  16
HETATM   16  C2  UNL     1      -8.966  55.859  12.674  1.00  0.00     0.244 C 
HETATM   17  N1  UNL     1      -9.731  56.713  11.852  1.00  0.00    -0.233 N 
HETATM   18  C1  UNL     1      -9.366  56.958  10.467  1.00  0.00     0.188 C 
HETATM   19  O2  UNL     1      -9.327  55.684  13.863  1.00  0.00    -0.271 OA
BRANCH  17  20
HETATM   20  O1  UNL     1     -10.816  57.323  12.328  1.00  0.00    -0.285 OA
ATOM     21  H1  UNL     1     -10.693  58.113  12.842  1.00  0.00     0.245 HD
ENDBRANCH  17  20
ENDBRANCH  15  16
ENDBRANCH  14  15
ENDBRANCH   1  14
BRANCH   2  22
HETATM   22  O3  UNL     1      -4.054  55.419  13.127  1.00  0.00    -0.345 OA
ATOM     23  H3  UNL     1      -3.189  55.612  13.469  1.00  0.00     0.219 HD
ENDBRANCH   2  22
BRANCH   5  24
HETATM   24  O4  UNL     1      -7.170  51.755  12.744  1.00  0.00    -0.345 OA
ATOM     25  H4  UNL     1      -7.284  50.874  12.406  1.00  0.00     0.219 HD
ENDBRANCH   5  24
TORSDOF 6
ENDMDL
MODEL 2
REMARK VINA RESULT: -7.481063360      0.630      2.339
REMARK  6 active torsions:
REMARK  status: ('A' for Active; 'I' for Inactive)
REMARK    1  A    between atoms: N1_2  and  O1_3 
REMARK       I    between atoms: N1_2  and  C2_5 
REMARK    2  A    between atoms: C2_5  and  C3_7 
REMARK    3  A    between atoms: C3_7  and  C4_8 
REMARK    4  A    between atoms: C4_8  and  N2_9 
REMARK    5  A    between atoms: C5_10  and  O3_11 
REMARK    6  A    between atoms: C8_15  and  O4_16 
ROOT
HETATM    1  N2  UNL     1      -5.926  53.790  12.886  1.00  0.00    -0.307 N 
HETATM    2  C5  UNL     1      -6.366  52.519  12.704  1.00  0.00     0.151 A 
HETATM    3  C6  UNL     1      -5.278  51.738  12.374  1.00  0.00     0.004 A 
HETATM    4  C7  UNL     1      -4.194  52.564  12.366  1.00  0.00     0.008 A 
HETATM    5  C8  UNL     1      -4.594  53.819  12.679  1.00  0.00     0.151 A 
HETATM    6  C9  UNL     1      -2.788  52.110  12.052  1.00  0.00     0.024 C 
HETATM    7  C10 UNL     1      -2.530  51.003  13.073  1.00  0.00     0.014 C 
HETATM    8  C11 UNL     1      -2.997  49.670  12.652  1.00  0.00    -0.009 C 
HETATM    9  C12 UNL     1      -2.184  49.312  11.387  1.00  0.00     0.010 C 
HETATM   10  C13 UNL     1      -3.316  50.076  10.665  1.00  0.00    -0.009 C 
HETATM   11  C14 UNL     1      -2.915  51.495  10.656  1.00  0.00     0.014 C 
HETATM   12  C15 UNL     1      -4.176  49.595  11.757  1.00  0.00    -0.002 C 
HETATM   13  C16 UNL     1      -5.395  50.304  12.109  1.00  0.00     0.049 C 
ENDROOT
BRANCH   1  14
HETATM   14  C4  UNL     1      -6.724  54.939  13.241  1.00  0.00     0.142 C 
BRANCH  14  15
HETATM   15  C3  UNL     1      -7.606  55.411  12.133  1.00  0.00     0.125 C 
BRANCH  15  16
HETATM   16  C2  UNL     1      -8.901  55.860  12.700  1.00  0.00     0.244 C 
HETATM   17  N1  UNL     1      -9.839  56.620  11.970  1.00  0.00    -0.233 N 
HETATM   18  C1  UNL     1      -9.587  57.017  10.595  1.00  0.00     0.188 C 
HETATM   19  O2  UNL     1      -9.171  55.545  13.885  1.00  0.00    -0.271 OA
BRANCH  17  20
HETATM   20  O1  UNL     1     -10.990  56.998  12.527  1.00  0.00    -0.285 OA
ATOM     21  H1  UNL     1     -11.647  57.392  11.966  1.00  0.00     0.245 HD
ENDBRANCH  17  20
ENDBRANCH  15  16
ENDBRANCH  14  15
ENDBRANCH   1  14
BRANCH   2  22
HETATM   22  O3  UNL     1      -7.682  52.096  12.829  1.00  0.00    -0.345 OA
ATOM     23  H3  UNL     1      -8.374  52.249  12.196  1.00  0.00     0.219 HD
ENDBRANCH   2  22
BRANCH   5  24
HETATM   24  O4  UNL     1      -3.776  54.928  12.770  1.00  0.00    -0.345 OA
ATOM     25  H4  UNL     1      -3.064  55.151  12.182  1.00  0.00     0.219 HD
ENDBRANCH   5  24
TORSDOF 6
ENDMDL
MODEL 3
REMARK VINA RESULT: -7.458963772      1.510      2.677
REMARK  6 active torsions:
REMARK  status: ('A' for Active; 'I' for Inactive)
REMARK    1  A    between atoms: N1_2  and  O1_3 
REMARK       I    between atoms: N1_2  and  C2_5 
REMARK    2  A    between atoms: C2_5  and  C3_7 
REMARK    3  A    between atoms: C3_7  and  C4_8 
REMARK    4  A    between atoms: C4_8  and  N2_9 
REMARK    5  A    between atoms: C5_10  and  O3_11 
REMARK    6  A    between atoms: C8_15  and  O4_16 
ROOT
HETATM    1  N2  UNL     1      -6.110  52.401  13.429  1.00  0.00    -0.307 N 
HETATM    2  C5  UNL     1      -6.373  51.429  12.518  1.00  0.00     0.151 A 
HETATM    3  C6  UNL     1      -5.187  50.786  12.234  1.00  0.00     0.004 A 
HETATM    4  C7  UNL     1      -4.225  51.389  12.989  1.00  0.00     0.008 A 
HETATM    5  C8  UNL     1      -4.793  52.377  13.718  1.00  0.00     0.151 A 
HETATM    6  C9  UNL     1      -2.769  50.987  12.982  1.00  0.00     0.024 C 
HETATM    7  C10 UNL     1      -2.801  49.506  13.355  1.00  0.00     0.014 C 
HETATM    8  C11 UNL     1      -3.003  48.598  12.212  1.00  0.00    -0.009 C 
HETATM    9  C12 UNL     1      -1.782  48.800  11.285  1.00  0.00     0.010 C 
HETATM   10  C13 UNL     1      -2.647  49.936  10.696  1.00  0.00    -0.009 C 
HETATM   11  C14 UNL     1      -2.365  51.132  11.512  1.00  0.00     0.014 C 
HETATM   12  C15 UNL     1      -3.794  49.091  11.060  1.00  0.00    -0.002 C 
HETATM   13  C16 UNL     1      -5.105  49.675  11.284  1.00  0.00     0.049 C 
ENDROOT
BRANCH   1  14
HETATM   14  C4  UNL     1      -7.059  53.321  14.009  1.00  0.00     0.142 C 
BRANCH  14  15
HETATM   15  C3  UNL     1      -7.011  54.682  13.398  1.00  0.00     0.125 C 
BRANCH  15  16
HETATM   16  C2  UNL     1      -8.379  55.076  12.980  1.00  0.00     0.244 C 
HETATM   17  N1  UNL     1      -8.847  54.944  11.656  1.00  0.00    -0.233 N 
HETATM   18  C1  UNL     1      -8.003  54.407  10.603  1.00  0.00     0.188 C 
HETATM   19  O2  UNL     1      -9.152  55.548  13.849  1.00  0.00    -0.271 OA
BRANCH  17  20
HETATM   20  O1  UNL     1     -10.087  55.314  11.333  1.00  0.00    -0.285 OA
ATOM     21  H1  UNL     1     -10.718  55.417  12.036  1.00  0.00     0.245 HD
ENDBRANCH  17  20
ENDBRANCH  15  16
ENDBRANCH  14  15
ENDBRANCH   1  14
BRANCH   2  22
HETATM   22  O3  UNL     1      -7.619  51.147  11.977  1.00  0.00    -0.345 OA
ATOM     23  H3  UNL     1      -8.019  50.286  11.930  1.00  0.00     0.219 HD
ENDBRANCH   2  22
BRANCH   5  24
HETATM   24  O4  UNL     1      -4.135  53.209  14.602  1.00  0.00    -0.345 OA
ATOM     25  H4  UNL     1      -3.341  53.700  14.427  1.00  0.00     0.219 HD
ENDBRANCH   5  24
TORSDOF 6
ENDMDL
MODEL 4
REMARK VINA RESULT: -7.271842551      1.745      2.492
REMARK  6 active torsions:
REMARK  status: ('A' for Active; 'I' for Inactive)
REMARK    1  A    between atoms: N1_2  and  O1_3 
REMARK       I    between atoms: N1_2  and  C2_5 
REMARK    2  A    between atoms: C2_5  and  C3_7 
REMARK    3  A    between atoms: C3_7  and  C4_8 
REMARK    4  A    between atoms: C4_8  and  N2_9 
REMARK    5  A    between atoms: C5_10  and  O3_11 
REMARK    6  A    between atoms: C8_15  and  O4_16 
ROOT
HETATM    1  N2  UNL     1      -4.150  52.274  13.174  1.00  0.00    -0.307 N 
HETATM    2  C5  UNL     1      -2.810  52.280  12.953  1.00  0.00     0.151 A 
HETATM    3  C6  UNL     1      -2.508  51.190  12.164  1.00  0.00     0.004 A 
HETATM    4  C7  UNL     1      -3.685  50.545  11.923  1.00  0.00     0.008 A 
HETATM    5  C8  UNL     1      -4.687  51.210  12.542  1.00  0.00     0.151 A 
HETATM    6  C9  UNL     1      -3.806  49.290  11.090  1.00  0.00     0.024 C 
HETATM    7  C10 UNL     1      -3.203  49.689   9.745  1.00  0.00     0.014 C 
HETATM    8  C11 UNL     1      -1.739  49.536   9.668  1.00  0.00    -0.009 C 
HETATM    9  C12 UNL     1      -1.457  48.027   9.855  1.00  0.00     0.010 C 
HETATM   10  C13 UNL     1      -1.466  48.398  11.355  1.00  0.00    -0.009 C 
HETATM   11  C14 UNL     1      -2.870  48.303  11.794  1.00  0.00     0.014 C 
HETATM   12  C15 UNL     1      -0.953  49.704  10.913  1.00  0.00    -0.002 C 
HETATM   13  C16 UNL     1      -1.143  50.891  11.730  1.00  0.00     0.049 C 
ENDROOT
BRANCH   1  14
HETATM   14  C4  UNL     1      -4.902  53.230  13.950  1.00  0.00     0.142 C 
BRANCH  14  15
HETATM   15  C3  UNL     1      -5.390  54.390  13.146  1.00  0.00     0.125 C 
BRANCH  15  16
HETATM   16  C2  UNL     1      -6.589  54.967  13.803  1.00  0.00     0.244 C 
HETATM   17  N1  UNL     1      -7.881  54.903  13.241  1.00  0.00    -0.233 N 
HETATM   18  C1  UNL     1      -8.119  54.257  11.961  1.00  0.00     0.188 C 
HETATM   19  O2  UNL     1      -6.441  55.538  14.911  1.00  0.00    -0.271 OA
BRANCH  17  20
HETATM   20  O1  UNL     1      -8.926  55.438  13.873  1.00  0.00    -0.285 OA
ATOM     21  H1  UNL     1      -8.825  55.656  14.793  1.00  0.00     0.245 HD
ENDBRANCH  17  20
ENDBRANCH  15  16
ENDBRANCH  14  15
ENDBRANCH   1  14
BRANCH   2  22
HETATM   22  O3  UNL     1      -1.917  53.221  13.442  1.00  0.00    -0.345 OA
ATOM     23  H3  UNL     1      -1.380  53.800  12.914  1.00  0.00     0.219 HD
ENDBRANCH   2  22
BRANCH   5  24
HETATM   24  O4  UNL     1      -6.022  50.858  12.526  1.00  0.00    -0.345 OA
ATOM     25  H4  UNL     1      -6.398  50.100  12.094  1.00  0.00     0.219 HD
ENDBRANCH   5  24
TORSDOF 6
ENDMDL
MODEL 5
REMARK VINA RESULT: -7.237155716      2.349      8.095
REMARK  6 active torsions:
REMARK  status: ('A' for Active; 'I' for Inactive)
REMARK    1  A    between atoms: N1_2  and  O1_3 
REMARK       I    between atoms: N1_2  and  C2_5 
REMARK    2  A    between atoms: C2_5  and  C3_7 
REMARK    3  A    between atoms: C3_7  and  C4_8 
REMARK    4  A    between atoms: C4_8  and  N2_9 
REMARK    5  A    between atoms: C5_10  and  O3_11 
REMARK    6  A    between atoms: C8_15  and  O4_16 
ROOT
HETATM    1  N2  UNL     1      -8.167  55.053  11.516  1.00  0.00    -0.307 N 
HETATM    2  C5  UNL     1      -9.029  55.555  12.438  1.00  0.00     0.151 A 
HETATM    3  C6  UNL     1      -9.892  56.411  11.787  1.00  0.00     0.004 A 
HETATM    4  C7  UNL     1      -9.529  56.405  10.473  1.00  0.00     0.008 A 
HETATM    5  C8  UNL     1      -8.473  55.574  10.311  1.00  0.00     0.151 A 
HETATM    6  C9  UNL     1     -10.221  57.213   9.401  1.00  0.00     0.024 C 
HETATM    7  C10 UNL     1     -11.677  56.758   9.490  1.00  0.00     0.014 C 
HETATM    8  C11 UNL     1     -12.481  57.489  10.486  1.00  0.00    -0.009 C 
HETATM    9  C12 UNL     1     -12.500  58.963  10.020  1.00  0.00     0.010 C 
HETATM   10  C13 UNL     1     -11.188  59.046  10.832  1.00  0.00    -0.009 C 
HETATM   11  C14 UNL     1     -10.107  58.653   9.909  1.00  0.00     0.014 C 
HETATM   12  C15 UNL     1     -11.792  58.014  11.688  1.00  0.00    -0.002 C 
HETATM   13  C16 UNL     1     -10.958  57.130  12.485  1.00  0.00     0.049 C 
ENDROOT
BRANCH   1  14
HETATM   14  C4  UNL     1      -7.094  54.118  11.755  1.00  0.00     0.142 C 
BRANCH  14  15
HETATM   15  C3  UNL     1      -5.879  54.752  12.348  1.00  0.00     0.125 C 
BRANCH  15  16
HETATM   16  C2  UNL     1      -5.740  54.315  13.758  1.00  0.00     0.244 C 
HETATM   17  N1  UNL     1      -4.971  53.198  14.146  1.00  0.00    -0.233 N 
HETATM   18  C1  UNL     1      -4.257  52.393  13.169  1.00  0.00     0.188 C 
HETATM   19  O2  UNL     1      -6.336  54.974  14.645  1.00  0.00    -0.271 OA
BRANCH  17  20
HETATM   20  O1  UNL     1      -4.879  52.847  15.429  1.00  0.00    -0.285 OA
ATOM     21  H1  UNL     1      -5.153  51.970  15.671  1.00  0.00     0.245 HD
ENDBRANCH  17  20
ENDBRANCH  15  16
ENDBRANCH  14  15
ENDBRANCH   1  14
BRANCH   2  22
HETATM   22  O3  UNL     1      -9.027  55.252  13.792  1.00  0.00    -0.345 OA
ATOM     23  H3  UNL     1      -8.768  55.843  14.490  1.00  0.00     0.219 HD
ENDBRANCH   2  22
BRANCH   5  24
HETATM   24  O4  UNL     1      -7.828  55.309   9.119  1.00  0.00    -0.345 OA
ATOM     25  H4  UNL     1      -7.300  55.920   8.617  1.00  0.00     0.219 HD
ENDBRANCH   5  24
TORSDOF 6
ENDMDL
