MODEL 1
REMARK VINA RESULT: -7.389123262      0.000      0.000
REMARK  6 active torsions:
REMARK  status: ('A' for Active; 'I' for Inactive)
REMARK    1  A    between atoms: C3_3  and  C4_4 
REMARK    2  A    between atoms: C4_4  and  O2_6 
REMARK    3  A    between atoms: O2_6  and  C5_7 
REMARK    4  A    between atoms: C7_9  and  C8_10 
REMARK    5  A    between atoms: C8_10  and  O3_11 
REMARK    6  A    between atoms: C14_21  and  O4_22 
ROOT
HETATM    1  C5  UNL     1      -4.147  52.228  13.105  1.00  0.00     0.142 C 
HETATM    2  C6  UNL     1      -4.284  50.842  12.547  1.00  0.00     0.046 C 
HETATM    3  C7  UNL     1      -5.143  50.925  11.287  1.00  0.00     0.057 C 
HETATM    4  C9  UNL     1      -6.491  51.333  11.778  1.00  0.00    -0.009 C 
HETATM    5  N1  UNL     1      -7.546  50.638  11.473  1.00  0.00    -0.405 N 
ATOM      6  H11 UNL     1      -8.468  50.917  11.808  1.00  0.00     0.155 HD
ATOM      7  H12 UNL     1      -7.467  49.802  10.893  1.00  0.00     0.155 HD
HETATM    8  C10 UNL     1      -6.603  52.526  12.606  1.00  0.00     0.042 C 
HETATM    9  C11 UNL     1      -6.957  53.698  11.677  1.00  0.00     0.018 C 
HETATM   10  C12 UNL     1      -7.528  54.759  12.627  1.00  0.00     0.011 C 
HETATM   11  C13 UNL     1      -8.236  55.831  11.876  1.00  0.00     0.012 C 
HETATM   12  C14 UNL     1      -6.379  55.245  13.464  1.00  0.00     0.122 C 
HETATM   13  C15 UNL     1      -5.149  54.408  13.361  1.00  0.00     0.044 C 
HETATM   14  C16 UNL     1      -5.439  52.907  13.413  1.00  0.00    -0.006 C 
HETATM   15  C17 UNL     1      -5.757  52.614  14.886  1.00  0.00     0.019 C 
ENDROOT
BRANCH   1  16
HETATM   16  O2  UNL     1      -3.336  52.963  12.205  1.00  0.00    -0.312 OA
BRANCH  16  17
HETATM   17  C4  UNL     1      -1.958  53.036  12.300  1.00  0.00     0.282 C 
HETATM   18  O1  UNL     1      -1.466  53.146  13.442  1.00  0.00    -0.260 OA
BRANCH  17  19
HETATM   19  C3  UNL     1      -1.123  52.985  11.080  1.00  0.00     0.077 C 
HETATM   20  C2  UNL     1      -0.636  51.868  10.628  1.00  0.00    -0.025 C 
HETATM   21  C1  UNL     1      -0.850  50.543  11.258  1.00  0.00     0.036 C 
ENDBRANCH  17  19
ENDBRANCH  16  17
ENDBRANCH   1  16
BRANCH   3  22
HETATM   22  C8  UNL     1      -5.262  49.569  10.631  1.00  0.00     0.174 C 
BRANCH  22  23
HETATM   23  O3  UNL     1      -5.605  49.751   9.311  1.00  0.00    -0.400 OA
ATOM     24  H3  UNL     1      -6.118  49.004   9.028  1.00  0.00     0.209 HD
ENDBRANCH  22  23
ENDBRANCH   3  22
BRANCH  12  25
HETATM   25  O4  UNL     1      -6.823  55.431  14.771  1.00  0.00    -0.395 OA
ATOM     26  H4  UNL     1      -6.250  56.054  15.203  1.00  0.00     0.210 HD
ENDBRANCH  12  25
TORSDOF 6
ENDMDL
MODEL 2
REMARK VINA RESULT: -7.005608823      1.007      1.085
REMARK  6 active torsions:
REMARK  status: ('A' for Active; 'I' for Inactive)
REMARK    1  A    between atoms: C3_3  and  C4_4 
REMARK    2  A    between atoms: C4_4  and  O2_6 
REMARK    3  A    between atoms: O2_6  and  C5_7 
REMARK    4  A    between atoms: C7_9  and  C8_10 
REMARK    5  A    between atoms: C8_10  and  O3_11 
REMARK    6  A    between atoms: C14_21  and  O4_22 
ROOT
HETATM    1  C5  UNL     1      -4.762  51.917  12.921  1.00  0.00     0.142 C 
HETATM    2  C6  UNL     1      -5.107  50.554  12.394  1.00  0.00     0.046 C 
HETATM    3  C7  UNL     1      -6.042  50.736  11.199  1.00  0.00     0.057 C 
HETATM    4  C9  UNL     1      -7.290  51.307  11.783  1.00  0.00    -0.009 C 
HETATM    5  N1  UNL     1      -8.440  50.743  11.566  1.00  0.00    -0.405 N 
ATOM      6  H11 UNL     1      -9.294  51.133  11.965  1.00  0.00     0.155 HD
ATOM      7  H12 UNL     1      -8.507  49.901  10.994  1.00  0.00     0.155 HD
HETATM    8  C10 UNL     1      -7.194  52.508  12.601  1.00  0.00     0.042 C 
HETATM    9  C11 UNL     1      -7.473  53.710  11.686  1.00  0.00     0.018 C 
HETATM   10  C12 UNL     1      -7.839  54.837  12.661  1.00  0.00     0.011 C 
HETATM   11  C13 UNL     1      -8.467  55.983  11.950  1.00  0.00     0.012 C 
HETATM   12  C14 UNL     1      -6.580  55.183  13.403  1.00  0.00     0.122 C 
HETATM   13  C15 UNL     1      -5.472  54.203  13.221  1.00  0.00     0.044 C 
HETATM   14  C16 UNL     1      -5.935  52.749  13.314  1.00  0.00    -0.006 C 
HETATM   15  C17 UNL     1      -6.175  52.502  14.811  1.00  0.00     0.019 C 
ENDROOT
BRANCH   1  16
HETATM   16  O2  UNL     1      -3.938  52.544  11.953  1.00  0.00    -0.312 OA
BRANCH  16  17
HETATM   17  C4  UNL     1      -2.557  52.584  12.033  1.00  0.00     0.282 C 
HETATM   18  O1  UNL     1      -1.970  53.477  11.387  1.00  0.00    -0.260 OA
BRANCH  17  19
HETATM   19  C3  UNL     1      -1.829  51.594  12.856  1.00  0.00     0.077 C 
HETATM   20  C2  UNL     1      -1.435  50.455  12.371  1.00  0.00    -0.025 C 
HETATM   21  C1  UNL     1      -1.657  50.017  10.971  1.00  0.00     0.036 C 
ENDBRANCH  17  19
ENDBRANCH  16  17
ENDBRANCH   1  16
BRANCH   3  22
HETATM   22  C8  UNL     1      -6.372  49.401  10.573  1.00  0.00     0.174 C 
BRANCH  22  23
HETATM   23  O3  UNL     1      -6.789  49.618   9.279  1.00  0.00    -0.400 OA
ATOM     24  H3  UNL     1      -7.199  50.473   9.235  1.00  0.00     0.209 HD
ENDBRANCH  22  23
ENDBRANCH   3  22
BRANCH  12  25
HETATM   25  O4  UNL     1      -6.899  55.427  14.738  1.00  0.00    -0.395 OA
ATOM     26  H4  UNL     1      -6.100  55.410  15.251  1.00  0.00     0.210 HD
ENDBRANCH  12  25
TORSDOF 6
ENDMDL
MODEL 3
REMARK VINA RESULT: -6.505657987      2.814      6.032
REMARK  6 active torsions:
REMARK  status: ('A' for Active; 'I' for Inactive)
REMARK    1  A    between atoms: C3_3  and  C4_4 
REMARK    2  A    between atoms: C4_4  and  O2_6 
REMARK    3  A    between atoms: O2_6  and  C5_7 
REMARK    4  A    between atoms: C7_9  and  C8_10 
REMARK    5  A    between atoms: C8_10  and  O3_11 
REMARK    6  A    between atoms: C14_21  and  O4_22 
ROOT
HETATM    1  C5  UNL     1      -7.669  53.958  11.458  1.00  0.00     0.142 C 
HETATM    2  C6  UNL     1      -7.414  54.846  12.641  1.00  0.00     0.046 C 
HETATM    3  C7  UNL     1      -6.006  54.551  13.155  1.00  0.00     0.057 C 
HETATM    4  C9  UNL     1      -6.079  53.153  13.668  1.00  0.00    -0.009 C 
HETATM    5  N1  UNL     1      -5.705  52.872  14.880  1.00  0.00    -0.405 N 
ATOM      6  H11 UNL     1      -5.755  51.915  15.232  1.00  0.00     0.155 HD
ATOM      7  H12 UNL     1      -5.357  53.604  15.500  1.00  0.00     0.155 HD
HETATM    8  C10 UNL     1      -6.578  52.108  12.784  1.00  0.00     0.042 C 
HETATM    9  C11 UNL     1      -5.359  51.445  12.124  1.00  0.00     0.018 C 
HETATM   10  C12 UNL     1      -5.899  50.097  11.627  1.00  0.00     0.011 C 
HETATM   11  C13 UNL     1      -4.790  49.174  11.262  1.00  0.00     0.012 C 
HETATM   12  C14 UNL     1      -6.844  50.406  10.502  1.00  0.00     0.122 C 
HETATM   13  C15 UNL     1      -7.207  51.847  10.384  1.00  0.00     0.044 C 
HETATM   14  C16 UNL     1      -7.521  52.499  11.731  1.00  0.00    -0.006 C 
HETATM   15  C17 UNL     1      -8.913  51.974  12.113  1.00  0.00     0.019 C 
ENDROOT
BRANCH   1  16
HETATM   16  O2  UNL     1      -6.834  54.411  10.406  1.00  0.00    -0.312 OA
BRANCH  16  17
HETATM   17  C4  UNL     1      -7.289  55.166   9.339  1.00  0.00     0.282 C 
HETATM   18  O1  UNL     1      -6.507  55.333   8.380  1.00  0.00    -0.260 OA
BRANCH  17  19
HETATM   19  C3  UNL     1      -8.651  55.742   9.361  1.00  0.00     0.077 C 
HETATM   20  C2  UNL     1      -9.671  55.111   8.860  1.00  0.00    -0.025 C 
HETATM   21  C1  UNL     1      -9.601  53.772   8.224  1.00  0.00     0.036 C 
ENDBRANCH  17  19
ENDBRANCH  16  17
ENDBRANCH   1  16
BRANCH   3  22
HETATM   22  C8  UNL     1      -5.655  55.467  14.305  1.00  0.00     0.174 C 
BRANCH  22  23
HETATM   23  O3  UNL     1      -6.759  55.586  15.119  1.00  0.00    -0.400 OA
ATOM     24  H3  UNL     1      -6.494  55.405  16.013  1.00  0.00     0.209 HD
ENDBRANCH  22  23
ENDBRANCH   3  22
BRANCH  12  25
HETATM   25  O4  UNL     1      -7.944  49.557  10.594  1.00  0.00    -0.395 OA
ATOM     26  H4  UNL     1      -8.600  49.836   9.965  1.00  0.00     0.210 HD
ENDBRANCH  12  25
TORSDOF 6
ENDMDL
MODEL 4
REMARK VINA RESULT: -6.310889922      1.523      1.914
REMARK  6 active torsions:
REMARK  status: ('A' for Active; 'I' for Inactive)
REMARK    1  A    between atoms: C3_3  and  C4_4 
REMARK    2  A    between atoms: C4_4  and  O2_6 
REMARK    3  A    between atoms: O2_6  and  C5_7 
REMARK    4  A    between atoms: C7_9  and  C8_10 
REMARK    5  A    between atoms: C8_10  and  O3_11 
REMARK    6  A    between atoms: C14_21  and  O4_22 
ROOT
HETATM    1  C5  UNL     1      -3.155  51.477  11.505  1.00  0.00     0.142 C 
HETATM    2  C6  UNL     1      -3.494  50.591  10.342  1.00  0.00     0.046 C 
HETATM    3  C7  UNL     1      -4.656  51.233   9.586  1.00  0.00     0.057 C 
HETATM    4  C9  UNL     1      -5.805  51.166  10.535  1.00  0.00    -0.009 C 
HETATM    5  N1  UNL     1      -6.930  50.625  10.175  1.00  0.00    -0.405 N 
ATOM      6  H11 UNL     1      -7.716  50.579  10.824  1.00  0.00     0.155 HD
ATOM      7  H12 UNL     1      -7.045  50.238   9.238  1.00  0.00     0.155 HD
HETATM    8  C10 UNL     1      -5.641  51.718  11.873  1.00  0.00     0.042 C 
HETATM    9  C11 UNL     1      -6.182  53.155  11.845  1.00  0.00     0.018 C 
HETATM   10  C12 UNL     1      -6.433  53.481  13.324  1.00  0.00     0.011 C 
HETATM   11  C13 UNL     1      -7.272  54.701  13.473  1.00  0.00     0.012 C 
HETATM   12  C14 UNL     1      -5.083  53.575  13.975  1.00  0.00     0.122 C 
HETATM   13  C15 UNL     1      -3.961  53.063  13.136  1.00  0.00     0.044 C 
HETATM   14  C16 UNL     1      -4.288  51.741  12.439  1.00  0.00    -0.006 C 
HETATM   15  C17 UNL     1      -4.211  50.678  13.545  1.00  0.00     0.019 C 
ENDROOT
BRANCH   1  16
HETATM   16  O2  UNL     1      -2.587  52.662  10.977  1.00  0.00    -0.312 OA
BRANCH  16  17
HETATM   17  C4  UNL     1      -1.247  52.988  11.096  1.00  0.00     0.282 C 
HETATM   18  O1  UNL     1      -0.823  53.267  12.237  1.00  0.00    -0.260 OA
BRANCH  17  19
HETATM   19  C3  UNL     1      -0.374  52.999   9.902  1.00  0.00     0.077 C 
HETATM   20  C2  UNL     1       0.312  51.955   9.543  1.00  0.00    -0.025 C 
HETATM   21  C1  UNL     1       0.304  50.658  10.263  1.00  0.00     0.036 C 
ENDBRANCH  17  19
ENDBRANCH  16  17
ENDBRANCH   1  16
BRANCH   3  22
HETATM   22  C8  UNL     1      -5.002  50.426   8.356  1.00  0.00     0.174 C 
BRANCH  22  23
HETATM   23  O3  UNL     1      -5.667  51.244   7.471  1.00  0.00    -0.400 OA
ATOM     24  H3  UNL     1      -6.036  51.974   7.955  1.00  0.00     0.209 HD
ENDBRANCH  22  23
ENDBRANCH   3  22
BRANCH  12  25
HETATM   25  O4  UNL     1      -5.151  52.989  15.237  1.00  0.00    -0.395 OA
ATOM     26  H4  UNL     1      -6.037  53.079  15.568  1.00  0.00     0.210 HD
ENDBRANCH  12  25
TORSDOF 6
ENDMDL
MODEL 5
REMARK VINA RESULT: -6.290910312      3.595      5.679
REMARK  6 active torsions:
REMARK  status: ('A' for Active; 'I' for Inactive)
REMARK    1  A    between atoms: C3_3  and  C4_4 
REMARK    2  A    between atoms: C4_4  and  O2_6 
REMARK    3  A    between atoms: O2_6  and  C5_7 
REMARK    4  A    between atoms: C7_9  and  C8_10 
REMARK    5  A    between atoms: C8_10  and  O3_11 
REMARK    6  A    between atoms: C14_21  and  O4_22 
ROOT
HETATM    1  C5  UNL     1      -8.226  54.353  10.587  1.00  0.00     0.142 C 
HETATM    2  C6  UNL     1      -7.571  53.973   9.291  1.00  0.00     0.046 C 
HETATM    3  C7  UNL     1      -7.283  55.257   8.515  1.00  0.00     0.057 C 
HETATM    4  C9  UNL     1      -8.630  55.802   8.180  1.00  0.00    -0.009 C 
HETATM    5  N1  UNL     1      -8.941  56.090   6.951  1.00  0.00    -0.405 N 
ATOM      6  H11 UNL     1      -9.862  56.463   6.721  1.00  0.00     0.155 HD
ATOM      7  H12 UNL     1      -8.269  55.946   6.198  1.00  0.00     0.155 HD
HETATM    8  C10 UNL     1      -9.590  56.006   9.255  1.00  0.00     0.042 C 
HETATM    9  C11 UNL     1      -9.478  57.473   9.699  1.00  0.00     0.018 C 
HETATM   10  C12 UNL     1     -10.796  57.735  10.440  1.00  0.00     0.011 C 
HETATM   11  C13 UNL     1     -11.018  59.191  10.649  1.00  0.00     0.012 C 
HETATM   12  C14 UNL     1     -10.740  56.929  11.706  1.00  0.00     0.122 C 
HETATM   13  C15 UNL     1      -9.633  55.931  11.749  1.00  0.00     0.044 C 
HETATM   14  C16 UNL     1      -9.477  55.152  10.442  1.00  0.00    -0.006 C 
HETATM   15  C17 UNL     1     -10.644  54.154  10.431  1.00  0.00     0.019 C 
ENDROOT
BRANCH   1  16
HETATM   16  O2  UNL     1      -7.244  55.000  11.378  1.00  0.00    -0.312 OA
BRANCH  16  17
HETATM   17  C4  UNL     1      -6.371  54.329  12.216  1.00  0.00     0.282 C 
HETATM   18  O1  UNL     1      -5.154  54.392  11.947  1.00  0.00    -0.260 OA
BRANCH  17  19
HETATM   19  C3  UNL     1      -6.887  53.572  13.377  1.00  0.00     0.077 C 
HETATM   20  C2  UNL     1      -7.012  52.279  13.354  1.00  0.00    -0.025 C 
HETATM   21  C1  UNL     1      -6.662  51.423  12.194  1.00  0.00     0.036 C 
ENDBRANCH  17  19
ENDBRANCH  16  17
ENDBRANCH   1  16
BRANCH   3  22
HETATM   22  C8  UNL     1      -6.555  54.950   7.227  1.00  0.00     0.174 C 
BRANCH  22  23
HETATM   23  O3  UNL     1      -5.591  55.913   7.032  1.00  0.00    -0.400 OA
ATOM     24  H3  UNL     1      -5.164  55.747   6.199  1.00  0.00     0.209 HD
ENDBRANCH  22  23
ENDBRANCH   3  22
BRANCH  12  25
HETATM   25  O4  UNL     1     -11.998  56.381  11.945  1.00  0.00    -0.395 OA
ATOM     26  H4  UNL     1     -11.889  55.525  12.344  1.00  0.00     0.210 HD
ENDBRANCH  12  25
TORSDOF 6
ENDMDL
