MODEL 1
REMARK VINA RESULT: -6.912364185      0.000      0.000
REMARK  6 active torsions:
REMARK  status: ('A' for Active; 'I' for Inactive)
REMARK    1  A    between atoms: C2_2  and  C3_3 
REMARK    2  A    between atoms: C3_3  and  C4_4 
REMARK    3  A    between atoms: C4_4  and  C5_5 
REMARK    4  A    between atoms: C5_5  and  O1_6 
REMARK    5  A    between atoms: C13_15  and  O2_16 
REMARK    6  A    between atoms: C17_23  and  O5_24 
ROOT
HETATM    1  C5  UNL     1      -4.601  50.424  11.559  1.00  0.00     0.088 C 
HETATM    2  C6  UNL     1      -5.971  50.625  12.121  1.00  0.00     0.044 C 
HETATM    3  C7  UNL     1      -6.353  52.118  11.889  1.00  0.00     0.025 C 
HETATM    4  C8  UNL     1      -5.579  52.950  12.815  1.00  0.00     0.069 C 
HETATM    5  C9  UNL     1      -4.153  52.602  12.606  1.00  0.00     0.004 A 
HETATM    6  C10 UNL     1      -3.431  53.657  13.075  1.00  0.00     0.077 A 
HETATM    7  C11 UNL     1      -2.055  53.506  13.040  1.00  0.00     0.040 A 
HETATM    8  C12 UNL     1      -1.504  52.336  12.548  1.00  0.00     0.040 A 
HETATM    9  C13 UNL     1      -2.286  51.298  12.080  1.00  0.00     0.075 A 
HETATM   10  C14 UNL     1      -3.680  51.428  12.104  1.00  0.00     0.019 A 
HETATM   11  O3  UNL     1      -4.304  54.699  13.496  1.00  0.00    -0.342 OA
HETATM   12  C15 UNL     1      -5.518  54.418  12.705  1.00  0.00     0.170 C 
HETATM   13  C16 UNL     1      -6.715  54.824  13.542  1.00  0.00     0.204 C 
HETATM   14  O4  UNL     1      -6.811  53.888  14.559  1.00  0.00    -0.358 OA
HETATM   15  C17 UNL     1      -5.989  52.806  14.267  1.00  0.00     0.272 C 
ENDROOT
BRANCH   1  16
HETATM   16  C4  UNL     1      -4.157  49.014  11.524  1.00  0.00     0.043 C 
BRANCH  16  17
HETATM   17  C3  UNL     1      -4.414  48.453  10.107  1.00  0.00     0.003 C 
BRANCH  17  18
HETATM   18  C2  UNL     1      -5.392  47.303  10.305  1.00  0.00    -0.004 C 
HETATM   19  C1  UNL     1      -6.794  47.684   9.926  1.00  0.00     0.005 C 
ENDBRANCH  17  18
ENDBRANCH  16  17
ENDBRANCH   1  16
BRANCH   1  20
HETATM   20  O1  UNL     1      -4.790  50.765  10.175  1.00  0.00    -0.385 OA
ATOM     21  H1  UNL     1      -5.069  51.673  10.196  1.00  0.00     0.211 HD
ENDBRANCH   1  20
BRANCH   9  22
HETATM   22  O2  UNL     1      -1.753  50.140  11.592  1.00  0.00    -0.360 OA
ATOM     23  H2  UNL     1      -1.934  49.824  10.715  1.00  0.00     0.217 HD
ENDBRANCH   9  22
BRANCH  15  24
HETATM   24  O5  UNL     1      -4.842  52.927  15.045  1.00  0.00    -0.370 OA
ATOM     25  H5  UNL     1      -5.113  52.972  15.955  1.00  0.00     0.212 HD
ENDBRANCH  15  24
TORSDOF 6
ENDMDL
MODEL 2
REMARK VINA RESULT: -6.568171623      1.932      4.321
REMARK  6 active torsions:
REMARK  status: ('A' for Active; 'I' for Inactive)
REMARK    1  A    between atoms: C2_2  and  C3_3 
REMARK    2  A    between atoms: C3_3  and  C4_4 
REMARK    3  A    between atoms: C4_4  and  C5_5 
REMARK    4  A    between atoms: C5_5  and  O1_6 
REMARK    5  A    between atoms: C13_15  and  O2_16 
REMARK    6  A    between atoms: C17_23  and  O5_24 
ROOT
HETATM    1  C5  UNL     1      -1.872  51.811  11.913  1.00  0.00     0.088 C 
HETATM    2  C6  UNL     1      -2.087  53.221  12.360  1.00  0.00     0.044 C 
HETATM    3  C7  UNL     1      -3.030  53.175  13.599  1.00  0.00     0.025 C 
HETATM    4  C8  UNL     1      -4.385  52.849  13.147  1.00  0.00     0.069 C 
HETATM    5  C9  UNL     1      -4.279  51.595  12.363  1.00  0.00     0.004 A 
HETATM    6  C10 UNL     1      -5.524  51.043  12.356  1.00  0.00     0.077 A 
HETATM    7  C11 UNL     1      -5.665  49.887  11.607  1.00  0.00     0.040 A 
HETATM    8  C12 UNL     1      -4.575  49.369  10.932  1.00  0.00     0.040 A 
HETATM    9  C13 UNL     1      -3.331  49.968  10.978  1.00  0.00     0.075 A 
HETATM   10  C14 UNL     1      -3.163  51.138  11.729  1.00  0.00     0.019 A 
HETATM   11  O3  UNL     1      -6.408  51.820  13.157  1.00  0.00    -0.342 OA
HETATM   12  C15 UNL     1      -5.471  52.495  14.078  1.00  0.00     0.170 C 
HETATM   13  C16 UNL     1      -6.044  53.863  14.392  1.00  0.00     0.204 C 
HETATM   14  O4  UNL     1      -5.905  54.615  13.237  1.00  0.00    -0.358 OA
HETATM   15  C17 UNL     1      -5.057  53.954  12.357  1.00  0.00     0.272 C 
ENDROOT
BRANCH   1  16
HETATM   16  C4  UNL     1      -0.847  51.655  10.859  1.00  0.00     0.043 C 
BRANCH  16  17
HETATM   17  C3  UNL     1      -0.587  53.037  10.218  1.00  0.00     0.003 C 
BRANCH  17  18
HETATM   18  C2  UNL     1       0.555  52.813   9.236  1.00  0.00    -0.004 C 
HETATM   19  C1  UNL     1       1.371  54.056   9.030  1.00  0.00     0.005 C 
ENDBRANCH  17  18
ENDBRANCH  16  17
ENDBRANCH   1  16
BRANCH   1  20
HETATM   20  O1  UNL     1      -1.273  51.213  13.076  1.00  0.00    -0.385 OA
ATOM     21  H1  UNL     1      -0.690  51.887  13.407  1.00  0.00     0.211 HD
ENDBRANCH   1  20
BRANCH   9  22
HETATM   22  O2  UNL     1      -2.248  49.465  10.316  1.00  0.00    -0.360 OA
ATOM     23  H2  UNL     1      -2.187  48.554  10.055  1.00  0.00     0.217 HD
ENDBRANCH   9  22
BRANCH  15  24
HETATM   24  O5  UNL     1      -5.848  53.356  11.380  1.00  0.00    -0.370 OA
ATOM     25  H5  UNL     1      -6.714  53.743  11.433  1.00  0.00     0.212 HD
ENDBRANCH  15  24
TORSDOF 6
ENDMDL
MODEL 3
REMARK VINA RESULT: -6.502457764      2.098      5.693
REMARK  6 active torsions:
REMARK  status: ('A' for Active; 'I' for Inactive)
REMARK    1  A    between atoms: C2_2  and  C3_3 
REMARK    2  A    between atoms: C3_3  and  C4_4 
REMARK    3  A    between atoms: C4_4  and  C5_5 
REMARK    4  A    between atoms: C5_5  and  O1_6 
REMARK    5  A    between atoms: C13_15  and  O2_16 
REMARK    6  A    between atoms: C17_23  and  O5_24 
ROOT
HETATM    1  C5  UNL     1      -8.030  53.614  12.723  1.00  0.00     0.088 C 
HETATM    2  C6  UNL     1      -8.430  53.310  11.315  1.00  0.00     0.044 C 
HETATM    3  C7  UNL     1      -8.411  51.760  11.154  1.00  0.00     0.025 C 
HETATM    4  C8  UNL     1      -7.017  51.308  11.120  1.00  0.00     0.069 C 
HETATM    5  C9  UNL     1      -6.369  51.843  12.341  1.00  0.00     0.004 A 
HETATM    6  C10 UNL     1      -5.274  51.065  12.564  1.00  0.00     0.077 A 
HETATM    7  C11 UNL     1      -4.475  51.443  13.630  1.00  0.00     0.040 A 
HETATM    8  C12 UNL     1      -4.818  52.547  14.388  1.00  0.00     0.040 A 
HETATM    9  C13 UNL     1      -5.945  53.300  14.120  1.00  0.00     0.075 A 
HETATM   10  C14 UNL     1      -6.770  52.937  13.047  1.00  0.00     0.019 A 
HETATM   11  O3  UNL     1      -5.222  50.009  11.610  1.00  0.00    -0.342 OA
HETATM   12  C15 UNL     1      -6.639  49.887  11.213  1.00  0.00     0.170 C 
HETATM   13  C16 UNL     1      -6.672  49.480   9.754  1.00  0.00     0.204 C 
HETATM   14  O4  UNL     1      -6.266  50.590   9.032  1.00  0.00    -0.358 OA
HETATM   15  C17 UNL     1      -6.268  51.704   9.863  1.00  0.00     0.272 C 
ENDROOT
BRANCH   1  16
HETATM   16  C4  UNL     1      -8.179  55.035  13.105  1.00  0.00     0.043 C 
BRANCH  16  17
HETATM   17  C3  UNL     1      -8.410  55.867  11.823  1.00  0.00     0.003 C 
BRANCH  17  18
HETATM   18  C2  UNL     1      -9.756  56.549  12.028  1.00  0.00    -0.004 C 
HETATM   19  C1  UNL     1     -10.740  56.185  10.955  1.00  0.00     0.005 C 
ENDBRANCH  17  18
ENDBRANCH  16  17
ENDBRANCH   1  16
BRANCH   1  20
HETATM   20  O1  UNL     1      -9.051  52.940  13.479  1.00  0.00    -0.385 OA
ATOM     21  H1  UNL     1      -9.646  52.606  12.818  1.00  0.00     0.211 HD
ENDBRANCH   1  20
BRANCH   9  22
HETATM   22  O2  UNL     1      -6.293  54.391  14.861  1.00  0.00    -0.360 OA
ATOM     23  H2  UNL     1      -7.190  54.569  15.121  1.00  0.00     0.217 HD
ENDBRANCH   9  22
BRANCH  15  24
HETATM   24  O5  UNL     1      -4.949  51.965  10.220  1.00  0.00    -0.370 OA
ATOM     25  H5  UNL     1      -4.517  52.353   9.468  1.00  0.00     0.212 HD
ENDBRANCH  15  24
TORSDOF 6
ENDMDL
MODEL 4
REMARK VINA RESULT: -6.425786819      2.323      4.194
REMARK  6 active torsions:
REMARK  status: ('A' for Active; 'I' for Inactive)
REMARK    1  A    between atoms: C2_2  and  C3_3 
REMARK    2  A    between atoms: C3_3  and  C4_4 
REMARK    3  A    between atoms: C4_4  and  C5_5 
REMARK    4  A    between atoms: C5_5  and  O1_6 
REMARK    5  A    between atoms: C13_15  and  O2_16 
REMARK    6  A    between atoms: C17_23  and  O5_24 
ROOT
HETATM    1  C5  UNL     1      -5.265  51.668  12.525  1.00  0.00     0.088 C 
HETATM    2  C6  UNL     1      -6.085  50.663  11.782  1.00  0.00     0.044 C 
HETATM    3  C7  UNL     1      -6.793  51.415  10.615  1.00  0.00     0.025 C 
HETATM    4  C8  UNL     1      -7.864  52.245  11.174  1.00  0.00     0.069 C 
HETATM    5  C9  UNL     1      -7.240  53.097  12.214  1.00  0.00     0.004 A 
HETATM    6  C10 UNL     1      -8.073  54.161  12.386  1.00  0.00     0.077 A 
HETATM    7  C11 UNL     1      -7.709  55.056  13.378  1.00  0.00     0.040 A 
HETATM    8  C12 UNL     1      -6.560  54.833  14.115  1.00  0.00     0.040 A 
HETATM    9  C13 UNL     1      -5.748  53.738  13.896  1.00  0.00     0.075 A 
HETATM   10  C14 UNL     1      -6.095  52.819  12.897  1.00  0.00     0.019 A 
HETATM   11  O3  UNL     1      -9.152  54.091  11.460  1.00  0.00    -0.342 OA
HETATM   12  C15 UNL     1      -8.577  53.263  10.382  1.00  0.00     0.170 C 
HETATM   13  C16 UNL     1      -9.701  52.437   9.789  1.00  0.00     0.204 C 
HETATM   14  O4  UNL     1     -10.026  51.485  10.741  1.00  0.00    -0.358 OA
HETATM   15  C17 UNL     1      -9.039  51.457  11.718  1.00  0.00     0.272 C 
ENDROOT
BRANCH   1  16
HETATM   16  C4  UNL     1      -4.374  51.087  13.553  1.00  0.00     0.043 C 
BRANCH  16  17
HETATM   17  C3  UNL     1      -2.997  50.810  12.909  1.00  0.00     0.003 C 
BRANCH  17  18
HETATM   18  C2  UNL     1      -2.768  49.315  13.085  1.00  0.00    -0.004 C 
HETATM   19  C1  UNL     1      -2.957  48.562  11.800  1.00  0.00     0.005 C 
ENDBRANCH  17  18
ENDBRANCH  16  17
ENDBRANCH   1  16
BRANCH   1  20
HETATM   20  O1  UNL     1      -4.365  52.137  11.506  1.00  0.00    -0.385 OA
ATOM     21  H1  UNL     1      -4.835  52.851  11.093  1.00  0.00     0.211 HD
ENDBRANCH   1  20
BRANCH   9  22
HETATM   22  O2  UNL     1      -4.612  53.509  14.617  1.00  0.00    -0.360 OA
ATOM     23  H2  UNL     1      -4.445  52.685  15.060  1.00  0.00     0.217 HD
ENDBRANCH   9  22
BRANCH  15  24
HETATM   24  O5  UNL     1      -9.527  52.138  12.830  1.00  0.00    -0.370 OA
ATOM     25  H5  UNL     1      -9.439  51.563  13.582  1.00  0.00     0.212 HD
ENDBRANCH  15  24
TORSDOF 6
ENDMDL
MODEL 5
REMARK VINA RESULT: -6.374312962      1.926      4.370
REMARK  6 active torsions:
REMARK  status: ('A' for Active; 'I' for Inactive)
REMARK    1  A    between atoms: C2_2  and  C3_3 
REMARK    2  A    between atoms: C3_3  and  C4_4 
REMARK    3  A    between atoms: C4_4  and  C5_5 
REMARK    4  A    between atoms: C5_5  and  O1_6 
REMARK    5  A    between atoms: C13_15  and  O2_16 
REMARK    6  A    between atoms: C17_23  and  O5_24 
ROOT
HETATM    1  C5  UNL     1      -4.371  52.500  13.217  1.00  0.00     0.088 C 
HETATM    2  C6  UNL     1      -4.510  53.987  13.172  1.00  0.00     0.044 C 
HETATM    3  C7  UNL     1      -5.965  54.330  13.612  1.00  0.00     0.025 C 
HETATM    4  C8  UNL     1      -6.882  53.962  12.529  1.00  0.00     0.069 C 
HETATM    5  C9  UNL     1      -6.615  52.538  12.214  1.00  0.00     0.004 A 
HETATM    6  C10 UNL     1      -7.732  52.070  11.591  1.00  0.00     0.077 A 
HETATM    7  C11 UNL     1      -7.665  50.762  11.142  1.00  0.00     0.040 A 
HETATM    8  C12 UNL     1      -6.513  50.024  11.343  1.00  0.00     0.040 A 
HETATM    9  C13 UNL     1      -5.409  50.548  11.987  1.00  0.00     0.075 A 
HETATM   10  C14 UNL     1      -5.452  51.869  12.451  1.00  0.00     0.019 A 
HETATM   11  O3  UNL     1      -8.734  53.080  11.560  1.00  0.00    -0.342 OA
HETATM   12  C15 UNL     1      -8.345  53.932  12.702  1.00  0.00     0.170 C 
HETATM   13  C16 UNL     1      -8.710  55.361  12.352  1.00  0.00     0.204 C 
HETATM   14  O4  UNL     1      -7.813  55.762  11.375  1.00  0.00    -0.358 OA
HETATM   15  C17 UNL     1      -6.774  54.843  11.300  1.00  0.00     0.272 C 
ENDROOT
BRANCH   1  16
HETATM   16  C4  UNL     1      -2.991  52.009  13.011  1.00  0.00     0.043 C 
BRANCH  16  17
HETATM   17  C3  UNL     1      -2.079  53.221  12.716  1.00  0.00     0.003 C 
BRANCH  17  18
HETATM   18  C2  UNL     1      -1.288  52.832  11.474  1.00  0.00    -0.004 C 
HETATM   19  C1  UNL     1      -1.134  51.344  11.349  1.00  0.00     0.005 C 
ENDBRANCH  17  18
ENDBRANCH  16  17
ENDBRANCH   1  16
BRANCH   1  20
HETATM   20  O1  UNL     1      -4.642  52.212  14.600  1.00  0.00    -0.385 OA
ATOM     21  H1  UNL     1      -5.239  52.901  14.867  1.00  0.00     0.211 HD
ENDBRANCH   1  20
BRANCH   9  22
HETATM   22  O2  UNL     1      -4.267  49.830  12.190  1.00  0.00    -0.360 OA
ATOM     23  H2  UNL     1      -4.105  49.343  12.990  1.00  0.00     0.217 HD
ENDBRANCH   9  22
BRANCH  15  24
HETATM   24  O5  UNL     1      -6.998  54.043  10.184  1.00  0.00    -0.370 OA
ATOM     25  H5  UNL     1      -6.322  54.240   9.546  1.00  0.00     0.212 HD
ENDBRANCH  15  24
TORSDOF 6
ENDMDL
