MODEL 1
REMARK VINA RESULT: -7.189661952      0.000      0.000
REMARK  5 active torsions:
REMARK  status: ('A' for Active; 'I' for Inactive)
REMARK    1  A    between atoms: C3_5  and  C4_6 
REMARK    2  A    between atoms: C12_15  and  C13_16 
REMARK    3  A    between atoms: C13_16  and  O1_17 
REMARK    4  A    between atoms: C13_16  and  C14_19 
REMARK    5  A    between atoms: C14_19  and  N3_20 
ROOT
HETATM    1  C4  UNL     1      -6.787  52.177  12.376  1.00  0.00     0.241 C 
HETATM    2  C5  UNL     1      -5.839  51.019  12.625  1.00  0.00     0.076 C 
HETATM    3  C6  UNL     1      -4.730  51.574  13.517  1.00  0.00     0.155 C 
HETATM    4  C7  UNL     1      -3.434  51.287  13.067  1.00  0.00    -0.158 C 
HETATM    5  C8  UNL     1      -2.098  51.150  12.631  1.00  0.00     0.086 C 
HETATM    6  C9  UNL     1      -1.582  52.603  12.352  1.00  0.00     0.040 C 
HETATM    7  C10 UNL     1      -2.427  53.643  13.082  1.00  0.00    -0.009 C 
HETATM    8  C11 UNL     1      -3.859  53.762  12.903  1.00  0.00     0.085 C 
HETATM    9  N2  UNL     1      -4.846  53.067  13.584  1.00  0.00    -0.346 N 
HETATM   10  C12 UNL     1      -5.997  53.535  14.118  1.00  0.00     0.318 C 
HETATM   11  N4  UNL     1      -7.125  52.685  13.681  1.00  0.00    -0.042 N 
ATOM     12  H41 UNL     1      -7.357  51.950  14.350  1.00  0.00     0.280 HD
ATOM     13  H42 UNL     1      -8.023  53.168  13.702  1.00  0.00     0.280 HD
ENDROOT
BRANCH  10  14
HETATM   14  C13 UNL     1      -6.445  54.928  14.082  1.00  0.00     0.193 C 
BRANCH  14  15
HETATM   15  O1  UNL     1      -6.490  55.648  15.248  1.00  0.00    -0.390 OA
ATOM     16  H1  UNL     1      -6.877  56.516  15.243  1.00  0.00     0.210 HD
ENDBRANCH  14  15
BRANCH  14  17
HETATM   17  C14 UNL     1      -7.678  55.240  13.269  1.00  0.00     0.265 C 
BRANCH  17  18
HETATM   18  N3  UNL     1      -7.349  55.789  11.968  1.00  0.00    -0.077 N 
ATOM     19  H33 UNL     1      -7.894  55.342  11.231  1.00  0.00     0.274 HD
ATOM     20  H32 UNL     1      -7.696  56.743  11.871  1.00  0.00     0.274 HD
ATOM     21  H31 UNL     1      -6.350  55.737  11.771  1.00  0.00     0.274 HD
ENDBRANCH  17  18
ENDBRANCH  14  17
ENDBRANCH  10  14
BRANCH   1  22
HETATM   22  C3  UNL     1      -8.045  51.672  11.688  1.00  0.00     0.047 A 
HETATM   23  N1  UNL     1      -8.148  50.416  11.340  1.00  0.00    -0.355 N 
HETATM   24  C2  UNL     1      -9.244  49.993  10.744  1.00  0.00     0.047 A 
ATOM     25  H1  UNL     1      -7.383  49.768  11.527  1.00  0.00     0.166 HD
HETATM   26  C1  UNL     1      -9.526  48.586  10.279  1.00  0.00     0.076 C 
HETATM   27  S1  UNL     1     -10.193  51.405  10.656  1.00  0.00    -0.087 SA
HETATM   28  C15 UNL     1      -9.107  52.488  11.405  1.00  0.00     0.078 A 
ENDBRANCH   1  22
TORSDOF 5
ENDMDL
MODEL 2
REMARK VINA RESULT: -7.117322575      2.733      3.525
REMARK  5 active torsions:
REMARK  status: ('A' for Active; 'I' for Inactive)
REMARK    1  A    between atoms: C3_5  and  C4_6 
REMARK    2  A    between atoms: C12_15  and  C13_16 
REMARK    3  A    between atoms: C13_16  and  O1_17 
REMARK    4  A    between atoms: C13_16  and  C14_19 
REMARK    5  A    between atoms: C14_19  and  N3_20 
ROOT
HETATM    1  C4  UNL     1      -6.519  52.975  11.071  1.00  0.00     0.241 C 
HETATM    2  C5  UNL     1      -6.737  51.558  10.576  1.00  0.00     0.076 C 
HETATM    3  C6  UNL     1      -6.299  50.645  11.720  1.00  0.00     0.155 C 
HETATM    4  C7  UNL     1      -5.422  49.622  11.333  1.00  0.00    -0.158 C 
HETATM    5  C8  UNL     1      -4.448  48.636  11.063  1.00  0.00     0.086 C 
HETATM    6  C9  UNL     1      -3.179  49.043  11.887  1.00  0.00     0.040 C 
HETATM    7  C10 UNL     1      -3.539  49.986  13.032  1.00  0.00    -0.009 C 
HETATM    8  C11 UNL     1      -4.219  51.248  12.830  1.00  0.00     0.085 C 
HETATM    9  N2  UNL     1      -5.588  51.458  12.759  1.00  0.00    -0.346 N 
HETATM   10  C12 UNL     1      -6.328  52.426  13.344  1.00  0.00     0.318 C 
HETATM   11  N4  UNL     1      -7.207  53.052  12.333  1.00  0.00    -0.042 N 
ATOM     12  H41 UNL     1      -8.142  52.644  12.306  1.00  0.00     0.280 HD
ATOM     13  H42 UNL     1      -7.488  54.002  12.579  1.00  0.00     0.280 HD
ENDROOT
BRANCH  10  14
HETATM   14  C13 UNL     1      -5.808  53.489  14.205  1.00  0.00     0.193 C 
BRANCH  14  15
HETATM   15  O1  UNL     1      -5.584  53.227  15.532  1.00  0.00    -0.390 OA
ATOM     16  H1  UNL     1      -4.745  52.870  15.801  1.00  0.00     0.210 HD
ENDBRANCH  14  15
BRANCH  14  17
HETATM   17  C14 UNL     1      -6.436  54.856  14.078  1.00  0.00     0.265 C 
BRANCH  17  18
HETATM   18  N3  UNL     1      -5.476  55.861  13.665  1.00  0.00    -0.077 N 
ATOM     19  H33 UNL     1      -4.724  55.957  14.348  1.00  0.00     0.274 HD
ATOM     20  H32 UNL     1      -4.928  55.541  12.866  1.00  0.00     0.274 HD
ATOM     21  H31 UNL     1      -5.919  56.759  13.474  1.00  0.00     0.274 HD
ENDBRANCH  17  18
ENDBRANCH  14  17
ENDBRANCH  10  14
BRANCH   1  22
HETATM   22  C3  UNL     1      -7.138  53.961  10.095  1.00  0.00     0.047 A 
HETATM   23  N1  UNL     1      -6.682  54.056   8.873  1.00  0.00    -0.355 N 
HETATM   24  C2  UNL     1      -7.229  54.916   8.038  1.00  0.00     0.047 A 
ATOM     25  H1  UNL     1      -5.906  53.469   8.569  1.00  0.00     0.166 HD
HETATM   26  C1  UNL     1      -6.828  55.152   6.603  1.00  0.00     0.076 C 
HETATM   27  S1  UNL     1      -8.445  55.640   8.987  1.00  0.00    -0.087 SA
HETATM   28  C15 UNL     1      -8.180  54.781  10.438  1.00  0.00     0.078 A 
ENDBRANCH   1  22
TORSDOF 5
ENDMDL
MODEL 3
REMARK VINA RESULT: -7.084189579      0.868      1.339
REMARK  5 active torsions:
REMARK  status: ('A' for Active; 'I' for Inactive)
REMARK    1  A    between atoms: C3_5  and  C4_6 
REMARK    2  A    between atoms: C12_15  and  C13_16 
REMARK    3  A    between atoms: C13_16  and  O1_17 
REMARK    4  A    between atoms: C13_16  and  C14_19 
REMARK    5  A    between atoms: C14_19  and  N3_20 
ROOT
HETATM    1  C4  UNL     1      -6.782  52.157  12.271  1.00  0.00     0.241 C 
HETATM    2  C5  UNL     1      -5.843  50.998  12.545  1.00  0.00     0.076 C 
HETATM    3  C6  UNL     1      -4.767  51.547  13.481  1.00  0.00     0.155 C 
HETATM    4  C7  UNL     1      -3.456  51.263  13.076  1.00  0.00    -0.158 C 
HETATM    5  C8  UNL     1      -2.104  51.130  12.688  1.00  0.00     0.086 C 
HETATM    6  C9  UNL     1      -1.580  52.585  12.438  1.00  0.00     0.040 C 
HETATM    7  C10 UNL     1      -2.452  53.619  13.145  1.00  0.00    -0.009 C 
HETATM    8  C11 UNL     1      -3.876  53.739  12.915  1.00  0.00     0.085 C 
HETATM    9  N2  UNL     1      -4.887  53.038  13.555  1.00  0.00    -0.346 N 
HETATM   10  C12 UNL     1      -6.056  53.502  14.051  1.00  0.00     0.318 C 
HETATM   11  N4  UNL     1      -7.168  52.655  13.566  1.00  0.00    -0.042 N 
ATOM     12  H41 UNL     1      -7.423  51.915  14.221  1.00  0.00     0.280 HD
ATOM     13  H42 UNL     1      -8.066  53.138  13.558  1.00  0.00     0.280 HD
ENDROOT
BRANCH  10  14
HETATM   14  C13 UNL     1      -6.504  54.895  14.009  1.00  0.00     0.193 C 
BRANCH  14  15
HETATM   15  O1  UNL     1      -6.535  55.624  15.169  1.00  0.00    -0.390 OA
ATOM     16  H1  UNL     1      -6.964  56.472  15.174  1.00  0.00     0.210 HD
ENDBRANCH  14  15
BRANCH  14  17
HETATM   17  C14 UNL     1      -7.746  55.202  13.208  1.00  0.00     0.265 C 
BRANCH  17  18
HETATM   18  N3  UNL     1      -7.435  55.818  11.933  1.00  0.00    -0.077 N 
ATOM     19  H33 UNL     1      -8.096  55.529  11.212  1.00  0.00     0.274 HD
ATOM     20  H32 UNL     1      -7.638  56.818  11.947  1.00  0.00     0.274 HD
ATOM     21  H31 UNL     1      -6.473  55.641  11.646  1.00  0.00     0.274 HD
ENDBRANCH  17  18
ENDBRANCH  14  17
ENDBRANCH  10  14
BRANCH   1  22
HETATM   22  C3  UNL     1      -8.014  51.657  11.534  1.00  0.00     0.047 A 
HETATM   23  N1  UNL     1      -9.042  52.445  11.357  1.00  0.00    -0.355 N 
HETATM   24  C2  UNL     1     -10.103  51.997  10.716  1.00  0.00     0.047 A 
ATOM     25  H1  UNL     1      -9.024  53.400  11.713  1.00  0.00     0.166 HD
HETATM   26  C1  UNL     1     -11.367  52.768  10.426  1.00  0.00     0.076 C 
HETATM   27  S1  UNL     1      -9.664  50.397  10.333  1.00  0.00    -0.087 SA
HETATM   28  C15 UNL     1      -8.106  50.387  11.031  1.00  0.00     0.078 A 
ENDBRANCH   1  22
TORSDOF 5
ENDMDL
MODEL 4
REMARK VINA RESULT: -7.016989130      2.446      4.197
REMARK  5 active torsions:
REMARK  status: ('A' for Active; 'I' for Inactive)
REMARK    1  A    between atoms: C3_5  and  C4_6 
REMARK    2  A    between atoms: C12_15  and  C13_16 
REMARK    3  A    between atoms: C13_16  and  O1_17 
REMARK    4  A    between atoms: C13_16  and  C14_19 
REMARK    5  A    between atoms: C14_19  and  N3_20 
ROOT
HETATM    1  C4  UNL     1      -7.790  53.727  11.546  1.00  0.00     0.241 C 
HETATM    2  C5  UNL     1      -8.403  52.442  11.022  1.00  0.00     0.076 C 
HETATM    3  C6  UNL     1      -7.785  51.317  11.851  1.00  0.00     0.155 C 
HETATM    4  C7  UNL     1      -7.276  50.257  11.089  1.00  0.00    -0.158 C 
HETATM    5  C8  UNL     1      -6.631  49.202  10.405  1.00  0.00     0.086 C 
HETATM    6  C9  UNL     1      -5.113  49.308  10.779  1.00  0.00     0.040 C 
HETATM    7  C10 UNL     1      -4.911  50.107  12.063  1.00  0.00    -0.009 C 
HETATM    8  C11 UNL     1      -5.386  51.464  12.230  1.00  0.00     0.085 C 
HETATM    9  N2  UNL     1      -6.644  51.862  12.655  1.00  0.00    -0.346 N 
HETATM   10  C12 UNL     1      -6.972  52.822  13.550  1.00  0.00     0.318 C 
HETATM   11  N4  UNL     1      -8.007  53.704  12.969  1.00  0.00    -0.042 N 
ATOM     12  H41 UNL     1      -8.957  53.432  13.226  1.00  0.00     0.280 HD
ATOM     13  H42 UNL     1      -8.021  54.635  13.387  1.00  0.00     0.280 HD
ENDROOT
BRANCH  10  14
HETATM   14  C13 UNL     1      -6.023  53.664  14.278  1.00  0.00     0.193 C 
BRANCH  14  15
HETATM   15  O1  UNL     1      -5.561  53.251  15.502  1.00  0.00    -0.390 OA
ATOM     16  H1  UNL     1      -4.635  53.071  15.612  1.00  0.00     0.210 HD
ENDBRANCH  14  15
BRANCH  14  17
HETATM   17  C14 UNL     1      -6.314  55.144  14.343  1.00  0.00     0.265 C 
BRANCH  17  18
HETATM   18  N3  UNL     1      -5.301  55.929  13.665  1.00  0.00    -0.077 N 
ATOM     19  H33 UNL     1      -4.406  55.877  14.152  1.00  0.00     0.274 HD
ATOM     20  H32 UNL     1      -5.029  55.498  12.781  1.00  0.00     0.274 HD
ATOM     21  H31 UNL     1      -5.592  56.897  13.530  1.00  0.00     0.274 HD
ENDBRANCH  17  18
ENDBRANCH  14  17
ENDBRANCH  10  14
BRANCH   1  22
HETATM   22  C3  UNL     1      -8.509  54.922  10.943  1.00  0.00     0.047 A 
HETATM   23  N1  UNL     1      -9.339  55.627  11.667  1.00  0.00    -0.355 N 
HETATM   24  C2  UNL     1      -9.955  56.661  11.130  1.00  0.00     0.047 A 
ATOM     25  H1  UNL     1      -9.509  55.378  12.640  1.00  0.00     0.166 HD
HETATM   26  C1  UNL     1     -10.937  57.576  11.819  1.00  0.00     0.076 C 
HETATM   27  S1  UNL     1      -9.360  56.667   9.534  1.00  0.00    -0.087 SA
HETATM   28  C15 UNL     1      -8.328  55.311   9.643  1.00  0.00     0.078 A 
ENDBRANCH   1  22
TORSDOF 5
ENDMDL
MODEL 5
REMARK VINA RESULT: -6.945029706      2.644      3.964
REMARK  5 active torsions:
REMARK  status: ('A' for Active; 'I' for Inactive)
REMARK    1  A    between atoms: C3_5  and  C4_6 
REMARK    2  A    between atoms: C12_15  and  C13_16 
REMARK    3  A    between atoms: C13_16  and  O1_17 
REMARK    4  A    between atoms: C13_16  and  C14_19 
REMARK    5  A    between atoms: C14_19  and  N3_20 
ROOT
HETATM    1  C4  UNL     1      -7.542  53.663  11.410  1.00  0.00     0.241 C 
HETATM    2  C5  UNL     1      -8.114  52.367  10.868  1.00  0.00     0.076 C 
HETATM    3  C6  UNL     1      -7.561  51.261  11.765  1.00  0.00     0.155 C 
HETATM    4  C7  UNL     1      -6.995  50.185  11.067  1.00  0.00    -0.158 C 
HETATM    5  C8  UNL     1      -6.300  49.118  10.457  1.00  0.00     0.086 C 
HETATM    6  C9  UNL     1      -4.815  49.234  10.942  1.00  0.00     0.040 C 
HETATM    7  C10 UNL     1      -4.711  50.060  12.221  1.00  0.00    -0.009 C 
HETATM    8  C11 UNL     1      -5.197  51.420  12.323  1.00  0.00     0.085 C 
HETATM    9  N2  UNL     1      -6.484  51.825  12.642  1.00  0.00    -0.346 N 
HETATM   10  C12 UNL     1      -6.879  52.802  13.489  1.00  0.00     0.318 C 
HETATM   11  N4  UNL     1      -7.867  53.670  12.813  1.00  0.00    -0.042 N 
ATOM     12  H41 UNL     1      -8.833  53.402  13.003  1.00  0.00     0.280 HD
ATOM     13  H42 UNL     1      -7.913  54.609  13.208  1.00  0.00     0.280 HD
ENDROOT
BRANCH  10  14
HETATM   14  C13 UNL     1      -5.988  53.661  14.270  1.00  0.00     0.193 C 
BRANCH  14  15
HETATM   15  O1  UNL     1      -5.572  53.246  15.508  1.00  0.00    -0.390 OA
ATOM     16  H1  UNL     1      -5.361  53.895  16.169  1.00  0.00     0.210 HD
ENDBRANCH  14  15
BRANCH  14  17
HETATM   17  C14 UNL     1      -6.322  55.131  14.336  1.00  0.00     0.265 C 
BRANCH  17  18
HETATM   18  N3  UNL     1      -5.326  55.948  13.671  1.00  0.00    -0.077 N 
ATOM     19  H33 UNL     1      -4.447  55.441  13.559  1.00  0.00     0.274 HD
ATOM     20  H32 UNL     1      -5.558  56.087  12.688  1.00  0.00     0.274 HD
ATOM     21  H31 UNL     1      -5.180  56.838  14.146  1.00  0.00     0.274 HD
ENDBRANCH  17  18
ENDBRANCH  14  17
ENDBRANCH  10  14
BRANCH   1  22
HETATM   22  C3  UNL     1      -8.213  54.845  10.729  1.00  0.00     0.047 A 
HETATM   23  N1  UNL     1      -8.276  54.906   9.424  1.00  0.00    -0.355 N 
HETATM   24  C2  UNL     1      -8.861  55.937   8.848  1.00  0.00     0.047 A 
ATOM     25  H1  UNL     1      -7.875  54.161   8.856  1.00  0.00     0.166 HD
HETATM   26  C1  UNL     1      -9.021  56.164   7.366  1.00  0.00     0.076 C 
HETATM   27  S1  UNL     1      -9.354  56.881  10.178  1.00  0.00    -0.087 SA
HETATM   28  C15 UNL     1      -8.771  55.880  11.431  1.00  0.00     0.078 A 
ENDBRANCH   1  22
TORSDOF 5
ENDMDL
