MODEL 1
REMARK VINA RESULT: -7.831923435      0.000      0.000
REMARK  6 active torsions:
REMARK  status: ('A' for Active; 'I' for Inactive)
REMARK    1  A    between atoms: C4_5  and  C5_6 
REMARK    2  A    between atoms: C6_7  and  C7_8 
REMARK    3  A    between atoms: C7_8  and  C9_10 
REMARK    4  A    between atoms: C15_17  and  O2_18 
REMARK    5  A    between atoms: C16_20  and  O3_21 
REMARK    6  A    between atoms: C17_23  and  O4_24 
ROOT
HETATM    1  C1  UNL     1      -0.833  50.010  10.918  1.00  0.00     0.060 C 
HETATM    2  C2  UNL     1      -1.763  48.926  11.356  1.00  0.00     0.018 C 
HETATM    3  C3  UNL     1      -1.593  47.620  10.807  1.00  0.00     0.094 C 
HETATM    4  N1  UNL     1      -1.473  46.538  10.359  1.00  0.00    -0.192 NA
HETATM    5  C4  UNL     1      -2.730  49.147  12.230  1.00  0.00     0.017 C 
ENDROOT
BRANCH   5   6
HETATM    6  C5  UNL     1      -2.957  50.479  12.833  1.00  0.00    -0.002 C 
HETATM    7  C6  UNL     1      -4.148  51.044  12.798  1.00  0.00    -0.022 C 
BRANCH   7   8
HETATM    8  C7  UNL     1      -4.357  52.375  13.407  1.00  0.00     0.011 C 
HETATM    9  C8  UNL     1      -3.423  53.349  12.768  1.00  0.00     0.015 C 
BRANCH   8  10
HETATM   10  C9  UNL     1      -5.823  52.745  13.299  1.00  0.00     0.027 C 
HETATM   11  C10 UNL     1      -6.236  53.243  11.983  1.00  0.00     0.048 C 
HETATM   12  C11 UNL     1      -7.321  54.253  11.906  1.00  0.00     0.089 C 
HETATM   13  C12 UNL     1      -7.289  55.013  10.593  1.00  0.00     0.043 C 
HETATM   14  O1  UNL     1      -8.546  53.599  11.782  1.00  0.00    -0.377 OA
HETATM   15  C15 UNL     1      -7.400  55.218  13.038  1.00  0.00     0.183 C 
HETATM   16  C13 UNL     1      -7.712  53.930   9.621  1.00  0.00     0.029 C 
HETATM   17  C14 UNL     1      -8.619  53.084  10.489  1.00  0.00     0.169 C 
HETATM   18  C16 UNL     1      -6.366  54.986  14.109  1.00  0.00     0.178 C 
HETATM   19  C17 UNL     1      -6.239  53.559  14.497  1.00  0.00     0.154 C 
BRANCH  15  20
HETATM   20  O2  UNL     1      -8.656  55.182  13.643  1.00  0.00    -0.390 OA
ATOM     21  H2  UNL     1      -9.331  55.489  13.051  1.00  0.00     0.210 HD
ENDBRANCH  15  20
BRANCH  18  22
HETATM   22  O3  UNL     1      -6.822  55.688  15.250  1.00  0.00    -0.390 OA
ATOM     23  H3  UNL     1      -6.177  56.365  15.417  1.00  0.00     0.210 HD
ENDBRANCH  18  22
BRANCH  19  24
HETATM   24  O4  UNL     1      -5.248  53.442  15.477  1.00  0.00    -0.393 OA
ATOM     25  H4  UNL     1      -4.621  54.145  15.354  1.00  0.00     0.210 HD
ENDBRANCH  19  24
ENDBRANCH   8  10
ENDBRANCH   7   8
ENDBRANCH   5   6
TORSDOF 6
ENDMDL
MODEL 2
REMARK VINA RESULT: -7.783368716      1.182      1.182
REMARK  6 active torsions:
REMARK  status: ('A' for Active; 'I' for Inactive)
REMARK    1  A    between atoms: C4_5  and  C5_6 
REMARK    2  A    between atoms: C6_7  and  C7_8 
REMARK    3  A    between atoms: C7_8  and  C9_10 
REMARK    4  A    between atoms: C15_17  and  O2_18 
REMARK    5  A    between atoms: C16_20  and  O3_21 
REMARK    6  A    between atoms: C17_23  and  O4_24 
ROOT
HETATM    1  C1  UNL     1      -2.975  50.008   9.603  1.00  0.00     0.060 C 
HETATM    2  C2  UNL     1      -3.487  48.786  10.290  1.00  0.00     0.018 C 
HETATM    3  C3  UNL     1      -3.518  47.558   9.563  1.00  0.00     0.094 C 
HETATM    4  N1  UNL     1      -3.558  46.538   8.976  1.00  0.00    -0.192 NA
HETATM    5  C4  UNL     1      -3.909  48.813  11.543  1.00  0.00     0.017 C 
ENDROOT
BRANCH   5   6
HETATM    6  C5  UNL     1      -3.902  50.055  12.348  1.00  0.00    -0.002 C 
HETATM    7  C6  UNL     1      -5.018  50.720  12.574  1.00  0.00    -0.022 C 
BRANCH   7   8
HETATM    8  C7  UNL     1      -4.993  51.959  13.382  1.00  0.00     0.011 C 
HETATM    9  C8  UNL     1      -3.933  52.863  12.846  1.00  0.00     0.015 C 
BRANCH   8  10
HETATM   10  C9  UNL     1      -6.383  52.564  13.406  1.00  0.00     0.027 C 
HETATM   11  C10 UNL     1      -6.855  53.071  12.114  1.00  0.00     0.048 C 
HETATM   12  C11 UNL     1      -7.764  54.243  12.091  1.00  0.00     0.089 C 
HETATM   13  C12 UNL     1      -7.757  54.935  10.741  1.00  0.00     0.043 C 
HETATM   14  O1  UNL     1      -9.085  53.799  12.133  1.00  0.00    -0.377 OA
HETATM   15  C15 UNL     1      -7.559  55.252  13.168  1.00  0.00     0.183 C 
HETATM   16  C13 UNL     1      -8.455  53.900   9.882  1.00  0.00     0.029 C 
HETATM   17  C14 UNL     1      -9.384  53.252  10.886  1.00  0.00     0.169 C 
HETATM   18  C16 UNL     1      -6.463  54.894  14.138  1.00  0.00     0.178 C 
HETATM   19  C17 UNL     1      -6.526  53.482  14.592  1.00  0.00     0.154 C 
BRANCH  15  20
HETATM   20  O2  UNL     1      -8.729  55.450  13.902  1.00  0.00    -0.390 OA
ATOM     21  H2  UNL     1      -9.497  55.382  13.347  1.00  0.00     0.210 HD
ENDBRANCH  15  20
BRANCH  18  22
HETATM   22  O3  UNL     1      -6.669  55.707  15.278  1.00  0.00    -0.390 OA
ATOM     23  H3  UNL     1      -6.032  55.422  15.922  1.00  0.00     0.210 HD
ENDBRANCH  18  22
BRANCH  19  24
HETATM   24  O4  UNL     1      -5.463  53.241  15.468  1.00  0.00    -0.393 OA
ATOM     25  H4  UNL     1      -4.661  53.192  14.962  1.00  0.00     0.210 HD
ENDBRANCH  19  24
ENDBRANCH   8  10
ENDBRANCH   7   8
ENDBRANCH   5   6
TORSDOF 6
ENDMDL
MODEL 3
REMARK VINA RESULT: -7.619133598      1.874      2.081
REMARK  6 active torsions:
REMARK  status: ('A' for Active; 'I' for Inactive)
REMARK    1  A    between atoms: C4_5  and  C5_6 
REMARK    2  A    between atoms: C6_7  and  C7_8 
REMARK    3  A    between atoms: C7_8  and  C9_10 
REMARK    4  A    between atoms: C15_17  and  O2_18 
REMARK    5  A    between atoms: C16_20  and  O3_21 
REMARK    6  A    between atoms: C17_23  and  O4_24 
ROOT
HETATM    1  C1  UNL     1      -6.128  50.004   9.222  1.00  0.00     0.060 C 
HETATM    2  C2  UNL     1      -5.312  48.914   9.834  1.00  0.00     0.018 C 
HETATM    3  C3  UNL     1      -5.350  47.617   9.239  1.00  0.00     0.094 C 
HETATM    4  N1  UNL     1      -5.376  46.539   8.766  1.00  0.00    -0.192 NA
HETATM    5  C4  UNL     1      -4.563  49.119  10.904  1.00  0.00     0.017 C 
ENDROOT
BRANCH   5   6
HETATM    6  C5  UNL     1      -4.482  50.440  11.566  1.00  0.00    -0.002 C 
HETATM    7  C6  UNL     1      -5.100  50.662  12.711  1.00  0.00    -0.022 C 
BRANCH   7   8
HETATM    8  C7  UNL     1      -5.007  51.989  13.358  1.00  0.00     0.011 C 
HETATM    9  C8  UNL     1      -3.978  52.803  12.646  1.00  0.00     0.015 C 
BRANCH   8  10
HETATM   10  C9  UNL     1      -6.386  52.617  13.402  1.00  0.00     0.027 C 
HETATM   11  C10 UNL     1      -6.861  53.147  12.121  1.00  0.00     0.048 C 
HETATM   12  C11 UNL     1      -7.750  54.335  12.121  1.00  0.00     0.089 C 
HETATM   13  C12 UNL     1      -7.743  55.043  10.779  1.00  0.00     0.043 C 
HETATM   14  O1  UNL     1      -9.078  53.913  12.169  1.00  0.00    -0.377 OA
HETATM   15  C15 UNL     1      -7.519  55.327  13.208  1.00  0.00     0.183 C 
HETATM   16  C13 UNL     1      -8.467  54.032   9.914  1.00  0.00     0.029 C 
HETATM   17  C14 UNL     1      -9.397  53.387  10.918  1.00  0.00     0.169 C 
HETATM   18  C16 UNL     1      -6.420  54.939  14.163  1.00  0.00     0.178 C 
HETATM   19  C17 UNL     1      -6.503  53.522  14.600  1.00  0.00     0.154 C 
BRANCH  15  20
HETATM   20  O2  UNL     1      -8.678  55.536  13.954  1.00  0.00    -0.390 OA
ATOM     21  H2  UNL     1      -8.481  55.611  14.880  1.00  0.00     0.210 HD
ENDBRANCH  15  20
BRANCH  18  22
HETATM   22  O3  UNL     1      -6.603  55.741  15.315  1.00  0.00    -0.390 OA
ATOM     23  H3  UNL     1      -6.974  55.169  15.977  1.00  0.00     0.210 HD
ENDBRANCH  18  22
BRANCH  19  24
HETATM   24  O4  UNL     1      -5.437  53.252  15.464  1.00  0.00    -0.393 OA
ATOM     25  H4  UNL     1      -4.642  53.185  14.949  1.00  0.00     0.210 HD
ENDBRANCH  19  24
ENDBRANCH   8  10
ENDBRANCH   7   8
ENDBRANCH   5   6
TORSDOF 6
ENDMDL
MODEL 4
REMARK VINA RESULT: -7.215274542      3.414      6.274
REMARK  6 active torsions:
REMARK  status: ('A' for Active; 'I' for Inactive)
REMARK    1  A    between atoms: C4_5  and  C5_6 
REMARK    2  A    between atoms: C6_7  and  C7_8 
REMARK    3  A    between atoms: C7_8  and  C9_10 
REMARK    4  A    between atoms: C15_17  and  O2_18 
REMARK    5  A    between atoms: C16_20  and  O3_21 
REMARK    6  A    between atoms: C17_23  and  O4_24 
ROOT
HETATM    1  C1  UNL     1      -8.484  55.671   5.964  1.00  0.00     0.060 C 
HETATM    2  C2  UNL     1      -7.091  55.139   5.875  1.00  0.00     0.018 C 
HETATM    3  C3  UNL     1      -6.441  55.141   4.605  1.00  0.00     0.094 C 
HETATM    4  N1  UNL     1      -5.892  55.128   3.563  1.00  0.00    -0.192 NA
HETATM    5  C4  UNL     1      -6.453  54.672   6.934  1.00  0.00     0.017 C 
ENDROOT
BRANCH   5   6
HETATM    6  C5  UNL     1      -7.073  54.643   8.277  1.00  0.00    -0.002 C 
HETATM    7  C6  UNL     1      -7.378  53.498   8.857  1.00  0.00    -0.022 C 
BRANCH   7   8
HETATM    8  C7  UNL     1      -7.997  53.489  10.201  1.00  0.00     0.011 C 
HETATM    9  C8  UNL     1      -8.260  52.075  10.600  1.00  0.00     0.015 C 
BRANCH   8  10
HETATM   10  C9  UNL     1      -7.110  54.259  11.160  1.00  0.00     0.027 C 
HETATM   11  C10 UNL     1      -6.137  53.440  11.890  1.00  0.00     0.048 C 
HETATM   12  C11 UNL     1      -5.748  53.842  13.264  1.00  0.00     0.089 C 
HETATM   13  C12 UNL     1      -5.160  52.681  14.044  1.00  0.00     0.043 C 
HETATM   14  O1  UNL     1      -4.638  54.683  13.198  1.00  0.00    -0.377 OA
HETATM   15  C15 UNL     1      -6.807  54.502  14.078  1.00  0.00     0.183 C 
HETATM   16  C13 UNL     1      -3.842  52.486  13.322  1.00  0.00     0.029 C 
HETATM   17  C14 UNL     1      -3.535  53.897  12.868  1.00  0.00     0.169 C 
HETATM   18  C16 UNL     1      -8.112  54.684  13.348  1.00  0.00     0.178 C 
HETATM   19  C17 UNL     1      -7.940  55.217  11.973  1.00  0.00     0.154 C 
BRANCH  15  20
HETATM   20  O2  UNL     1      -6.391  55.756  14.525  1.00  0.00    -0.390 OA
ATOM     21  H2  UNL     1      -6.826  55.994  15.334  1.00  0.00     0.210 HD
ENDBRANCH  15  20
BRANCH  18  22
HETATM   22  O3  UNL     1      -8.839  55.652  14.082  1.00  0.00    -0.390 OA
ATOM     23  H3  UNL     1      -8.196  56.274  14.403  1.00  0.00     0.210 HD
ENDBRANCH  18  22
BRANCH  19  24
HETATM   24  O4  UNL     1      -9.198  55.332  11.372  1.00  0.00    -0.393 OA
ATOM     25  H4  UNL     1      -9.120  55.904  10.618  1.00  0.00     0.210 HD
ENDBRANCH  19  24
ENDBRANCH   8  10
ENDBRANCH   7   8
ENDBRANCH   5   6
TORSDOF 6
ENDMDL
MODEL 5
REMARK VINA RESULT: -7.177883986      3.406      6.439
REMARK  6 active torsions:
REMARK  status: ('A' for Active; 'I' for Inactive)
REMARK    1  A    between atoms: C4_5  and  C5_6 
REMARK    2  A    between atoms: C6_7  and  C7_8 
REMARK    3  A    between atoms: C7_8  and  C9_10 
REMARK    4  A    between atoms: C15_17  and  O2_18 
REMARK    5  A    between atoms: C16_20  and  O3_21 
REMARK    6  A    between atoms: C17_23  and  O4_24 
ROOT
HETATM    1  C1  UNL     1      -6.730  55.170   7.806  1.00  0.00     0.060 C 
HETATM    2  C2  UNL     1      -8.148  55.602   7.634  1.00  0.00     0.018 C 
HETATM    3  C3  UNL     1      -8.573  56.049   6.347  1.00  0.00     0.094 C 
HETATM    4  N1  UNL     1      -8.940  56.428   5.294  1.00  0.00    -0.192 NA
HETATM    5  C4  UNL     1      -9.012  55.580   8.635  1.00  0.00     0.017 C 
ENDROOT
BRANCH   5   6
HETATM    6  C5  UNL     1      -8.631  55.128   9.992  1.00  0.00    -0.002 C 
HETATM    7  C6  UNL     1      -9.069  53.978  10.469  1.00  0.00    -0.022 C 
BRANCH   7   8
HETATM    8  C7  UNL     1      -8.678  53.541  11.826  1.00  0.00     0.011 C 
HETATM    9  C8  UNL     1      -9.227  52.175  12.070  1.00  0.00     0.015 C 
BRANCH   8  10
HETATM   10  C9  UNL     1      -7.172  53.649  11.967  1.00  0.00     0.027 C 
HETATM   11  C10 UNL     1      -6.450  52.381  11.825  1.00  0.00     0.048 C 
HETATM   12  C11 UNL     1      -5.197  52.179  12.594  1.00  0.00     0.089 C 
HETATM   13  C12 UNL     1      -4.855  50.707  12.734  1.00  0.00     0.043 C 
HETATM   14  O1  UNL     1      -4.115  52.611  11.828  1.00  0.00    -0.377 OA
HETATM   15  C15 UNL     1      -5.136  52.834  13.930  1.00  0.00     0.183 C 
HETATM   16  C13 UNL     1      -4.481  50.359  11.308  1.00  0.00     0.029 C 
HETATM   17  C14 UNL     1      -3.916  51.674  10.815  1.00  0.00     0.169 C 
HETATM   18  C16 UNL     1      -6.365  53.634  14.274  1.00  0.00     0.178 C 
HETATM   19  C17 UNL     1      -6.825  54.501  13.160  1.00  0.00     0.154 C 
BRANCH  15  20
HETATM   20  O2  UNL     1      -4.034  53.685  14.024  1.00  0.00    -0.390 OA
ATOM     21  H2  UNL     1      -4.162  54.339  14.701  1.00  0.00     0.210 HD
ENDBRANCH  15  20
BRANCH  18  22
HETATM   22  O3  UNL     1      -5.991  54.488  15.338  1.00  0.00    -0.390 OA
ATOM     23  H3  UNL     1      -6.779  54.634  15.847  1.00  0.00     0.210 HD
ENDBRANCH  18  22
BRANCH  19  24
HETATM   24  O4  UNL     1      -7.976  55.185  13.565  1.00  0.00    -0.393 OA
ATOM     25  H4  UNL     1      -8.330  54.750  14.331  1.00  0.00     0.210 HD
ENDBRANCH  19  24
ENDBRANCH   8  10
ENDBRANCH   7   8
ENDBRANCH   5   6
TORSDOF 6
ENDMDL
