MODEL 1
REMARK VINA RESULT: -6.940288881      0.000      0.000
REMARK  6 active torsions:
REMARK  status: ('A' for Active; 'I' for Inactive)
REMARK    1  A    between atoms: C3_4  and  N1_5 
REMARK    2  A    between atoms: N1_5  and  C4_7 
REMARK    3  A    between atoms: C7_12  and  C8_13 
REMARK    4  A    between atoms: C12_17  and  O1_18 
REMARK    5  A    between atoms: C13_20  and  O2_21 
REMARK    6  A    between atoms: O2_21  and  C14_22 
ROOT
HETATM    1  C1  UNL     1      -3.172  49.083  12.527  1.00  0.00     0.059 C 
HETATM    2  C2  UNL     1      -3.155  50.088  11.394  1.00  0.00     0.009 A 
HETATM    3  S1  UNL     1      -2.256  49.986   9.954  1.00  0.00    -0.057 SA
HETATM    4  C3  UNL     1      -2.956  51.299   9.124  1.00  0.00     0.145 A 
HETATM    5  N2  UNL     1      -3.837  51.757   9.995  1.00  0.00    -0.336 N 
ATOM      6  H2  UNL     1      -4.415  52.564   9.760  1.00  0.00     0.168 HD
HETATM    7  C7  UNL     1      -3.970  51.164  11.179  1.00  0.00     0.052 A 
ENDROOT
BRANCH   7   8
HETATM    8  C8  UNL     1      -4.788  51.812  12.281  1.00  0.00    -0.020 C 
HETATM    9  C9  UNL     1      -6.092  51.178  12.484  1.00  0.00     0.039 C 
HETATM   10  C10 UNL     1      -7.100  52.133  13.039  1.00  0.00     0.007 C 
HETATM   11  C11 UNL     1      -6.543  53.483  13.332  1.00  0.00     0.035 C 
HETATM   12  C12 UNL     1      -5.227  53.493  13.994  1.00  0.00     0.152 C 
HETATM   13  C13 UNL     1      -4.166  52.539  13.328  1.00  0.00     0.193 C 
BRANCH  12  14
HETATM   14  O1  UNL     1      -5.345  53.247  15.353  1.00  0.00    -0.393 OA
ATOM     15  H1  UNL     1      -4.497  53.085  15.749  1.00  0.00     0.210 HD
ENDBRANCH  12  14
BRANCH  13  16
HETATM   16  O2  UNL     1      -3.253  53.582  12.802  1.00  0.00    -0.294 OA
BRANCH  16  17
HETATM   17  C14 UNL     1      -1.908  53.269  12.787  1.00  0.00     0.373 C 
HETATM   18  N3  UNL     1      -1.138  53.153  11.608  1.00  0.00    -0.032 NA
HETATM   19  O3  UNL     1      -1.257  53.061  13.871  1.00  0.00    -0.242 OA
ENDBRANCH  16  17
ENDBRANCH  13  16
ENDBRANCH   7   8
BRANCH   4  20
HETATM   20  N1  UNL     1      -2.633  51.731   7.917  1.00  0.00    -0.366 N 
ATOM     21  H1  UNL     1      -2.783  52.714   7.689  1.00  0.00     0.162 HD
BRANCH  20  22
HETATM   22  C4  UNL     1      -2.085  50.873   6.925  1.00  0.00     0.083 A 
HETATM   23  C5  UNL     1      -2.926  50.861   5.636  1.00  0.00     0.027 A 
HETATM   24  C6  UNL     1      -2.822  49.651   6.450  1.00  0.00     0.027 A 
ENDBRANCH  20  22
ENDBRANCH   4  20
TORSDOF 6
ENDMDL
MODEL 2
REMARK VINA RESULT: -6.796350385      4.563      5.723
REMARK  6 active torsions:
REMARK  status: ('A' for Active; 'I' for Inactive)
REMARK    1  A    between atoms: C3_4  and  N1_5 
REMARK    2  A    between atoms: N1_5  and  C4_7 
REMARK    3  A    between atoms: C7_12  and  C8_13 
REMARK    4  A    between atoms: C12_17  and  O1_18 
REMARK    5  A    between atoms: C13_20  and  O2_21 
REMARK    6  A    between atoms: O2_21  and  C14_22 
ROOT
HETATM    1  C1  UNL     1      -7.554  51.471  10.772  1.00  0.00     0.059 C 
HETATM    2  C2  UNL     1      -7.242  52.765  10.050  1.00  0.00     0.009 A 
HETATM    3  S1  UNL     1      -7.377  53.061   8.381  1.00  0.00    -0.057 SA
HETATM    4  C3  UNL     1      -7.117  54.744   8.399  1.00  0.00     0.145 A 
HETATM    5  N2  UNL     1      -6.930  54.996   9.682  1.00  0.00    -0.336 N 
ATOM      6  H2  UNL     1      -6.745  55.949   9.993  1.00  0.00     0.168 HD
HETATM    7  C7  UNL     1      -6.982  54.004  10.567  1.00  0.00     0.052 A 
ENDROOT
BRANCH   7   8
HETATM    8  C8  UNL     1      -6.531  54.222  12.000  1.00  0.00    -0.020 C 
HETATM    9  C9  UNL     1      -5.146  53.812  12.241  1.00  0.00     0.039 C 
HETATM   10  C10 UNL     1      -4.919  53.414  13.664  1.00  0.00     0.007 C 
HETATM   11  C11 UNL     1      -6.116  53.593  14.532  1.00  0.00     0.035 C 
HETATM   12  C12 UNL     1      -6.856  54.851  14.335  1.00  0.00     0.152 C 
HETATM   13  C13 UNL     1      -7.154  55.193  12.827  1.00  0.00     0.193 C 
BRANCH  12  14
HETATM   14  O1  UNL     1      -6.233  55.907  14.979  1.00  0.00    -0.393 OA
ATOM     15  H1  UNL     1      -6.861  56.443  15.451  1.00  0.00     0.210 HD
ENDBRANCH  12  14
BRANCH  13  16
HETATM   16  O2  UNL     1      -8.625  55.018  12.862  1.00  0.00    -0.294 OA
BRANCH  16  17
HETATM   17  C14 UNL     1      -9.380  56.077  12.397  1.00  0.00     0.373 C 
HETATM   18  N3  UNL     1      -9.285  56.598  11.088  1.00  0.00    -0.032 NA
HETATM   19  O3  UNL     1     -10.237  56.667  13.145  1.00  0.00    -0.242 OA
ENDBRANCH  16  17
ENDBRANCH  13  16
ENDBRANCH   7   8
BRANCH   4  20
HETATM   20  N1  UNL     1      -7.087  55.548   7.349  1.00  0.00    -0.366 N 
ATOM     21  H1  UNL     1      -6.556  56.417   7.410  1.00  0.00     0.162 HD
BRANCH  20  22
HETATM   22  C4  UNL     1      -7.768  55.243   6.140  1.00  0.00     0.083 A 
HETATM   23  C5  UNL     1      -7.095  55.886   4.914  1.00  0.00     0.027 A 
HETATM   24  C6  UNL     1      -8.432  56.315   5.322  1.00  0.00     0.027 A 
ENDBRANCH  20  22
ENDBRANCH   4  20
TORSDOF 6
ENDMDL
MODEL 3
REMARK VINA RESULT: -6.755248605      1.243      1.390
REMARK  6 active torsions:
REMARK  status: ('A' for Active; 'I' for Inactive)
REMARK    1  A    between atoms: C3_4  and  N1_5 
REMARK    2  A    between atoms: N1_5  and  C4_7 
REMARK    3  A    between atoms: C7_12  and  C8_13 
REMARK    4  A    between atoms: C12_17  and  O1_18 
REMARK    5  A    between atoms: C13_20  and  O2_21 
REMARK    6  A    between atoms: O2_21  and  C14_22 
ROOT
HETATM    1  C1  UNL     1      -3.593  49.883  13.209  1.00  0.00     0.059 C 
HETATM    2  C2  UNL     1      -3.776  50.499  11.838  1.00  0.00     0.009 A 
HETATM    3  S1  UNL     1      -3.027  50.009  10.392  1.00  0.00    -0.057 SA
HETATM    4  C3  UNL     1      -3.914  50.978   9.307  1.00  0.00     0.145 A 
HETATM    5  N2  UNL     1      -4.733  51.635  10.107  1.00  0.00    -0.336 N 
ATOM      6  H2  UNL     1      -5.395  52.307   9.719  1.00  0.00     0.168 HD
HETATM    7  C7  UNL     1      -4.693  51.422  11.420  1.00  0.00     0.052 A 
ENDROOT
BRANCH   7   8
HETATM    8  C8  UNL     1      -5.441  52.333  12.375  1.00  0.00    -0.020 C 
HETATM    9  C9  UNL     1      -6.772  51.836  12.727  1.00  0.00     0.039 C 
HETATM   10  C10 UNL     1      -7.708  52.945  13.087  1.00  0.00     0.007 C 
HETATM   11  C11 UNL     1      -7.068  54.290  13.082  1.00  0.00     0.035 C 
HETATM   12  C12 UNL     1      -5.736  54.357  13.706  1.00  0.00     0.152 C 
HETATM   13  C13 UNL     1      -4.749  53.223  13.237  1.00  0.00     0.193 C 
BRANCH  12  14
HETATM   14  O1  UNL     1      -5.828  54.406  15.088  1.00  0.00    -0.393 OA
ATOM     15  H1  UNL     1      -6.109  53.571  15.445  1.00  0.00     0.210 HD
ENDBRANCH  12  14
BRANCH  13  16
HETATM   16  O2  UNL     1      -3.795  54.075  12.490  1.00  0.00    -0.294 OA
BRANCH  16  17
HETATM   17  C14 UNL     1      -2.491  53.623  12.421  1.00  0.00     0.373 C 
HETATM   18  N3  UNL     1      -1.723  53.254  13.547  1.00  0.00    -0.032 NA
HETATM   19  O3  UNL     1      -1.882  53.507  11.299  1.00  0.00    -0.242 OA
ENDBRANCH  16  17
ENDBRANCH  13  16
ENDBRANCH   7   8
BRANCH   4  20
HETATM   20  N1  UNL     1      -3.755  51.040   7.995  1.00  0.00    -0.366 N 
ATOM     21  H1  UNL     1      -4.245  50.366   7.408  1.00  0.00     0.162 HD
BRANCH  20  22
HETATM   22  C4  UNL     1      -2.924  52.013   7.376  1.00  0.00     0.083 A 
HETATM   23  C5  UNL     1      -1.854  51.375   6.472  1.00  0.00     0.027 A 
HETATM   24  C6  UNL     1      -1.454  52.096   7.679  1.00  0.00     0.027 A 
ENDBRANCH  20  22
ENDBRANCH   4  20
TORSDOF 6
ENDMDL
MODEL 4
REMARK VINA RESULT: -6.742519526      2.878      3.828
REMARK  6 active torsions:
REMARK  status: ('A' for Active; 'I' for Inactive)
REMARK    1  A    between atoms: C3_4  and  N1_5 
REMARK    2  A    between atoms: N1_5  and  C4_7 
REMARK    3  A    between atoms: C7_12  and  C8_13 
REMARK    4  A    between atoms: C12_17  and  O1_18 
REMARK    5  A    between atoms: C13_20  and  O2_21 
REMARK    6  A    between atoms: O2_21  and  C14_22 
ROOT
HETATM    1  C1  UNL     1      -4.884  50.047  11.673  1.00  0.00     0.059 C 
HETATM    2  C2  UNL     1      -3.849  51.152  11.653  1.00  0.00     0.009 A 
HETATM    3  S1  UNL     1      -2.268  51.059  11.032  1.00  0.00    -0.057 SA
HETATM    4  C3  UNL     1      -1.858  52.709  11.135  1.00  0.00     0.145 A 
HETATM    5  N2  UNL     1      -2.947  53.248  11.649  1.00  0.00    -0.336 N 
ATOM      6  H2  UNL     1      -2.985  54.252  11.827  1.00  0.00     0.168 HD
HETATM    7  C7  UNL     1      -3.997  52.481  11.935  1.00  0.00     0.052 A 
ENDROOT
BRANCH   7   8
HETATM    8  C8  UNL     1      -5.156  53.028  12.747  1.00  0.00    -0.020 C 
HETATM    9  C9  UNL     1      -5.009  52.812  14.187  1.00  0.00     0.039 C 
HETATM   10  C10 UNL     1      -6.332  52.735  14.881  1.00  0.00     0.007 C 
HETATM   11  C11 UNL     1      -7.493  52.970  13.978  1.00  0.00     0.035 C 
HETATM   12  C12 UNL     1      -7.338  54.085  13.028  1.00  0.00     0.152 C 
HETATM   13  C13 UNL     1      -5.967  54.083  12.253  1.00  0.00     0.193 C 
BRANCH  12  14
HETATM   14  O1  UNL     1      -7.568  55.306  13.642  1.00  0.00    -0.393 OA
ATOM     15  H1  UNL     1      -8.358  55.716  13.308  1.00  0.00     0.210 HD
ENDBRANCH  12  14
BRANCH  13  16
HETATM   16  O2  UNL     1      -6.495  53.778  10.902  1.00  0.00    -0.294 OA
BRANCH  16  17
HETATM   17  C14 UNL     1      -7.001  54.846  10.185  1.00  0.00     0.373 C 
HETATM   18  N3  UNL     1      -6.650  55.135   8.848  1.00  0.00    -0.032 NA
HETATM   19  O3  UNL     1      -7.843  55.660  10.704  1.00  0.00    -0.242 OA
ENDBRANCH  16  17
ENDBRANCH  13  16
ENDBRANCH   7   8
BRANCH   4  20
HETATM   20  N1  UNL     1      -0.701  53.256  10.798  1.00  0.00    -0.366 N 
ATOM     21  H1  UNL     1      -0.301  53.972  11.403  1.00  0.00     0.162 HD
BRANCH  20  22
HETATM   22  C4  UNL     1       0.003  52.879   9.622  1.00  0.00     0.083 A 
HETATM   23  C5  UNL     1       0.962  53.982   9.139  1.00  0.00     0.027 A 
HETATM   24  C6  UNL     1      -0.193  53.610   8.323  1.00  0.00     0.027 A 
ENDBRANCH  20  22
ENDBRANCH   4  20
TORSDOF 6
ENDMDL
MODEL 5
REMARK VINA RESULT: -6.742442575      1.832      2.690
REMARK  6 active torsions:
REMARK  status: ('A' for Active; 'I' for Inactive)
REMARK    1  A    between atoms: C3_4  and  N1_5 
REMARK    2  A    between atoms: N1_5  and  C4_7 
REMARK    3  A    between atoms: C7_12  and  C8_13 
REMARK    4  A    between atoms: C12_17  and  O1_18 
REMARK    5  A    between atoms: C13_20  and  O2_21 
REMARK    6  A    between atoms: O2_21  and  C14_22 
ROOT
HETATM    1  C1  UNL     1      -6.225  52.141   9.164  1.00  0.00     0.059 C 
HETATM    2  C2  UNL     1      -5.031  51.343   9.643  1.00  0.00     0.009 A 
HETATM    3  S1  UNL     1      -4.027  50.345   8.701  1.00  0.00    -0.057 SA
HETATM    4  C3  UNL     1      -2.817  50.036   9.861  1.00  0.00     0.145 A 
HETATM    5  N2  UNL     1      -3.248  50.704  10.915  1.00  0.00    -0.336 N 
ATOM      6  H2  UNL     1      -2.708  50.695  11.780  1.00  0.00     0.168 HD
HETATM    7  C7  UNL     1      -4.387  51.389  10.848  1.00  0.00     0.052 A 
ENDROOT
BRANCH   7   8
HETATM    8  C8  UNL     1      -5.024  51.956  12.103  1.00  0.00    -0.020 C 
HETATM    9  C9  UNL     1      -6.344  51.391  12.389  1.00  0.00     0.039 C 
HETATM   10  C10 UNL     1      -7.205  52.340  13.161  1.00  0.00     0.007 C 
HETATM   11  C11 UNL     1      -6.513  53.605  13.532  1.00  0.00     0.035 C 
HETATM   12  C12 UNL     1      -5.136  53.449  14.030  1.00  0.00     0.152 C 
HETATM   13  C13 UNL     1      -4.234  52.511  13.142  1.00  0.00     0.193 C 
BRANCH  12  14
HETATM   14  O1  UNL     1      -5.122  53.053  15.358  1.00  0.00    -0.393 OA
ATOM     15  H1  UNL     1      -4.345  53.368  15.804  1.00  0.00     0.210 HD
ENDBRANCH  12  14
BRANCH  13  16
HETATM   16  O2  UNL     1      -3.305  53.545  12.629  1.00  0.00    -0.294 OA
BRANCH  16  17
HETATM   17  C14 UNL     1      -1.956  53.262  12.727  1.00  0.00     0.373 C 
HETATM   18  N3  UNL     1      -1.127  52.980  11.619  1.00  0.00    -0.032 NA
HETATM   19  O3  UNL     1      -1.358  53.237  13.860  1.00  0.00    -0.242 OA
ENDBRANCH  16  17
ENDBRANCH  13  16
ENDBRANCH   7   8
BRANCH   4  20
HETATM   20  N1  UNL     1      -1.747  49.276   9.700  1.00  0.00    -0.366 N 
ATOM     21  H1  UNL     1      -1.425  49.075   8.753  1.00  0.00     0.162 HD
BRANCH  20  22
HETATM   22  C4  UNL     1      -1.030  48.731  10.799  1.00  0.00     0.083 A 
HETATM   23  C5  UNL     1      -0.238  47.469  10.410  1.00  0.00     0.027 A 
HETATM   24  C6  UNL     1      -1.354  47.371  11.350  1.00  0.00     0.027 A 
ENDBRANCH  20  22
ENDBRANCH   4  20
TORSDOF 6
ENDMDL
