MODEL 1
REMARK VINA RESULT: -6.405771844      0.000      0.000
REMARK  5 active torsions:
REMARK  status: ('A' for Active; 'I' for Inactive)
REMARK    1  A    between atoms: C3_3  and  O1_4 
REMARK    2  A    between atoms: C7_9  and  O2_10 
REMARK    3  A    between atoms: O2_10  and  S1_11 
REMARK    4  A    between atoms: S1_11  and  C8_12 
REMARK    5  A    between atoms: C14_19  and  O4_20 
ROOT
HETATM    1  C1  UNL     1      -6.558  55.126  14.065  1.00  0.00     0.017 C 
HETATM    2  C2  UNL     1      -6.629  54.240  13.101  1.00  0.00    -0.054 C 
HETATM    3  C3  UNL     1      -7.977  54.134  12.414  1.00  0.00     0.146 C 
HETATM    4  C4  UNL     1      -8.386  52.694  12.773  1.00  0.00     0.037 C 
HETATM    5  C5  UNL     1      -7.398  51.814  12.113  1.00  0.00     0.011 C 
HETATM    6  C6  UNL     1      -5.976  51.912  12.629  1.00  0.00     0.027 C 
HETATM    7  C7  UNL     1      -5.226  51.003  11.725  1.00  0.00     0.153 C 
HETATM    8  C10 UNL     1      -3.764  50.859  11.930  1.00  0.00     0.082 C 
HETATM    9  C11 UNL     1      -3.329  50.157  13.158  1.00  0.00     0.020 C 
HETATM   10  C12 UNL     1      -3.155  52.202  11.724  1.00  0.00     0.135 C 
HETATM   11  O3  UNL     1      -2.733  52.479  10.590  1.00  0.00    -0.297 OA
HETATM   12  C13 UNL     1      -3.026  53.211  12.779  1.00  0.00     0.111 C 
HETATM   13  C14 UNL     1      -4.324  53.663  13.391  1.00  0.00     0.133 C 
HETATM   14  C15 UNL     1      -5.552  53.345  12.621  1.00  0.00     0.052 C 
ENDROOT
BRANCH   7  15
HETATM   15  O2  UNL     1      -5.853  49.757  11.715  1.00  0.00    -0.314 OA
BRANCH  15  16
HETATM   16  S1  UNL     1      -5.592  48.891  10.264  1.00  0.00    -0.012 SA
BRANCH  16  17
HETATM   17  C8  UNL     1      -4.929  47.234  10.590  1.00  0.00     0.100 C 
HETATM   18  C9  UNL     1      -3.435  47.271  10.814  1.00  0.00     0.018 C 
ENDBRANCH  16  17
ENDBRANCH  15  16
ENDBRANCH   7  15
BRANCH  13  19
HETATM   19  O4  UNL     1      -4.354  53.288  14.717  1.00  0.00    -0.394 OA
ATOM     20  H4  UNL     1      -3.890  53.936  15.234  1.00  0.00     0.210 HD
ENDBRANCH  13  19
BRANCH   3  21
HETATM   21  O1  UNL     1      -8.871  55.049  12.898  1.00  0.00    -0.391 OA
ATOM     22  H1  UNL     1      -8.441  55.846  13.188  1.00  0.00     0.210 HD
ENDBRANCH   3  21
TORSDOF 5
ENDMDL
MODEL 2
REMARK VINA RESULT: -6.368273554      1.019      1.330
REMARK  5 active torsions:
REMARK  status: ('A' for Active; 'I' for Inactive)
REMARK    1  A    between atoms: C3_3  and  O1_4 
REMARK    2  A    between atoms: C7_9  and  O2_10 
REMARK    3  A    between atoms: O2_10  and  S1_11 
REMARK    4  A    between atoms: S1_11  and  C8_12 
REMARK    5  A    between atoms: C14_19  and  O4_20 
ROOT
HETATM    1  C1  UNL     1      -6.588  55.161  14.073  1.00  0.00     0.017 C 
HETATM    2  C2  UNL     1      -6.676  54.270  13.116  1.00  0.00    -0.054 C 
HETATM    3  C3  UNL     1      -8.030  54.176  12.438  1.00  0.00     0.146 C 
HETATM    4  C4  UNL     1      -8.456  52.745  12.809  1.00  0.00     0.037 C 
HETATM    5  C5  UNL     1      -7.483  51.847  12.150  1.00  0.00     0.011 C 
HETATM    6  C6  UNL     1      -6.057  51.930  12.655  1.00  0.00     0.027 C 
HETATM    7  C7  UNL     1      -5.325  51.005  11.753  1.00  0.00     0.153 C 
HETATM    8  C10 UNL     1      -3.864  50.843  11.949  1.00  0.00     0.082 C 
HETATM    9  C11 UNL     1      -3.430  50.144  13.180  1.00  0.00     0.020 C 
HETATM   10  C12 UNL     1      -3.238  52.177  11.730  1.00  0.00     0.135 C 
HETATM   11  O3  UNL     1      -2.821  52.440  10.592  1.00  0.00    -0.297 OA
HETATM   12  C13 UNL     1      -3.089  53.191  12.778  1.00  0.00     0.111 C 
HETATM   13  C14 UNL     1      -4.377  53.664  13.394  1.00  0.00     0.133 C 
HETATM   14  C15 UNL     1      -5.615  53.357  12.634  1.00  0.00     0.052 C 
ENDROOT
BRANCH   7  15
HETATM   15  O2  UNL     1      -5.969  49.767  11.756  1.00  0.00    -0.314 OA
BRANCH  15  16
HETATM   16  S1  UNL     1      -5.756  48.902  10.295  1.00  0.00    -0.012 SA
BRANCH  16  17
HETATM   17  C8  UNL     1      -7.272  48.031   9.814  1.00  0.00     0.100 C 
HETATM   18  C9  UNL     1      -8.505  48.823  10.183  1.00  0.00     0.018 C 
ENDBRANCH  16  17
ENDBRANCH  15  16
ENDBRANCH   7  15
BRANCH  13  19
HETATM   19  O4  UNL     1      -4.403  53.299  14.723  1.00  0.00    -0.394 OA
ATOM     20  H4  UNL     1      -4.889  52.487  14.813  1.00  0.00     0.210 HD
ENDBRANCH  13  19
BRANCH   3  21
HETATM   21  O1  UNL     1      -8.909  55.107  12.921  1.00  0.00    -0.391 OA
ATOM     22  H1  UNL     1      -8.521  55.974  12.961  1.00  0.00     0.210 HD
ENDBRANCH   3  21
TORSDOF 5
ENDMDL
MODEL 3
REMARK VINA RESULT: -6.338747827      1.124      1.173
REMARK  5 active torsions:
REMARK  status: ('A' for Active; 'I' for Inactive)
REMARK    1  A    between atoms: C3_3  and  O1_4 
REMARK    2  A    between atoms: C7_9  and  O2_10 
REMARK    3  A    between atoms: O2_10  and  S1_11 
REMARK    4  A    between atoms: S1_11  and  C8_12 
REMARK    5  A    between atoms: C14_19  and  O4_20 
ROOT
HETATM    1  C1  UNL     1      -6.567  55.126  14.071  1.00  0.00     0.017 C 
HETATM    2  C2  UNL     1      -6.648  54.241  13.108  1.00  0.00    -0.054 C 
HETATM    3  C3  UNL     1      -7.998  54.146  12.424  1.00  0.00     0.146 C 
HETATM    4  C4  UNL     1      -8.421  52.711  12.785  1.00  0.00     0.037 C 
HETATM    5  C5  UNL     1      -7.442  51.821  12.124  1.00  0.00     0.011 C 
HETATM    6  C6  UNL     1      -6.018  51.906  12.637  1.00  0.00     0.027 C 
HETATM    7  C7  UNL     1      -5.279  50.989  11.732  1.00  0.00     0.153 C 
HETATM    8  C10 UNL     1      -3.818  50.832  11.934  1.00  0.00     0.082 C 
HETATM    9  C11 UNL     1      -3.386  50.127  13.162  1.00  0.00     0.020 C 
HETATM   10  C12 UNL     1      -3.196  52.169  11.725  1.00  0.00     0.135 C 
HETATM   11  O3  UNL     1      -2.774  52.441  10.590  1.00  0.00    -0.297 OA
HETATM   12  C13 UNL     1      -3.055  53.178  12.779  1.00  0.00     0.111 C 
HETATM   13  C14 UNL     1      -4.348  53.642  13.393  1.00  0.00     0.133 C 
HETATM   14  C15 UNL     1      -5.581  53.335  12.626  1.00  0.00     0.052 C 
ENDROOT
BRANCH   7  15
HETATM   15  O2  UNL     1      -5.917  49.749  11.725  1.00  0.00    -0.314 OA
BRANCH  15  16
HETATM   16  S1  UNL     1      -5.715  48.904  10.251  1.00  0.00    -0.012 SA
BRANCH  16  17
HETATM   17  C8  UNL     1      -5.722  50.035   8.833  1.00  0.00     0.100 C 
HETATM   18  C9  UNL     1      -4.342  50.181   8.236  1.00  0.00     0.018 C 
ENDBRANCH  16  17
ENDBRANCH  15  16
ENDBRANCH   7  15
BRANCH  13  19
HETATM   19  O4  UNL     1      -4.378  53.269  14.720  1.00  0.00    -0.394 OA
ATOM     20  H4  UNL     1      -4.969  52.531  14.822  1.00  0.00     0.210 HD
ENDBRANCH  13  19
BRANCH   3  21
HETATM   21  O1  UNL     1      -8.883  55.071  12.909  1.00  0.00    -0.391 OA
ATOM     22  H1  UNL     1      -8.714  55.278  13.821  1.00  0.00     0.210 HD
ENDBRANCH   3  21
TORSDOF 5
ENDMDL
MODEL 4
REMARK VINA RESULT: -6.031984457      2.324      4.273
REMARK  5 active torsions:
REMARK  status: ('A' for Active; 'I' for Inactive)
REMARK    1  A    between atoms: C3_3  and  O1_4 
REMARK    2  A    between atoms: C7_9  and  O2_10 
REMARK    3  A    between atoms: O2_10  and  S1_11 
REMARK    4  A    between atoms: S1_11  and  C8_12 
REMARK    5  A    between atoms: C14_19  and  O4_20 
ROOT
HETATM    1  C1  UNL     1      -7.299  52.549  13.417  1.00  0.00     0.017 C 
HETATM    2  C2  UNL     1      -6.043  52.177  13.356  1.00  0.00    -0.054 C 
HETATM    3  C3  UNL     1      -5.118  52.839  14.359  1.00  0.00     0.146 C 
HETATM    4  C4  UNL     1      -4.170  53.616  13.430  1.00  0.00     0.037 C 
HETATM    5  C5  UNL     1      -3.440  52.595  12.648  1.00  0.00     0.011 C 
HETATM    6  C6  UNL     1      -4.276  51.773  11.686  1.00  0.00     0.027 C 
HETATM    7  C7  UNL     1      -3.299  50.798  11.139  1.00  0.00     0.153 C 
HETATM    8  C10 UNL     1      -3.782  49.800  10.154  1.00  0.00     0.082 C 
HETATM    9  C11 UNL     1      -4.168  50.312   8.820  1.00  0.00     0.020 C 
HETATM   10  C12 UNL     1      -4.819  48.973  10.834  1.00  0.00     0.135 C 
HETATM   11  O3  UNL     1      -4.454  47.918  11.375  1.00  0.00    -0.297 OA
HETATM   12  C13 UNL     1      -6.238  49.335  10.900  1.00  0.00     0.111 C 
HETATM   13  C14 UNL     1      -6.531  50.642  11.585  1.00  0.00     0.133 C 
HETATM   14  C15 UNL     1      -5.440  51.196  12.425  1.00  0.00     0.052 C 
ENDROOT
BRANCH   7  15
HETATM   15  O2  UNL     1      -2.196  51.493  10.645  1.00  0.00    -0.314 OA
BRANCH  15  16
HETATM   16  S1  UNL     1      -0.742  50.596  10.752  1.00  0.00    -0.012 SA
BRANCH  16  17
HETATM   17  C8  UNL     1       0.615  51.428   9.882  1.00  0.00     0.100 C 
HETATM   18  C9  UNL     1       0.236  52.835   9.485  1.00  0.00     0.018 C 
ENDBRANCH  16  17
ENDBRANCH  15  16
ENDBRANCH   7  15
BRANCH  13  19
HETATM   19  O4  UNL     1      -7.066  51.522  10.669  1.00  0.00    -0.394 OA
ATOM     20  H4  UNL     1      -8.011  51.533  10.764  1.00  0.00     0.210 HD
ENDBRANCH  13  19
BRANCH   3  21
HETATM   21  O1  UNL     1      -5.796  53.675  15.204  1.00  0.00    -0.391 OA
ATOM     22  H1  UNL     1      -5.219  54.306  15.617  1.00  0.00     0.210 HD
ENDBRANCH   3  21
TORSDOF 5
ENDMDL
MODEL 5
REMARK VINA RESULT: -5.962171101      1.898      3.138
REMARK  5 active torsions:
REMARK  status: ('A' for Active; 'I' for Inactive)
REMARK    1  A    between atoms: C3_3  and  O1_4 
REMARK    2  A    between atoms: C7_9  and  O2_10 
REMARK    3  A    between atoms: O2_10  and  S1_11 
REMARK    4  A    between atoms: S1_11  and  C8_12 
REMARK    5  A    between atoms: C14_19  and  O4_20 
ROOT
HETATM    1  C1  UNL     1      -9.603  55.733  11.333  1.00  0.00     0.017 C 
HETATM    2  C2  UNL     1      -8.757  54.785  11.012  1.00  0.00    -0.054 C 
HETATM    3  C3  UNL     1      -9.110  53.990   9.769  1.00  0.00     0.146 C 
HETATM    4  C4  UNL     1      -9.328  52.586  10.360  1.00  0.00     0.037 C 
HETATM    5  C5  UNL     1      -8.015  52.160  10.891  1.00  0.00     0.011 C 
HETATM    6  C6  UNL     1      -7.486  52.956  12.068  1.00  0.00     0.027 C 
HETATM    7  C7  UNL     1      -6.144  52.364  12.299  1.00  0.00     0.153 C 
HETATM    8  C10 UNL     1      -5.311  52.921  13.393  1.00  0.00     0.082 C 
HETATM    9  C11 UNL     1      -5.772  52.668  14.777  1.00  0.00     0.020 C 
HETATM   10  C12 UNL     1      -5.054  54.352  13.067  1.00  0.00     0.135 C 
HETATM   11  O3  UNL     1      -4.014  54.627  12.450  1.00  0.00    -0.297 OA
HETATM   12  C13 UNL     1      -5.956  55.448  13.434  1.00  0.00     0.111 C 
HETATM   13  C14 UNL     1      -7.343  55.349  12.860  1.00  0.00     0.133 C 
HETATM   14  C15 UNL     1      -7.513  54.410  11.723  1.00  0.00     0.052 C 
ENDROOT
BRANCH   7  15
HETATM   15  O2  UNL     1      -6.277  50.981  12.429  1.00  0.00    -0.314 OA
BRANCH  15  16
HETATM   16  S1  UNL     1      -4.979  50.119  11.724  1.00  0.00    -0.012 SA
BRANCH  16  17
HETATM   17  C8  UNL     1      -3.654  49.816  12.925  1.00  0.00     0.100 C 
HETATM   18  C9  UNL     1      -2.440  50.666  12.633  1.00  0.00     0.018 C 
ENDBRANCH  16  17
ENDBRANCH  15  16
ENDBRANCH   7  15
BRANCH  13  19
HETATM   19  O4  UNL     1      -8.247  55.190  13.888  1.00  0.00    -0.394 OA
ATOM     20  H4  UNL     1      -7.909  54.551  14.504  1.00  0.00     0.210 HD
ENDBRANCH  13  19
BRANCH   3  21
HETATM   21  O1  UNL     1     -10.242  54.465   9.164  1.00  0.00    -0.391 OA
ATOM     22  H1  UNL     1     -10.324  54.153   8.270  1.00  0.00     0.210 HD
ENDBRANCH   3  21
TORSDOF 5
ENDMDL
