MODEL 1
REMARK VINA RESULT: -7.739799019      0.000      0.000
REMARK  8 active torsions:
REMARK  status: ('A' for Active; 'I' for Inactive)
REMARK    1  A    between atoms: C2_2  and  C5_5 
REMARK    2  A    between atoms: C5_5  and  N1_6 
REMARK    3  A    between atoms: C10_11  and  C11_12 
REMARK    4  A    between atoms: C10_11  and  C12_19 
REMARK    5  A    between atoms: C11_12  and  S1_13 
REMARK    6  A    between atoms: S1_13  and  N2_14 
REMARK    7  A    between atoms: C12_19  and  O3_20 
REMARK    8  A    between atoms: N3_22  and  O4_24 
ROOT
HETATM    1  N1  UNL     1      -5.018  52.572  12.944  1.00  0.00    -0.065 N 
HETATM    2  C6  UNL     1      -5.897  51.767  12.186  1.00  0.00     0.238 C 
HETATM    3  C7  UNL     1      -7.285  52.352  12.498  1.00  0.00     0.035 C 
HETATM    4  C8  UNL     1      -7.004  53.453  13.454  1.00  0.00     0.032 C 
HETATM    5  C9  UNL     1      -5.772  52.875  14.177  1.00  0.00     0.243 C 
HETATM    6  C10 UNL     1      -6.302  54.581  12.737  1.00  0.00     0.070 C 
HETATM    7  C13 UNL     1      -5.054  53.890  12.296  1.00  0.00     0.256 C 
ENDROOT
BRANCH   6   8
HETATM    8  C11 UNL     1      -7.110  55.187  11.650  1.00  0.00     0.183 C 
BRANCH   8   9
HETATM    9  S1  UNL     1      -8.746  55.590  12.166  1.00  0.00     0.225 S 
HETATM   10  O1  UNL     1      -8.830  55.608  13.668  1.00  0.00    -0.206 OA
HETATM   11  O2  UNL     1      -9.662  54.483  11.685  1.00  0.00    -0.206 OA
BRANCH   9  12
HETATM   12  N2  UNL     1      -9.290  57.112  11.570  1.00  0.00    -0.328 N 
ATOM     13  H22 UNL     1      -8.811  57.611  10.821  1.00  0.00     0.168 HD
ATOM     14  H21 UNL     1     -10.128  57.452  12.042  1.00  0.00     0.168 HD
ENDBRANCH   9  12
ENDBRANCH   8   9
ENDBRANCH   6   8
BRANCH   6  15
HETATM   15  C12 UNL     1      -5.915  55.614  13.715  1.00  0.00     0.147 C 
HETATM   16  N3  UNL     1      -6.406  55.654  14.923  1.00  0.00    -0.250 N 
ATOM     17  H3  UNL     1      -7.083  54.946  15.210  1.00  0.00     0.196 HD
BRANCH  15  18
HETATM   18  O3  UNL     1      -5.004  56.578  13.349  1.00  0.00    -0.347 OA
ATOM     19  H3  UNL     1      -4.293  56.794  13.941  1.00  0.00     0.219 HD
ENDBRANCH  15  18
BRANCH  16  20
HETATM   20  O4  UNL     1      -6.031  56.626  15.814  1.00  0.00    -0.288 OA
ATOM     21  H4  UNL     1      -6.108  56.494  16.751  1.00  0.00     0.244 HD
ENDBRANCH  16  20
ENDBRANCH   6  15
BRANCH   1  22
HETATM   22  C5  UNL     1      -3.694  52.239  13.151  1.00  0.00     0.245 C 
BRANCH  22  23
HETATM   23  C2  UNL     1      -2.966  51.266  12.322  1.00  0.00    -0.027 C 
HETATM   24  C1  UNL     1      -2.930  51.579  10.842  1.00  0.00     0.016 C 
HETATM   25  C3  UNL     1      -1.494  51.384  12.787  1.00  0.00     0.016 C 
HETATM   26  C4  UNL     1      -3.275  49.819  12.587  1.00  0.00     0.016 C 
ENDBRANCH  22  23
ENDBRANCH   1  22
TORSDOF 8
ENDMDL
MODEL 2
REMARK VINA RESULT: -7.589795317      2.944      5.972
REMARK  8 active torsions:
REMARK  status: ('A' for Active; 'I' for Inactive)
REMARK    1  A    between atoms: C2_2  and  C5_5 
REMARK    2  A    between atoms: C5_5  and  N1_6 
REMARK    3  A    between atoms: C10_11  and  C11_12 
REMARK    4  A    between atoms: C10_11  and  C12_19 
REMARK    5  A    between atoms: C11_12  and  S1_13 
REMARK    6  A    between atoms: S1_13  and  N2_14 
REMARK    7  A    between atoms: C12_19  and  O3_20 
REMARK    8  A    between atoms: N3_22  and  O4_24 
ROOT
HETATM    1  N1  UNL     1      -8.731  55.633  11.738  1.00  0.00    -0.065 N 
HETATM    2  C6  UNL     1      -8.848  54.604  10.777  1.00  0.00     0.238 C 
HETATM    3  C7  UNL     1      -7.397  54.139  10.566  1.00  0.00     0.035 C 
HETATM    4  C8  UNL     1      -6.604  55.019  11.462  1.00  0.00     0.032 C 
HETATM    5  C9  UNL     1      -7.457  56.301  11.406  1.00  0.00     0.243 C 
HETATM    6  C10 UNL     1      -6.881  54.659  12.902  1.00  0.00     0.070 C 
HETATM    7  C13 UNL     1      -8.343  54.952  12.980  1.00  0.00     0.256 C 
ENDROOT
BRANCH   6   8
HETATM    8  C11 UNL     1      -6.492  53.271  13.253  1.00  0.00     0.183 C 
BRANCH   8   9
HETATM    9  S1  UNL     1      -4.750  53.083  13.438  1.00  0.00     0.225 S 
HETATM   10  O1  UNL     1      -4.389  51.625  13.530  1.00  0.00    -0.206 OA
HETATM   11  O2  UNL     1      -4.359  53.719  14.756  1.00  0.00    -0.206 OA
BRANCH   9  12
HETATM   12  N2  UNL     1      -3.850  53.787  12.149  1.00  0.00    -0.328 N 
ATOM     13  H22 UNL     1      -3.471  53.236  11.379  1.00  0.00     0.168 HD
ATOM     14  H21 UNL     1      -3.739  54.797  12.241  1.00  0.00     0.168 HD
ENDBRANCH   9  12
ENDBRANCH   8   9
ENDBRANCH   6   8
BRANCH   6  15
HETATM   15  C12 UNL     1      -6.189  55.616  13.785  1.00  0.00     0.147 C 
HETATM   16  N3  UNL     1      -6.561  55.826  15.017  1.00  0.00    -0.250 N 
ATOM     17  H3  UNL     1      -7.358  55.312  15.393  1.00  0.00     0.196 HD
BRANCH  15  18
HETATM   18  O3  UNL     1      -5.112  56.321  13.299  1.00  0.00    -0.347 OA
ATOM     19  H3  UNL     1      -5.159  57.268  13.254  1.00  0.00     0.219 HD
ENDBRANCH  15  18
BRANCH  16  20
HETATM   20  O4  UNL     1      -5.902  56.722  15.818  1.00  0.00    -0.288 OA
ATOM     21  H4  UNL     1      -6.331  57.130  16.562  1.00  0.00     0.244 HD
ENDBRANCH  16  20
ENDBRANCH   6  15
BRANCH   1  22
HETATM   22  C5  UNL     1      -9.768  56.496  12.035  1.00  0.00     0.245 C 
BRANCH  22  23
HETATM   23  C2  UNL     1     -10.614  57.127  11.011  1.00  0.00    -0.027 C 
HETATM   24  C1  UNL     1     -11.612  56.207  10.342  1.00  0.00     0.016 C 
HETATM   25  C3  UNL     1     -11.478  58.145  11.793  1.00  0.00     0.016 C 
HETATM   26  C4  UNL     1      -9.900  58.002  10.019  1.00  0.00     0.016 C 
ENDBRANCH  22  23
ENDBRANCH   1  22
TORSDOF 8
ENDMDL
MODEL 3
REMARK VINA RESULT: -7.557247994      1.488      1.803
REMARK  8 active torsions:
REMARK  status: ('A' for Active; 'I' for Inactive)
REMARK    1  A    between atoms: C2_2  and  C5_5 
REMARK    2  A    between atoms: C5_5  and  N1_6 
REMARK    3  A    between atoms: C10_11  and  C11_12 
REMARK    4  A    between atoms: C10_11  and  C12_19 
REMARK    5  A    between atoms: C11_12  and  S1_13 
REMARK    6  A    between atoms: S1_13  and  N2_14 
REMARK    7  A    between atoms: C12_19  and  O3_20 
REMARK    8  A    between atoms: N3_22  and  O4_24 
ROOT
HETATM    1  N1  UNL     1      -3.911  52.860  12.051  1.00  0.00    -0.065 N 
HETATM    2  C6  UNL     1      -4.475  51.623  11.668  1.00  0.00     0.238 C 
HETATM    3  C7  UNL     1      -5.629  51.426  12.666  1.00  0.00     0.035 C 
HETATM    4  C8  UNL     1      -5.556  52.624  13.540  1.00  0.00     0.032 C 
HETATM    5  C9  UNL     1      -4.037  52.879  13.522  1.00  0.00     0.243 C 
HETATM    6  C10 UNL     1      -5.973  53.848  12.761  1.00  0.00     0.070 C 
HETATM    7  C13 UNL     1      -4.924  53.865  11.699  1.00  0.00     0.256 C 
ENDROOT
BRANCH   6   8
HETATM    8  C11 UNL     1      -7.372  53.792  12.271  1.00  0.00     0.183 C 
BRANCH   8   9
HETATM    9  S1  UNL     1      -7.831  55.233  11.367  1.00  0.00     0.225 S 
HETATM   10  O1  UNL     1      -7.788  56.444  12.258  1.00  0.00    -0.206 OA
HETATM   11  O2  UNL     1      -9.270  55.058  10.927  1.00  0.00    -0.206 OA
BRANCH   9  12
HETATM   12  N2  UNL     1      -6.824  55.526  10.000  1.00  0.00    -0.328 N 
ATOM     13  H22 UNL     1      -6.015  54.946   9.780  1.00  0.00     0.168 HD
ATOM     14  H21 UNL     1      -7.122  56.328   9.445  1.00  0.00     0.168 HD
ENDBRANCH   9  12
ENDBRANCH   8   9
ENDBRANCH   6   8
BRANCH   6  15
HETATM   15  C12 UNL     1      -5.778  55.047  13.596  1.00  0.00     0.147 C 
HETATM   16  N3  UNL     1      -6.381  55.207  14.742  1.00  0.00    -0.250 N 
ATOM     17  H3  UNL     1      -7.011  54.480  15.081  1.00  0.00     0.196 HD
BRANCH  15  18
HETATM   18  O3  UNL     1      -4.933  56.040  13.159  1.00  0.00    -0.347 OA
ATOM     19  H3  UNL     1      -5.204  56.948  13.236  1.00  0.00     0.219 HD
ENDBRANCH  15  18
BRANCH  16  20
HETATM   20  O4  UNL     1      -6.184  56.332  15.501  1.00  0.00    -0.288 OA
ATOM     21  H4  UNL     1      -6.055  56.279  16.440  1.00  0.00     0.244 HD
ENDBRANCH  16  20
ENDBRANCH   6  15
BRANCH   1  22
HETATM   22  C5  UNL     1      -2.693  53.303  11.576  1.00  0.00     0.245 C 
BRANCH  22  23
HETATM   23  C2  UNL     1      -1.813  52.489  10.724  1.00  0.00    -0.027 C 
HETATM   24  C1  UNL     1      -2.409  52.064   9.400  1.00  0.00     0.016 C 
HETATM   25  C3  UNL     1      -0.650  53.438  10.347  1.00  0.00     0.016 C 
HETATM   26  C4  UNL     1      -1.099  51.359  11.411  1.00  0.00     0.016 C 
ENDBRANCH  22  23
ENDBRANCH   1  22
TORSDOF 8
ENDMDL
MODEL 4
REMARK VINA RESULT: -7.361275450      1.589      1.860
REMARK  8 active torsions:
REMARK  status: ('A' for Active; 'I' for Inactive)
REMARK    1  A    between atoms: C2_2  and  C5_5 
REMARK    2  A    between atoms: C5_5  and  N1_6 
REMARK    3  A    between atoms: C10_11  and  C11_12 
REMARK    4  A    between atoms: C10_11  and  C12_19 
REMARK    5  A    between atoms: C11_12  and  S1_13 
REMARK    6  A    between atoms: S1_13  and  N2_14 
REMARK    7  A    between atoms: C12_19  and  O3_20 
REMARK    8  A    between atoms: N3_22  and  O4_24 
ROOT
HETATM    1  N1  UNL     1      -4.479  52.817  12.092  1.00  0.00    -0.065 N 
HETATM    2  C6  UNL     1      -5.101  51.905  11.211  1.00  0.00     0.238 C 
HETATM    3  C7  UNL     1      -6.327  51.415  12.001  1.00  0.00     0.035 C 
HETATM    4  C8  UNL     1      -6.227  52.133  13.298  1.00  0.00     0.032 C 
HETATM    5  C9  UNL     1      -4.696  52.237  13.432  1.00  0.00     0.243 C 
HETATM    6  C10 UNL     1      -6.509  53.601  13.088  1.00  0.00     0.070 C 
HETATM    7  C13 UNL     1      -5.396  53.963  12.161  1.00  0.00     0.256 C 
ENDROOT
BRANCH   6   8
HETATM    8  C11 UNL     1      -7.875  53.877  12.579  1.00  0.00     0.183 C 
BRANCH   8   9
HETATM    9  S1  UNL     1      -7.918  55.237  11.459  1.00  0.00     0.225 S 
HETATM   10  O1  UNL     1      -7.781  56.535  12.208  1.00  0.00    -0.206 OA
HETATM   11  O2  UNL     1      -9.284  55.247  10.804  1.00  0.00    -0.206 OA
BRANCH   9  12
HETATM   12  N2  UNL     1      -6.685  55.167  10.259  1.00  0.00    -0.328 N 
ATOM     13  H22 UNL     1      -6.487  54.322   9.724  1.00  0.00     0.168 HD
ATOM     14  H21 UNL     1      -6.184  56.048  10.145  1.00  0.00     0.168 HD
ENDBRANCH   9  12
ENDBRANCH   8   9
ENDBRANCH   6   8
BRANCH   6  15
HETATM   15  C12 UNL     1      -6.286  54.325  14.353  1.00  0.00     0.147 C 
HETATM   16  N3  UNL     1      -6.328  55.627  14.432  1.00  0.00    -0.250 N 
ATOM     17  H3  UNL     1      -6.523  56.172  13.591  1.00  0.00     0.196 HD
BRANCH  15  18
HETATM   18  O3  UNL     1      -6.022  53.611  15.499  1.00  0.00    -0.347 OA
ATOM     19  H3  UNL     1      -6.353  52.724  15.580  1.00  0.00     0.219 HD
ENDBRANCH  15  18
BRANCH  16  20
HETATM   20  O4  UNL     1      -6.116  56.277  15.620  1.00  0.00    -0.288 OA
ATOM     21  H4  UNL     1      -5.346  56.815  15.758  1.00  0.00     0.244 HD
ENDBRANCH  16  20
ENDBRANCH   6  15
BRANCH   1  22
HETATM   22  C5  UNL     1      -3.206  53.308  11.880  1.00  0.00     0.245 C 
BRANCH  22  23
HETATM   23  C2  UNL     1      -2.148  52.543  11.202  1.00  0.00    -0.027 C 
HETATM   24  C1  UNL     1      -2.502  52.037   9.820  1.00  0.00     0.016 C 
HETATM   25  C3  UNL     1      -1.015  53.572  10.967  1.00  0.00     0.016 C 
HETATM   26  C4  UNL     1      -1.465  51.492  12.030  1.00  0.00     0.016 C 
ENDBRANCH  22  23
ENDBRANCH   1  22
TORSDOF 8
ENDMDL
MODEL 5
REMARK VINA RESULT: -7.219652517      2.638      3.931
REMARK  8 active torsions:
REMARK  status: ('A' for Active; 'I' for Inactive)
REMARK    1  A    between atoms: C2_2  and  C5_5 
REMARK    2  A    between atoms: C5_5  and  N1_6 
REMARK    3  A    between atoms: C10_11  and  C11_12 
REMARK    4  A    between atoms: C10_11  and  C12_19 
REMARK    5  A    between atoms: C11_12  and  S1_13 
REMARK    6  A    between atoms: S1_13  and  N2_14 
REMARK    7  A    between atoms: C12_19  and  O3_20 
REMARK    8  A    between atoms: N3_22  and  O4_24 
ROOT
HETATM    1  N1  UNL     1      -2.089  51.732  11.371  1.00  0.00    -0.065 N 
HETATM    2  C6  UNL     1      -2.069  50.382  10.955  1.00  0.00     0.238 C 
HETATM    3  C7  UNL     1      -2.857  49.651  12.055  1.00  0.00     0.035 C 
HETATM    4  C8  UNL     1      -3.225  50.729  13.009  1.00  0.00     0.032 C 
HETATM    5  C9  UNL     1      -2.010  51.662  12.844  1.00  0.00     0.243 C 
HETATM    6  C10 UNL     1      -4.257  51.633  12.380  1.00  0.00     0.070 C 
HETATM    7  C13 UNL     1      -3.487  52.157  11.213  1.00  0.00     0.256 C 
ENDROOT
BRANCH   6   8
HETATM    8  C11 UNL     1      -5.527  50.941  12.044  1.00  0.00     0.183 C 
BRANCH   8   9
HETATM    9  S1  UNL     1      -6.826  52.065  11.650  1.00  0.00     0.225 S 
HETATM   10  O1  UNL     1      -7.290  52.781  12.889  1.00  0.00    -0.206 OA
HETATM   11  O2  UNL     1      -7.998  51.249  11.145  1.00  0.00    -0.206 OA
BRANCH   9  12
HETATM   12  N2  UNL     1      -6.373  53.242  10.477  1.00  0.00    -0.328 N 
ATOM     13  H22 UNL     1      -5.968  54.143  10.732  1.00  0.00     0.168 HD
ATOM     14  H21 UNL     1      -6.552  52.944   9.518  1.00  0.00     0.168 HD
ENDBRANCH   9  12
ENDBRANCH   8   9
ENDBRANCH   6   8
BRANCH   6  15
HETATM   15  C12 UNL     1      -4.524  52.768  13.281  1.00  0.00     0.147 C 
HETATM   16  N3  UNL     1      -4.927  52.606  14.512  1.00  0.00    -0.250 N 
ATOM     17  H3  UNL     1      -5.064  51.661  14.872  1.00  0.00     0.196 HD
BRANCH  15  18
HETATM   18  O3  UNL     1      -4.346  54.051  12.817  1.00  0.00    -0.347 OA
ATOM     19  H3  UNL     1      -5.099  54.625  12.739  1.00  0.00     0.219 HD
ENDBRANCH  15  18
BRANCH  16  20
HETATM   20  O4  UNL     1      -5.170  53.679  15.330  1.00  0.00    -0.288 OA
ATOM     21  H4  UNL     1      -5.251  54.559  14.981  1.00  0.00     0.244 HD
ENDBRANCH  16  20
ENDBRANCH   6  15
BRANCH   1  22
HETATM   22  C5  UNL     1      -1.287  52.700  10.801  1.00  0.00     0.245 C 
BRANCH  22  23
HETATM   23  C2  UNL     1      -0.442  52.458   9.621  1.00  0.00    -0.027 C 
HETATM   24  C1  UNL     1      -1.190  52.115   8.351  1.00  0.00     0.016 C 
HETATM   25  C3  UNL     1       0.223  53.825   9.332  1.00  0.00     0.016 C 
HETATM   26  C4  UNL     1       0.744  51.560   9.837  1.00  0.00     0.016 C 
ENDBRANCH  22  23
ENDBRANCH   1  22
TORSDOF 8
ENDMDL
