MODEL 1
REMARK VINA RESULT: -6.244916953      0.000      0.000
REMARK  7 active torsions:
REMARK  status: ('A' for Active; 'I' for Inactive)
REMARK    1  A    between atoms: C1_2  and  C2_3 
REMARK       I    between atoms: C1_2  and  N3_13 
REMARK    2  A    between atoms: C2_3  and  N1_4 
REMARK    3  A    between atoms: N2_7  and  C5_8 
REMARK    4  A    between atoms: C5_8  and  C6_9 
REMARK    5  A    between atoms: N3_13  and  C9_15 
REMARK    6  A    between atoms: C9_15  and  N4_17 
REMARK    7  A    between atoms: N4_17  and  C10_19 
ROOT
HETATM    1  O1  UNL     1      -9.264  56.147  13.850  1.00  0.00    -0.271 OA
HETATM    2  C1  UNL     1      -8.968  55.542  12.821  1.00  0.00     0.241 C 
HETATM    3  N3  UNL     1      -9.277  56.019  11.539  1.00  0.00    -0.303 N 
ATOM      4  H3  UNL     1      -8.990  55.442  10.749  1.00  0.00     0.171 HD
ENDROOT
BRANCH   2   5
HETATM    5  C2  UNL     1      -8.247  54.237  12.960  1.00  0.00     0.220 C 
BRANCH   5   6
HETATM    6  N1  UNL     1      -7.022  54.427  13.641  1.00  0.00    -0.401 N 
HETATM    7  C3  UNL     1      -6.066  55.293  13.042  1.00  0.00     0.147 C 
HETATM    8  C4  UNL     1      -5.098  54.464  12.183  1.00  0.00     0.291 C 
HETATM    9  N2  UNL     1      -4.416  53.520  13.025  1.00  0.00     0.092 N 
HETATM   10  C7  UNL     1      -4.987  53.363  14.326  1.00  0.00     0.291 C 
HETATM   11  C8  UNL     1      -6.486  53.307  14.341  1.00  0.00     0.147 C 
BRANCH   9  12
HETATM   12  C5  UNL     1      -3.016  53.868  13.121  1.00  0.00     0.283 C 
BRANCH  12  13
HETATM   13  C6  UNL     1      -2.164  52.752  12.580  1.00  0.00     0.116 C 
HETATM   14  S1  UNL     1      -1.368  53.314  11.070  1.00  0.00    -0.096 SA
ENDBRANCH  12  13
ENDBRANCH   9  12
ENDBRANCH   5   6
ENDBRANCH   2   5
BRANCH   3  15
HETATM   15  C9  UNL     1      -9.939  57.208  11.246  1.00  0.00     0.174 C 
HETATM   16  S2  UNL     1      -9.706  57.804   9.702  1.00  0.00    -0.041 SA
BRANCH  15  17
HETATM   17  N4  UNL     1     -10.763  57.922  12.118  1.00  0.00    -0.362 N 
ATOM     18  H4  UNL     1     -10.552  57.961  13.115  1.00  0.00     0.162 HD
BRANCH  17  19
HETATM   19  C10 UNL     1     -11.948  58.621  11.568  1.00  0.00     0.083 C 
HETATM   20  C11 UNL     1     -13.167  58.157  12.308  1.00  0.00     0.025 C 
HETATM   21  C12 UNL     1     -13.792  59.394  12.918  1.00  0.00     0.002 C 
HETATM   22  C13 UNL     1     -13.307  60.490  11.999  1.00  0.00     0.002 C 
HETATM   23  C14 UNL     1     -11.827  60.105  11.848  1.00  0.00     0.025 C 
ENDBRANCH  17  19
ENDBRANCH  15  17
ENDBRANCH   3  15
TORSDOF 7
ENDMDL
MODEL 2
REMARK VINA RESULT: -6.089011695      4.758      9.566
REMARK  7 active torsions:
REMARK  status: ('A' for Active; 'I' for Inactive)
REMARK    1  A    between atoms: C1_2  and  C2_3 
REMARK       I    between atoms: C1_2  and  N3_13 
REMARK    2  A    between atoms: C2_3  and  N1_4 
REMARK    3  A    between atoms: N2_7  and  C5_8 
REMARK    4  A    between atoms: C5_8  and  C6_9 
REMARK    5  A    between atoms: N3_13  and  C9_15 
REMARK    6  A    between atoms: C9_15  and  N4_17 
REMARK    7  A    between atoms: N4_17  and  C10_19 
ROOT
HETATM    1  O1  UNL     1      -1.373  53.218  13.388  1.00  0.00    -0.271 OA
HETATM    2  C1  UNL     1      -2.131  53.656  12.524  1.00  0.00     0.241 C 
HETATM    3  N3  UNL     1      -1.907  53.479  11.151  1.00  0.00    -0.303 N 
ATOM      4  H3  UNL     1      -2.594  53.883  10.515  1.00  0.00     0.171 HD
ENDROOT
BRANCH   2   5
HETATM    5  C2  UNL     1      -3.343  54.413  12.974  1.00  0.00     0.220 C 
BRANCH   5   6
HETATM    6  N1  UNL     1      -4.512  53.820  12.444  1.00  0.00    -0.401 N 
HETATM    7  C3  UNL     1      -5.609  54.677  12.155  1.00  0.00     0.147 C 
HETATM    8  C4  UNL     1      -6.556  54.716  13.364  1.00  0.00     0.291 C 
HETATM    9  N2  UNL     1      -7.048  53.389  13.617  1.00  0.00     0.092 N 
HETATM   10  C7  UNL     1      -6.345  52.353  12.928  1.00  0.00     0.291 C 
HETATM   11  C8  UNL     1      -4.854  52.519  12.918  1.00  0.00     0.147 C 
BRANCH   9  12
HETATM   12  C5  UNL     1      -8.463  53.326  13.325  1.00  0.00     0.283 C 
BRANCH  12  13
HETATM   13  C6  UNL     1      -8.699  52.532  12.069  1.00  0.00     0.116 C 
HETATM   14  S1  UNL     1      -9.263  53.649  10.778  1.00  0.00    -0.096 SA
ENDBRANCH  12  13
ENDBRANCH   9  12
ENDBRANCH   5   6
ENDBRANCH   2   5
BRANCH   3  15
HETATM   15  C9  UNL     1      -0.834  52.802  10.578  1.00  0.00     0.174 C 
HETATM   16  S2  UNL     1       0.048  53.669   9.453  1.00  0.00    -0.041 SA
BRANCH  15  17
HETATM   17  N4  UNL     1      -0.446  51.493  10.863  1.00  0.00    -0.362 N 
ATOM     18  H4  UNL     1       0.484  51.297  11.233  1.00  0.00     0.162 HD
BRANCH  17  19
HETATM   19  C10 UNL     1      -1.410  50.394  10.620  1.00  0.00     0.083 C 
HETATM   20  C11 UNL     1      -0.663  49.208  10.085  1.00  0.00     0.025 C 
HETATM   21  C12 UNL     1      -0.926  48.070  11.047  1.00  0.00     0.002 C 
HETATM   22  C13 UNL     1      -2.250  48.460  11.660  1.00  0.00     0.002 C 
HETATM   23  C14 UNL     1      -2.008  49.952  11.940  1.00  0.00     0.025 C 
ENDBRANCH  17  19
ENDBRANCH  15  17
ENDBRANCH   3  15
TORSDOF 7
ENDMDL
MODEL 3
REMARK VINA RESULT: -6.066875054      0.952      1.239
REMARK  7 active torsions:
REMARK  status: ('A' for Active; 'I' for Inactive)
REMARK    1  A    between atoms: C1_2  and  C2_3 
REMARK       I    between atoms: C1_2  and  N3_13 
REMARK    2  A    between atoms: C2_3  and  N1_4 
REMARK    3  A    between atoms: N2_7  and  C5_8 
REMARK    4  A    between atoms: C5_8  and  C6_9 
REMARK    5  A    between atoms: N3_13  and  C9_15 
REMARK    6  A    between atoms: C9_15  and  N4_17 
REMARK    7  A    between atoms: N4_17  and  C10_19 
ROOT
HETATM    1  O1  UNL     1      -8.900  55.921  13.682  1.00  0.00    -0.271 OA
HETATM    2  C1  UNL     1      -8.535  55.268  12.705  1.00  0.00     0.241 C 
HETATM    3  N3  UNL     1      -8.840  55.633  11.386  1.00  0.00    -0.303 N 
ATOM      4  H3  UNL     1      -8.492  55.024  10.646  1.00  0.00     0.171 HD
ENDROOT
BRANCH   2   5
HETATM    5  C2  UNL     1      -7.729  54.030  12.952  1.00  0.00     0.220 C 
BRANCH   5   6
HETATM    6  N1  UNL     1      -6.442  54.163  12.380  1.00  0.00    -0.401 N 
HETATM    7  C3  UNL     1      -5.924  53.048  11.667  1.00  0.00     0.147 C 
HETATM    8  C4  UNL     1      -5.069  52.192  12.614  1.00  0.00     0.291 C 
HETATM    9  N2  UNL     1      -3.977  52.986  13.107  1.00  0.00     0.092 N 
HETATM   10  C7  UNL     1      -4.107  54.390  12.867  1.00  0.00     0.291 C 
HETATM   11  C8  UNL     1      -5.485  54.932  13.104  1.00  0.00     0.147 C 
BRANCH   9  12
HETATM   12  C5  UNL     1      -2.728  52.491  12.571  1.00  0.00     0.283 C 
BRANCH  12  13
HETATM   13  C6  UNL     1      -1.835  53.640  12.189  1.00  0.00     0.116 C 
HETATM   14  S1  UNL     1      -1.066  53.271  10.606  1.00  0.00    -0.096 SA
ENDBRANCH  12  13
ENDBRANCH   9  12
ENDBRANCH   5   6
ENDBRANCH   2   5
BRANCH   3  15
HETATM   15  C9  UNL     1      -9.574  56.749  10.995  1.00  0.00     0.174 C 
HETATM   16  S2  UNL     1      -9.479  57.144   9.374  1.00  0.00    -0.041 SA
BRANCH  15  17
HETATM   17  N4  UNL     1     -10.364  57.542  11.828  1.00  0.00    -0.362 N 
ATOM     18  H4  UNL     1     -10.140  57.636  12.819  1.00  0.00     0.162 HD
BRANCH  17  19
HETATM   19  C10 UNL     1     -11.534  58.243  11.248  1.00  0.00     0.083 C 
HETATM   20  C11 UNL     1     -12.765  57.826  11.995  1.00  0.00     0.025 C 
HETATM   21  C12 UNL     1     -13.371  59.093  12.559  1.00  0.00     0.002 C 
HETATM   22  C13 UNL     1     -12.862  60.149  11.608  1.00  0.00     0.002 C 
HETATM   23  C14 UNL     1     -11.388  59.733  11.479  1.00  0.00     0.025 C 
ENDBRANCH  17  19
ENDBRANCH  15  17
ENDBRANCH   3  15
TORSDOF 7
ENDMDL
MODEL 4
REMARK VINA RESULT: -6.014271031      4.385      9.110
REMARK  7 active torsions:
REMARK  status: ('A' for Active; 'I' for Inactive)
REMARK    1  A    between atoms: C1_2  and  C2_3 
REMARK       I    between atoms: C1_2  and  N3_13 
REMARK    2  A    between atoms: C2_3  and  N1_4 
REMARK    3  A    between atoms: N2_7  and  C5_8 
REMARK    4  A    between atoms: C5_8  and  C6_9 
REMARK    5  A    between atoms: N3_13  and  C9_15 
REMARK    6  A    between atoms: C9_15  and  N4_17 
REMARK    7  A    between atoms: N4_17  and  C10_19 
ROOT
HETATM    1  O1  UNL     1      -1.387  53.101  13.310  1.00  0.00    -0.271 OA
HETATM    2  C1  UNL     1      -2.094  53.635  12.457  1.00  0.00     0.241 C 
HETATM    3  N3  UNL     1      -1.826  53.555  11.083  1.00  0.00    -0.303 N 
ATOM      4  H3  UNL     1      -2.472  54.034  10.456  1.00  0.00     0.171 HD
ENDROOT
BRANCH   2   5
HETATM    5  C2  UNL     1      -3.293  54.404  12.922  1.00  0.00     0.220 C 
BRANCH   5   6
HETATM    6  N1  UNL     1      -4.387  53.529  13.117  1.00  0.00    -0.401 N 
HETATM    7  C3  UNL     1      -5.208  53.245  11.992  1.00  0.00     0.147 C 
HETATM    8  C4  UNL     1      -6.396  54.219  11.971  1.00  0.00     0.291 C 
HETATM    9  N2  UNL     1      -7.166  54.045  13.172  1.00  0.00     0.092 N 
HETATM   10  C7  UNL     1      -6.516  53.279  14.189  1.00  0.00     0.291 C 
HETATM   11  C8  UNL     1      -5.062  53.601  14.371  1.00  0.00     0.147 C 
BRANCH   9  12
HETATM   12  C5  UNL     1      -8.456  53.475  12.851  1.00  0.00     0.283 C 
BRANCH  12  13
HETATM   13  C6  UNL     1      -8.888  53.911  11.477  1.00  0.00     0.116 C 
HETATM   14  S1  UNL     1      -9.615  52.503  10.629  1.00  0.00    -0.096 SA
ENDBRANCH  12  13
ENDBRANCH   9  12
ENDBRANCH   5   6
ENDBRANCH   2   5
BRANCH   3  15
HETATM   15  C9  UNL     1      -0.757  52.881  10.496  1.00  0.00     0.174 C 
HETATM   16  S2  UNL     1      -0.027  53.664   9.213  1.00  0.00    -0.041 SA
BRANCH  15  17
HETATM   17  N4  UNL     1      -0.261  51.637  10.888  1.00  0.00    -0.362 N 
ATOM     18  H4  UNL     1       0.627  51.566  11.385  1.00  0.00     0.162 HD
BRANCH  17  19
HETATM   19  C10 UNL     1      -1.047  50.422  10.568  1.00  0.00     0.083 C 
HETATM   20  C11 UNL     1      -1.764  49.972  11.805  1.00  0.00     0.025 C 
HETATM   21  C12 UNL     1      -3.239  49.970  11.467  1.00  0.00     0.002 C 
HETATM   22  C13 UNL     1      -3.229  49.785   9.968  1.00  0.00     0.002 C 
HETATM   23  C14 UNL     1      -2.126  50.775   9.563  1.00  0.00     0.025 C 
ENDBRANCH  17  19
ENDBRANCH  15  17
ENDBRANCH   3  15
TORSDOF 7
ENDMDL
MODEL 5
REMARK VINA RESULT: -5.951145856      3.956      9.354
REMARK  7 active torsions:
REMARK  status: ('A' for Active; 'I' for Inactive)
REMARK    1  A    between atoms: C1_2  and  C2_3 
REMARK       I    between atoms: C1_2  and  N3_13 
REMARK    2  A    between atoms: C2_3  and  N1_4 
REMARK    3  A    between atoms: N2_7  and  C5_8 
REMARK    4  A    between atoms: C5_8  and  C6_9 
REMARK    5  A    between atoms: N3_13  and  C9_15 
REMARK    6  A    between atoms: C9_15  and  N4_17 
REMARK    7  A    between atoms: N4_17  and  C10_19 
ROOT
HETATM    1  O1  UNL     1      -1.116  53.267  13.419  1.00  0.00    -0.271 OA
HETATM    2  C1  UNL     1      -2.124  53.179  12.720  1.00  0.00     0.241 C 
HETATM    3  N3  UNL     1      -2.282  52.201  11.727  1.00  0.00    -0.303 N 
ATOM      4  H3  UNL     1      -3.155  52.213  11.201  1.00  0.00     0.171 HD
ENDROOT
BRANCH   2   5
HETATM    5  C2  UNL     1      -3.225  54.169  12.951  1.00  0.00     0.220 C 
BRANCH   5   6
HETATM    6  N1  UNL     1      -4.473  53.505  13.007  1.00  0.00    -0.401 N 
HETATM    7  C3  UNL     1      -5.334  53.632  11.883  1.00  0.00     0.147 C 
HETATM    8  C4  UNL     1      -6.302  54.803  12.115  1.00  0.00     0.291 C 
HETATM    9  N2  UNL     1      -7.091  54.534  13.287  1.00  0.00     0.092 N 
HETATM   10  C7  UNL     1      -6.608  53.458  14.094  1.00  0.00     0.291 C 
HETATM   11  C8  UNL     1      -5.119  53.442  14.277  1.00  0.00     0.147 C 
BRANCH   9  12
HETATM   12  C5  UNL     1      -8.469  54.310  12.910  1.00  0.00     0.283 C 
BRANCH  12  13
HETATM   13  C6  UNL     1      -8.767  54.992  11.602  1.00  0.00     0.116 C 
HETATM   14  S1  UNL     1      -9.529  56.584  11.943  1.00  0.00    -0.096 SA
ENDBRANCH  12  13
ENDBRANCH   9  12
ENDBRANCH   5   6
ENDBRANCH   2   5
BRANCH   3  15
HETATM   15  C9  UNL     1      -1.356  51.216  11.395  1.00  0.00     0.174 C 
HETATM   16  S2  UNL     1      -1.910  49.642  11.489  1.00  0.00    -0.041 SA
BRANCH  15  17
HETATM   17  N4  UNL     1      -0.037  51.435  10.998  1.00  0.00    -0.362 N 
ATOM     18  H4  UNL     1       0.736  51.228  11.630  1.00  0.00     0.162 HD
BRANCH  17  19
HETATM   19  C10 UNL     1       0.221  51.973   9.641  1.00  0.00     0.083 C 
HETATM   20  C11 UNL     1      -0.874  51.515   8.725  1.00  0.00     0.025 C 
HETATM   21  C12 UNL     1      -1.513  52.768   8.165  1.00  0.00     0.002 C 
HETATM   22  C13 UNL     1      -0.394  53.777   8.265  1.00  0.00     0.002 C 
HETATM   23  C14 UNL     1       0.130  53.486   9.679  1.00  0.00     0.025 C 
ENDBRANCH  17  19
ENDBRANCH  15  17
ENDBRANCH   3  15
TORSDOF 7
ENDMDL
