MODEL 1
REMARK VINA RESULT: -7.312382057      0.000      0.000
REMARK  5 active torsions:
REMARK  status: ('A' for Active; 'I' for Inactive)
REMARK    1  A    between atoms: C2_3  and  C3_4 
REMARK    2  A    between atoms: C3_4  and  N2_5 
REMARK    3  A    between atoms: C3_4  and  C4_11 
REMARK    4  A    between atoms: N2_5  and  S1_7 
REMARK       I    between atoms: C4_11  and  N3_13 
REMARK    5  A    between atoms: N3_13  and  C5_15 
ROOT
HETATM    1  N1  UNL     1      -0.373  49.235   9.972  1.00  0.00    -0.197 NA
HETATM    2  C1  UNL     1      -0.206  50.399  10.094  1.00  0.00     0.061 C 
HETATM    3  C2  UNL     1       0.039  51.803  10.273  1.00  0.00     0.159 C 
ENDROOT
BRANCH   3   4
HETATM    4  C3  UNL     1      -1.132  52.658   9.945  1.00  0.00     0.200 C 
BRANCH   4   5
HETATM    5  N2  UNL     1      -1.947  51.990   8.906  1.00  0.00    -0.286 N 
ATOM      6  H2  UNL     1      -2.530  51.176   9.101  1.00  0.00     0.175 HD
BRANCH   5   7
HETATM    7  S1  UNL     1      -1.832  52.682   7.378  1.00  0.00     0.205 S 
HETATM    8  O1  UNL     1      -3.191  53.270   7.014  1.00  0.00    -0.578 OA
HETATM    9  O2  UNL     1      -1.516  51.670   6.338  1.00  0.00    -0.578 OA
HETATM   10  O3  UNL     1      -0.737  53.950   7.292  1.00  0.00    -0.578 OA
ENDBRANCH   5   7
ENDBRANCH   4   5
BRANCH   4  11
HETATM   11  C4  UNL     1      -2.017  53.009  11.075  1.00  0.00     0.242 C 
HETATM   12  O4  UNL     1      -1.443  53.512  12.110  1.00  0.00    -0.271 OA
HETATM   13  N3  UNL     1      -3.401  52.860  11.171  1.00  0.00    -0.354 N 
ATOM     14  H3  UNL     1      -3.916  52.458  10.388  1.00  0.00     0.162 HD
BRANCH  13  15
HETATM   15  C5  UNL     1      -4.121  53.264  12.359  1.00  0.00     0.092 C 
HETATM   16  C6  UNL     1      -5.196  54.285  12.040  1.00  0.00     0.009 C 
HETATM   17  C7  UNL     1      -6.379  53.687  11.356  1.00  0.00     0.011 C 
HETATM   18  C11 UNL     1      -5.603  54.900  13.374  1.00  0.00     0.011 C 
HETATM   19  C8  UNL     1      -6.996  52.659  12.270  1.00  0.00    -0.013 C 
HETATM   20  C9  UNL     1      -7.392  53.267  13.579  1.00  0.00     0.009 C 
HETATM   21  C14 UNL     1      -5.965  51.556  12.463  1.00  0.00     0.011 C 
HETATM   22  C10 UNL     1      -6.143  53.801  14.257  1.00  0.00    -0.013 C 
HETATM   23  C12 UNL     1      -5.175  52.681  14.470  1.00  0.00     0.011 C 
HETATM   24  C13 UNL     1      -4.726  52.117  13.117  1.00  0.00     0.009 C 
ENDBRANCH  13  15
ENDBRANCH   4  11
ENDBRANCH   3   4
TORSDOF 5
ENDMDL
MODEL 2
REMARK VINA RESULT: -7.150312596      6.694      8.658
REMARK  5 active torsions:
REMARK  status: ('A' for Active; 'I' for Inactive)
REMARK    1  A    between atoms: C2_3  and  C3_4 
REMARK    2  A    between atoms: C3_4  and  N2_5 
REMARK    3  A    between atoms: C3_4  and  C4_11 
REMARK    4  A    between atoms: N2_5  and  S1_7 
REMARK       I    between atoms: C4_11  and  N3_13 
REMARK    5  A    between atoms: N3_13  and  C5_15 
ROOT
HETATM    1  N1  UNL     1      -6.663  55.558   9.154  1.00  0.00    -0.197 NA
HETATM    2  C1  UNL     1      -7.406  55.091   9.946  1.00  0.00     0.061 C 
HETATM    3  C2  UNL     1      -8.335  54.500  10.868  1.00  0.00     0.159 C 
ENDROOT
BRANCH   3   4
HETATM    4  C3  UNL     1      -8.330  55.138  12.210  1.00  0.00     0.200 C 
BRANCH   4   5
HETATM    5  N2  UNL     1      -7.009  55.764  12.446  1.00  0.00    -0.286 N 
ATOM      6  H2  UNL     1      -6.631  56.497  11.846  1.00  0.00     0.175 HD
BRANCH   5   7
HETATM    7  S1  UNL     1      -6.183  55.168  13.783  1.00  0.00     0.205 S 
HETATM    8  O1  UNL     1      -6.913  53.926  14.284  1.00  0.00    -0.578 OA
HETATM    9  O2  UNL     1      -6.180  56.139  14.906  1.00  0.00    -0.578 OA
HETATM   10  O3  UNL     1      -4.614  54.682  13.445  1.00  0.00    -0.578 OA
ENDBRANCH   5   7
ENDBRANCH   4   5
BRANCH   4  11
HETATM   11  C4  UNL     1      -9.375  56.155  12.450  1.00  0.00     0.242 C 
HETATM   12  O4  UNL     1      -9.555  56.506  13.674  1.00  0.00    -0.271 OA
HETATM   13  N3  UNL     1     -10.202  56.785  11.519  1.00  0.00    -0.354 N 
ATOM     14  H3  UNL     1     -10.116  56.544  10.532  1.00  0.00     0.162 HD
BRANCH  13  15
HETATM   15  C5  UNL     1     -11.177  57.772  11.926  1.00  0.00     0.092 C 
HETATM   16  C6  UNL     1     -10.972  59.090  11.205  1.00  0.00     0.009 C 
HETATM   17  C7  UNL     1     -11.405  59.046   9.779  1.00  0.00     0.011 C 
HETATM   18  C11 UNL     1     -11.782  60.124  11.978  1.00  0.00     0.011 C 
HETATM   19  C8  UNL     1     -12.879  58.736   9.730  1.00  0.00    -0.013 C 
HETATM   20  C9  UNL     1     -13.670  59.752  10.492  1.00  0.00     0.009 C 
HETATM   21  C14 UNL     1     -13.063  57.342  10.315  1.00  0.00     0.011 C 
HETATM   22  C10 UNL     1     -13.234  59.709  11.946  1.00  0.00    -0.013 C 
HETATM   23  C12 UNL     1     -13.472  58.340  12.496  1.00  0.00     0.011 C 
HETATM   24  C13 UNL     1     -12.600  57.321  11.752  1.00  0.00     0.009 C 
ENDBRANCH  13  15
ENDBRANCH   4  11
ENDBRANCH   3   4
TORSDOF 5
ENDMDL
MODEL 3
REMARK VINA RESULT: -7.057816053      1.251      1.824
REMARK  5 active torsions:
REMARK  status: ('A' for Active; 'I' for Inactive)
REMARK    1  A    between atoms: C2_3  and  C3_4 
REMARK    2  A    between atoms: C3_4  and  N2_5 
REMARK    3  A    between atoms: C3_4  and  C4_11 
REMARK    4  A    between atoms: N2_5  and  S1_7 
REMARK       I    between atoms: C4_11  and  N3_13 
REMARK    5  A    between atoms: N3_13  and  C5_15 
ROOT
HETATM    1  N1  UNL     1       2.069  54.516   8.797  1.00  0.00    -0.197 NA
HETATM    2  C1  UNL     1       1.294  53.728   9.216  1.00  0.00     0.061 C 
HETATM    3  C2  UNL     1       0.392  52.734   9.726  1.00  0.00     0.159 C 
ENDROOT
BRANCH   3   4
HETATM    4  C3  UNL     1      -1.041  53.071   9.526  1.00  0.00     0.200 C 
BRANCH   4   5
HETATM    5  N2  UNL     1      -1.660  52.057   8.643  1.00  0.00    -0.286 N 
ATOM      6  H2  UNL     1      -1.839  51.099   8.943  1.00  0.00     0.175 HD
BRANCH   5   7
HETATM    7  S1  UNL     1      -2.043  52.614   7.103  1.00  0.00     0.205 S 
HETATM    8  O1  UNL     1      -1.204  53.854   6.818  1.00  0.00    -0.578 OA
HETATM    9  O2  UNL     1      -3.465  53.032   7.009  1.00  0.00    -0.578 OA
HETATM   10  O3  UNL     1      -1.688  51.519   5.883  1.00  0.00    -0.578 OA
ENDBRANCH   5   7
ENDBRANCH   4   5
BRANCH   4  11
HETATM   11  C4  UNL     1      -1.860  53.181  10.751  1.00  0.00     0.242 C 
HETATM   12  O4  UNL     1      -1.242  53.551  11.816  1.00  0.00    -0.271 OA
HETATM   13  N3  UNL     1      -3.223  52.929  10.909  1.00  0.00    -0.354 N 
ATOM     14  H3  UNL     1      -3.771  52.622  10.105  1.00  0.00     0.162 HD
BRANCH  13  15
HETATM   15  C5  UNL     1      -3.876  53.094  12.189  1.00  0.00     0.092 C 
HETATM   16  C6  UNL     1      -4.942  54.171  12.138  1.00  0.00     0.009 C 
HETATM   17  C7  UNL     1      -6.169  53.740  11.409  1.00  0.00     0.011 C 
HETATM   18  C11 UNL     1      -5.270  54.509  13.587  1.00  0.00     0.011 C 
HETATM   19  C8  UNL     1      -6.766  52.556  12.127  1.00  0.00    -0.013 C 
HETATM   20  C9  UNL     1      -7.085  52.892  13.550  1.00  0.00     0.009 C 
HETATM   21  C14 UNL     1      -5.752  51.423  12.041  1.00  0.00     0.011 C 
HETATM   22  C10 UNL     1      -5.793  53.261  14.258  1.00  0.00    -0.013 C 
HETATM   23  C12 UNL     1      -4.843  52.109  14.190  1.00  0.00     0.011 C 
HETATM   24  C13 UNL     1      -4.471  51.825  12.730  1.00  0.00     0.009 C 
ENDBRANCH  13  15
ENDBRANCH   4  11
ENDBRANCH   3   4
TORSDOF 5
ENDMDL
MODEL 4
REMARK VINA RESULT: -6.999183281      2.096      2.744
REMARK  5 active torsions:
REMARK  status: ('A' for Active; 'I' for Inactive)
REMARK    1  A    between atoms: C2_3  and  C3_4 
REMARK    2  A    between atoms: C3_4  and  N2_5 
REMARK    3  A    between atoms: C3_4  and  C4_11 
REMARK    4  A    between atoms: N2_5  and  S1_7 
REMARK       I    between atoms: C4_11  and  N3_13 
REMARK    5  A    between atoms: N3_13  and  C5_15 
ROOT
HETATM    1  N1  UNL     1      -0.374  54.354   7.407  1.00  0.00    -0.197 NA
HETATM    2  C1  UNL     1      -0.250  54.025   8.535  1.00  0.00     0.061 C 
HETATM    3  C2  UNL     1      -0.052  53.648   9.906  1.00  0.00     0.159 C 
ENDROOT
BRANCH   3   4
HETATM    4  C3  UNL     1      -0.979  52.584  10.372  1.00  0.00     0.200 C 
BRANCH   4   5
HETATM    5  N2  UNL     1      -0.190  51.436  10.872  1.00  0.00    -0.286 N 
ATOM      6  H2  UNL     1       0.691  51.549  11.373  1.00  0.00     0.175 HD
BRANCH   5   7
HETATM    7  S1  UNL     1      -0.866  49.931  10.549  1.00  0.00     0.205 S 
HETATM    8  O1  UNL     1      -1.802  50.072   9.353  1.00  0.00    -0.578 OA
HETATM    9  O2  UNL     1      -1.695  49.446  11.681  1.00  0.00    -0.578 OA
HETATM   10  O3  UNL     1       0.261  48.763  10.124  1.00  0.00    -0.578 OA
ENDBRANCH   5   7
ENDBRANCH   4   5
BRANCH   4  11
HETATM   11  C4  UNL     1      -1.943  52.977  11.420  1.00  0.00     0.242 C 
HETATM   12  O4  UNL     1      -1.440  53.375  12.535  1.00  0.00    -0.271 OA
HETATM   13  N3  UNL     1      -3.338  52.967  11.364  1.00  0.00    -0.354 N 
ATOM     14  H3  UNL     1      -3.801  52.653  10.512  1.00  0.00     0.162 HD
BRANCH  13  15
HETATM   15  C5  UNL     1      -4.139  53.394  12.490  1.00  0.00     0.092 C 
HETATM   16  C6  UNL     1      -5.231  54.357  12.065  1.00  0.00     0.009 C 
HETATM   17  C7  UNL     1      -6.350  53.684  11.344  1.00  0.00     0.011 C 
HETATM   18  C11 UNL     1      -5.737  55.013  13.344  1.00  0.00     0.011 C 
HETATM   19  C8  UNL     1      -6.981  52.673  12.267  1.00  0.00    -0.013 C 
HETATM   20  C9  UNL     1      -7.474  53.321  13.523  1.00  0.00     0.009 C 
HETATM   21  C14 UNL     1      -5.922  51.620  12.568  1.00  0.00     0.011 C 
HETATM   22  C10 UNL     1      -6.286  53.933  14.245  1.00  0.00    -0.013 C 
HETATM   23  C12 UNL     1      -5.292  52.862  14.563  1.00  0.00     0.011 C 
HETATM   24  C13 UNL     1      -4.745  52.258  13.264  1.00  0.00     0.009 C 
ENDBRANCH  13  15
ENDBRANCH   4  11
ENDBRANCH   3   4
TORSDOF 5
ENDMDL
MODEL 5
REMARK VINA RESULT: -6.986435535      4.934      7.254
REMARK  5 active torsions:
REMARK  status: ('A' for Active; 'I' for Inactive)
REMARK    1  A    between atoms: C2_3  and  C3_4 
REMARK    2  A    between atoms: C3_4  and  N2_5 
REMARK    3  A    between atoms: C3_4  and  C4_11 
REMARK    4  A    between atoms: N2_5  and  S1_7 
REMARK       I    between atoms: C4_11  and  N3_13 
REMARK    5  A    between atoms: N3_13  and  C5_15 
ROOT
HETATM    1  N1  UNL     1     -11.150  59.663  10.799  1.00  0.00    -0.197 NA
HETATM    2  C1  UNL     1     -10.913  58.661  11.380  1.00  0.00     0.061 C 
HETATM    3  C2  UNL     1     -10.642  57.467  12.130  1.00  0.00     0.159 C 
ENDROOT
BRANCH   3   4
HETATM    4  C3  UNL     1      -9.743  56.514  11.429  1.00  0.00     0.200 C 
BRANCH   4   5
HETATM    5  N2  UNL     1      -9.074  57.212  10.308  1.00  0.00    -0.286 N 
ATOM      6  H2  UNL     1      -8.897  58.216  10.311  1.00  0.00     0.175 HD
BRANCH   5   7
HETATM    7  S1  UNL     1      -8.629  56.214   9.031  1.00  0.00     0.205 S 
HETATM    8  O1  UNL     1      -9.012  56.903   7.726  1.00  0.00    -0.578 OA
HETATM    9  O2  UNL     1      -9.362  54.923   9.060  1.00  0.00    -0.578 OA
HETATM   10  O3  UNL     1      -6.978  55.929   8.941  1.00  0.00    -0.578 OA
ENDBRANCH   5   7
ENDBRANCH   4   5
BRANCH   4  11
HETATM   11  C4  UNL     1      -8.706  55.869  12.259  1.00  0.00     0.242 C 
HETATM   12  O4  UNL     1      -8.865  55.952  13.533  1.00  0.00    -0.271 OA
HETATM   13  N3  UNL     1      -7.565  55.181  11.843  1.00  0.00    -0.354 N 
ATOM     14  H3  UNL     1      -7.374  55.087  10.846  1.00  0.00     0.162 HD
BRANCH  13  15
HETATM   15  C5  UNL     1      -6.647  54.598  12.798  1.00  0.00     0.092 C 
HETATM   16  C6  UNL     1      -7.212  53.335  13.417  1.00  0.00     0.009 C 
HETATM   17  C7  UNL     1      -7.197  52.173  12.482  1.00  0.00     0.011 C 
HETATM   18  C11 UNL     1      -6.355  53.046  14.643  1.00  0.00     0.011 C 
HETATM   19  C8  UNL     1      -5.769  51.881  12.097  1.00  0.00    -0.013 C 
HETATM   20  C9  UNL     1      -4.930  51.601  13.304  1.00  0.00     0.009 C 
HETATM   21  C14 UNL     1      -5.253  53.096  11.337  1.00  0.00     0.011 C 
HETATM   22  C10 UNL     1      -4.930  52.836  14.187  1.00  0.00    -0.013 C 
HETATM   23  C12 UNL     1      -4.376  53.994  13.421  1.00  0.00     0.011 C 
HETATM   24  C13 UNL     1      -5.286  54.313  12.229  1.00  0.00     0.009 C 
ENDBRANCH  13  15
ENDBRANCH   4  11
ENDBRANCH   3   4
TORSDOF 5
ENDMDL
