MODEL 1
REMARK VINA RESULT: -5.959260526      0.000      0.000
REMARK  1 active torsions:
REMARK  status: ('A' for Active; 'I' for Inactive)
REMARK    1  A    between atoms: C2_2  and  C3_3 
ROOT
HETATM    1  C3  UNL     1      13.938  10.855   8.546  1.00  0.00     0.044 C 
HETATM    2  C4  UNL     1      14.946  10.022   9.224  1.00  0.00     0.281 C 
HETATM    3  N1  UNL     1      15.577   9.008   8.495  1.00  0.00     0.119 N 
HETATM    4  C5  UNL     1      14.927   7.716   8.533  1.00  0.00     0.310 C 
HETATM    5  C6  UNL     1      14.015   7.821   7.302  1.00  0.00     0.257 C 
HETATM    6  C7  UNL     1      12.905   8.746   7.650  1.00  0.00     0.071 C 
HETATM    7  C8  UNL     1      13.194  10.194   7.429  1.00  0.00     0.195 C 
HETATM    8  N2  UNL     1      13.853  10.487   6.193  1.00  0.00    -0.044 N 
ATOM      9  H21 UNL     1      14.653  11.100   6.353  1.00  0.00     0.279 HD
ATOM     10  H22 UNL     1      13.276  11.101   5.618  1.00  0.00     0.279 HD
HETATM   11  C9  UNL     1      14.251   9.327   5.444  1.00  0.00     0.506 C 
HETATM   12  N3  UNL     1      14.918   8.414   6.343  1.00  0.00     0.148 N 
HETATM   13  C10 UNL     1      15.854   9.229   7.133  1.00  0.00     0.545 C 
ENDROOT
BRANCH   1  14
HETATM   14  C2  UNL     1      12.940  11.412   9.569  1.00  0.00     0.004 C 
HETATM   15  C1  UNL     1      13.555  11.588  10.914  1.00  0.00     0.005 C 
ENDBRANCH   1  14
TORSDOF 1
ENDMDL
MODEL 2
REMARK VINA RESULT: -5.347792584      1.109      2.529
REMARK  1 active torsions:
REMARK  status: ('A' for Active; 'I' for Inactive)
REMARK    1  A    between atoms: C2_2  and  C3_3 
ROOT
HETATM    1  C3  UNL     1      13.925  10.081   9.361  1.00  0.00     0.044 C 
HETATM    2  C4  UNL     1      13.463  10.906   8.232  1.00  0.00     0.281 C 
HETATM    3  N1  UNL     1      13.331  10.307   6.975  1.00  0.00     0.119 N 
HETATM    4  C5  UNL     1      14.509  10.356   6.134  1.00  0.00     0.310 C 
HETATM    5  C6  UNL     1      15.188   9.035   6.521  1.00  0.00     0.257 C 
HETATM    6  C7  UNL     1      15.761   9.213   7.881  1.00  0.00     0.071 C 
HETATM    7  C8  UNL     1      14.821   8.936   9.007  1.00  0.00     0.195 C 
HETATM    8  N2  UNL     1      14.025   7.758   8.841  1.00  0.00    -0.044 N 
ATOM      9  H21 UNL     1      13.043   7.961   9.032  1.00  0.00     0.279 HD
ATOM     10  H22 UNL     1      14.214   7.092   9.590  1.00  0.00     0.279 HD
HETATM   11  C9  UNL     1      14.165   7.124   7.559  1.00  0.00     0.506 C 
HETATM   12  N3  UNL     1      14.055   8.138   6.537  1.00  0.00     0.148 N 
HETATM   13  C10 UNL     1      12.899   8.969   6.907  1.00  0.00     0.545 C 
ENDROOT
BRANCH   1  14
HETATM   14  C2  UNL     1      14.613  10.963  10.413  1.00  0.00     0.004 C 
HETATM   15  C1  UNL     1      13.633  11.762  11.201  1.00  0.00     0.005 C 
ENDBRANCH   1  14
TORSDOF 1
ENDMDL
MODEL 3
REMARK VINA RESULT: -5.325150104      5.825      7.930
REMARK  1 active torsions:
REMARK  status: ('A' for Active; 'I' for Inactive)
REMARK    1  A    between atoms: C2_2  and  C3_3 
ROOT
HETATM    1  C3  UNL     1      15.397   9.884  -0.233  1.00  0.00     0.044 C 
HETATM    2  C4  UNL     1      15.588  10.727   0.960  1.00  0.00     0.281 C 
HETATM    3  N1  UNL     1      15.007  10.322   2.166  1.00  0.00     0.119 N 
HETATM    4  C5  UNL     1      13.667  10.813   2.408  1.00  0.00     0.310 C 
HETATM    5  C6  UNL     1      12.834   9.673   1.803  1.00  0.00     0.257 C 
HETATM    6  C7  UNL     1      12.949   9.778   0.325  1.00  0.00     0.071 C 
HETATM    7  C8  UNL     1      14.131   9.087  -0.269  1.00  0.00     0.195 C 
HETATM    8  N2  UNL     1      14.387   7.783   0.261  1.00  0.00    -0.044 N 
ATOM      9  H21 UNL     1      15.372   7.687   0.511  1.00  0.00     0.279 HD
ATOM     10  H22 UNL     1      14.325   7.080  -0.475  1.00  0.00     0.279 HD
HETATM   11  C9  UNL     1      13.551   7.421   1.372  1.00  0.00     0.506 C 
HETATM   12  N3  UNL     1      13.541   8.520   2.309  1.00  0.00     0.148 N 
HETATM   13  C10 UNL     1      14.941   8.946   2.455  1.00  0.00     0.545 C 
ENDROOT
BRANCH   1  14
HETATM   14  C2  UNL     1      15.503  10.738  -1.504  1.00  0.00     0.004 C 
HETATM   15  C1  UNL     1      15.277   9.935  -2.738  1.00  0.00     0.005 C 
ENDBRANCH   1  14
TORSDOF 1
ENDMDL
MODEL 4
REMARK VINA RESULT: -5.231123841      1.280      3.731
REMARK  1 active torsions:
REMARK  status: ('A' for Active; 'I' for Inactive)
REMARK    1  A    between atoms: C2_2  and  C3_3 
ROOT
HETATM    1  C3  UNL     1      14.201   9.023   5.809  1.00  0.00     0.044 C 
HETATM    2  C4  UNL     1      14.265  10.426   6.255  1.00  0.00     0.281 C 
HETATM    3  N1  UNL     1      14.456  10.687   7.616  1.00  0.00     0.119 N 
HETATM    4  C5  UNL     1      13.248  10.811   8.403  1.00  0.00     0.310 C 
HETATM    5  C6  UNL     1      13.063   9.359   8.867  1.00  0.00     0.257 C 
HETATM    6  C7  UNL     1      12.599   8.575   7.693  1.00  0.00     0.071 C 
HETATM    7  C8  UNL     1      13.684   8.044   6.816  1.00  0.00     0.195 C 
HETATM    8  N2  UNL     1      14.792   7.472   7.519  1.00  0.00    -0.044 N 
ATOM      9  H21 UNL     1      15.672   7.837   7.154  1.00  0.00     0.279 HD
ATOM     10  H22 UNL     1      14.898   6.487   7.277  1.00  0.00     0.279 HD
HETATM   11  C9  UNL     1      14.735   7.635   8.946  1.00  0.00     0.506 C 
HETATM   12  N3  UNL     1      14.417   9.014   9.233  1.00  0.00     0.148 N 
HETATM   13  C10 UNL     1      15.281   9.823   8.360  1.00  0.00     0.545 C 
ENDROOT
BRANCH   1  14
HETATM   14  C2  UNL     1      13.376   8.917   4.520  1.00  0.00     0.004 C 
HETATM   15  C1  UNL     1      14.098   9.478   3.344  1.00  0.00     0.005 C 
ENDBRANCH   1  14
TORSDOF 1
ENDMDL
MODEL 5
REMARK VINA RESULT: -5.188322585      8.062      9.541
REMARK  1 active torsions:
REMARK  status: ('A' for Active; 'I' for Inactive)
REMARK    1  A    between atoms: C2_2  and  C3_3 
ROOT
HETATM    1  C3  UNL     1      16.184  10.384  -0.525  1.00  0.00     0.044 C 
HETATM    2  C4  UNL     1      15.245   9.632   0.324  1.00  0.00     0.281 C 
HETATM    3  N1  UNL     1      14.152   9.002  -0.282  1.00  0.00     0.119 N 
HETATM    4  C5  UNL     1      12.948   9.801  -0.382  1.00  0.00     0.310 C 
HETATM    5  C6  UNL     1      13.147  10.442  -1.762  1.00  0.00     0.257 C 
HETATM    6  C7  UNL     1      14.205  11.477  -1.622  1.00  0.00     0.071 C 
HETATM    7  C8  UNL     1      15.604  10.978  -1.770  1.00  0.00     0.195 C 
HETATM    8  N2  UNL     1      15.799  10.065  -2.855  1.00  0.00    -0.044 N 
ATOM      9  H21 UNL     1      16.312   9.241  -2.539  1.00  0.00     0.279 HD
ATOM     10  H22 UNL     1      16.470  10.443  -3.523  1.00  0.00     0.279 HD
HETATM   11  C9  UNL     1      14.589   9.676  -3.526  1.00  0.00     0.506 C 
HETATM   12  N3  UNL     1      13.614   9.308  -2.526  1.00  0.00     0.148 N 
HETATM   13  C10 UNL     1      14.319   8.447  -1.564  1.00  0.00     0.545 C 
ENDROOT
BRANCH   1  14
HETATM   14  C2  UNL     1      16.872  11.484   0.296  1.00  0.00     0.004 C 
HETATM   15  C1  UNL     1      18.232  11.802  -0.223  1.00  0.00     0.005 C 
ENDBRANCH   1  14
TORSDOF 1
ENDMDL
