MODEL 1
REMARK VINA RESULT: -5.524864785      0.000      0.000
REMARK  1 active torsions:
REMARK  status: ('A' for Active; 'I' for Inactive)
REMARK    1  A    between atoms: C6_9  and  N3_10 
ROOT
HETATM    1  C1  UNL     1      12.567   8.579   2.237  1.00  0.00     0.068 C 
HETATM    2  C2  UNL     1      13.541   9.417   1.457  1.00  0.00     0.013 A 
HETATM    3  N1  UNL     1      13.272   9.795   0.192  1.00  0.00    -0.361 N 
ATOM      4  H1  UNL     1      12.395   9.511  -0.246  1.00  0.00     0.165 HD
HETATM    5  C3  UNL     1      14.151  10.544  -0.495  1.00  0.00     0.032 A 
HETATM    6  C4  UNL     1      13.885  10.974  -1.879  1.00  0.00     0.070 C 
HETATM    7  C5  UNL     1      15.324  10.912   0.125  1.00  0.00     0.095 A 
HETATM    8  N2  UNL     1      16.243  11.695  -0.596  1.00  0.00    -0.098 NA
HETATM    9  C6  UNL     1      15.635  10.540   1.427  1.00  0.00     0.064 A 
HETATM   10  C9  UNL     1      14.708   9.770   2.102  1.00  0.00    -0.011 A 
HETATM   11  C10 UNL     1      14.960   9.331   3.492  1.00  0.00     0.052 C 
ENDROOT
BRANCH   9  12
HETATM   12  N3  UNL     1      16.831  10.913   2.061  1.00  0.00    -0.388 N 
HETATM   13  C7  UNL     1      18.053  10.151   1.966  1.00  0.00     0.149 C 
HETATM   14  C8  UNL     1      16.803  12.149   2.854  1.00  0.00     0.149 C 
ENDBRANCH   9  12
TORSDOF 1
ENDMDL
MODEL 2
REMARK VINA RESULT: -5.458289447      1.425      4.454
REMARK  1 active torsions:
REMARK  status: ('A' for Active; 'I' for Inactive)
REMARK    1  A    between atoms: C6_9  and  N3_10 
ROOT
HETATM    1  C1  UNL     1      17.220  11.602   2.135  1.00  0.00     0.068 C 
HETATM    2  C2  UNL     1      15.957  10.808   1.952  1.00  0.00     0.013 A 
HETATM    3  N1  UNL     1      15.289  10.315   3.012  1.00  0.00    -0.361 N 
ATOM      4  H1  UNL     1      15.641  10.481   3.955  1.00  0.00     0.165 HD
HETATM    5  C3  UNL     1      14.161   9.606   2.836  1.00  0.00     0.032 A 
HETATM    6  C4  UNL     1      13.407   9.054   3.975  1.00  0.00     0.070 C 
HETATM    7  C5  UNL     1      13.711   9.400   1.550  1.00  0.00     0.095 A 
HETATM    8  N2  UNL     1      12.532   8.658   1.366  1.00  0.00    -0.098 NA
HETATM    9  C6  UNL     1      14.375   9.893   0.433  1.00  0.00     0.064 A 
HETATM   10  C9  UNL     1      15.531  10.616   0.654  1.00  0.00    -0.011 A 
HETATM   11  C10 UNL     1      16.298  11.177  -0.479  1.00  0.00     0.052 C 
ENDROOT
BRANCH   9  12
HETATM   12  N3  UNL     1      13.918   9.684  -0.878  1.00  0.00    -0.388 N 
HETATM   13  C7  UNL     1      12.975  10.553  -1.540  1.00  0.00     0.149 C 
HETATM   14  C8  UNL     1      14.449   8.511  -1.585  1.00  0.00     0.149 C 
ENDBRANCH   9  12
TORSDOF 1
ENDMDL
MODEL 3
REMARK VINA RESULT: -5.454582055      1.090      3.572
REMARK  1 active torsions:
REMARK  status: ('A' for Active; 'I' for Inactive)
REMARK    1  A    between atoms: C6_9  and  N3_10 
ROOT
HETATM    1  C1  UNL     1      14.203   9.300   3.997  1.00  0.00     0.068 C 
HETATM    2  C2  UNL     1      14.798   9.918   2.763  1.00  0.00     0.013 A 
HETATM    3  N1  UNL     1      15.913  10.671   2.834  1.00  0.00    -0.361 N 
ATOM      4  H1  UNL     1      16.364  10.825   3.735  1.00  0.00     0.165 HD
HETATM    5  C3  UNL     1      16.435  11.218   1.723  1.00  0.00     0.032 A 
HETATM    6  C4  UNL     1      17.653  12.045   1.766  1.00  0.00     0.070 C 
HETATM    7  C5  UNL     1      15.803  10.990   0.520  1.00  0.00     0.095 A 
HETATM    8  N2  UNL     1      16.350  11.564  -0.641  1.00  0.00    -0.098 NA
HETATM    9  C6  UNL     1      14.652  10.220   0.410  1.00  0.00     0.064 A 
HETATM   10  C9  UNL     1      14.144   9.674   1.573  1.00  0.00    -0.011 A 
HETATM   11  C10 UNL     1      12.922   8.841   1.546  1.00  0.00     0.052 C 
ENDROOT
BRANCH   9  12
HETATM   12  N3  UNL     1      14.005   9.986  -0.814  1.00  0.00    -0.388 N 
HETATM   13  C7  UNL     1      12.977  10.847  -1.348  1.00  0.00     0.149 C 
HETATM   14  C8  UNL     1      14.421   8.795  -1.566  1.00  0.00     0.149 C 
ENDBRANCH   9  12
TORSDOF 1
ENDMDL
MODEL 4
REMARK VINA RESULT: -5.421786334      1.322      3.529
REMARK  1 active torsions:
REMARK  status: ('A' for Active; 'I' for Inactive)
REMARK    1  A    between atoms: C6_9  and  N3_10 
ROOT
HETATM    1  C1  UNL     1      14.429  10.630   3.790  1.00  0.00     0.068 C 
HETATM    2  C2  UNL     1      15.080  10.786   2.444  1.00  0.00     0.013 A 
HETATM    3  N1  UNL     1      16.284  11.377   2.322  1.00  0.00    -0.361 N 
ATOM      4  H1  UNL     1      16.765  11.725   3.152  1.00  0.00     0.165 HD
HETATM    5  C3  UNL     1      16.856  11.511   1.113  1.00  0.00     0.032 A 
HETATM    6  C4  UNL     1      18.172  12.152   0.947  1.00  0.00     0.070 C 
HETATM    7  C5  UNL     1      16.182  11.031   0.012  1.00  0.00     0.095 A 
HETATM    8  N2  UNL     1      16.781  11.172  -1.251  1.00  0.00    -0.098 NA
HETATM    9  C6  UNL     1      14.939  10.416   0.101  1.00  0.00     0.064 A 
HETATM   10  C9  UNL     1      14.382  10.297   1.359  1.00  0.00    -0.011 A 
HETATM   11  C10 UNL     1      13.062   9.655   1.543  1.00  0.00     0.052 C 
ENDROOT
BRANCH   9  12
HETATM   12  N3  UNL     1      14.250   9.925  -1.020  1.00  0.00    -0.388 N 
HETATM   13  C7  UNL     1      14.420   8.588  -1.536  1.00  0.00     0.149 C 
HETATM   14  C8  UNL     1      13.314  10.847  -1.678  1.00  0.00     0.149 C 
ENDBRANCH   9  12
TORSDOF 1
ENDMDL
MODEL 5
REMARK VINA RESULT: -5.408505927      0.333      1.041
REMARK  1 active torsions:
REMARK  status: ('A' for Active; 'I' for Inactive)
REMARK    1  A    between atoms: C6_9  and  N3_10 
ROOT
HETATM    1  C1  UNL     1      12.850   8.155   2.076  1.00  0.00     0.068 C 
HETATM    2  C2  UNL     1      13.765   9.101   1.351  1.00  0.00     0.013 A 
HETATM    3  N1  UNL     1      13.571   9.391   0.050  1.00  0.00    -0.361 N 
ATOM      4  H1  UNL     1      12.793   8.966  -0.454  1.00  0.00     0.165 HD
HETATM    5  C3  UNL     1      14.397  10.238  -0.588  1.00  0.00     0.032 A 
HETATM    6  C4  UNL     1      14.212  10.576  -2.010  1.00  0.00     0.070 C 
HETATM    7  C5  UNL     1      15.439  10.796   0.120  1.00  0.00     0.095 A 
HETATM    8  N2  UNL     1      16.302  11.681  -0.548  1.00  0.00    -0.098 NA
HETATM    9  C6  UNL     1      15.669  10.519   1.462  1.00  0.00     0.064 A 
HETATM   10  C9  UNL     1      14.800   9.644   2.084  1.00  0.00    -0.011 A 
HETATM   11  C10 UNL     1      14.973   9.295   3.511  1.00  0.00     0.052 C 
ENDROOT
BRANCH   9  12
HETATM   12  N3  UNL     1      16.730  11.087   2.186  1.00  0.00    -0.388 N 
HETATM   13  C7  UNL     1      16.600  12.285   2.980  1.00  0.00     0.149 C 
HETATM   14  C8  UNL     1      18.026  10.399   2.110  1.00  0.00     0.149 C 
ENDBRANCH   9  12
TORSDOF 1
ENDMDL
