MODEL 1
REMARK VINA RESULT: -5.284251945      0.000      0.000
REMARK  1 active torsions:
REMARK  status: ('A' for Active; 'I' for Inactive)
REMARK    1  A    between atoms: N1_4  and  N2_5 
ROOT
HETATM    1  N2  UNL     1      15.585   9.577   0.762  1.00  0.00    -0.282 N 
ATOM      2  H2  UNL     1      16.587   9.435   0.885  1.00  0.00     0.189 HD
HETATM    3  C4  UNL     1      14.839   9.548   1.815  1.00  0.00     0.154 C 
HETATM    4  N3  UNL     1      13.435   9.715   1.925  1.00  0.00    -0.369 N 
ATOM      5  H3  UNL     1      12.892  10.276   1.269  1.00  0.00     0.161 HD
HETATM    6  C5  UNL     1      12.848   9.037   3.020  1.00  0.00     0.132 C 
HETATM    7  C6  UNL     1      13.689   9.236   4.261  1.00  0.00     0.102 C 
HETATM    8  S1  UNL     1      15.368   9.280   3.513  1.00  0.00    -0.091 SA
ENDROOT
BRANCH   1   9
HETATM    9  N1  UNL     1      15.120   9.786  -0.514  1.00  0.00    -0.326 N 
HETATM   10  C3  UNL     1      15.022  11.102  -1.140  1.00  0.00     0.142 C 
HETATM   11  C2  UNL     1      13.626  11.372  -1.636  1.00  0.00     0.021 C 
HETATM   12  C1  UNL     1      12.889  10.112  -2.023  1.00  0.00     0.003 C 
HETATM   13  C8  UNL     1      13.901   9.112  -2.518  1.00  0.00     0.021 C 
HETATM   14  C7  UNL     1      14.695   8.636  -1.306  1.00  0.00     0.142 C 
ENDBRANCH   1   9
TORSDOF 1
ENDMDL
MODEL 2
REMARK VINA RESULT: -5.242324032      3.359      7.078
REMARK  1 active torsions:
REMARK  status: ('A' for Active; 'I' for Inactive)
REMARK    1  A    between atoms: N1_4  and  N2_5 
ROOT
HETATM    1  N2  UNL     1      14.780  10.763   5.621  1.00  0.00    -0.282 N 
ATOM      2  H2  UNL     1      15.210  11.687   5.604  1.00  0.00     0.189 HD
HETATM    3  C4  UNL     1      14.355  10.276   4.504  1.00  0.00     0.154 C 
HETATM    4  N3  UNL     1      13.728   9.030   4.248  1.00  0.00    -0.369 N 
ATOM      5  H3  UNL     1      13.897   8.199   4.816  1.00  0.00     0.161 HD
HETATM    6  C5  UNL     1      12.847   9.033   3.141  1.00  0.00     0.132 C 
HETATM    7  C6  UNL     1      13.482   9.762   1.978  1.00  0.00     0.102 C 
HETATM    8  S1  UNL     1      14.431  11.052   2.883  1.00  0.00    -0.091 SA
ENDROOT
BRANCH   1   9
HETATM    9  N1  UNL     1      14.692  10.120   6.832  1.00  0.00    -0.326 N 
HETATM   10  C3  UNL     1      15.745   9.270   7.381  1.00  0.00     0.142 C 
HETATM   11  C2  UNL     1      15.225   7.899   7.721  1.00  0.00     0.021 C 
HETATM   12  C1  UNL     1      13.760   7.904   8.091  1.00  0.00     0.003 C 
HETATM   13  C8  UNL     1      13.445   9.231   8.732  1.00  0.00     0.021 C 
HETATM   14  C7  UNL     1      13.482  10.285   7.631  1.00  0.00     0.142 C 
ENDBRANCH   1   9
TORSDOF 1
ENDMDL
MODEL 3
REMARK VINA RESULT: -5.206578104      1.097      1.454
REMARK  1 active torsions:
REMARK  status: ('A' for Active; 'I' for Inactive)
REMARK    1  A    between atoms: N1_4  and  N2_5 
ROOT
HETATM    1  N2  UNL     1      14.945  10.791   0.374  1.00  0.00    -0.282 N 
ATOM      2  H2  UNL     1      15.737  11.349   0.691  1.00  0.00     0.189 HD
HETATM    3  C4  UNL     1      14.248  10.173   1.266  1.00  0.00     0.154 C 
HETATM    4  N3  UNL     1      13.109   9.343   1.100  1.00  0.00    -0.369 N 
ATOM      5  H3  UNL     1      12.455   9.451   0.325  1.00  0.00     0.161 HD
HETATM    6  C5  UNL     1      12.957   8.351   2.098  1.00  0.00     0.132 C 
HETATM    7  C6  UNL     1      13.209   8.949   3.464  1.00  0.00     0.102 C 
HETATM    8  S1  UNL     1      14.513  10.177   3.045  1.00  0.00    -0.091 SA
ENDROOT
BRANCH   1   9
HETATM    9  N1  UNL     1      14.692  10.749  -0.977  1.00  0.00    -0.326 N 
HETATM   10  C3  UNL     1      13.416  11.126  -1.578  1.00  0.00     0.142 C 
HETATM   11  C2  UNL     1      12.861  10.016  -2.431  1.00  0.00     0.021 C 
HETATM   12  C1  UNL     1      13.939   9.144  -3.031  1.00  0.00     0.003 C 
HETATM   13  C8  UNL     1      15.161   9.997  -3.250  1.00  0.00     0.021 C 
HETATM   14  C7  UNL     1      15.750  10.305  -1.878  1.00  0.00     0.142 C 
ENDBRANCH   1   9
TORSDOF 1
ENDMDL
MODEL 4
REMARK VINA RESULT: -5.118891583      2.090      3.413
REMARK  1 active torsions:
REMARK  status: ('A' for Active; 'I' for Inactive)
REMARK    1  A    between atoms: N1_4  and  N2_5 
ROOT
HETATM    1  N2  UNL     1      14.731  10.564   1.107  1.00  0.00    -0.282 N 
ATOM      2  H2  UNL     1      14.195  10.863   1.922  1.00  0.00     0.189 HD
HETATM    3  C4  UNL     1      16.007  10.757   1.123  1.00  0.00     0.154 C 
HETATM    4  N3  UNL     1      16.976  10.440   0.136  1.00  0.00    -0.369 N 
ATOM      5  H3  UNL     1      16.864   9.666  -0.519  1.00  0.00     0.161 HD
HETATM    6  C5  UNL     1      18.110  11.286   0.135  1.00  0.00     0.132 C 
HETATM    7  C6  UNL     1      18.585  11.515   1.551  1.00  0.00     0.102 C 
HETATM    8  S1  UNL     1      16.975  11.507   2.440  1.00  0.00    -0.091 SA
ENDROOT
BRANCH   1   9
HETATM    9  N1  UNL     1      14.046   9.984   0.067  1.00  0.00    -0.326 N 
HETATM   10  C3  UNL     1      14.014   8.546  -0.186  1.00  0.00     0.142 C 
HETATM   11  C2  UNL     1      14.461   8.224  -1.587  1.00  0.00     0.021 C 
HETATM   12  C1  UNL     1      14.166   9.337  -2.565  1.00  0.00     0.003 C 
HETATM   13  C8  UNL     1      12.925  10.051  -2.100  1.00  0.00     0.021 C 
HETATM   14  C7  UNL     1      13.300  10.840  -0.849  1.00  0.00     0.142 C 
ENDBRANCH   1   9
TORSDOF 1
ENDMDL
MODEL 5
REMARK VINA RESULT: -5.095914483      4.968      7.199
REMARK  1 active torsions:
REMARK  status: ('A' for Active; 'I' for Inactive)
REMARK    1  A    between atoms: N1_4  and  N2_5 
ROOT
HETATM    1  N2  UNL     1      14.134  10.685   5.418  1.00  0.00    -0.282 N 
ATOM      2  H2  UNL     1      13.381  11.282   5.076  1.00  0.00     0.189 HD
HETATM    3  C4  UNL     1      15.283  10.772   4.838  1.00  0.00     0.154 C 
HETATM    4  N3  UNL     1      16.484  10.068   5.113  1.00  0.00    -0.369 N 
ATOM      5  H3  UNL     1      16.716   9.714   6.041  1.00  0.00     0.161 HD
HETATM    6  C5  UNL     1      17.332   9.897   3.993  1.00  0.00     0.132 C 
HETATM    7  C6  UNL     1      17.427  11.190   3.214  1.00  0.00     0.102 C 
HETATM    8  S1  UNL     1      15.726  11.845   3.464  1.00  0.00    -0.091 SA
ENDROOT
BRANCH   1   9
HETATM    9  N1  UNL     1      13.855   9.841   6.468  1.00  0.00    -0.326 N 
HETATM   10  C3  UNL     1      13.771  10.274   7.859  1.00  0.00     0.142 C 
HETATM   11  C2  UNL     1      14.695   9.476   8.740  1.00  0.00     0.021 C 
HETATM   12  C1  UNL     1      14.931   8.076   8.224  1.00  0.00     0.003 C 
HETATM   13  C8  UNL     1      13.691   7.633   7.492  1.00  0.00     0.021 C 
HETATM   14  C7  UNL     1      13.626   8.427   6.192  1.00  0.00     0.142 C 
ENDBRANCH   1   9
TORSDOF 1
ENDMDL
