MODEL 1
REMARK VINA RESULT: -5.915971386      0.000      0.000
REMARK  2 active torsions:
REMARK  status: ('A' for Active; 'I' for Inactive)
REMARK    1  A    between atoms: N1_1  and  N2_4 
REMARK    2  A    between atoms: C1_6  and  N3_7 
ROOT
HETATM    1  N3  UNL     1      16.903  10.806   0.943  1.00  0.00    -0.376 N 
HETATM    2  C2  UNL     1      16.826  10.746  -0.506  1.00  0.00     0.126 C 
HETATM    3  C3  UNL     1      15.384  11.093  -0.867  1.00  0.00     0.058 C 
HETATM    4  C4  UNL     1      14.440  10.026  -0.347  1.00  0.00     0.064 C 
HETATM    5  C5  UNL     1      14.504   8.862  -1.312  1.00  0.00     0.040 C 
HETATM    6  C6  UNL     1      13.700   9.415  -2.486  1.00  0.00     0.029 C 
HETATM    7  C7  UNL     1      12.771  10.373  -1.794  1.00  0.00     0.168 C 
HETATM    8  O1  UNL     1      13.138  10.447  -0.473  1.00  0.00    -0.380 OA
HETATM    9  C8  UNL     1      14.758   9.629   1.058  1.00  0.00     0.058 C 
HETATM   10  C9  UNL     1      15.651  10.691   1.667  1.00  0.00     0.126 C 
ENDROOT
BRANCH   1  11
HETATM   11  C1  UNL     1      18.135  10.966   1.588  1.00  0.00     0.194 C 
HETATM   12  N2  UNL     1      18.598  12.126   1.884  1.00  0.00    -0.303 N 
ATOM     13  H2  UNL     1      19.499  12.217   2.353  1.00  0.00     0.187 HD
BRANCH  12  14
HETATM   14  N1  UNL     1      17.852  13.266   1.554  1.00  0.00    -0.344 N 
ATOM     15  H12 UNL     1      17.644  13.955   2.276  1.00  0.00     0.176 HD
ATOM     16  H11 UNL     1      17.528  13.389   0.594  1.00  0.00     0.176 HD
ENDBRANCH  12  14
ENDBRANCH   1  11
TORSDOF 2
ENDMDL
MODEL 2
REMARK VINA RESULT: -5.568192796      3.642      4.567
REMARK  2 active torsions:
REMARK  status: ('A' for Active; 'I' for Inactive)
REMARK    1  A    between atoms: N1_1  and  N2_4 
REMARK    2  A    between atoms: C1_6  and  N3_7 
ROOT
HETATM    1  N3  UNL     1      15.268   9.939   5.287  1.00  0.00    -0.376 N 
HETATM    2  C2  UNL     1      14.492   9.054   4.436  1.00  0.00     0.126 C 
HETATM    3  C3  UNL     1      14.967   9.315   3.009  1.00  0.00     0.058 C 
HETATM    4  C4  UNL     1      14.614  10.729   2.587  1.00  0.00     0.064 C 
HETATM    5  C5  UNL     1      13.150  10.729   2.202  1.00  0.00     0.040 C 
HETATM    6  C6  UNL     1      13.206  10.027   0.848  1.00  0.00     0.029 C 
HETATM    7  C7  UNL     1      14.588  10.384   0.377  1.00  0.00     0.168 C 
HETATM    8  O1  UNL     1      15.235  11.035   1.400  1.00  0.00    -0.380 OA
HETATM    9  C8  UNL     1      14.932  11.730   3.649  1.00  0.00     0.058 C 
HETATM   10  C9  UNL     1      15.877  11.089   4.646  1.00  0.00     0.126 C 
ENDROOT
BRANCH   1  11
HETATM   11  C1  UNL     1      15.407   9.676   6.655  1.00  0.00     0.194 C 
HETATM   12  N2  UNL     1      16.367   8.956   7.110  1.00  0.00    -0.303 N 
ATOM     13  H2  UNL     1      16.447   8.777   8.111  1.00  0.00     0.187 HD
BRANCH  12  14
HETATM   14  N1  UNL     1      17.303   8.417   6.217  1.00  0.00    -0.344 N 
ATOM     15  H12 UNL     1      17.128   7.504   5.799  1.00  0.00     0.176 HD
ATOM     16  H11 UNL     1      18.147   8.948   5.998  1.00  0.00     0.176 HD
ENDBRANCH  12  14
ENDBRANCH   1  11
TORSDOF 2
ENDMDL
MODEL 3
REMARK VINA RESULT: -5.551205760      2.487      3.234
REMARK  2 active torsions:
REMARK  status: ('A' for Active; 'I' for Inactive)
REMARK    1  A    between atoms: N1_1  and  N2_4 
REMARK    2  A    between atoms: C1_6  and  N3_7 
ROOT
HETATM    1  N3  UNL     1      14.529   9.510   1.534  1.00  0.00    -0.376 N 
HETATM    2  C2  UNL     1      13.566   8.895   0.638  1.00  0.00     0.126 C 
HETATM    3  C3  UNL     1      14.263   8.776  -0.715  1.00  0.00     0.058 C 
HETATM    4  C4  UNL     1      14.551  10.153  -1.281  1.00  0.00     0.064 C 
HETATM    5  C5  UNL     1      13.262  10.670  -1.883  1.00  0.00     0.040 C 
HETATM    6  C6  UNL     1      13.185   9.839  -3.161  1.00  0.00     0.029 C 
HETATM    7  C7  UNL     1      14.639   9.576  -3.440  1.00  0.00     0.168 C 
HETATM    8  O1  UNL     1      15.372  10.049  -2.379  1.00  0.00    -0.380 OA
HETATM    9  C8  UNL     1      15.120  11.077  -0.254  1.00  0.00     0.058 C 
HETATM   10  C9  UNL     1      15.613  10.249   0.916  1.00  0.00     0.126 C 
ENDROOT
BRANCH   1  11
HETATM   11  C1  UNL     1      14.397   9.383   2.922  1.00  0.00     0.194 C 
HETATM   12  N2  UNL     1      13.672  10.189   3.609  1.00  0.00    -0.303 N 
ATOM     13  H2  UNL     1      13.592  10.076   4.620  1.00  0.00     0.187 HD
BRANCH  12  14
HETATM   14  N1  UNL     1      12.991  11.225   2.955  1.00  0.00    -0.344 N 
ATOM     15  H12 UNL     1      11.978  11.173   2.854  1.00  0.00     0.176 HD
ATOM     16  H11 UNL     1      13.521  12.017   2.590  1.00  0.00     0.176 HD
ENDBRANCH  12  14
ENDBRANCH   1  11
TORSDOF 2
ENDMDL
MODEL 4
REMARK VINA RESULT: -5.482728104      1.959      2.244
REMARK  2 active torsions:
REMARK  status: ('A' for Active; 'I' for Inactive)
REMARK    1  A    between atoms: N1_1  and  N2_4 
REMARK    2  A    between atoms: C1_6  and  N3_7 
ROOT
HETATM    1  N3  UNL     1      15.014  10.692   1.487  1.00  0.00    -0.376 N 
HETATM    2  C2  UNL     1      15.737  10.689   0.228  1.00  0.00     0.126 C 
HETATM    3  C3  UNL     1      14.688  10.899  -0.862  1.00  0.00     0.058 C 
HETATM    4  C4  UNL     1      13.739   9.717  -0.913  1.00  0.00     0.064 C 
HETATM    5  C5  UNL     1      14.442   8.610  -1.668  1.00  0.00     0.040 C 
HETATM    6  C6  UNL     1      14.341   9.127  -3.101  1.00  0.00     0.029 C 
HETATM    7  C7  UNL     1      13.085   9.951  -3.039  1.00  0.00     0.168 C 
HETATM    8  O1  UNL     1      12.672  10.005  -1.731  1.00  0.00    -0.380 OA
HETATM    9  C8  UNL     1      13.292   9.294   0.448  1.00  0.00     0.058 C 
HETATM   10  C9  UNL     1      13.591  10.416   1.422  1.00  0.00     0.126 C 
ENDROOT
BRANCH   1  11
HETATM   11  C1  UNL     1      15.678  10.952   2.692  1.00  0.00     0.194 C 
HETATM   12  N2  UNL     1      16.158  10.007   3.417  1.00  0.00    -0.303 N 
ATOM     13  H2  UNL     1      16.637  10.221   4.291  1.00  0.00     0.187 HD
BRANCH  12  14
HETATM   14  N1  UNL     1      16.015   8.679   2.993  1.00  0.00    -0.344 N 
ATOM     15  H12 UNL     1      15.526   8.481   2.120  1.00  0.00     0.176 HD
ATOM     16  H11 UNL     1      16.404   7.928   3.565  1.00  0.00     0.176 HD
ENDBRANCH  12  14
ENDBRANCH   1  11
TORSDOF 2
ENDMDL
MODEL 5
REMARK VINA RESULT: -5.458007358      6.116      7.752
REMARK  2 active torsions:
REMARK  status: ('A' for Active; 'I' for Inactive)
REMARK    1  A    between atoms: N1_1  and  N2_4 
REMARK    2  A    between atoms: C1_6  and  N3_7 
ROOT
HETATM    1  N3  UNL     1      15.417   9.291   5.203  1.00  0.00    -0.376 N 
HETATM    2  C2  UNL     1      14.152   9.854   5.641  1.00  0.00     0.126 C 
HETATM    3  C3  UNL     1      14.424  10.501   6.997  1.00  0.00     0.058 C 
HETATM    4  C4  UNL     1      14.795   9.443   8.019  1.00  0.00     0.064 C 
HETATM    5  C5  UNL     1      13.508   8.792   8.479  1.00  0.00     0.040 C 
HETATM    6  C6  UNL     1      12.939   9.883   9.382  1.00  0.00     0.029 C 
HETATM    7  C7  UNL     1      14.189  10.573   9.852  1.00  0.00     0.168 C 
HETATM    8  O1  UNL     1      15.255  10.040   9.169  1.00  0.00    -0.380 OA
HETATM    9  C8  UNL     1      15.779   8.458   7.478  1.00  0.00     0.058 C 
HETATM   10  C9  UNL     1      16.410   9.044   6.231  1.00  0.00     0.126 C 
ENDROOT
BRANCH   1  11
HETATM   11  C1  UNL     1      15.645   9.009   3.851  1.00  0.00     0.194 C 
HETATM   12  N2  UNL     1      16.188   9.864   3.064  1.00  0.00    -0.303 N 
ATOM     13  H2  UNL     1      16.343   9.636   2.082  1.00  0.00     0.187 HD
BRANCH  12  14
HETATM   14  N1  UNL     1      16.567  11.116   3.568  1.00  0.00    -0.344 N 
ATOM     15  H12 UNL     1      15.999  11.556   4.292  1.00  0.00     0.176 HD
ATOM     16  H11 UNL     1      17.405  11.569   3.202  1.00  0.00     0.176 HD
ENDBRANCH  12  14
ENDBRANCH   1  11
TORSDOF 2
ENDMDL
