MODEL 1
REMARK VINA RESULT: -6.556331994      0.000      0.000
REMARK  4 active torsions:
REMARK  status: ('A' for Active; 'I' for Inactive)
REMARK    1  A    between atoms: N1_1  and  C1_4 
REMARK    2  A    between atoms: C2_9  and  N4_10 
REMARK    3  A    between atoms: N4_10  and  C3_11 
REMARK    4  A    between atoms: N4_10  and  C4_13 
ROOT
HETATM    1  C1  UNL     1       9.766  44.501  22.355  1.00  0.00     0.705 A 
HETATM    2  N2  UNL     1       8.981  43.608  22.983  1.00  0.00    -0.118 N 
ATOM      3  H2  UNL     1       8.784  43.561  23.983  1.00  0.00     0.206 HD
HETATM    4  N3  UNL     1       8.516  42.805  22.046  1.00  0.00    -0.117 N 
ATOM      5  H3  UNL     1       7.888  42.021  22.223  1.00  0.00     0.206 HD
HETATM    6  C2  UNL     1       8.973  43.149  20.824  1.00  0.00     0.719 A 
HETATM    7  N7  UNL     1       9.769  44.231  21.039  1.00  0.00    -0.020 N 
ATOM      8  H7  UNL     1      10.280  44.748  20.325  1.00  0.00     0.203 HD
ENDROOT
BRANCH   6   9
HETATM    9  N4  UNL     1       8.713  42.549  19.569  1.00  0.00    -0.118 N 
BRANCH   9  10
HETATM   10  C3  UNL     1       9.364  43.057  18.429  1.00  0.00     0.374 C 
HETATM   11  O1  UNL     1       9.524  44.280  18.165  1.00  0.00    -0.283 OA
ENDBRANCH   9  10
BRANCH   9  12
HETATM   12  C4  UNL     1       7.797  41.452  19.483  1.00  0.00     0.338 A 
HETATM   13  N5  UNL     1       6.463  41.684  19.003  1.00  0.00    -0.093 NA
HETATM   14  N6  UNL     1       7.343  40.900  18.304  1.00  0.00    -0.297 N 
ATOM     15  H6  UNL     1       7.530  40.318  17.488  1.00  0.00     0.179 HD
ENDBRANCH   9  12
ENDBRANCH   6   9
BRANCH   1  16
HETATM   16  N1  UNL     1      10.411  45.459  22.919  1.00  0.00    -0.233 N 
ATOM     17  H12 UNL     1      10.109  45.963  23.753  1.00  0.00     0.174 HD
ATOM     18  H11 UNL     1      11.305  45.839  22.608  1.00  0.00     0.174 HD
ENDBRANCH   1  16
TORSDOF 4
ENDMDL
MODEL 2
REMARK VINA RESULT: -6.458373544      2.244      4.791
REMARK  4 active torsions:
REMARK  status: ('A' for Active; 'I' for Inactive)
REMARK    1  A    between atoms: N1_1  and  C1_4 
REMARK    2  A    between atoms: C2_9  and  N4_10 
REMARK    3  A    between atoms: N4_10  and  C3_11 
REMARK    4  A    between atoms: N4_10  and  C4_13 
ROOT
HETATM    1  C1  UNL     1       7.481  41.502  18.892  1.00  0.00     0.705 A 
HETATM    2  N2  UNL     1       6.712  40.837  19.773  1.00  0.00    -0.118 N 
ATOM      3  H2  UNL     1       5.950  40.195  19.558  1.00  0.00     0.206 HD
HETATM    4  N3  UNL     1       7.144  41.183  20.970  1.00  0.00    -0.117 N 
ATOM      5  H3  UNL     1       6.749  40.835  21.844  1.00  0.00     0.206 HD
HETATM    6  C2  UNL     1       8.173  42.053  20.897  1.00  0.00     0.719 A 
HETATM    7  N7  UNL     1       8.374  42.246  19.565  1.00  0.00    -0.020 N 
ATOM      8  H7  UNL     1       9.081  42.851  19.150  1.00  0.00     0.203 HD
ENDROOT
BRANCH   6   9
HETATM    9  N4  UNL     1       8.909  42.658  21.942  1.00  0.00    -0.118 N 
BRANCH   9  10
HETATM   10  C3  UNL     1       8.783  42.143  23.246  1.00  0.00     0.374 C 
HETATM   11  O1  UNL     1       9.729  41.687  23.945  1.00  0.00    -0.283 OA
ENDBRANCH   9  10
BRANCH   9  12
HETATM   12  C4  UNL     1       9.755  43.778  21.658  1.00  0.00     0.338 A 
HETATM   13  N5  UNL     1       9.606  44.985  22.420  1.00  0.00    -0.093 NA
HETATM   14  N6  UNL     1      10.753  44.239  22.490  1.00  0.00    -0.297 N 
ATOM     15  H6  UNL     1      11.686  44.112  22.881  1.00  0.00     0.179 HD
ENDBRANCH   9  12
ENDBRANCH   6   9
BRANCH   1  16
HETATM   16  N1  UNL     1       7.380  41.439  17.612  1.00  0.00    -0.233 N 
ATOM     17  H12 UNL     1       8.123  41.148  16.975  1.00  0.00     0.174 HD
ATOM     18  H11 UNL     1       6.549  41.669  17.068  1.00  0.00     0.174 HD
ENDBRANCH   1  16
TORSDOF 4
ENDMDL
MODEL 3
REMARK VINA RESULT: -6.366063603      2.042      2.520
REMARK  4 active torsions:
REMARK  status: ('A' for Active; 'I' for Inactive)
REMARK    1  A    between atoms: N1_1  and  C1_4 
REMARK    2  A    between atoms: C2_9  and  N4_10 
REMARK    3  A    between atoms: N4_10  and  C3_11 
REMARK    4  A    between atoms: N4_10  and  C4_13 
ROOT
HETATM    1  C1  UNL     1       9.692  44.636  21.838  1.00  0.00     0.705 A 
HETATM    2  N2  UNL     1       9.831  44.762  20.506  1.00  0.00    -0.118 N 
ATOM      3  H2  UNL     1      10.241  45.550  20.005  1.00  0.00     0.206 HD
HETATM    4  N3  UNL     1       9.331  43.661  19.979  1.00  0.00    -0.117 N 
ATOM      5  H3  UNL     1       9.296  43.470  18.978  1.00  0.00     0.206 HD
HETATM    6  C2  UNL     1       8.871  42.819  20.928  1.00  0.00     0.719 A 
HETATM    7  N7  UNL     1       9.108  43.456  22.106  1.00  0.00    -0.020 N 
ATOM      8  H7  UNL     1       8.882  43.100  23.034  1.00  0.00     0.203 HD
ENDROOT
BRANCH   6   9
HETATM    9  N4  UNL     1       8.267  41.549  20.781  1.00  0.00    -0.118 N 
BRANCH   9  10
HETATM   10  C3  UNL     1       8.131  40.728  21.917  1.00  0.00     0.374 C 
HETATM   11  O1  UNL     1       9.077  40.353  22.663  1.00  0.00    -0.283 OA
ENDBRANCH   9  10
BRANCH   9  12
HETATM   12  C4  UNL     1       7.816  41.121  19.491  1.00  0.00     0.338 A 
HETATM   13  N5  UNL     1       6.415  40.898  19.272  1.00  0.00    -0.093 NA
HETATM   14  N6  UNL     1       7.085  41.898  18.618  1.00  0.00    -0.297 N 
ATOM     15  H6  UNL     1       7.061  42.672  17.953  1.00  0.00     0.179 HD
ENDBRANCH   9  12
ENDBRANCH   6   9
BRANCH   1  16
HETATM   16  N1  UNL     1      10.058  45.501  22.715  1.00  0.00    -0.233 N 
ATOM     17  H12 UNL     1       9.932  45.410  23.723  1.00  0.00     0.174 HD
ATOM     18  H11 UNL     1      10.522  46.388  22.519  1.00  0.00     0.174 HD
ENDBRANCH   1  16
TORSDOF 4
ENDMDL
MODEL 4
REMARK VINA RESULT: -6.355446358      1.659      1.986
REMARK  4 active torsions:
REMARK  status: ('A' for Active; 'I' for Inactive)
REMARK    1  A    between atoms: N1_1  and  C1_4 
REMARK    2  A    between atoms: C2_9  and  N4_10 
REMARK    3  A    between atoms: N4_10  and  C3_11 
REMARK    4  A    between atoms: N4_10  and  C4_13 
ROOT
HETATM    1  C1  UNL     1      10.445  45.788  22.552  1.00  0.00     0.705 A 
HETATM    2  N2  UNL     1      11.131  44.810  23.171  1.00  0.00    -0.118 N 
ATOM      3  H2  UNL     1      11.829  44.922  23.906  1.00  0.00     0.206 HD
HETATM    4  N3  UNL     1      10.720  43.677  22.635  1.00  0.00    -0.117 N 
ATOM      5  H3  UNL     1      11.066  42.757  22.905  1.00  0.00     0.206 HD
HETATM    6  C2  UNL     1       9.784  43.886  21.686  1.00  0.00     0.719 A 
HETATM    7  N7  UNL     1       9.621  45.236  21.645  1.00  0.00    -0.020 N 
ATOM      8  H7  UNL     1       8.984  45.743  21.032  1.00  0.00     0.203 HD
ENDROOT
BRANCH   6   9
HETATM    9  N4  UNL     1       9.097  42.945  20.884  1.00  0.00    -0.118 N 
BRANCH   9  10
HETATM   10  C3  UNL     1       9.136  43.092  19.484  1.00  0.00     0.374 C 
HETATM   11  O1  UNL     1       8.150  42.962  18.709  1.00  0.00    -0.283 OA
ENDBRANCH   9  10
BRANCH   9  12
HETATM   12  C4  UNL     1       8.374  41.876  21.504  1.00  0.00     0.338 A 
HETATM   13  N5  UNL     1       6.999  42.072  21.866  1.00  0.00    -0.093 NA
HETATM   14  N6  UNL     1       7.358  41.164  20.904  1.00  0.00    -0.297 N 
ATOM     15  H6  UNL     1       7.074  40.459  20.224  1.00  0.00     0.179 HD
ENDBRANCH   9  12
ENDBRANCH   6   9
BRANCH   1  16
HETATM   16  N1  UNL     1      10.556  47.046  22.787  1.00  0.00    -0.233 N 
ATOM     17  H12 UNL     1       9.780  47.703  22.867  1.00  0.00     0.174 HD
ATOM     18  H11 UNL     1      11.432  47.551  22.925  1.00  0.00     0.174 HD
ENDBRANCH   1  16
TORSDOF 4
ENDMDL
MODEL 5
REMARK VINA RESULT: -6.322672693      2.178      3.037
REMARK  4 active torsions:
REMARK  status: ('A' for Active; 'I' for Inactive)
REMARK    1  A    between atoms: N1_1  and  C1_4 
REMARK    2  A    between atoms: C2_9  and  N4_10 
REMARK    3  A    between atoms: N4_10  and  C3_11 
REMARK    4  A    between atoms: N4_10  and  C4_13 
ROOT
HETATM    1  C1  UNL     1      11.464  45.480  23.310  1.00  0.00     0.705 A 
HETATM    2  N2  UNL     1      10.650  46.422  22.802  1.00  0.00    -0.118 N 
ATOM      3  H2  UNL     1      10.690  47.426  22.978  1.00  0.00     0.206 HD
HETATM    4  N3  UNL     1       9.789  45.786  22.031  1.00  0.00    -0.117 N 
ATOM      5  H3  UNL     1       9.042  46.243  21.509  1.00  0.00     0.206 HD
HETATM    6  C2  UNL     1      10.018  44.457  22.019  1.00  0.00     0.719 A 
HETATM    7  N7  UNL     1      11.089  44.279  22.840  1.00  0.00    -0.020 N 
ATOM      8  H7  UNL     1      11.530  43.386  23.061  1.00  0.00     0.203 HD
ENDROOT
BRANCH   6   9
HETATM    9  N4  UNL     1       9.327  43.436  21.326  1.00  0.00    -0.118 N 
BRANCH   9  10
HETATM   10  C3  UNL     1       9.368  43.425  19.919  1.00  0.00     0.374 C 
HETATM   11  O1  UNL     1       9.341  44.448  19.181  1.00  0.00    -0.283 OA
ENDBRANCH   9  10
BRANCH   9  12
HETATM   12  C4  UNL     1       8.600  42.445  22.062  1.00  0.00     0.338 A 
HETATM   13  N5  UNL     1       9.283  41.659  23.050  1.00  0.00    -0.093 NA
HETATM   14  N6  UNL     1       8.288  42.534  23.401  1.00  0.00    -0.297 N 
ATOM     15  H6  UNL     1       7.719  42.954  24.135  1.00  0.00     0.179 HD
ENDBRANCH   9  12
ENDBRANCH   6   9
BRANCH   1  16
HETATM   16  N1  UNL     1      12.444  45.690  24.115  1.00  0.00    -0.233 N 
ATOM     17  H12 UNL     1      12.595  46.545  24.651  1.00  0.00     0.174 HD
ATOM     18  H11 UNL     1      13.196  45.033  24.322  1.00  0.00     0.174 HD
ENDBRANCH   1  16
TORSDOF 4
ENDMDL
