MODEL 1
REMARK VINA RESULT: -5.955726446      0.000      0.000
REMARK  4 active torsions:
REMARK  status: ('A' for Active; 'I' for Inactive)
REMARK    1  A    between atoms: C2_2  and  N1_3 
REMARK    2  A    between atoms: C2_2  and  N2_7 
REMARK    3  A    between atoms: C3_12  and  N5_13 
REMARK    4  A    between atoms: N5_13  and  C4_15 
ROOT
HETATM    1  N2  UNL     1       9.110  43.017  22.355  1.00  0.00    -0.076 N 
HETATM    2  N3  UNL     1       8.606  43.010  23.577  1.00  0.00    -0.210 N 
ATOM      3  H3  UNL     1       8.719  43.577  24.416  1.00  0.00     0.209 HD
HETATM    4  N4  UNL     1       7.905  41.968  23.247  1.00  0.00    -0.116 N 
ATOM      5  H4  UNL     1       7.234  41.387  23.749  1.00  0.00     0.207 HD
HETATM    6  C3  UNL     1       8.396  41.942  21.991  1.00  0.00     0.715 A 
ENDROOT
BRANCH   1   7
HETATM    7  C2  UNL     1      10.077  43.896  21.715  1.00  0.00     0.320 C 
HETATM    8  C1  UNL     1      10.378  45.095  22.573  1.00  0.00     0.066 C 
BRANCH   7   9
HETATM    9  N1  UNL     1       9.597  44.385  20.438  1.00  0.00    -0.056 N 
ATOM     10  H13 UNL     1       8.675  44.818  20.498  1.00  0.00     0.276 HD
ATOM     11  H12 UNL     1      10.108  45.204  20.108  1.00  0.00     0.276 HD
ATOM     12  H11 UNL     1       9.628  43.604  19.781  1.00  0.00     0.276 HD
ENDBRANCH   7   9
ENDBRANCH   1   7
BRANCH   6  13
HETATM   13  N5  UNL     1       8.243  41.152  20.812  1.00  0.00    -0.203 N 
ATOM     14  H5  UNL     1       8.683  40.236  20.727  1.00  0.00     0.179 HD
BRANCH  13  15
HETATM   15  C4  UNL     1       7.439  41.702  19.745  1.00  0.00     0.225 A 
HETATM   16  C5  UNL     1       8.078  41.798  18.409  1.00  0.00     0.174 A 
HETATM   17  N6  UNL     1       7.066  40.839  17.997  1.00  0.00    -0.143 NA
HETATM   18  N7  UNL     1       6.443  40.771  19.245  1.00  0.00    -0.121 NA
ENDBRANCH  13  15
ENDBRANCH   6  13
TORSDOF 4
ENDMDL
MODEL 2
REMARK VINA RESULT: -5.920566115      1.802      2.705
REMARK  4 active torsions:
REMARK  status: ('A' for Active; 'I' for Inactive)
REMARK    1  A    between atoms: C2_2  and  N1_3 
REMARK    2  A    between atoms: C2_2  and  N2_7 
REMARK    3  A    between atoms: C3_12  and  N5_13 
REMARK    4  A    between atoms: N5_13  and  C4_15 
ROOT
HETATM    1  N2  UNL     1       9.624  43.897  20.409  1.00  0.00    -0.076 N 
HETATM    2  N3  UNL     1       9.456  44.924  19.595  1.00  0.00    -0.210 N 
ATOM      3  H3  UNL     1       9.491  45.939  19.685  1.00  0.00     0.209 HD
HETATM    4  N4  UNL     1       9.228  44.084  18.632  1.00  0.00    -0.116 N 
ATOM      5  H4  UNL     1       9.008  44.195  17.643  1.00  0.00     0.207 HD
HETATM    6  C3  UNL     1       9.392  43.009  19.430  1.00  0.00     0.715 A 
ENDROOT
BRANCH   1   7
HETATM    7  C2  UNL     1       9.942  43.830  21.827  1.00  0.00     0.320 C 
HETATM    8  C1  UNL     1       8.978  42.939  22.562  1.00  0.00     0.066 C 
BRANCH   7   9
HETATM    9  N1  UNL     1       9.889  45.137  22.452  1.00  0.00    -0.056 N 
ATOM     10  H13 UNL     1      10.684  45.317  23.067  1.00  0.00     0.276 HD
ATOM     11  H12 UNL     1      10.054  45.900  21.794  1.00  0.00     0.276 HD
ATOM     12  H11 UNL     1       8.991  45.211  22.930  1.00  0.00     0.276 HD
ENDBRANCH   7   9
ENDBRANCH   1   7
BRANCH   6  13
HETATM   13  N5  UNL     1       9.346  41.588  19.311  1.00  0.00    -0.203 N 
ATOM     14  H5  UNL     1      10.157  41.010  19.535  1.00  0.00     0.179 HD
BRANCH  13  15
HETATM   15  C4  UNL     1       8.105  41.000  18.861  1.00  0.00     0.225 A 
HETATM   16  C5  UNL     1       6.939  41.126  19.770  1.00  0.00     0.174 A 
HETATM   17  N6  UNL     1       6.358  41.930  18.705  1.00  0.00    -0.143 NA
HETATM   18  N7  UNL     1       7.443  41.786  17.837  1.00  0.00    -0.121 NA
ENDBRANCH  13  15
ENDBRANCH   6  13
TORSDOF 4
ENDMDL
MODEL 3
REMARK VINA RESULT: -5.821881368      1.443      2.548
REMARK  4 active torsions:
REMARK  status: ('A' for Active; 'I' for Inactive)
REMARK    1  A    between atoms: C2_2  and  N1_3 
REMARK    2  A    between atoms: C2_2  and  N2_7 
REMARK    3  A    between atoms: C3_12  and  N5_13 
REMARK    4  A    between atoms: N5_13  and  C4_15 
ROOT
HETATM    1  N2  UNL     1       9.079  43.378  21.673  1.00  0.00    -0.076 N 
HETATM    2  N3  UNL     1       9.592  44.594  21.748  1.00  0.00    -0.210 N 
ATOM      3  H3  UNL     1       9.737  45.279  22.489  1.00  0.00     0.209 HD
HETATM    4  N4  UNL     1       9.831  44.538  20.474  1.00  0.00    -0.116 N 
ATOM      5  H4  UNL     1      10.252  45.188  19.811  1.00  0.00     0.207 HD
HETATM    6  C3  UNL     1       9.316  43.296  20.355  1.00  0.00     0.715 A 
ENDROOT
BRANCH   1   7
HETATM    7  C2  UNL     1       8.492  42.513  22.685  1.00  0.00     0.320 C 
HETATM    8  C1  UNL     1       9.002  41.103  22.561  1.00  0.00     0.066 C 
BRANCH   7   9
HETATM    9  N1  UNL     1       7.047  42.464  22.580  1.00  0.00    -0.056 N 
ATOM     10  H13 UNL     1       6.705  41.578  22.207  1.00  0.00     0.276 HD
ATOM     11  H12 UNL     1       6.584  42.414  23.488  1.00  0.00     0.276 HD
ATOM     12  H11 UNL     1       6.754  43.269  22.027  1.00  0.00     0.276 HD
ENDBRANCH   7   9
ENDBRANCH   1   7
BRANCH   6  13
HETATM   13  N5  UNL     1       9.111  42.332  19.324  1.00  0.00    -0.203 N 
ATOM     14  H5  UNL     1       9.880  41.765  18.967  1.00  0.00     0.179 HD
BRANCH  13  15
HETATM   15  C4  UNL     1       7.770  42.191  18.804  1.00  0.00     0.225 A 
HETATM   16  C5  UNL     1       7.522  41.041  17.900  1.00  0.00     0.174 A 
HETATM   17  N6  UNL     1       6.624  40.576  18.946  1.00  0.00    -0.143 NA
HETATM   18  N7  UNL     1       6.832  41.673  19.784  1.00  0.00    -0.121 NA
ENDBRANCH  13  15
ENDBRANCH   6  13
TORSDOF 4
ENDMDL
MODEL 4
REMARK VINA RESULT: -5.667772948      1.018      1.117
REMARK  4 active torsions:
REMARK  status: ('A' for Active; 'I' for Inactive)
REMARK    1  A    between atoms: C2_2  and  N1_3 
REMARK    2  A    between atoms: C2_2  and  N2_7 
REMARK    3  A    between atoms: C3_12  and  N5_13 
REMARK    4  A    between atoms: N5_13  and  C4_15 
ROOT
HETATM    1  N2  UNL     1       9.384  42.981  22.374  1.00  0.00    -0.076 N 
HETATM    2  N3  UNL     1       9.438  42.357  23.538  1.00  0.00    -0.210 N 
ATOM      3  H3  UNL     1      10.012  42.428  24.378  1.00  0.00     0.209 HD
HETATM    4  N4  UNL     1       8.444  41.617  23.151  1.00  0.00    -0.116 N 
ATOM      5  H4  UNL     1       7.924  40.857  23.590  1.00  0.00     0.207 HD
HETATM    6  C3  UNL     1       8.357  42.229  21.952  1.00  0.00     0.715 A 
ENDROOT
BRANCH   1   7
HETATM    7  C2  UNL     1      10.178  44.070  21.825  1.00  0.00     0.320 C 
HETATM    8  C1  UNL     1      10.148  45.276  22.724  1.00  0.00     0.066 C 
BRANCH   7   9
HETATM    9  N1  UNL     1       9.694  44.486  20.524  1.00  0.00    -0.056 N 
ATOM     10  H13 UNL     1       8.740  44.849  20.550  1.00  0.00     0.276 HD
ATOM     11  H12 UNL     1      10.149  45.332  20.182  1.00  0.00     0.276 HD
ATOM     12  H11 UNL     1       9.800  43.693  19.891  1.00  0.00     0.276 HD
ENDBRANCH   7   9
ENDBRANCH   1   7
BRANCH   6  13
HETATM   13  N5  UNL     1       7.557  42.136  20.774  1.00  0.00    -0.203 N 
ATOM     14  H5  UNL     1       6.626  42.552  20.731  1.00  0.00     0.179 HD
BRANCH  13  15
HETATM   15  C4  UNL     1       8.118  41.430  19.645  1.00  0.00     0.225 A 
HETATM   16  C5  UNL     1       7.156  40.883  18.656  1.00  0.00     0.174 A 
HETATM   17  N6  UNL     1       7.769  41.822  17.730  1.00  0.00    -0.143 NA
HETATM   18  N7  UNL     1       8.695  42.317  18.650  1.00  0.00    -0.121 NA
ENDBRANCH  13  15
ENDBRANCH   6  13
TORSDOF 4
ENDMDL
MODEL 5
REMARK VINA RESULT: -5.570099444      1.327      1.575
REMARK  4 active torsions:
REMARK  status: ('A' for Active; 'I' for Inactive)
REMARK    1  A    between atoms: C2_2  and  N1_3 
REMARK    2  A    between atoms: C2_2  and  N2_7 
REMARK    3  A    between atoms: C3_12  and  N5_13 
REMARK    4  A    between atoms: N5_13  and  C4_15 
ROOT
HETATM    1  N2  UNL     1       9.388  43.690  22.223  1.00  0.00    -0.076 N 
HETATM    2  N3  UNL     1       8.692  43.132  23.197  1.00  0.00    -0.210 N 
ATOM      3  H3  UNL     1       8.679  43.197  24.215  1.00  0.00     0.209 HD
HETATM    4  N4  UNL     1       8.031  42.465  22.301  1.00  0.00    -0.116 N 
ATOM      5  H4  UNL     1       7.274  41.783  22.351  1.00  0.00     0.207 HD
HETATM    6  C3  UNL     1       8.719  43.013  21.278  1.00  0.00     0.715 A 
ENDROOT
BRANCH   1   7
HETATM    7  C2  UNL     1      10.465  44.668  22.243  1.00  0.00     0.320 C 
HETATM    8  C1  UNL     1      11.613  44.201  23.095  1.00  0.00     0.066 C 
BRANCH   7   9
HETATM    9  N1  UNL     1      10.024  45.944  22.770  1.00  0.00    -0.056 N 
ATOM     10  H13 UNL     1      10.201  46.045  23.770  1.00  0.00     0.276 HD
ATOM     11  H12 UNL     1      10.598  46.726  22.453  1.00  0.00     0.276 HD
ATOM     12  H11 UNL     1       9.038  46.050  22.528  1.00  0.00     0.276 HD
ENDBRANCH   7   9
ENDBRANCH   1   7
BRANCH   6  13
HETATM   13  N5  UNL     1       8.741  42.927  19.854  1.00  0.00    -0.203 N 
ATOM     14  H5  UNL     1       9.143  43.671  19.284  1.00  0.00     0.179 HD
BRANCH  13  15
HETATM   15  C4  UNL     1       8.171  41.743  19.251  1.00  0.00     0.225 A 
HETATM   16  C5  UNL     1       7.229  40.958  20.086  1.00  0.00     0.174 A 
HETATM   17  N6  UNL     1       6.236  41.329  19.090  1.00  0.00    -0.143 NA
HETATM   18  N7  UNL     1       7.127  42.043  18.287  1.00  0.00    -0.121 NA
ENDBRANCH  13  15
ENDBRANCH   6  13
TORSDOF 4
ENDMDL
