MODEL 1
REMARK VINA RESULT: -7.521687283      0.000      0.000
REMARK  2 active torsions:
REMARK  status: ('A' for Active; 'I' for Inactive)
REMARK    1  A    between atoms: C2_2  and  C5_5 
REMARK    2  A    between atoms: N1_10  and  C10_11 
ROOT
HETATM    1  C10 UNL     1      22.147  43.160  39.122  1.00  0.00     0.134 A 
HETATM    2  N2  UNL     1      21.025  42.842  38.491  1.00  0.00    -0.318 N 
ATOM      3  H2  UNL     1      20.167  42.738  39.031  1.00  0.00     0.170 HD
HETATM    4  C11 UNL     1      20.983  42.654  37.188  1.00  0.00     0.178 A 
HETATM    5  S1  UNL     1      19.560  42.260  36.452  1.00  0.00    -0.040 SA
HETATM    6  N3  UNL     1      22.079  42.777  36.437  1.00  0.00    -0.320 N 
ATOM      7  H3  UNL     1      22.019  42.626  35.430  1.00  0.00     0.169 HD
HETATM    8  C12 UNL     1      23.259  43.098  36.991  1.00  0.00     0.146 A 
HETATM    9  N4  UNL     1      24.427  43.231  36.203  1.00  0.00    -0.080 NA
HETATM   10  C13 UNL     1      23.299  43.296  38.377  1.00  0.00     0.131 A 
HETATM   11  N5  UNL     1      24.533  43.659  38.989  1.00  0.00    -0.095 NA
ENDROOT
BRANCH   1  12
HETATM   12  N1  UNL     1      22.167  43.345  40.567  1.00  0.00    -0.360 N 
HETATM   13  C5  UNL     1      22.272  42.336  41.536  1.00  0.00     0.093 C 
HETATM   14  C6  UNL     1      21.519  42.685  42.834  1.00  0.00     0.026 C 
HETATM   15  C7  UNL     1      21.795  44.083  43.255  1.00  0.00     0.004 C 
HETATM   16  C8  UNL     1      21.394  45.070  42.173  1.00  0.00     0.020 C 
HETATM   17  C9  UNL     1      22.125  44.739  40.912  1.00  0.00     0.125 C 
BRANCH  13  18
HETATM   18  C2  UNL     1      21.893  40.929  41.146  1.00  0.00    -0.031 C 
HETATM   19  C1  UNL     1      20.492  40.832  40.594  1.00  0.00     0.016 C 
HETATM   20  C3  UNL     1      21.825  40.126  42.480  1.00  0.00     0.016 C 
HETATM   21  C4  UNL     1      22.825  40.167  40.302  1.00  0.00     0.016 C 
ENDBRANCH  13  18
ENDBRANCH   1  12
TORSDOF 2
ENDMDL
MODEL 2
REMARK VINA RESULT: -7.511564068      1.801      3.741
REMARK  2 active torsions:
REMARK  status: ('A' for Active; 'I' for Inactive)
REMARK    1  A    between atoms: C2_2  and  C5_5 
REMARK    2  A    between atoms: N1_10  and  C10_11 
ROOT
HETATM    1  C10 UNL     1      21.008  41.967  39.113  1.00  0.00     0.134 A 
HETATM    2  N2  UNL     1      22.129  42.290  38.484  1.00  0.00    -0.318 N 
ATOM      3  H2  UNL     1      22.986  42.394  39.026  1.00  0.00     0.170 HD
HETATM    4  C11 UNL     1      22.172  42.480  37.182  1.00  0.00     0.178 A 
HETATM    5  S1  UNL     1      23.595  42.880  36.449  1.00  0.00    -0.040 SA
HETATM    6  N3  UNL     1      21.078  42.356  36.429  1.00  0.00    -0.320 N 
ATOM      7  H3  UNL     1      21.138  42.510  35.422  1.00  0.00     0.169 HD
HETATM    8  C12 UNL     1      19.898  42.030  36.981  1.00  0.00     0.146 A 
HETATM    9  N4  UNL     1      18.731  41.896  36.191  1.00  0.00    -0.080 NA
HETATM   10  C13 UNL     1      19.857  41.829  38.367  1.00  0.00     0.131 A 
HETATM   11  N5  UNL     1      18.623  41.462  38.976  1.00  0.00    -0.095 NA
ENDROOT
BRANCH   1  12
HETATM   12  N1  UNL     1      20.986  41.778  40.558  1.00  0.00    -0.360 N 
HETATM   13  C5  UNL     1      20.879  42.785  41.529  1.00  0.00     0.093 C 
HETATM   14  C6  UNL     1      21.631  42.434  42.827  1.00  0.00     0.026 C 
HETATM   15  C7  UNL     1      21.356  41.035  43.245  1.00  0.00     0.004 C 
HETATM   16  C8  UNL     1      21.759  40.051  42.160  1.00  0.00     0.020 C 
HETATM   17  C9  UNL     1      21.029  40.384  40.899  1.00  0.00     0.125 C 
BRANCH  13  18
HETATM   18  C2  UNL     1      21.257  44.194  41.142  1.00  0.00    -0.031 C 
HETATM   19  C1  UNL     1      22.658  44.293  40.592  1.00  0.00     0.016 C 
HETATM   20  C3  UNL     1      21.323  44.993  42.479  1.00  0.00     0.016 C 
HETATM   21  C4  UNL     1      20.324  44.956  40.300  1.00  0.00     0.016 C 
ENDBRANCH  13  18
ENDBRANCH   1  12
TORSDOF 2
ENDMDL
MODEL 3
REMARK VINA RESULT: -6.406286641      1.447      2.261
REMARK  2 active torsions:
REMARK  status: ('A' for Active; 'I' for Inactive)
REMARK    1  A    between atoms: C2_2  and  C5_5 
REMARK    2  A    between atoms: N1_10  and  C10_11 
ROOT
HETATM    1  C10 UNL     1      22.012  43.294  39.192  1.00  0.00     0.134 A 
HETATM    2  N2  UNL     1      23.105  43.384  38.448  1.00  0.00    -0.318 N 
ATOM      3  H2  UNL     1      24.005  43.513  38.909  1.00  0.00     0.170 HD
HETATM    4  C11 UNL     1      23.067  43.312  37.134  1.00  0.00     0.178 A 
HETATM    5  S1  UNL     1      24.459  43.431  36.256  1.00  0.00    -0.040 SA
HETATM    6  N3  UNL     1      21.914  43.145  36.485  1.00  0.00    -0.320 N 
ATOM      7  H3  UNL     1      21.912  43.094  35.466  1.00  0.00     0.169 HD
HETATM    8  C12 UNL     1      20.756  43.042  37.156  1.00  0.00     0.146 A 
HETATM    9  N4  UNL     1      19.528  42.864  36.477  1.00  0.00    -0.080 NA
HETATM   10  C13 UNL     1      20.802  43.119  38.554  1.00  0.00     0.131 A 
HETATM   11  N5  UNL     1      19.591  42.991  39.294  1.00  0.00    -0.095 NA
ENDROOT
BRANCH   1  12
HETATM   12  N1  UNL     1      22.082  43.392  40.644  1.00  0.00    -0.360 N 
HETATM   13  C5  UNL     1      22.292  42.335  41.542  1.00  0.00     0.093 C 
HETATM   14  C6  UNL     1      21.575  42.553  42.888  1.00  0.00     0.026 C 
HETATM   15  C7  UNL     1      21.779  43.938  43.386  1.00  0.00     0.004 C 
HETATM   16  C8  UNL     1      21.270  44.960  42.385  1.00  0.00     0.020 C 
HETATM   17  C9  UNL     1      21.966  44.756  41.078  1.00  0.00     0.125 C 
BRANCH  13  18
HETATM   18  C2  UNL     1      21.987  40.931  41.078  1.00  0.00    -0.031 C 
HETATM   19  C1  UNL     1      20.574  40.776  40.574  1.00  0.00     0.016 C 
HETATM   20  C3  UNL     1      22.026  40.047  42.360  1.00  0.00     0.016 C 
HETATM   21  C4  UNL     1      22.930  40.286  40.153  1.00  0.00     0.016 C 
ENDBRANCH  13  18
ENDBRANCH   1  12
TORSDOF 2
ENDMDL
MODEL 4
REMARK VINA RESULT: -6.288714782      1.263      2.882
REMARK  2 active torsions:
REMARK  status: ('A' for Active; 'I' for Inactive)
REMARK    1  A    between atoms: C2_2  and  C5_5 
REMARK    2  A    between atoms: N1_10  and  C10_11 
ROOT
HETATM    1  C10 UNL     1      21.157  41.841  39.244  1.00  0.00     0.134 A 
HETATM    2  N2  UNL     1      20.066  41.792  38.493  1.00  0.00    -0.318 N 
ATOM      3  H2  UNL     1      19.161  41.661  38.945  1.00  0.00     0.170 HD
HETATM    4  C11 UNL     1      20.111  41.907  37.182  1.00  0.00     0.178 A 
HETATM    5  S1  UNL     1      18.721  41.839  36.295  1.00  0.00    -0.040 SA
HETATM    6  N3  UNL     1      21.269  42.080  36.543  1.00  0.00    -0.320 N 
ATOM      7  H3  UNL     1      21.276  42.165  35.527  1.00  0.00     0.169 HD
HETATM    8  C12 UNL     1      22.425  42.142  37.222  1.00  0.00     0.146 A 
HETATM    9  N4  UNL     1      23.659  42.325  36.554  1.00  0.00    -0.080 NA
HETATM   10  C13 UNL     1      22.372  42.019  38.617  1.00  0.00     0.131 A 
HETATM   11  N5  UNL     1      23.581  42.103  39.366  1.00  0.00    -0.095 NA
ENDROOT
BRANCH   1  12
HETATM   12  N1  UNL     1      21.079  41.695  40.691  1.00  0.00    -0.360 N 
HETATM   13  C5  UNL     1      20.929  42.729  41.627  1.00  0.00     0.093 C 
HETATM   14  C6  UNL     1      21.630  42.421  42.964  1.00  0.00     0.026 C 
HETATM   15  C7  UNL     1      21.345  41.033  43.411  1.00  0.00     0.004 C 
HETATM   16  C8  UNL     1      21.795  40.020  42.374  1.00  0.00     0.020 C 
HETATM   17  C9  UNL     1      21.114  40.311  41.076  1.00  0.00     0.125 C 
BRANCH  13  18
HETATM   18  C2  UNL     1      21.316  44.128  41.213  1.00  0.00    -0.031 C 
HETATM   19  C1  UNL     1      22.732  44.216  40.701  1.00  0.00     0.016 C 
HETATM   20  C3  UNL     1      21.342  44.963  42.529  1.00  0.00     0.016 C 
HETATM   21  C4  UNL     1      20.407  44.865  40.325  1.00  0.00     0.016 C 
ENDBRANCH  13  18
ENDBRANCH   1  12
TORSDOF 2
ENDMDL
MODEL 5
REMARK VINA RESULT: -5.814379192      2.197      5.029
REMARK  2 active torsions:
REMARK  status: ('A' for Active; 'I' for Inactive)
REMARK    1  A    between atoms: C2_2  and  C5_5 
REMARK    2  A    between atoms: N1_10  and  C10_11 
ROOT
HETATM    1  C10 UNL     1      22.163  42.804  40.255  1.00  0.00     0.134 A 
HETATM    2  N2  UNL     1      22.039  41.518  40.550  1.00  0.00    -0.318 N 
ATOM      3  H2  UNL     1      22.183  40.827  39.815  1.00  0.00     0.170 HD
HETATM    4  C11 UNL     1      21.734  41.104  41.762  1.00  0.00     0.178 A 
HETATM    5  S1  UNL     1      21.591  39.490  42.075  1.00  0.00    -0.040 SA
HETATM    6  N3  UNL     1      21.535  41.968  42.758  1.00  0.00    -0.320 N 
ATOM      7  H3  UNL     1      21.299  41.621  43.688  1.00  0.00     0.169 HD
HETATM    8  C12 UNL     1      21.641  43.291  42.552  1.00  0.00     0.146 A 
HETATM    9  N4  UNL     1      21.432  44.216  43.601  1.00  0.00    -0.080 NA
HETATM   10  C13 UNL     1      21.965  43.727  41.260  1.00  0.00     0.131 A 
HETATM   11  N5  UNL     1      22.107  45.123  41.016  1.00  0.00    -0.095 NA
ENDROOT
BRANCH   1  12
HETATM   12  N1  UNL     1      22.486  43.235  38.901  1.00  0.00    -0.360 N 
HETATM   13  C5  UNL     1      21.608  43.275  37.807  1.00  0.00     0.093 C 
HETATM   14  C6  UNL     1      22.321  43.004  36.469  1.00  0.00     0.026 C 
HETATM   15  C7  UNL     1      23.589  43.774  36.371  1.00  0.00     0.004 C 
HETATM   16  C8  UNL     1      24.530  43.426  37.510  1.00  0.00     0.020 C 
HETATM   17  C9  UNL     1      23.845  43.692  38.811  1.00  0.00     0.125 C 
BRANCH  13  18
HETATM   18  C2  UNL     1      20.369  42.415  37.853  1.00  0.00    -0.031 C 
HETATM   19  C1  UNL     1      20.675  40.943  37.724  1.00  0.00     0.016 C 
HETATM   20  C3  UNL     1      19.578  42.747  36.553  1.00  0.00     0.016 C 
HETATM   21  C4  UNL     1      19.408  42.641  38.941  1.00  0.00     0.016 C 
ENDBRANCH  13  18
ENDBRANCH   1  12
TORSDOF 2
ENDMDL
