MODEL 1
REMARK VINA RESULT: -5.880445258      0.000      0.000
REMARK  5 active torsions:
REMARK  status: ('A' for Active; 'I' for Inactive)
REMARK    1  A    between atoms: C2_2  and  C5_5 
REMARK    2  A    between atoms: C5_5  and  N1_7 
REMARK    3  A    between atoms: N1_7  and  C6_9 
REMARK    4  A    between atoms: C6_9  and  C7_13 
REMARK    5  A    between atoms: N4_17  and  C9_18 
ROOT
HETATM    1  C6  UNL     1      21.300   0.972  -6.497  1.00  0.00     0.112 C 
HETATM    2  N2  UNL     1      22.076   1.889  -6.961  1.00  0.00    -0.385 N 
ATOM      3  H21 UNL     1      22.759   2.302  -6.326  1.00  0.00     0.157 HD
ATOM      4  H22 UNL     1      22.011   2.191  -7.934  1.00  0.00     0.157 HD
ENDROOT
BRANCH   1   5
HETATM    5  N1  UNL     1      20.358   0.401  -7.374  1.00  0.00    -0.336 N 
ATOM      6  H1  UNL     1      19.508   0.915  -7.604  1.00  0.00     0.168 HD
BRANCH   5   7
HETATM    7  C5  UNL     1      20.576  -0.880  -7.943  1.00  0.00     0.086 C 
HETATM    8  S1  UNL     1      19.737  -2.190  -7.412  1.00  0.00    -0.065 SA
BRANCH   7   9
HETATM    9  C2  UNL     1      21.554  -1.109  -9.030  1.00  0.00     0.002 C 
HETATM   10  C1  UNL     1      21.392  -2.566  -9.454  1.00  0.00     0.022 C 
HETATM   11  C3  UNL     1      21.225  -0.203 -10.184  1.00  0.00     0.022 C 
HETATM   12  C4  UNL     1      22.972  -0.829  -8.593  1.00  0.00     0.022 C 
ENDBRANCH   7   9
ENDBRANCH   5   7
ENDBRANCH   1   5
BRANCH   1  13
HETATM   13  C7  UNL     1      21.394   0.535  -5.095  1.00  0.00     0.041 A 
HETATM   14  C8  UNL     1      20.712   1.031  -4.008  1.00  0.00     0.124 A 
HETATM   15  N3  UNL     1      21.119   0.334  -2.956  1.00  0.00    -0.308 N 
HETATM   16  N4  UNL     1      22.005  -0.575  -3.256  1.00  0.00    -0.294 N 
ATOM     17  H3  UNL     1      20.775   0.493  -2.009  1.00  0.00     0.186 HD
HETATM   18  C13 UNL     1      22.199  -0.471  -4.601  1.00  0.00     0.127 A 
BRANCH  16  19
HETATM   19  C9  UNL     1      22.681  -1.529  -2.381  1.00  0.00     0.042 C 
HETATM   20  C10 UNL     1      24.165  -1.290  -2.556  1.00  0.00     0.039 C 
HETATM   21  C11 UNL     1      22.245  -1.400  -0.955  1.00  0.00     0.039 C 
HETATM   22  C12 UNL     1      22.324  -2.937  -2.849  1.00  0.00     0.039 C 
ENDBRANCH  16  19
ENDBRANCH   1  13
TORSDOF 5
ENDMDL
MODEL 2
REMARK VINA RESULT: -5.880201527      2.223      3.565
REMARK  5 active torsions:
REMARK  status: ('A' for Active; 'I' for Inactive)
REMARK    1  A    between atoms: C2_2  and  C5_5 
REMARK    2  A    between atoms: C5_5  and  N1_7 
REMARK    3  A    between atoms: N1_7  and  C6_9 
REMARK    4  A    between atoms: C6_9  and  C7_13 
REMARK    5  A    between atoms: N4_17  and  C9_18 
ROOT
HETATM    1  C6  UNL     1      21.166  -0.974  -6.496  1.00  0.00     0.112 C 
HETATM    2  N2  UNL     1      20.382  -1.880  -6.970  1.00  0.00    -0.385 N 
ATOM      3  H21 UNL     1      19.693  -2.291  -6.340  1.00  0.00     0.157 HD
ATOM      4  H22 UNL     1      20.448  -2.177  -7.944  1.00  0.00     0.157 HD
ENDROOT
BRANCH   1   5
HETATM    5  N1  UNL     1      22.117  -0.408  -7.366  1.00  0.00    -0.336 N 
ATOM      6  H1  UNL     1      22.969  -0.924  -7.585  1.00  0.00     0.168 HD
BRANCH   5   7
HETATM    7  C5  UNL     1      21.907   0.872  -7.941  1.00  0.00     0.086 C 
HETATM    8  S1  UNL     1      22.746   2.181  -7.410  1.00  0.00    -0.065 SA
BRANCH   7   9
HETATM    9  C2  UNL     1      20.936   1.100  -9.036  1.00  0.00     0.002 C 
HETATM   10  C1  UNL     1      21.099   2.558  -9.456  1.00  0.00     0.022 C 
HETATM   11  C3  UNL     1      21.276   0.195 -10.188  1.00  0.00     0.022 C 
HETATM   12  C4  UNL     1      19.516   0.816  -8.609  1.00  0.00     0.022 C 
ENDBRANCH   7   9
ENDBRANCH   5   7
ENDBRANCH   1   5
BRANCH   1  13
HETATM   13  C7  UNL     1      21.071  -0.546  -5.092  1.00  0.00     0.041 A 
HETATM   14  C8  UNL     1      21.742  -1.057  -4.005  1.00  0.00     0.124 A 
HETATM   15  N3  UNL     1      21.339  -0.363  -2.950  1.00  0.00    -0.308 N 
HETATM   16  N4  UNL     1      20.465   0.559  -3.249  1.00  0.00    -0.294 N 
ATOM     17  H3  UNL     1      21.677  -0.532  -2.003  1.00  0.00     0.186 HD
HETATM   18  C13 UNL     1      20.275   0.466  -4.595  1.00  0.00     0.127 A 
BRANCH  16  19
HETATM   19  C9  UNL     1      19.796   1.514  -2.370  1.00  0.00     0.042 C 
HETATM   20  C10 UNL     1      18.309   1.295  -2.554  1.00  0.00     0.039 C 
HETATM   21  C11 UNL     1      20.222   1.370  -0.943  1.00  0.00     0.039 C 
HETATM   22  C12 UNL     1      20.171   2.921  -2.825  1.00  0.00     0.039 C 
ENDBRANCH  16  19
ENDBRANCH   1  13
TORSDOF 5
ENDMDL
MODEL 3
REMARK VINA RESULT: -5.816297916      2.243      3.430
REMARK  5 active torsions:
REMARK  status: ('A' for Active; 'I' for Inactive)
REMARK    1  A    between atoms: C2_2  and  C5_5 
REMARK    2  A    between atoms: C5_5  and  N1_7 
REMARK    3  A    between atoms: N1_7  and  C6_9 
REMARK    4  A    between atoms: C6_9  and  C7_13 
REMARK    5  A    between atoms: N4_17  and  C9_18 
ROOT
HETATM    1  C6  UNL     1      21.187  -0.972  -6.560  1.00  0.00     0.112 C 
HETATM    2  N2  UNL     1      20.405  -1.886  -7.019  1.00  0.00    -0.385 N 
ATOM      3  H21 UNL     1      19.727  -2.299  -6.378  1.00  0.00     0.157 HD
ATOM      4  H22 UNL     1      20.460  -2.188  -7.992  1.00  0.00     0.157 HD
ENDROOT
BRANCH   1   5
HETATM    5  N1  UNL     1      22.122  -0.402  -7.445  1.00  0.00    -0.336 N 
ATOM      6  H1  UNL     1      22.956  -0.928  -7.704  1.00  0.00     0.168 HD
BRANCH   5   7
HETATM    7  C5  UNL     1      21.919   0.896  -7.983  1.00  0.00     0.086 C 
HETATM    8  S1  UNL     1      22.747   2.188  -7.395  1.00  0.00    -0.065 SA
BRANCH   7   9
HETATM    9  C2  UNL     1      20.967   1.157  -9.085  1.00  0.00     0.002 C 
HETATM   10  C1  UNL     1      19.572   0.930  -8.510  1.00  0.00     0.022 C 
HETATM   11  C3  UNL     1      21.109   2.587  -9.527  1.00  0.00     0.022 C 
HETATM   12  C4  UNL     1      21.212   0.263 -10.278  1.00  0.00     0.022 C 
ENDBRANCH   7   9
ENDBRANCH   5   7
ENDBRANCH   1   5
BRANCH   1  13
HETATM   13  C7  UNL     1      21.107  -0.537  -5.157  1.00  0.00     0.041 A 
HETATM   14  C8  UNL     1      21.797  -1.037  -4.076  1.00  0.00     0.124 A 
HETATM   15  N3  UNL     1      21.402  -0.341  -3.020  1.00  0.00    -0.308 N 
HETATM   16  N4  UNL     1      20.516   0.572  -3.311  1.00  0.00    -0.294 N 
ATOM     17  H3  UNL     1      21.754  -0.502  -2.076  1.00  0.00     0.186 HD
HETATM   18  C13 UNL     1      20.310   0.471  -4.655  1.00  0.00     0.127 A 
BRANCH  16  19
HETATM   19  C9  UNL     1      19.851   1.527  -2.429  1.00  0.00     0.042 C 
HETATM   20  C10 UNL     1      20.321   1.209  -1.025  1.00  0.00     0.039 C 
HETATM   21  C11 UNL     1      20.126   2.946  -2.816  1.00  0.00     0.039 C 
HETATM   22  C12 UNL     1      18.346   1.301  -2.534  1.00  0.00     0.039 C 
ENDBRANCH  16  19
ENDBRANCH   1  13
TORSDOF 5
ENDMDL
MODEL 4
REMARK VINA RESULT: -5.633794368      1.482      2.156
REMARK  5 active torsions:
REMARK  status: ('A' for Active; 'I' for Inactive)
REMARK    1  A    between atoms: C2_2  and  C5_5 
REMARK    2  A    between atoms: C5_5  and  N1_7 
REMARK    3  A    between atoms: N1_7  and  C6_9 
REMARK    4  A    between atoms: C6_9  and  C7_13 
REMARK    5  A    between atoms: N4_17  and  C9_18 
ROOT
HETATM    1  C6  UNL     1      20.822   0.974  -5.560  1.00  0.00     0.112 C 
HETATM    2  N2  UNL     1      19.618   1.352  -5.817  1.00  0.00    -0.385 N 
ATOM      3  H21 UNL     1      18.919   1.250  -5.082  1.00  0.00     0.157 HD
ATOM      4  H22 UNL     1      19.372   1.741  -6.728  1.00  0.00     0.157 HD
ENDROOT
BRANCH   1   5
HETATM    5  N1  UNL     1      21.787   1.115  -6.574  1.00  0.00    -0.336 N 
ATOM      6  H1  UNL     1      22.740   1.384  -6.329  1.00  0.00     0.168 HD
BRANCH   5   7
HETATM    7  C5  UNL     1      21.453   0.889  -7.934  1.00  0.00     0.086 C 
HETATM    8  S1  UNL     1      21.113   2.146  -8.937  1.00  0.00    -0.065 SA
BRANCH   7   9
HETATM    9  C2  UNL     1      21.391  -0.469  -8.520  1.00  0.00     0.002 C 
HETATM   10  C1  UNL     1      21.517  -0.290 -10.031  1.00  0.00     0.022 C 
HETATM   11  C3  UNL     1      22.548  -1.278  -8.004  1.00  0.00     0.022 C 
HETATM   12  C4  UNL     1      20.111  -1.187  -8.167  1.00  0.00     0.022 C 
ENDBRANCH   7   9
ENDBRANCH   5   7
ENDBRANCH   1   5
BRANCH   1  13
HETATM   13  C7  UNL     1      21.177   0.412  -4.246  1.00  0.00     0.041 A 
HETATM   14  C8  UNL     1      20.715   0.798  -3.009  1.00  0.00     0.124 A 
HETATM   15  N3  UNL     1      21.309   0.014  -2.122  1.00  0.00    -0.308 N 
HETATM   16  N4  UNL     1      22.118  -0.853  -2.666  1.00  0.00    -0.294 N 
ATOM     17  H3  UNL     1      21.150   0.081  -1.116  1.00  0.00     0.186 HD
HETATM   18  C13 UNL     1      22.056  -0.624  -4.008  1.00  0.00     0.127 A 
BRANCH  16  19
HETATM   19  C9  UNL     1      22.942  -1.874  -2.025  1.00  0.00     0.042 C 
HETATM   20  C10 UNL     1      22.576  -3.189  -2.677  1.00  0.00     0.039 C 
HETATM   21  C11 UNL     1      24.404  -1.572  -2.128  1.00  0.00     0.039 C 
HETATM   22  C12 UNL     1      22.581  -1.913  -0.543  1.00  0.00     0.039 C 
ENDBRANCH  16  19
ENDBRANCH   1  13
TORSDOF 5
ENDMDL
MODEL 5
REMARK VINA RESULT: -5.629332167      1.467      1.905
REMARK  5 active torsions:
REMARK  status: ('A' for Active; 'I' for Inactive)
REMARK    1  A    between atoms: C2_2  and  C5_5 
REMARK    2  A    between atoms: C5_5  and  N1_7 
REMARK    3  A    between atoms: N1_7  and  C6_9 
REMARK    4  A    between atoms: C6_9  and  C7_13 
REMARK    5  A    between atoms: N4_17  and  C9_18 
ROOT
HETATM    1  C6  UNL     1      20.777   1.023  -5.637  1.00  0.00     0.112 C 
HETATM    2  N2  UNL     1      19.576   1.399  -5.914  1.00  0.00    -0.385 N 
ATOM      3  H21 UNL     1      18.865   1.299  -5.190  1.00  0.00     0.157 HD
ATOM      4  H22 UNL     1      19.344   1.785  -6.830  1.00  0.00     0.157 HD
ENDROOT
BRANCH   1   5
HETATM    5  N1  UNL     1      21.757   1.162  -6.636  1.00  0.00    -0.336 N 
ATOM      6  H1  UNL     1      22.706   1.432  -6.377  1.00  0.00     0.168 HD
BRANCH   5   7
HETATM    7  C5  UNL     1      21.444   0.930  -8.001  1.00  0.00     0.086 C 
HETATM    8  S1  UNL     1      21.133   2.184  -9.017  1.00  0.00    -0.065 SA
BRANCH   7   9
HETATM    9  C2  UNL     1      21.382  -0.431  -8.580  1.00  0.00     0.002 C 
HETATM   10  C1  UNL     1      21.492  -0.259 -10.092  1.00  0.00     0.022 C 
HETATM   11  C3  UNL     1      22.547  -1.234  -8.072  1.00  0.00     0.022 C 
HETATM   12  C4  UNL     1      20.107  -1.152  -8.210  1.00  0.00     0.022 C 
ENDBRANCH   7   9
ENDBRANCH   5   7
ENDBRANCH   1   5
BRANCH   1  13
HETATM   13  C7  UNL     1      21.111   0.467  -4.316  1.00  0.00     0.041 A 
HETATM   14  C8  UNL     1      20.614   0.844  -3.090  1.00  0.00     0.124 A 
HETATM   15  N3  UNL     1      21.201   0.069  -2.189  1.00  0.00    -0.308 N 
HETATM   16  N4  UNL     1      22.037  -0.784  -2.715  1.00  0.00    -0.294 N 
ATOM     17  H3  UNL     1      21.018   0.133  -1.187  1.00  0.00     0.186 HD
HETATM   18  C13 UNL     1      22.002  -0.555  -4.058  1.00  0.00     0.127 A 
BRANCH  16  19
HETATM   19  C9  UNL     1      22.864  -1.791  -2.056  1.00  0.00     0.042 C 
HETATM   20  C10 UNL     1      24.302  -1.423  -2.352  1.00  0.00     0.039 C 
HETATM   21  C11 UNL     1      22.588  -1.881  -0.587  1.00  0.00     0.039 C 
HETATM   22  C12 UNL     1      22.539  -3.148  -2.672  1.00  0.00     0.039 C 
ENDBRANCH  16  19
ENDBRANCH   1  13
TORSDOF 5
ENDMDL
