MODEL 1
REMARK VINA RESULT: -5.559516224      0.000      0.000
REMARK  4 active torsions:
REMARK  status: ('A' for Active; 'I' for Inactive)
REMARK    1  A    between atoms: C2_2  and  C4_4 
REMARK    2  A    between atoms: C9_14  and  C10_15 
REMARK    3  A    between atoms: C11_18  and  O1_19 
REMARK    4  A    between atoms: C13_23  and  O2_24 
ROOT
HETATM    1  C4  UNL     1      15.877   1.392   0.751  1.00  0.00     0.001 A 
HETATM    2  S1  UNL     1      14.920   0.064   0.052  1.00  0.00    -0.074 SA
HETATM    3  C5  UNL     1      13.673   0.054   1.333  1.00  0.00     0.098 A 
HETATM    4  N1  UNL     1      12.526  -0.544   1.753  1.00  0.00    -0.293 N 
ATOM      5  H1  UNL     1      12.046  -1.305   1.272  1.00  0.00     0.187 HD
HETATM    6  N2  UNL     1      12.131   0.015   2.879  1.00  0.00    -0.304 N 
ATOM      7  H2  UNL     1      11.302  -0.232   3.419  1.00  0.00     0.186 HD
HETATM    8  C6  UNL     1      13.025   0.974   3.184  1.00  0.00     0.032 A 
HETATM    9  C7  UNL     1      12.872   1.809   4.415  1.00  0.00     0.070 C 
HETATM   10  C8  UNL     1      14.019   1.019   2.214  1.00  0.00     0.016 A 
HETATM   11  C9  UNL     1      15.215   1.797   1.974  1.00  0.00     0.118 A 
ENDROOT
BRANCH  11  12
HETATM   12  C10 UNL     1      14.815   3.238   1.786  1.00  0.00     0.077 A 
HETATM   13  N3  UNL     1      14.045   3.749   0.816  1.00  0.00    -0.321 N 
HETATM   14  C11 UNL     1      13.921   5.071   0.984  1.00  0.00     0.225 A 
ATOM     15  H3  UNL     1      13.616   3.211   0.063  1.00  0.00     0.169 HD
HETATM   16  N4  UNL     1      14.622   5.399   2.074  1.00  0.00    -0.296 N 
HETATM   17  C12 UNL     1      14.757   6.766   2.624  1.00  0.00     0.162 C 
HETATM   18  C13 UNL     1      15.174   4.295   2.575  1.00  0.00     0.169 A 
BRANCH  14  19
HETATM   19  O1  UNL     1      13.193   5.969   0.178  1.00  0.00    -0.332 OA
ATOM     20  H1  UNL     1      13.375   6.890   0.034  1.00  0.00     0.221 HD
ENDBRANCH  14  19
BRANCH  18  21
HETATM   21  O2  UNL     1      15.988   4.238   3.723  1.00  0.00    -0.344 OA
ATOM     22  H2  UNL     1      16.685   3.614   3.885  1.00  0.00     0.219 HD
ENDBRANCH  18  21
ENDBRANCH  11  12
BRANCH   1  23
HETATM   23  C2  UNL     1      16.968   1.883   0.233  1.00  0.00    -0.073 C 
HETATM   24  C1  UNL     1      17.051   2.266  -1.199  1.00  0.00     0.044 C 
HETATM   25  C3  UNL     1      18.190   2.086   1.054  1.00  0.00     0.044 C 
ENDBRANCH   1  23
TORSDOF 4
ENDMDL
MODEL 2
REMARK VINA RESULT: -5.430388299     13.363     15.553
REMARK  4 active torsions:
REMARK  status: ('A' for Active; 'I' for Inactive)
REMARK    1  A    between atoms: C2_2  and  C4_4 
REMARK    2  A    between atoms: C9_14  and  C10_15 
REMARK    3  A    between atoms: C11_18  and  O1_19 
REMARK    4  A    between atoms: C13_23  and  O2_24 
ROOT
HETATM    1  C4  UNL     1      27.027  -1.601   0.410  1.00  0.00     0.001 A 
HETATM    2  S1  UNL     1      27.851  -0.209  -0.332  1.00  0.00    -0.074 SA
HETATM    3  C5  UNL     1      29.039   0.014   0.984  1.00  0.00     0.098 A 
HETATM    4  N1  UNL     1      30.093   0.763   1.407  1.00  0.00    -0.293 N 
ATOM      5  H1  UNL     1      30.499   1.549   0.899  1.00  0.00     0.187 HD
HETATM    6  N2  UNL     1      30.506   0.314   2.574  1.00  0.00    -0.304 N 
ATOM      7  H2  UNL     1      31.280   0.684   3.125  1.00  0.00     0.186 HD
HETATM    8  C6  UNL     1      29.717  -0.726   2.904  1.00  0.00     0.032 A 
HETATM    9  C7  UNL     1      29.919  -1.472   4.185  1.00  0.00     0.070 C 
HETATM   10  C8  UNL     1      28.773  -0.938   1.907  1.00  0.00     0.016 A 
HETATM   11  C9  UNL     1      27.685  -1.861   1.673  1.00  0.00     0.118 A 
ENDROOT
BRANCH  11  12
HETATM   12  C10 UNL     1      28.254  -3.254   1.580  1.00  0.00     0.077 A 
HETATM   13  N3  UNL     1      29.101  -3.726   0.656  1.00  0.00    -0.321 N 
HETATM   14  C11 UNL     1      29.375  -5.012   0.905  1.00  0.00     0.225 A 
ATOM     15  H3  UNL     1      29.481  -3.187  -0.122  1.00  0.00     0.169 HD
HETATM   16  N4  UNL     1      28.693  -5.356   2.002  1.00  0.00    -0.296 N 
HETATM   17  C12 UNL     1      28.706  -6.695   2.631  1.00  0.00     0.162 C 
HETATM   18  C13 UNL     1      28.004  -4.298   2.426  1.00  0.00     0.169 A 
BRANCH  14  19
HETATM   19  O1  UNL     1      30.222  -5.863   0.167  1.00  0.00    -0.332 OA
ATOM     20  H1  UNL     1      31.080  -5.657  -0.184  1.00  0.00     0.221 HD
ENDBRANCH  14  19
BRANCH  18  21
HETATM   21  O2  UNL     1      27.163  -4.270   3.555  1.00  0.00    -0.344 OA
ATOM     22  H2  UNL     1      26.267  -4.583   3.595  1.00  0.00     0.219 HD
ENDBRANCH  18  21
ENDBRANCH  11  12
BRANCH   1  23
HETATM   23  C2  UNL     1      26.020  -2.243  -0.115  1.00  0.00    -0.073 C 
HETATM   24  C1  UNL     1      24.994  -2.909   0.725  1.00  0.00     0.044 C 
HETATM   25  C3  UNL     1      25.849  -2.341  -1.588  1.00  0.00     0.044 C 
ENDBRANCH   1  23
TORSDOF 4
ENDMDL
MODEL 3
REMARK VINA RESULT: -5.276803833     12.819     15.044
REMARK  4 active torsions:
REMARK  status: ('A' for Active; 'I' for Inactive)
REMARK    1  A    between atoms: C2_2  and  C4_4 
REMARK    2  A    between atoms: C9_14  and  C10_15 
REMARK    3  A    between atoms: C11_18  and  O1_19 
REMARK    4  A    between atoms: C13_23  and  O2_24 
ROOT
HETATM    1  C4  UNL     1      25.870  -2.145   1.397  1.00  0.00     0.001 A 
HETATM    2  S1  UNL     1      25.823  -0.996   0.039  1.00  0.00    -0.074 SA
HETATM    3  C5  UNL     1      27.417  -0.263   0.375  1.00  0.00     0.098 A 
HETATM    4  N1  UNL     1      28.314   0.671  -0.043  1.00  0.00    -0.293 N 
ATOM      5  H1  UNL     1      28.194   1.287  -0.848  1.00  0.00     0.187 HD
HETATM    6  N2  UNL     1      29.362   0.656   0.755  1.00  0.00    -0.304 N 
ATOM      7  H2  UNL     1      30.188   1.249   0.680  1.00  0.00     0.186 HD
HETATM    8  C6  UNL     1      29.140  -0.288   1.688  1.00  0.00     0.032 A 
HETATM    9  C7  UNL     1      30.146  -0.566   2.759  1.00  0.00     0.070 C 
HETATM   10  C8  UNL     1      27.907  -0.889   1.468  1.00  0.00     0.016 A 
HETATM   11  C9  UNL     1      27.121  -1.930   2.094  1.00  0.00     0.118 A 
ENDROOT
BRANCH  11  12
HETATM   12  C10 UNL     1      27.889  -3.224   2.003  1.00  0.00     0.077 A 
HETATM   13  N3  UNL     1      28.419  -3.781   0.906  1.00  0.00    -0.321 N 
HETATM   14  C11 UNL     1      29.021  -4.932   1.225  1.00  0.00     0.225 A 
ATOM     15  H3  UNL     1      28.372  -3.386  -0.033  1.00  0.00     0.169 HD
HETATM   16  N4  UNL     1      28.869  -5.106   2.543  1.00  0.00    -0.296 N 
HETATM   17  C12 UNL     1      29.383  -6.257   3.318  1.00  0.00     0.162 C 
HETATM   18  C13 UNL     1      28.182  -4.075   3.032  1.00  0.00     0.169 A 
BRANCH  14  19
HETATM   19  O1  UNL     1      29.696  -5.813   0.356  1.00  0.00    -0.332 OA
ATOM     20  H1  UNL     1      30.318  -6.490   0.593  1.00  0.00     0.221 HD
ENDBRANCH  14  19
BRANCH  18  21
HETATM   21  O2  UNL     1      27.822  -3.902   4.382  1.00  0.00    -0.344 OA
ATOM     22  H2  UNL     1      27.519  -3.096   4.783  1.00  0.00     0.219 HD
ENDBRANCH  18  21
ENDBRANCH  11  12
BRANCH   1  23
HETATM   23  C2  UNL     1      24.934  -3.007   1.684  1.00  0.00    -0.073 C 
HETATM   24  C1  UNL     1      24.613  -3.377   3.085  1.00  0.00     0.044 C 
HETATM   25  C3  UNL     1      24.136  -3.664   0.616  1.00  0.00     0.044 C 
ENDBRANCH   1  23
TORSDOF 4
ENDMDL
MODEL 4
REMARK VINA RESULT: -5.263961947      1.445      2.059
REMARK  4 active torsions:
REMARK  status: ('A' for Active; 'I' for Inactive)
REMARK    1  A    between atoms: C2_2  and  C4_4 
REMARK    2  A    between atoms: C9_14  and  C10_15 
REMARK    3  A    between atoms: C11_18  and  O1_19 
REMARK    4  A    between atoms: C13_23  and  O2_24 
ROOT
HETATM    1  C4  UNL     1      17.496   2.110   1.392  1.00  0.00     0.001 A 
HETATM    2  S1  UNL     1      17.555   0.962   0.032  1.00  0.00    -0.074 SA
HETATM    3  C5  UNL     1      15.944   0.249   0.336  1.00  0.00     0.098 A 
HETATM    4  N1  UNL     1      15.044  -0.672  -0.101  1.00  0.00    -0.293 N 
ATOM      5  H1  UNL     1      15.172  -1.288  -0.905  1.00  0.00     0.187 HD
HETATM    6  N2  UNL     1      13.980  -0.644   0.676  1.00  0.00    -0.304 N 
ATOM      7  H2  UNL     1      13.148  -1.226   0.584  1.00  0.00     0.186 HD
HETATM    8  C6  UNL     1      14.196   0.296   1.615  1.00  0.00     0.032 A 
HETATM    9  C7  UNL     1      13.173   0.587   2.666  1.00  0.00     0.070 C 
HETATM   10  C8  UNL     1      15.442   0.881   1.420  1.00  0.00     0.016 A 
HETATM   11  C9  UNL     1      16.228   1.911   2.063  1.00  0.00     0.118 A 
ENDROOT
BRANCH  11  12
HETATM   12  C10 UNL     1      15.480   3.215   1.958  1.00  0.00     0.077 A 
HETATM   13  N3  UNL     1      14.986   3.784   0.851  1.00  0.00    -0.321 N 
HETATM   14  C11 UNL     1      14.391   4.942   1.161  1.00  0.00     0.225 A 
ATOM     15  H3  UNL     1      15.053   3.393  -0.089  1.00  0.00     0.169 HD
HETATM   16  N4  UNL     1      14.510   5.106   2.483  1.00  0.00    -0.296 N 
HETATM   17  C12 UNL     1      13.991   6.260   3.250  1.00  0.00     0.162 C 
HETATM   18  C13 UNL     1      15.171   4.065   2.984  1.00  0.00     0.169 A 
BRANCH  14  19
HETATM   19  O1  UNL     1      13.751   5.835   0.279  1.00  0.00    -0.332 OA
ATOM     20  H1  UNL     1      13.674   6.778   0.370  1.00  0.00     0.221 HD
ENDBRANCH  14  19
BRANCH  18  21
HETATM   21  O2  UNL     1      15.492   3.880   4.343  1.00  0.00    -0.344 OA
ATOM     22  H2  UNL     1      15.226   4.439   5.063  1.00  0.00     0.219 HD
ENDBRANCH  18  21
ENDBRANCH  11  12
BRANCH   1  23
HETATM   23  C2  UNL     1      18.438   2.959   1.698  1.00  0.00    -0.073 C 
HETATM   24  C1  UNL     1      18.773   3.281   3.107  1.00  0.00     0.044 C 
HETATM   25  C3  UNL     1      19.228   3.649   0.645  1.00  0.00     0.044 C 
ENDBRANCH   1  23
TORSDOF 4
ENDMDL
MODEL 5
REMARK VINA RESULT: -5.242134366     12.450     14.885
REMARK  4 active torsions:
REMARK  status: ('A' for Active; 'I' for Inactive)
REMARK    1  A    between atoms: C2_2  and  C4_4 
REMARK    2  A    between atoms: C9_14  and  C10_15 
REMARK    3  A    between atoms: C11_18  and  O1_19 
REMARK    4  A    between atoms: C13_23  and  O2_24 
ROOT
HETATM    1  C4  UNL     1      29.237  -3.696   2.032  1.00  0.00     0.001 A 
HETATM    2  S1  UNL     1      30.313  -2.738   3.078  1.00  0.00    -0.074 SA
HETATM    3  C5  UNL     1      30.048  -1.188   2.229  1.00  0.00     0.098 A 
HETATM    4  N1  UNL     1      30.375   0.132   2.211  1.00  0.00    -0.293 N 
ATOM      5  H1  UNL     1      31.007   0.593   2.867  1.00  0.00     0.187 HD
HETATM    6  N2  UNL     1      29.747   0.723   1.215  1.00  0.00    -0.304 N 
ATOM      7  H2  UNL     1      29.804   1.710   0.965  1.00  0.00     0.186 HD
HETATM    8  C6  UNL     1      29.015  -0.217   0.590  1.00  0.00     0.032 A 
HETATM    9  C7  UNL     1      28.172   0.123  -0.597  1.00  0.00     0.070 C 
HETATM   10  C8  UNL     1      29.189  -1.446   1.217  1.00  0.00     0.016 A 
HETATM   11  C9  UNL     1      28.699  -2.794   1.035  1.00  0.00     0.118 A 
ENDROOT
BRANCH  11  12
HETATM   12  C10 UNL     1      27.204  -2.787   1.228  1.00  0.00     0.077 A 
HETATM   13  N3  UNL     1      26.533  -2.731   2.385  1.00  0.00    -0.321 N 
HETATM   14  C11 UNL     1      25.216  -2.749   2.149  1.00  0.00     0.225 A 
ATOM     15  H3  UNL     1      26.962  -2.683   3.310  1.00  0.00     0.169 HD
HETATM   16  N4  UNL     1      25.053  -2.816   0.823  1.00  0.00    -0.296 N 
HETATM   17  C12 UNL     1      23.750  -2.857   0.124  1.00  0.00     0.162 C 
HETATM   18  C13 UNL     1      26.253  -2.840   0.247  1.00  0.00     0.169 A 
BRANCH  14  19
HETATM   19  O1  UNL     1      24.178  -2.705   3.100  1.00  0.00    -0.332 OA
ATOM     20  H1  UNL     1      23.937  -1.972   3.656  1.00  0.00     0.221 HD
ENDBRANCH  14  19
BRANCH  18  21
HETATM   21  O2  UNL     1      26.491  -2.910  -1.140  1.00  0.00    -0.344 OA
ATOM     22  H2  UNL     1      26.019  -2.436  -1.814  1.00  0.00     0.219 HD
ENDBRANCH  18  21
ENDBRANCH  11  12
BRANCH   1  23
HETATM   23  C2  UNL     1      29.001  -4.971   2.167  1.00  0.00    -0.073 C 
HETATM   24  C1  UNL     1      28.363  -5.524   3.388  1.00  0.00     0.044 C 
HETATM   25  C3  UNL     1      29.360  -5.940   1.099  1.00  0.00     0.044 C 
ENDBRANCH   1  23
TORSDOF 4
ENDMDL
