MODEL 1
REMARK VINA RESULT: -6.627110594      0.000      0.000
REMARK  6 active torsions:
REMARK  status: ('A' for Active; 'I' for Inactive)
REMARK    1  A    between atoms: O1_2  and  N1_3 
REMARK       I    between atoms: N1_3  and  C2_5 
REMARK       I    between atoms: C2_5  and  N2_7 
REMARK    2  A    between atoms: N2_7  and  S1_9 
REMARK    3  A    between atoms: S1_9  and  C3_10 
REMARK    4  A    between atoms: C3_10  and  N4_14 
REMARK    5  A    between atoms: N4_14  and  O3_15 
REMARK    6  A    between atoms: N4_14  and  C4_17 
ROOT
HETATM    1  C3  UNL     1      21.936   2.154  -8.074  1.00  0.00     0.186 C 
HETATM    2  N3  UNL     1      22.973   2.462  -7.412  1.00  0.00    -0.377 N 
ATOM      3  H31 UNL     1      23.163   2.194  -6.446  1.00  0.00     0.158 HD
ATOM      4  H32 UNL     1      23.681   3.028  -7.881  1.00  0.00     0.158 HD
ENDROOT
BRANCH   1   5
HETATM    5  S1  UNL     1      21.603   2.623  -9.764  1.00  0.00     0.028 SA
BRANCH   5   6
HETATM    6  N2  UNL     1      21.208   1.150 -10.630  1.00  0.00    -0.274 N 
HETATM    7  C2  UNL     1      22.011   0.001 -10.436  1.00  0.00     0.350 C 
HETATM    8  N1  UNL     1      21.738  -1.226 -11.118  1.00  0.00    -0.216 N 
HETATM    9  O2  UNL     1      22.999   0.020  -9.649  1.00  0.00    -0.244 OA
ATOM     10  H1  UNL     1      20.948  -1.277 -11.760  1.00  0.00     0.199 HD
ATOM     11  H2  UNL     1      20.411   1.122 -11.265  1.00  0.00     0.179 HD
BRANCH   8  12
HETATM   12  O1  UNL     1      22.497  -2.303 -10.930  1.00  0.00    -0.281 OA
HETATM   13  C1  UNL     1      21.869  -3.162 -10.025  1.00  0.00     0.237 C 
ENDBRANCH   8  12
ENDBRANCH   5   6
ENDBRANCH   1   5
BRANCH   1  14
HETATM   14  N4  UNL     1      20.936   1.354  -7.410  1.00  0.00    -0.200 N 
BRANCH  14  15
HETATM   15  O3  UNL     1      19.852   1.081  -8.153  1.00  0.00    -0.280 OA
ATOM     16  H3  UNL     1      19.660   0.156  -8.250  1.00  0.00     0.245 HD
ENDBRANCH  14  15
BRANCH  14  17
HETATM   17  C4  UNL     1      21.126   0.917  -6.080  1.00  0.00     0.071 A 
HETATM   18  C5  UNL     1      20.486   1.627  -5.052  1.00  0.00     0.033 A 
HETATM   19  C6  UNL     1      20.623   1.238  -3.747  1.00  0.00     0.003 A 
HETATM   20  C7  UNL     1      21.387   0.143  -3.434  1.00  0.00     0.007 A 
HETATM   21  C8  UNL     1      22.027  -0.569  -4.460  1.00  0.00    -0.054 A 
HETATM   22  C9  UNL     1      22.830  -1.752  -4.078  1.00  0.00     0.049 C 
HETATM   23  C10 UNL     1      21.892  -0.177  -5.780  1.00  0.00    -0.027 A 
HETATM   24  C11 UNL     1      22.592  -0.942  -6.821  1.00  0.00     0.051 C 
ENDBRANCH  14  17
ENDBRANCH   1  14
TORSDOF 6
ENDMDL
MODEL 2
REMARK VINA RESULT: -6.619585614      2.135      3.596
REMARK  6 active torsions:
REMARK  status: ('A' for Active; 'I' for Inactive)
REMARK    1  A    between atoms: O1_2  and  N1_3 
REMARK       I    between atoms: N1_3  and  C2_5 
REMARK       I    between atoms: C2_5  and  N2_7 
REMARK    2  A    between atoms: N2_7  and  S1_9 
REMARK    3  A    between atoms: S1_9  and  C3_10 
REMARK    4  A    between atoms: C3_10  and  N4_14 
REMARK    5  A    between atoms: N4_14  and  O3_15 
REMARK    6  A    between atoms: N4_14  and  C4_17 
ROOT
HETATM    1  C3  UNL     1      21.438  -2.168  -8.054  1.00  0.00     0.186 C 
HETATM    2  N3  UNL     1      20.391  -2.471  -7.404  1.00  0.00    -0.377 N 
ATOM      3  H31 UNL     1      20.183  -2.189  -6.447  1.00  0.00     0.158 HD
ATOM      4  H32 UNL     1      19.695  -3.049  -7.877  1.00  0.00     0.158 HD
ENDROOT
BRANCH   1   5
HETATM    5  S1  UNL     1      21.803  -2.661  -9.731  1.00  0.00     0.028 SA
BRANCH   5   6
HETATM    6  N2  UNL     1      22.206  -1.200 -10.613  1.00  0.00    -0.274 N 
HETATM    7  C2  UNL     1      21.389  -0.055 -10.458  1.00  0.00     0.350 C 
HETATM    8  N1  UNL     1      21.668   1.162 -11.155  1.00  0.00    -0.216 N 
HETATM    9  O2  UNL     1      20.382  -0.069  -9.695  1.00  0.00    -0.244 OA
ATOM     10  H1  UNL     1      22.474   1.209 -11.778  1.00  0.00     0.199 HD
ATOM     11  H2  UNL     1      23.019  -1.176 -11.228  1.00  0.00     0.179 HD
BRANCH   8  12
HETATM   12  O1  UNL     1      20.896   2.235 -11.004  1.00  0.00    -0.281 OA
HETATM   13  C1  UNL     1      21.476   3.097 -10.071  1.00  0.00     0.237 C 
ENDBRANCH   8  12
ENDBRANCH   5   6
ENDBRANCH   1   5
BRANCH   1  14
HETATM   14  N4  UNL     1      22.422  -1.352  -7.386  1.00  0.00    -0.200 N 
BRANCH  14  15
HETATM   15  O3  UNL     1      23.506  -1.064  -8.122  1.00  0.00    -0.280 OA
ATOM     16  H3  UNL     1      23.857  -0.192  -7.989  1.00  0.00     0.245 HD
ENDBRANCH  14  15
BRANCH  14  17
HETATM   17  C4  UNL     1      22.218  -0.914  -6.058  1.00  0.00     0.071 A 
HETATM   18  C5  UNL     1      22.857  -1.616  -5.024  1.00  0.00     0.033 A 
HETATM   19  C6  UNL     1      22.706  -1.225  -3.720  1.00  0.00     0.003 A 
HETATM   20  C7  UNL     1      21.928  -0.138  -3.416  1.00  0.00     0.007 A 
HETATM   21  C8  UNL     1      21.289   0.565  -4.448  1.00  0.00    -0.054 A 
HETATM   22  C9  UNL     1      20.471   1.740  -4.074  1.00  0.00     0.049 C 
HETATM   23  C10 UNL     1      21.437   0.173  -5.766  1.00  0.00    -0.027 A 
HETATM   24  C11 UNL     1      20.738   0.929  -6.813  1.00  0.00     0.051 C 
ENDBRANCH  14  17
ENDBRANCH   1  14
TORSDOF 6
ENDMDL
MODEL 3
REMARK VINA RESULT: -6.584080410      2.236      5.381
REMARK  6 active torsions:
REMARK  status: ('A' for Active; 'I' for Inactive)
REMARK    1  A    between atoms: O1_2  and  N1_3 
REMARK       I    between atoms: N1_3  and  C2_5 
REMARK       I    between atoms: C2_5  and  N2_7 
REMARK    2  A    between atoms: N2_7  and  S1_9 
REMARK    3  A    between atoms: S1_9  and  C3_10 
REMARK    4  A    between atoms: C3_10  and  N4_14 
REMARK    5  A    between atoms: N4_14  and  O3_15 
REMARK    6  A    between atoms: N4_14  and  C4_17 
ROOT
HETATM    1  C3  UNL     1      21.581  -2.442  -9.668  1.00  0.00     0.186 C 
HETATM    2  N3  UNL     1      21.983  -3.627  -9.881  1.00  0.00    -0.377 N 
ATOM      3  H31 UNL     1      22.695  -3.900 -10.558  1.00  0.00     0.158 HD
ATOM      4  H32 UNL     1      21.559  -4.374  -9.330  1.00  0.00     0.158 HD
ENDROOT
BRANCH   1   5
HETATM    5  S1  UNL     1      20.335  -1.963  -8.483  1.00  0.00     0.028 SA
BRANCH   5   6
HETATM    6  N2  UNL     1      21.147  -1.776  -6.940  1.00  0.00    -0.274 N 
HETATM    7  C2  UNL     1      21.093  -0.524  -6.281  1.00  0.00     0.350 C 
HETATM    8  N1  UNL     1      21.740  -0.314  -5.023  1.00  0.00    -0.216 N 
HETATM    9  O2  UNL     1      20.468   0.452  -6.783  1.00  0.00    -0.244 OA
ATOM     10  H1  UNL     1      22.253  -1.080  -4.589  1.00  0.00     0.199 HD
ATOM     11  H2  UNL     1      21.652  -2.558  -6.524  1.00  0.00     0.179 HD
BRANCH   8  12
HETATM   12  O1  UNL     1      21.684   0.865  -4.408  1.00  0.00    -0.281 OA
HETATM   13  C1  UNL     1      20.605   0.876  -3.522  1.00  0.00     0.237 C 
ENDBRANCH   8  12
ENDBRANCH   5   6
ENDBRANCH   1   5
BRANCH   1  14
HETATM   14  N4  UNL     1      22.180  -1.386 -10.446  1.00  0.00    -0.200 N 
BRANCH  14  15
HETATM   15  O3  UNL     1      22.806  -1.795 -11.560  1.00  0.00    -0.280 OA
ATOM     16  H3  UNL     1      22.702  -1.219 -12.309  1.00  0.00     0.245 HD
ENDBRANCH  14  15
BRANCH  14  17
HETATM   17  C4  UNL     1      22.091  -0.039 -10.027  1.00  0.00     0.071 A 
HETATM   18  C5  UNL     1      21.113   0.775 -10.619  1.00  0.00     0.033 A 
HETATM   19  C6  UNL     1      20.972   2.082 -10.240  1.00  0.00     0.003 A 
HETATM   20  C7  UNL     1      21.789   2.607  -9.272  1.00  0.00     0.007 A 
HETATM   21  C8  UNL     1      22.767   1.796  -8.678  1.00  0.00    -0.054 A 
HETATM   22  C9  UNL     1      23.617   2.400  -7.628  1.00  0.00     0.049 C 
HETATM   23  C10 UNL     1      22.914   0.474  -9.061  1.00  0.00    -0.027 A 
HETATM   24  C11 UNL     1      23.961  -0.335  -8.424  1.00  0.00     0.051 C 
ENDBRANCH  14  17
ENDBRANCH   1  14
TORSDOF 6
ENDMDL
MODEL 4
REMARK VINA RESULT: -6.551902914      2.311      4.805
REMARK  6 active torsions:
REMARK  status: ('A' for Active; 'I' for Inactive)
REMARK    1  A    between atoms: O1_2  and  N1_3 
REMARK       I    between atoms: N1_3  and  C2_5 
REMARK       I    between atoms: C2_5  and  N2_7 
REMARK    2  A    between atoms: N2_7  and  S1_9 
REMARK    3  A    between atoms: S1_9  and  C3_10 
REMARK    4  A    between atoms: C3_10  and  N4_14 
REMARK    5  A    between atoms: N4_14  and  O3_15 
REMARK    6  A    between atoms: N4_14  and  C4_17 
ROOT
HETATM    1  C3  UNL     1      21.680   2.359  -9.524  1.00  0.00     0.186 C 
HETATM    2  N3  UNL     1      21.166   3.513  -9.636  1.00  0.00    -0.377 N 
ATOM      3  H31 UNL     1      20.410   3.769 -10.272  1.00  0.00     0.158 HD
ATOM      4  H32 UNL     1      21.538   4.254  -9.041  1.00  0.00     0.158 HD
ENDROOT
BRANCH   1   5
HETATM    5  S1  UNL     1      23.002   1.911  -8.411  1.00  0.00     0.028 SA
BRANCH   5   6
HETATM    6  N2  UNL     1      22.281   1.704  -6.825  1.00  0.00    -0.274 N 
HETATM    7  C2  UNL     1      22.340   0.434  -6.203  1.00  0.00     0.350 C 
HETATM    8  N1  UNL     1      21.767   0.206  -4.913  1.00  0.00    -0.216 N 
HETATM    9  O2  UNL     1      22.904  -0.545  -6.768  1.00  0.00    -0.244 OA
ATOM     10  H1  UNL     1      21.305   0.975  -4.428  1.00  0.00     0.199 HD
ATOM     11  H2  UNL     1      21.827   2.488  -6.358  1.00  0.00     0.179 HD
BRANCH   8  12
HETATM   12  O1  UNL     1      21.826  -0.990  -4.333  1.00  0.00    -0.281 OA
HETATM   13  C1  UNL     1      22.928  -1.037  -3.476  1.00  0.00     0.237 C 
ENDBRANCH   8  12
ENDBRANCH   5   6
ENDBRANCH   1   5
BRANCH   1  14
HETATM   14  N4  UNL     1      21.153   1.311 -10.364  1.00  0.00    -0.200 N 
BRANCH  14  15
HETATM   15  O3  UNL     1      20.605   1.735 -11.513  1.00  0.00    -0.280 OA
ATOM     16  H3  UNL     1      19.656   1.765 -11.513  1.00  0.00     0.245 HD
ENDBRANCH  14  15
BRANCH  14  17
HETATM   17  C4  UNL     1      21.229  -0.043  -9.966  1.00  0.00     0.071 A 
HETATM   18  C5  UNL     1      22.176  -0.865 -10.597  1.00  0.00     0.033 A 
HETATM   19  C6  UNL     1      22.304  -2.181 -10.239  1.00  0.00     0.003 A 
HETATM   20  C7  UNL     1      21.505  -2.704  -9.255  1.00  0.00     0.007 A 
HETATM   21  C8  UNL     1      20.559  -1.884  -8.623  1.00  0.00    -0.054 A 
HETATM   22  C9  UNL     1      19.728  -2.487  -7.558  1.00  0.00     0.049 C 
HETATM   23  C10 UNL     1      20.425  -0.554  -8.983  1.00  0.00    -0.027 A 
HETATM   24  C11 UNL     1      19.411   0.264  -8.306  1.00  0.00     0.051 C 
ENDBRANCH  14  17
ENDBRANCH   1  14
TORSDOF 6
ENDMDL
MODEL 5
REMARK VINA RESULT: -6.477100084      2.861      3.847
REMARK  6 active torsions:
REMARK  status: ('A' for Active; 'I' for Inactive)
REMARK    1  A    between atoms: O1_2  and  N1_3 
REMARK       I    between atoms: N1_3  and  C2_5 
REMARK       I    between atoms: C2_5  and  N2_7 
REMARK    2  A    between atoms: N2_7  and  S1_9 
REMARK    3  A    between atoms: S1_9  and  C3_10 
REMARK    4  A    between atoms: C3_10  and  N4_14 
REMARK    5  A    between atoms: N4_14  and  O3_15 
REMARK    6  A    between atoms: N4_14  and  C4_17 
ROOT
HETATM    1  C3  UNL     1      21.486   2.002 -10.135  1.00  0.00     0.186 C 
HETATM    2  N3  UNL     1      21.222   3.148 -10.611  1.00  0.00    -0.377 N 
ATOM      3  H31 UNL     1      21.514   4.039 -10.210  1.00  0.00     0.158 HD
ATOM      4  H32 UNL     1      20.669   3.187 -11.467  1.00  0.00     0.158 HD
ENDROOT
BRANCH   1   5
HETATM    5  S1  UNL     1      20.976   0.441 -10.837  1.00  0.00     0.028 SA
BRANCH   5   6
HETATM    6  N2  UNL     1      22.132   0.049 -12.096  1.00  0.00    -0.274 N 
HETATM    7  C2  UNL     1      21.708   0.059 -13.446  1.00  0.00     0.350 C 
HETATM    8  N1  UNL     1      22.606  -0.255 -14.514  1.00  0.00    -0.216 N 
HETATM    9  O2  UNL     1      20.518   0.350 -13.756  1.00  0.00    -0.244 OA
ATOM     10  H1  UNL     1      23.574  -0.493 -14.300  1.00  0.00     0.199 HD
ATOM     11  H2  UNL     1      23.096  -0.183 -11.858  1.00  0.00     0.179 HD
BRANCH   8  12
HETATM   12  O1  UNL     1      22.202  -0.243 -15.781  1.00  0.00    -0.281 OA
HETATM   13  C1  UNL     1      23.155   0.408 -16.567  1.00  0.00     0.237 C 
ENDBRANCH   8  12
ENDBRANCH   5   6
ENDBRANCH   1   5
BRANCH   1  14
HETATM   14  N4  UNL     1      22.268   1.947  -8.924  1.00  0.00    -0.200 N 
BRANCH  14  15
HETATM   15  O3  UNL     1      22.776   3.124  -8.531  1.00  0.00    -0.280 OA
ATOM     16  H3  UNL     1      22.889   3.214  -7.592  1.00  0.00     0.245 HD
ENDBRANCH  14  15
BRANCH  14  17
HETATM   17  C4  UNL     1      22.458   0.724  -8.241  1.00  0.00     0.071 A 
HETATM   18  C5  UNL     1      23.478  -0.131  -8.687  1.00  0.00     0.033 A 
HETATM   19  C6  UNL     1      23.716  -1.321  -8.052  1.00  0.00     0.003 A 
HETATM   20  C7  UNL     1      22.957  -1.684  -6.969  1.00  0.00     0.007 A 
HETATM   21  C8  UNL     1      21.938  -0.830  -6.522  1.00  0.00    -0.054 A 
HETATM   22  C9  UNL     1      21.153  -1.256  -5.342  1.00  0.00     0.049 C 
HETATM   23  C10 UNL     1      21.693   0.372  -7.162  1.00  0.00    -0.027 A 
HETATM   24  C11 UNL     1      20.606   1.228  -6.669  1.00  0.00     0.051 C 
ENDBRANCH  14  17
ENDBRANCH   1  14
TORSDOF 6
ENDMDL
