MODEL 1
REMARK VINA RESULT: -5.462013984      0.000      0.000
REMARK  4 active torsions:
REMARK  status: ('A' for Active; 'I' for Inactive)
REMARK    1  A    between atoms: C2_2  and  C4_4 
REMARK    2  A    between atoms: C9_13  and  O1_14 
REMARK    3  A    between atoms: C10_16  and  O2_17 
REMARK    4  A    between atoms: N2_19  and  O3_20 
ROOT
HETATM    1  C4  UNL     1      14.176   2.030   2.870  1.00  0.00     0.096 C 
HETATM    2  C5  UNL     1      15.546   1.745   2.639  1.00  0.00    -0.095 C 
HETATM    3  S1  UNL     1      17.219   1.658   2.370  1.00  0.00    -0.021 SA
HETATM    4  C6  UNL     1      17.721   3.389   1.935  1.00  0.00     0.151 C 
HETATM    5  S2  UNL     1      19.020   3.391   1.040  1.00  0.00    -0.052 SA
HETATM    6  N1  UNL     1      17.175   4.681   2.248  1.00  0.00    -0.325 N 
ATOM      7  H1  UNL     1      17.774   5.466   1.993  1.00  0.00     0.169 HD
HETATM    8  C7  UNL     1      15.927   5.059   2.859  1.00  0.00     0.146 A 
HETATM    9  C8  UNL     1      14.637   4.547   2.897  1.00  0.00     0.027 A 
HETATM   10  C9  UNL     1      13.941   5.458   3.715  1.00  0.00     0.129 A 
HETATM   11  C10 UNL     1      14.781   6.464   4.139  1.00  0.00     0.203 A 
HETATM   12  N2  UNL     1      15.975   6.184   3.598  1.00  0.00    -0.182 N 
HETATM   13  C11 UNL     1      13.891   3.441   2.350  1.00  0.00     0.067 C 
ENDROOT
BRANCH   1  14
HETATM   14  C2  UNL     1      13.263   1.145   2.035  1.00  0.00    -0.077 C 
HETATM   15  C1  UNL     1      12.131   0.674   2.525  1.00  0.00     0.015 C 
HETATM   16  C3  UNL     1      13.629   0.793   0.639  1.00  0.00     0.044 C 
ENDBRANCH   1  14
BRANCH  10  17
HETATM   17  O1  UNL     1      12.608   5.323   4.019  1.00  0.00    -0.356 OA
ATOM     18  H1  UNL     1      12.160   4.486   4.018  1.00  0.00     0.218 HD
ENDBRANCH  10  17
BRANCH  12  19
HETATM   19  O3  UNL     1      17.091   6.963   3.785  1.00  0.00    -0.279 OA
ATOM     20  H3  UNL     1      17.090   7.908   3.883  1.00  0.00     0.245 HD
ENDBRANCH  12  19
BRANCH  11  21
HETATM   21  O2  UNL     1      14.439   7.538   4.960  1.00  0.00    -0.342 OA
ATOM     22  H2  UNL     1      13.649   8.063   4.903  1.00  0.00     0.219 HD
ENDBRANCH  11  21
TORSDOF 4
ENDMDL
MODEL 2
REMARK VINA RESULT: -5.415587109      2.571      4.092
REMARK  4 active torsions:
REMARK  status: ('A' for Active; 'I' for Inactive)
REMARK    1  A    between atoms: C2_2  and  C4_4 
REMARK    2  A    between atoms: C9_13  and  O1_14 
REMARK    3  A    between atoms: C10_16  and  O2_17 
REMARK    4  A    between atoms: N2_19  and  O3_20 
ROOT
HETATM    1  C4  UNL     1      15.988   2.739   0.398  1.00  0.00     0.096 C 
HETATM    2  C5  UNL     1      14.920   1.806   0.430  1.00  0.00    -0.095 C 
HETATM    3  S1  UNL     1      13.575   0.803   0.689  1.00  0.00    -0.021 SA
HETATM    4  C6  UNL     1      13.097   1.096   2.456  1.00  0.00     0.151 C 
HETATM    5  S2  UNL     1      12.354  -0.159   3.054  1.00  0.00    -0.052 SA
HETATM    6  N1  UNL     1      13.266   2.208   3.351  1.00  0.00    -0.325 N 
ATOM      7  H1  UNL     1      12.748   2.129   4.225  1.00  0.00     0.169 HD
HETATM    8  C7  UNL     1      14.042   3.415   3.226  1.00  0.00     0.146 A 
HETATM    9  C8  UNL     1      15.232   3.779   2.610  1.00  0.00     0.027 A 
HETATM   10  C9  UNL     1      15.357   5.149   2.910  1.00  0.00     0.129 A 
HETATM   11  C10 UNL     1      14.290   5.575   3.670  1.00  0.00     0.203 A 
HETATM   12  N2  UNL     1      13.517   4.493   3.839  1.00  0.00    -0.182 N 
HETATM   13  C11 UNL     1      16.284   3.169   1.836  1.00  0.00     0.067 C 
ENDROOT
BRANCH   1  14
HETATM   14  C2  UNL     1      17.288   2.099  -0.065  1.00  0.00    -0.077 C 
HETATM   15  C1  UNL     1      18.408   2.253   0.619  1.00  0.00     0.015 C 
HETATM   16  C3  UNL     1      17.324   1.279  -1.302  1.00  0.00     0.044 C 
ENDBRANCH   1  14
BRANCH  10  17
HETATM   17  O1  UNL     1      16.415   5.915   2.484  1.00  0.00    -0.356 OA
ATOM     18  H1  UNL     1      16.981   6.392   3.079  1.00  0.00     0.218 HD
ENDBRANCH  10  17
BRANCH  12  19
HETATM   19  O3  UNL     1      12.343   4.506   4.553  1.00  0.00    -0.279 OA
ATOM     20  H3  UNL     1      11.631   5.122   4.426  1.00  0.00     0.245 HD
ENDBRANCH  12  19
BRANCH  11  21
HETATM   21  O2  UNL     1      14.079   6.866   4.152  1.00  0.00    -0.342 OA
ATOM     22  H2  UNL     1      13.792   7.102   5.027  1.00  0.00     0.219 HD
ENDBRANCH  11  21
TORSDOF 4
ENDMDL
MODEL 3
REMARK VINA RESULT: -5.196214158      3.526      5.394
REMARK  4 active torsions:
REMARK  status: ('A' for Active; 'I' for Inactive)
REMARK    1  A    between atoms: C2_2  and  C4_4 
REMARK    2  A    between atoms: C9_13  and  O1_14 
REMARK    3  A    between atoms: C10_16  and  O2_17 
REMARK    4  A    between atoms: N2_19  and  O3_20 
ROOT
HETATM    1  C4  UNL     1      17.442   1.732   0.569  1.00  0.00     0.096 C 
HETATM    2  C5  UNL     1      17.524   2.820   1.476  1.00  0.00    -0.095 C 
HETATM    3  S1  UNL     1      17.367   4.096   2.583  1.00  0.00    -0.021 SA
HETATM    4  C6  UNL     1      15.552   4.471   2.623  1.00  0.00     0.151 C 
HETATM    5  S2  UNL     1      15.295   5.970   3.037  1.00  0.00    -0.052 SA
HETATM    6  N1  UNL     1      14.378   3.683   2.362  1.00  0.00    -0.325 N 
ATOM      7  H1  UNL     1      13.501   4.132   2.626  1.00  0.00     0.169 HD
HETATM    8  C7  UNL     1      14.227   2.371   1.790  1.00  0.00     0.146 A 
HETATM    9  C8  UNL     1      14.902   1.606   0.848  1.00  0.00     0.027 A 
HETATM   10  C9  UNL     1      14.172   0.402   0.812  1.00  0.00     0.129 A 
HETATM   11  C10 UNL     1      13.113   0.454   1.691  1.00  0.00     0.203 A 
HETATM   12  N2  UNL     1      13.182   1.663   2.263  1.00  0.00    -0.182 N 
HETATM   13  C11 UNL     1      16.035   1.724  -0.034  1.00  0.00     0.067 C 
ENDROOT
BRANCH   1  14
HETATM   14  C2  UNL     1      18.351   1.927  -0.635  1.00  0.00    -0.077 C 
HETATM   15  C1  UNL     1      19.559   2.446  -0.503  1.00  0.00     0.015 C 
HETATM   16  C3  UNL     1      17.896   1.534  -1.993  1.00  0.00     0.044 C 
ENDBRANCH   1  14
BRANCH  10  17
HETATM   17  O1  UNL     1      14.507  -0.651  -0.005  1.00  0.00    -0.356 OA
ATOM     18  H1  UNL     1      14.836  -1.478   0.326  1.00  0.00     0.218 HD
ENDBRANCH  10  17
BRANCH  12  19
HETATM   19  O3  UNL     1      12.288   2.105   3.208  1.00  0.00    -0.279 OA
ATOM     20  H3  UNL     1      11.580   1.589   3.576  1.00  0.00     0.245 HD
ENDBRANCH  12  19
BRANCH  11  21
HETATM   21  O2  UNL     1      12.178  -0.555   1.921  1.00  0.00    -0.342 OA
ATOM     22  H2  UNL     1      11.247  -0.437   2.072  1.00  0.00     0.219 HD
ENDBRANCH  11  21
TORSDOF 4
ENDMDL
MODEL 4
REMARK VINA RESULT: -5.183621540     13.581     16.000
REMARK  4 active torsions:
REMARK  status: ('A' for Active; 'I' for Inactive)
REMARK    1  A    between atoms: C2_2  and  C4_4 
REMARK    2  A    between atoms: C9_13  and  O1_14 
REMARK    3  A    between atoms: C10_16  and  O2_17 
REMARK    4  A    between atoms: N2_19  and  O3_20 
ROOT
HETATM    1  C4  UNL     1      28.870  -2.051   2.840  1.00  0.00     0.096 C 
HETATM    2  C5  UNL     1      27.489  -1.762   2.692  1.00  0.00    -0.095 C 
HETATM    3  S1  UNL     1      25.804  -1.671   2.510  1.00  0.00    -0.021 SA
HETATM    4  C6  UNL     1      25.290  -3.375   1.991  1.00  0.00     0.151 C 
HETATM    5  S2  UNL     1      23.950  -3.331   1.160  1.00  0.00    -0.052 SA
HETATM    6  N1  UNL     1      25.856  -4.680   2.195  1.00  0.00    -0.325 N 
ATOM      7  H1  UNL     1      25.249  -5.452   1.920  1.00  0.00     0.169 HD
HETATM    8  C7  UNL     1      27.134  -5.085   2.722  1.00  0.00     0.146 A 
HETATM    9  C8  UNL     1      28.422  -4.567   2.731  1.00  0.00     0.027 A 
HETATM   10  C9  UNL     1      29.160  -5.523   3.455  1.00  0.00     0.129 A 
HETATM   11  C10 UNL     1      28.346  -6.559   3.855  1.00  0.00     0.203 A 
HETATM   12  N2  UNL     1      27.126  -6.255   3.390  1.00  0.00    -0.182 N 
HETATM   13  C11 UNL     1      29.135  -3.424   2.219  1.00  0.00     0.067 C 
ENDROOT
BRANCH   1  14
HETATM   14  C2  UNL     1      29.737  -1.108   2.019  1.00  0.00    -0.077 C 
HETATM   15  C1  UNL     1      29.826  -1.229   0.707  1.00  0.00     0.015 C 
HETATM   16  C3  UNL     1      30.506  -0.025   2.682  1.00  0.00     0.044 C 
ENDBRANCH   1  14
BRANCH  10  17
HETATM   17  O1  UNL     1      30.506  -5.397   3.703  1.00  0.00    -0.356 OA
ATOM     18  H1  UNL     1      30.851  -4.933   4.456  1.00  0.00     0.218 HD
ENDBRANCH  10  17
BRANCH  12  19
HETATM   19  O3  UNL     1      26.024  -7.053   3.581  1.00  0.00    -0.279 OA
ATOM     20  H3  UNL     1      25.218  -7.003   3.080  1.00  0.00     0.245 HD
ENDBRANCH  12  19
BRANCH  11  21
HETATM   21  O2  UNL     1      28.732  -7.680   4.589  1.00  0.00    -0.342 OA
ATOM     22  H2  UNL     1      28.185  -8.182   5.182  1.00  0.00     0.219 HD
ENDBRANCH  11  21
TORSDOF 4
ENDMDL
MODEL 5
REMARK VINA RESULT: -5.079510886     13.504     15.444
REMARK  4 active torsions:
REMARK  status: ('A' for Active; 'I' for Inactive)
REMARK    1  A    between atoms: C2_2  and  C4_4 
REMARK    2  A    between atoms: C9_13  and  O1_14 
REMARK    3  A    between atoms: C10_16  and  O2_17 
REMARK    4  A    between atoms: N2_19  and  O3_20 
ROOT
HETATM    1  C4  UNL     1      27.237  -2.917   0.390  1.00  0.00     0.096 C 
HETATM    2  C5  UNL     1      28.264  -1.946   0.519  1.00  0.00    -0.095 C 
HETATM    3  S1  UNL     1      29.541  -0.896   0.900  1.00  0.00    -0.021 SA
HETATM    4  C6  UNL     1      29.850  -1.159   2.709  1.00  0.00     0.151 C 
HETATM    5  S2  UNL     1      30.486   0.125   3.365  1.00  0.00    -0.052 SA
HETATM    6  N1  UNL     1      29.630  -2.271   3.594  1.00  0.00    -0.325 N 
ATOM      7  H1  UNL     1      30.056  -2.168   4.515  1.00  0.00     0.169 HD
HETATM    8  C7  UNL     1      28.912  -3.504   3.405  1.00  0.00     0.146 A 
HETATM    9  C8  UNL     1      27.802  -3.914   2.677  1.00  0.00     0.027 A 
HETATM   10  C9  UNL     1      27.695  -5.286   2.978  1.00  0.00     0.129 A 
HETATM   11  C10 UNL     1      28.695  -5.668   3.844  1.00  0.00     0.203 A 
HETATM   12  N2  UNL     1      29.410  -4.559   4.078  1.00  0.00    -0.182 N 
HETATM   13  C11 UNL     1      26.813  -3.347   1.796  1.00  0.00     0.067 C 
ENDROOT
BRANCH   1  14
HETATM   14  C2  UNL     1      25.969  -2.325  -0.206  1.00  0.00    -0.077 C 
HETATM   15  C1  UNL     1      25.964  -1.796  -1.416  1.00  0.00     0.015 C 
HETATM   16  C3  UNL     1      24.700  -2.333   0.566  1.00  0.00     0.044 C 
ENDBRANCH   1  14
BRANCH  10  17
HETATM   17  O1  UNL     1      26.711  -6.091   2.456  1.00  0.00    -0.356 OA
ATOM     18  H1  UNL     1      26.745  -7.039   2.495  1.00  0.00     0.218 HD
ENDBRANCH  10  17
BRANCH  12  19
HETATM   19  O3  UNL     1      30.506  -4.526   4.906  1.00  0.00    -0.279 OA
ATOM     20  H3  UNL     1      31.410  -4.480   4.617  1.00  0.00     0.245 HD
ENDBRANCH  12  19
BRANCH  11  21
HETATM   21  O2  UNL     1      28.900  -6.949   4.358  1.00  0.00    -0.342 OA
ATOM     22  H2  UNL     1      28.474  -7.327   5.119  1.00  0.00     0.219 HD
ENDBRANCH  11  21
TORSDOF 4
ENDMDL
