MODEL 1
REMARK VINA RESULT: -5.866408122      0.000      0.000
REMARK  2 active torsions:
REMARK  status: ('A' for Active; 'I' for Inactive)
REMARK    1  A    between atoms: N1_1  and  C1_4 
REMARK    2  A    between atoms: N4_14  and  C6_15 
ROOT
HETATM    1  C1  UNL     1      17.382   1.498  -1.592  1.00  0.00     0.145 A 
HETATM    2  N2  UNL     1      16.628   0.414  -1.567  1.00  0.00    -0.323 N 
ATOM      3  H2  UNL     1      16.855  -0.298  -2.261  1.00  0.00     0.169 HD
HETATM    4  C2  UNL     1      15.593   0.120  -0.742  1.00  0.00     0.116 A 
HETATM    5  N3  UNL     1      15.048  -0.987  -0.937  1.00  0.00    -0.385 N 
ATOM      6  H31 UNL     1      14.269  -1.209  -0.316  1.00  0.00     0.157 HD
ATOM      7  H32 UNL     1      15.389  -1.600  -1.677  1.00  0.00     0.157 HD
HETATM    8  C3  UNL     1      15.132   0.948   0.258  1.00  0.00     0.070 A 
HETATM    9  C4  UNL     1      14.082   0.799   1.193  1.00  0.00     0.074 A 
HETATM   10  C5  UNL     1      14.018   1.904   1.985  1.00  0.00     0.058 A 
HETATM   11  N4  UNL     1      15.002   2.762   1.584  1.00  0.00    -0.336 N 
HETATM   12  C11 UNL     1      15.653   2.182   0.560  1.00  0.00     0.096 A 
HETATM   13  S1  UNL     1      16.963   2.666  -0.410  1.00  0.00    -0.035 SA
HETATM   14  C12 UNL     1      13.029   2.053   3.057  1.00  0.00     0.179 A 
HETATM   15  N5  UNL     1      12.138   0.939   3.198  1.00  0.00    -0.380 N 
ATOM     16  H5  UNL     1      11.429   0.989   3.929  1.00  0.00     0.160 HD
HETATM   17  C13 UNL     1      12.172  -0.106   2.476  1.00  0.00     0.176 A 
HETATM   18  N6  UNL     1      13.148  -0.247   1.422  1.00  0.00    -0.350 N 
ATOM     19  H6  UNL     1      13.168  -1.090   0.847  1.00  0.00     0.166 HD
ENDROOT
BRANCH  11  20
HETATM   20  C6  UNL     1      15.272   4.020   2.148  1.00  0.00     0.091 C 
HETATM   21  C7  UNL     1      14.170   5.041   1.979  1.00  0.00     0.026 C 
HETATM   22  C8  UNL     1      14.350   6.013   3.131  1.00  0.00     0.002 C 
HETATM   23  C9  UNL     1      15.602   5.553   3.867  1.00  0.00     0.002 C 
HETATM   24  C10 UNL     1      15.486   4.035   3.638  1.00  0.00     0.026 C 
ENDBRANCH  11  20
BRANCH   1  25
HETATM   25  N1  UNL     1      18.345   1.660  -2.434  1.00  0.00    -0.380 N 
ATOM     26  H12 UNL     1      18.577   0.976  -3.154  1.00  0.00     0.158 HD
ATOM     27  H11 UNL     1      18.943   2.485  -2.437  1.00  0.00     0.158 HD
ENDBRANCH   1  25
TORSDOF 2
ENDMDL
MODEL 2
REMARK VINA RESULT: -5.803409299      2.996      5.419
REMARK  2 active torsions:
REMARK  status: ('A' for Active; 'I' for Inactive)
REMARK    1  A    between atoms: N1_1  and  C1_4 
REMARK    2  A    between atoms: N4_14  and  C6_15 
ROOT
HETATM    1  C1  UNL     1      20.266   2.754   2.824  1.00  0.00     0.145 A 
HETATM    2  N2  UNL     1      19.880   3.704   3.656  1.00  0.00    -0.323 N 
ATOM      3  H2  UNL     1      20.587   4.026   4.317  1.00  0.00     0.169 HD
HETATM    4  C2  UNL     1      18.671   4.311   3.748  1.00  0.00     0.116 A 
HETATM    5  N3  UNL     1      18.576   5.187   4.634  1.00  0.00    -0.385 N 
ATOM      6  H31 UNL     1      17.666   5.644   4.703  1.00  0.00     0.157 HD
ATOM      7  H32 UNL     1      19.378   5.403   5.225  1.00  0.00     0.157 HD
HETATM    8  C3  UNL     1      17.588   4.019   2.949  1.00  0.00     0.070 A 
HETATM    9  C4  UNL     1      16.277   4.546   2.912  1.00  0.00     0.074 A 
HETATM   10  C5  UNL     1      15.564   3.925   1.933  1.00  0.00     0.058 A 
HETATM   11  N4  UNL     1      16.384   3.011   1.337  1.00  0.00    -0.336 N 
HETATM   12  C11 UNL     1      17.579   3.077   1.948  1.00  0.00     0.096 A 
HETATM   13  S1  UNL     1      19.046   2.245   1.733  1.00  0.00    -0.035 SA
HETATM   14  C12 UNL     1      14.164   4.252   1.645  1.00  0.00     0.179 A 
HETATM   15  N5  UNL     1      13.613   5.278   2.480  1.00  0.00    -0.380 N 
ATOM     16  H5  UNL     1      12.642   5.546   2.324  1.00  0.00     0.160 HD
HETATM   17  C13 UNL     1      14.251   5.877   3.402  1.00  0.00     0.176 A 
HETATM   18  N6  UNL     1      15.629   5.550   3.681  1.00  0.00    -0.350 N 
ATOM     19  H6  UNL     1      16.134   6.036   4.423  1.00  0.00     0.166 HD
ENDROOT
BRANCH  11  20
HETATM   20  C6  UNL     1      16.028   2.160   0.276  1.00  0.00     0.091 C 
HETATM   21  C7  UNL     1      16.947   2.224  -0.924  1.00  0.00     0.026 C 
HETATM   22  C8  UNL     1      16.801   0.876  -1.605  1.00  0.00     0.002 C 
HETATM   23  C9  UNL     1      15.740   0.124  -0.812  1.00  0.00     0.002 C 
HETATM   24  C10 UNL     1      16.027   0.689   0.591  1.00  0.00     0.026 C 
ENDBRANCH  11  20
BRANCH   1  25
HETATM   25  N1  UNL     1      21.455   2.255   2.836  1.00  0.00    -0.380 N 
ATOM     26  H12 UNL     1      22.232   2.654   2.311  1.00  0.00     0.158 HD
ATOM     27  H11 UNL     1      21.699   1.423   3.373  1.00  0.00     0.158 HD
ENDBRANCH   1  25
TORSDOF 2
ENDMDL
MODEL 3
REMARK VINA RESULT: -5.782787147     11.099     13.469
REMARK  2 active torsions:
REMARK  status: ('A' for Active; 'I' for Inactive)
REMARK    1  A    between atoms: N1_1  and  C1_4 
REMARK    2  A    between atoms: N4_14  and  C6_15 
ROOT
HETATM    1  C1  UNL     1      23.062  -2.710   2.694  1.00  0.00     0.145 A 
HETATM    2  N2  UNL     1      23.427  -3.667   3.527  1.00  0.00    -0.323 N 
ATOM      3  H2  UNL     1      22.706  -3.994   4.170  1.00  0.00     0.169 HD
HETATM    4  C2  UNL     1      24.634  -4.275   3.643  1.00  0.00     0.116 A 
HETATM    5  N3  UNL     1      24.708  -5.159   4.523  1.00  0.00    -0.385 N 
ATOM      6  H31 UNL     1      25.616  -5.617   4.610  1.00  0.00     0.157 HD
ATOM      7  H32 UNL     1      23.893  -5.379   5.094  1.00  0.00     0.157 HD
HETATM    8  C3  UNL     1      25.736  -3.978   2.871  1.00  0.00     0.070 A 
HETATM    9  C4  UNL     1      27.047  -4.505   2.860  1.00  0.00     0.074 A 
HETATM   10  C5  UNL     1      27.783  -3.878   1.903  1.00  0.00     0.058 A 
HETATM   11  N4  UNL     1      26.977  -2.958   1.295  1.00  0.00    -0.336 N 
HETATM   12  C11 UNL     1      25.768  -3.028   1.878  1.00  0.00     0.096 A 
HETATM   13  S1  UNL     1      24.307  -2.193   1.636  1.00  0.00    -0.035 SA
HETATM   14  C12 UNL     1      29.189  -4.203   1.644  1.00  0.00     0.179 A 
HETATM   15  N5  UNL     1      29.719  -5.237   2.483  1.00  0.00    -0.380 N 
ATOM     16  H5  UNL     1      30.694  -5.504   2.348  1.00  0.00     0.160 HD
HETATM   17  C13 UNL     1      29.060  -5.842   3.386  1.00  0.00     0.176 A 
HETATM   18  N6  UNL     1      27.676  -5.517   3.636  1.00  0.00    -0.350 N 
ATOM     19  H6  UNL     1      27.154  -6.008   4.362  1.00  0.00     0.166 HD
ENDROOT
BRANCH  11  20
HETATM   20  C6  UNL     1      27.357  -2.099   0.249  1.00  0.00     0.091 C 
HETATM   21  C7  UNL     1      26.445  -2.124  -0.956  1.00  0.00     0.026 C 
HETATM   22  C8  UNL     1      26.625  -0.769  -1.616  1.00  0.00     0.002 C 
HETATM   23  C9  UNL     1      27.697  -0.053  -0.805  1.00  0.00     0.002 C 
HETATM   24  C10 UNL     1      27.388  -0.633   0.587  1.00  0.00     0.026 C 
ENDBRANCH  11  20
BRANCH   1  25
HETATM   25  N1  UNL     1      21.873  -2.210   2.683  1.00  0.00    -0.380 N 
ATOM     26  H12 UNL     1      21.466  -1.722   3.480  1.00  0.00     0.158 HD
ATOM     27  H11 UNL     1      21.256  -2.271   1.874  1.00  0.00     0.158 HD
ENDBRANCH   1  25
TORSDOF 2
ENDMDL
MODEL 4
REMARK VINA RESULT: -5.602908630      0.645      1.079
REMARK  2 active torsions:
REMARK  status: ('A' for Active; 'I' for Inactive)
REMARK    1  A    between atoms: N1_1  and  C1_4 
REMARK    2  A    between atoms: N4_14  and  C6_15 
ROOT
HETATM    1  C1  UNL     1      17.550   1.686  -1.206  1.00  0.00     0.145 A 
HETATM    2  N2  UNL     1      16.775   0.629  -1.367  1.00  0.00    -0.323 N 
ATOM      3  H2  UNL     1      17.012   0.023  -2.153  1.00  0.00     0.169 HD
HETATM    4  C2  UNL     1      15.706   0.242  -0.629  1.00  0.00     0.116 A 
HETATM    5  N3  UNL     1      15.146  -0.810  -1.004  1.00  0.00    -0.385 N 
ATOM      6  H31 UNL     1      14.342  -1.102  -0.449  1.00  0.00     0.157 HD
ATOM      7  H32 UNL     1      15.501  -1.314  -1.816  1.00  0.00     0.157 HD
HETATM    8  C3  UNL     1      15.226   0.923   0.468  1.00  0.00     0.070 A 
HETATM    9  C4  UNL     1      14.141   0.664   1.336  1.00  0.00     0.074 A 
HETATM   10  C5  UNL     1      14.071   1.640   2.282  1.00  0.00     0.058 A 
HETATM   11  N4  UNL     1      15.085   2.523   2.045  1.00  0.00    -0.336 N 
HETATM   12  C11 UNL     1      15.761   2.086   0.968  1.00  0.00     0.096 A 
HETATM   13  S1  UNL     1      17.113   2.676   0.123  1.00  0.00    -0.035 SA
HETATM   14  C12 UNL     1      13.048   1.653   3.332  1.00  0.00     0.179 A 
HETATM   15  N5  UNL     1      12.131   0.553   3.277  1.00  0.00    -0.380 N 
ATOM     16  H5  UNL     1      11.397   0.511   3.984  1.00  0.00     0.160 HD
HETATM   17  C13 UNL     1      12.169  -0.374   2.408  1.00  0.00     0.176 A 
HETATM   18  N6  UNL     1      13.179  -0.382   1.377  1.00  0.00    -0.350 N 
ATOM     19  H6  UNL     1      13.202  -1.130   0.684  1.00  0.00     0.166 HD
ENDROOT
BRANCH  11  20
HETATM   20  C6  UNL     1      15.360   3.677   2.799  1.00  0.00     0.091 C 
HETATM   21  C7  UNL     1      16.828   3.929   3.060  1.00  0.00     0.026 C 
HETATM   22  C8  UNL     1      16.939   5.427   3.276  1.00  0.00     0.002 C 
HETATM   23  C9  UNL     1      15.514   5.961   3.211  1.00  0.00     0.002 C 
HETATM   24  C10 UNL     1      14.924   4.979   2.183  1.00  0.00     0.026 C 
ENDBRANCH  11  20
BRANCH   1  25
HETATM   25  N1  UNL     1      18.545   1.947  -1.983  1.00  0.00    -0.380 N 
ATOM     26  H12 UNL     1      18.542   2.714  -2.655  1.00  0.00     0.158 HD
ATOM     27  H11 UNL     1      19.407   1.401  -1.980  1.00  0.00     0.158 HD
ENDBRANCH   1  25
TORSDOF 2
ENDMDL
MODEL 5
REMARK VINA RESULT: -5.569567722      2.177      5.055
REMARK  2 active torsions:
REMARK  status: ('A' for Active; 'I' for Inactive)
REMARK    1  A    between atoms: N1_1  and  C1_4 
REMARK    2  A    between atoms: N4_14  and  C6_15 
ROOT
HETATM    1  C1  UNL     1      14.584   5.979   3.638  1.00  0.00     0.145 A 
HETATM    2  N2  UNL     1      13.520   5.256   3.937  1.00  0.00    -0.323 N 
ATOM      3  H2  UNL     1      12.835   5.708   4.544  1.00  0.00     0.169 HD
HETATM    4  C2  UNL     1      13.214   3.995   3.545  1.00  0.00     0.116 A 
HETATM    5  N3  UNL     1      12.132   3.545   3.977  1.00  0.00    -0.385 N 
ATOM      6  H31 UNL     1      11.902   2.595   3.682  1.00  0.00     0.157 HD
ATOM      7  H32 UNL     1      11.546   4.121   4.581  1.00  0.00     0.157 HD
HETATM    8  C3  UNL     1      14.007   3.217   2.729  1.00  0.00     0.070 A 
HETATM    9  C4  UNL     1      13.842   1.904   2.232  1.00  0.00     0.074 A 
HETATM   10  C5  UNL     1      14.910   1.573   1.457  1.00  0.00     0.058 A 
HETATM   11  N4  UNL     1      15.760   2.642   1.440  1.00  0.00    -0.336 N 
HETATM   12  C11 UNL     1      15.212   3.608   2.198  1.00  0.00     0.096 A 
HETATM   13  S1  UNL     1      15.706   5.180   2.619  1.00  0.00    -0.035 SA
HETATM   14  C12 UNL     1      15.035   0.271   0.794  1.00  0.00     0.179 A 
HETATM   15  N5  UNL     1      13.939  -0.620   1.034  1.00  0.00    -0.380 N 
ATOM     16  H5  UNL     1      13.973  -1.542   0.598  1.00  0.00     0.160 HD
HETATM   17  C13 UNL     1      12.928  -0.343   1.752  1.00  0.00     0.176 A 
HETATM   18  N6  UNL     1      12.810   0.941   2.401  1.00  0.00    -0.350 N 
ATOM     19  H6  UNL     1      11.995   1.156   2.976  1.00  0.00     0.166 HD
ENDROOT
BRANCH  11  20
HETATM   20  C6  UNL     1      16.983   2.706   0.752  1.00  0.00     0.091 C 
HETATM   21  C7  UNL     1      18.066   1.801   1.296  1.00  0.00     0.026 C 
HETATM   22  C8  UNL     1      18.988   1.537   0.120  1.00  0.00     0.002 C 
HETATM   23  C9  UNL     1      18.440   2.369  -1.031  1.00  0.00     0.002 C 
HETATM   24  C10 UNL     1      16.939   2.303  -0.698  1.00  0.00     0.026 C 
ENDBRANCH  11  20
BRANCH   1  25
HETATM   25  N1  UNL     1      14.760   7.178   4.078  1.00  0.00    -0.380 N 
ATOM     26  H12 UNL     1      15.400   7.405   4.839  1.00  0.00     0.158 HD
ATOM     27  H11 UNL     1      14.267   7.985   3.695  1.00  0.00     0.158 HD
ENDBRANCH   1  25
TORSDOF 2
ENDMDL
