MODEL 1
REMARK VINA RESULT: -6.783683777      0.000      0.000
REMARK  4 active torsions:
REMARK  status: ('A' for Active; 'I' for Inactive)
REMARK    1  A    between atoms: C4_4  and  N1_5 
REMARK       I    between atoms: N1_5  and  C5_7 
REMARK       I    between atoms: C5_7  and  N3_12 
REMARK    2  A    between atoms: N2_8  and  O1_10 
REMARK       I    between atoms: N3_12  and  C6_14 
REMARK    3  A    between atoms: C6_14  and  O3_16 
REMARK    4  A    between atoms: O3_16  and  C7_17 
ROOT
HETATM    1  N1  UNL     1      21.695  43.117  45.071  1.00  0.00    -0.190 N 
ATOM      2  H1  UNL     1      21.551  44.103  44.852  1.00  0.00     0.184 HD
HETATM    3  C5  UNL     1      21.603  42.681  46.420  1.00  0.00     0.706 C 
HETATM    4  N2  UNL     1      20.594  41.992  46.822  1.00  0.00    -0.098 N 
ATOM      5  H2  UNL     1      19.864  41.767  46.147  1.00  0.00     0.213 HD
HETATM    6  N3  UNL     1      22.626  43.004  47.333  1.00  0.00    -0.133 N 
ATOM      7  H3  UNL     1      22.566  42.695  48.303  1.00  0.00     0.189 HD
HETATM    8  C6  UNL     1      23.756  43.772  46.888  1.00  0.00     0.379 C 
HETATM    9  O2  UNL     1      23.853  44.166  45.701  1.00  0.00    -0.238 OA
ENDROOT
BRANCH   1  10
HETATM   10  C4  UNL     1      21.986  42.204  44.021  1.00  0.00     0.052 A 
HETATM   11  C3  UNL     1      22.666  42.618  42.905  1.00  0.00     0.054 A 
HETATM   12  C2  UNL     1      22.938  41.729  41.904  1.00  0.00     0.007 A 
HETATM   13  C1  UNL     1      23.674  42.208  40.712  1.00  0.00     0.068 C 
HETATM   14  N4  UNL     1      22.542  40.428  41.995  1.00  0.00    -0.369 N 
HETATM   15  C12 UNL     1      21.873  40.017  43.092  1.00  0.00     0.090 A 
ATOM     16  H4  UNL     1      22.750  39.772  41.243  1.00  0.00     0.165 HD
HETATM   17  C11 UNL     1      21.584  40.879  44.112  1.00  0.00     0.047 A 
ENDBRANCH   1  10
BRANCH   4  18
HETATM   18  O1  UNL     1      20.448  41.543  48.106  1.00  0.00    -0.276 OA
ATOM     19  H1  UNL     1      20.027  40.722  48.331  1.00  0.00     0.245 HD
ENDBRANCH   4  18
BRANCH   8  20
HETATM   20  O3  UNL     1      24.794  44.126  47.729  1.00  0.00    -0.293 OA
BRANCH  20  21
HETATM   21  C7  UNL     1      25.309  43.241  48.658  1.00  0.00     0.061 C 
HETATM   22  C8  UNL     1      26.426  43.985  49.409  1.00  0.00     0.046 C 
HETATM   23  C9  UNL     1      26.010  42.040  48.014  1.00  0.00     0.046 C 
HETATM   24  C10 UNL     1      24.352  42.723  49.670  1.00  0.00     0.046 C 
ENDBRANCH  20  21
ENDBRANCH   8  20
TORSDOF 4
ENDMDL
MODEL 2
REMARK VINA RESULT: -6.780835689      2.722      4.775
REMARK  4 active torsions:
REMARK  status: ('A' for Active; 'I' for Inactive)
REMARK    1  A    between atoms: C4_4  and  N1_5 
REMARK       I    between atoms: N1_5  and  C5_7 
REMARK       I    between atoms: C5_7  and  N3_12 
REMARK    2  A    between atoms: N2_8  and  O1_10 
REMARK       I    between atoms: N3_12  and  C6_14 
REMARK    3  A    between atoms: C6_14  and  O3_16 
REMARK    4  A    between atoms: O3_16  and  C7_17 
ROOT
HETATM    1  N1  UNL     1      22.073  42.082  45.050  1.00  0.00    -0.190 N 
ATOM      2  H1  UNL     1      22.225  41.098  44.824  1.00  0.00     0.184 HD
HETATM    3  C5  UNL     1      22.154  42.507  46.402  1.00  0.00     0.706 C 
HETATM    4  N2  UNL     1      23.155  43.200  46.817  1.00  0.00    -0.098 N 
ATOM      5  H2  UNL     1      23.889  43.434  46.148  1.00  0.00     0.213 HD
HETATM    6  N3  UNL     1      21.127  42.171  47.306  1.00  0.00    -0.133 N 
ATOM      7  H3  UNL     1      21.179  42.473  48.279  1.00  0.00     0.189 HD
HETATM    8  C6  UNL     1      20.005  41.399  46.848  1.00  0.00     0.379 C 
HETATM    9  O2  UNL     1      19.917  41.015  45.657  1.00  0.00    -0.238 OA
ENDROOT
BRANCH   1  10
HETATM   10  C4  UNL     1      21.784  43.001  44.005  1.00  0.00     0.052 A 
HETATM   11  C3  UNL     1      21.066  42.605  42.906  1.00  0.00     0.054 A 
HETATM   12  C2  UNL     1      20.796  43.500  41.910  1.00  0.00     0.007 A 
HETATM   13  C1  UNL     1      20.019  43.040  40.736  1.00  0.00     0.068 C 
HETATM   14  N4  UNL     1      21.230  44.789  41.990  1.00  0.00    -0.369 N 
HETATM   15  C12 UNL     1      21.936  45.183  43.070  1.00  0.00     0.090 A 
ATOM     16  H4  UNL     1      21.023  45.451  41.241  1.00  0.00     0.165 HD
HETATM   17  C11 UNL     1      22.224  44.314  44.084  1.00  0.00     0.047 A 
ENDBRANCH   1  10
BRANCH   4  18
HETATM   18  O1  UNL     1      23.291  43.639  48.105  1.00  0.00    -0.276 OA
ATOM     19  H1  UNL     1      24.086  44.032  48.446  1.00  0.00     0.245 HD
ENDBRANCH   4  18
BRANCH   8  20
HETATM   20  O3  UNL     1      18.964  41.033  47.679  1.00  0.00    -0.293 OA
BRANCH  20  21
HETATM   21  C7  UNL     1      18.430  41.910  48.605  1.00  0.00     0.061 C 
HETATM   22  C8  UNL     1      17.305  41.158  49.335  1.00  0.00     0.046 C 
HETATM   23  C9  UNL     1      17.733  43.111  47.956  1.00  0.00     0.046 C 
HETATM   24  C10 UNL     1      19.368  42.427  49.634  1.00  0.00     0.046 C 
ENDBRANCH  20  21
ENDBRANCH   8  20
TORSDOF 4
ENDMDL
MODEL 3
REMARK VINA RESULT: -6.715576723      3.143      5.256
REMARK  4 active torsions:
REMARK  status: ('A' for Active; 'I' for Inactive)
REMARK    1  A    between atoms: C4_4  and  N1_5 
REMARK       I    between atoms: N1_5  and  C5_7 
REMARK       I    between atoms: C5_7  and  N3_12 
REMARK    2  A    between atoms: N2_8  and  O1_10 
REMARK       I    between atoms: N3_12  and  C6_14 
REMARK    3  A    between atoms: C6_14  and  O3_16 
REMARK    4  A    between atoms: O3_16  and  C7_17 
ROOT
HETATM    1  N1  UNL     1      20.304  41.362  47.938  1.00  0.00    -0.190 N 
ATOM      2  H1  UNL     1      20.689  40.482  48.281  1.00  0.00     0.184 HD
HETATM    3  C5  UNL     1      21.066  42.155  47.039  1.00  0.00     0.706 C 
HETATM    4  N2  UNL     1      20.746  42.235  45.796  1.00  0.00    -0.098 N 
ATOM      5  H2  UNL     1      19.931  41.715  45.474  1.00  0.00     0.213 HD
HETATM    6  N3  UNL     1      22.189  42.864  47.510  1.00  0.00    -0.133 N 
ATOM      7  H3  UNL     1      22.742  43.435  46.870  1.00  0.00     0.189 HD
HETATM    8  C6  UNL     1      22.551  42.779  48.898  1.00  0.00     0.379 C 
HETATM    9  O2  UNL     1      21.888  42.083  49.705  1.00  0.00    -0.238 OA
ENDROOT
BRANCH   1  10
HETATM   10  C4  UNL     1      19.012  41.772  48.366  1.00  0.00     0.052 A 
HETATM   11  C3  UNL     1      18.573  43.050  48.133  1.00  0.00     0.054 A 
HETATM   12  C2  UNL     1      17.329  43.430  48.551  1.00  0.00     0.007 A 
HETATM   13  C1  UNL     1      16.885  44.817  48.283  1.00  0.00     0.068 C 
HETATM   14  N4  UNL     1      16.510  42.555  49.200  1.00  0.00    -0.369 N 
HETATM   15  C12 UNL     1      16.939  41.297  49.432  1.00  0.00     0.090 A 
ATOM     16  H4  UNL     1      15.583  42.848  49.509  1.00  0.00     0.165 HD
HETATM   17  C11 UNL     1      18.177  40.884  49.028  1.00  0.00     0.047 A 
ENDBRANCH   1  10
BRANCH   4  18
HETATM   18  O1  UNL     1      21.439  42.981  44.882  1.00  0.00    -0.276 OA
ATOM     19  H1  UNL     1      22.017  42.607  44.228  1.00  0.00     0.245 HD
ENDBRANCH   4  18
BRANCH   8  20
HETATM   20  O3  UNL     1      23.638  43.446  49.427  1.00  0.00    -0.293 OA
BRANCH  20  21
HETATM   21  C7  UNL     1      24.935  43.059  49.144  1.00  0.00     0.061 C 
HETATM   22  C8  UNL     1      25.862  44.089  49.810  1.00  0.00     0.046 C 
HETATM   23  C9  UNL     1      25.272  43.145  47.651  1.00  0.00     0.046 C 
HETATM   24  C10 UNL     1      25.337  41.712  49.626  1.00  0.00     0.046 C 
ENDBRANCH  20  21
ENDBRANCH   8  20
TORSDOF 4
ENDMDL
MODEL 4
REMARK VINA RESULT: -6.705174485      3.232      6.187
REMARK  4 active torsions:
REMARK  status: ('A' for Active; 'I' for Inactive)
REMARK    1  A    between atoms: C4_4  and  N1_5 
REMARK       I    between atoms: N1_5  and  C5_7 
REMARK       I    between atoms: C5_7  and  N3_12 
REMARK    2  A    between atoms: N2_8  and  O1_10 
REMARK       I    between atoms: N3_12  and  C6_14 
REMARK    3  A    between atoms: C6_14  and  O3_16 
REMARK    4  A    between atoms: O3_16  and  C7_17 
ROOT
HETATM    1  N1  UNL     1      23.452  43.793  48.040  1.00  0.00    -0.190 N 
ATOM      2  H1  UNL     1      23.077  44.676  48.387  1.00  0.00     0.184 HD
HETATM    3  C5  UNL     1      22.687  43.019  47.128  1.00  0.00     0.706 C 
HETATM    4  N2  UNL     1      23.019  42.942  45.888  1.00  0.00    -0.098 N 
ATOM      5  H2  UNL     1      23.846  43.452  45.578  1.00  0.00     0.213 HD
HETATM    6  N3  UNL     1      21.548  42.323  47.581  1.00  0.00    -0.133 N 
ATOM      7  H3  UNL     1      20.994  41.766  46.931  1.00  0.00     0.189 HD
HETATM    8  C6  UNL     1      21.174  42.404  48.966  1.00  0.00     0.379 C 
HETATM    9  O2  UNL     1      21.838  43.083  49.785  1.00  0.00    -0.238 OA
ENDROOT
BRANCH   1  10
HETATM   10  C4  UNL     1      24.733  43.359  48.480  1.00  0.00     0.052 A 
HETATM   11  C3  UNL     1      25.185  42.101  48.178  1.00  0.00     0.054 A 
HETATM   12  C2  UNL     1      26.418  41.698  48.606  1.00  0.00     0.007 A 
HETATM   13  C1  UNL     1      26.876  40.333  48.263  1.00  0.00     0.068 C 
HETATM   14  N4  UNL     1      27.213  42.531  49.335  1.00  0.00    -0.369 N 
HETATM   15  C12 UNL     1      26.771  43.771  49.634  1.00  0.00     0.090 A 
ATOM     16  H4  UNL     1      28.132  42.222  49.651  1.00  0.00     0.165 HD
HETATM   17  C11 UNL     1      25.544  44.206  49.221  1.00  0.00     0.047 A 
ENDBRANCH   1  10
BRANCH   4  18
HETATM   18  O1  UNL     1      22.324  42.214  44.961  1.00  0.00    -0.276 OA
ATOM     19  H1  UNL     1      22.721  41.834  44.186  1.00  0.00     0.245 HD
ENDBRANCH   4  18
BRANCH   8  20
HETATM   20  O3  UNL     1      20.070  41.750  49.479  1.00  0.00    -0.293 OA
BRANCH  20  21
HETATM   21  C7  UNL     1      18.783  42.130  49.150  1.00  0.00     0.061 C 
HETATM   22  C8  UNL     1      17.835  41.113  49.807  1.00  0.00     0.046 C 
HETATM   23  C9  UNL     1      18.491  42.016  47.649  1.00  0.00     0.046 C 
HETATM   24  C10 UNL     1      18.367  43.486  49.593  1.00  0.00     0.046 C 
ENDBRANCH  20  21
ENDBRANCH   8  20
TORSDOF 4
ENDMDL
MODEL 5
REMARK VINA RESULT: -6.420927741      2.710      4.714
REMARK  4 active torsions:
REMARK  status: ('A' for Active; 'I' for Inactive)
REMARK    1  A    between atoms: C4_4  and  N1_5 
REMARK       I    between atoms: N1_5  and  C5_7 
REMARK       I    between atoms: C5_7  and  N3_12 
REMARK    2  A    between atoms: N2_8  and  O1_10 
REMARK       I    between atoms: N3_12  and  C6_14 
REMARK    3  A    between atoms: C6_14  and  O3_16 
REMARK    4  A    between atoms: O3_16  and  C7_17 
ROOT
HETATM    1  N1  UNL     1      21.912  41.637  45.367  1.00  0.00    -0.190 N 
ATOM      2  H1  UNL     1      22.033  40.624  45.333  1.00  0.00     0.184 HD
HETATM    3  C5  UNL     1      22.025  42.313  46.611  1.00  0.00     0.706 C 
HETATM    4  N2  UNL     1      23.052  43.041  46.875  1.00  0.00    -0.098 N 
ATOM      5  H2  UNL     1      23.781  43.120  46.167  1.00  0.00     0.213 HD
HETATM    6  N3  UNL     1      21.002  42.188  47.573  1.00  0.00    -0.133 N 
ATOM      7  H3  UNL     1      21.078  42.670  48.468  1.00  0.00     0.189 HD
HETATM    8  C6  UNL     1      19.853  41.377  47.283  1.00  0.00     0.379 C 
HETATM    9  O2  UNL     1      19.736  40.773  46.189  1.00  0.00    -0.238 OA
ENDROOT
BRANCH   1  10
HETATM   10  C4  UNL     1      21.633  42.346  44.167  1.00  0.00     0.052 A 
HETATM   11  C3  UNL     1      21.958  43.673  44.049  1.00  0.00     0.054 A 
HETATM   12  C2  UNL     1      21.684  44.342  42.890  1.00  0.00     0.007 A 
HETATM   13  C1  UNL     1      22.047  45.773  42.795  1.00  0.00     0.068 C 
HETATM   14  N4  UNL     1      21.089  43.708  41.840  1.00  0.00    -0.369 N 
HETATM   15  C12 UNL     1      20.768  42.402  41.952  1.00  0.00     0.090 A 
ATOM     16  H4  UNL     1      20.888  44.216  40.978  1.00  0.00     0.165 HD
HETATM   17  C11 UNL     1      21.027  41.704  43.097  1.00  0.00     0.047 A 
ENDBRANCH   1  10
BRANCH   4  18
HETATM   18  O1  UNL     1      23.219  43.717  48.053  1.00  0.00    -0.276 OA
ATOM     19  H1  UNL     1      23.992  44.227  48.261  1.00  0.00     0.245 HD
ENDBRANCH   4  18
BRANCH   8  20
HETATM   20  O3  UNL     1      18.814  41.209  48.178  1.00  0.00    -0.293 OA
BRANCH  20  21
HETATM   21  C7  UNL     1      18.191  42.288  48.778  1.00  0.00     0.061 C 
HETATM   22  C8  UNL     1      16.961  41.737  49.517  1.00  0.00     0.046 C 
HETATM   23  C9  UNL     1      17.619  43.286  47.765  1.00  0.00     0.046 C 
HETATM   24  C10 UNL     1      19.004  43.051  49.761  1.00  0.00     0.046 C 
ENDBRANCH  20  21
ENDBRANCH   8  20
TORSDOF 4
ENDMDL
