MODEL 1
REMARK VINA RESULT: -6.815546731      0.000      0.000
REMARK  3 active torsions:
REMARK  status: ('A' for Active; 'I' for Inactive)
REMARK    1  A    between atoms: C4_6  and  C5_7 
REMARK    2  A    between atoms: C8_10  and  O2_11 
REMARK    3  A    between atoms: C15_21  and  O3_22 
ROOT
HETATM    1  N1  UNL     1      24.661  42.883  33.783  1.00  0.00    -0.191 NA
HETATM    2  C1  UNL     1      24.239  43.123  34.811  1.00  0.00     0.104 C 
HETATM    3  C2  UNL     1      23.715  43.387  36.113  1.00  0.00     0.102 A 
HETATM    4  C3  UNL     1      24.247  44.230  37.105  1.00  0.00     0.167 A 
HETATM    5  O1  UNL     1      23.445  44.185  38.125  1.00  0.00    -0.320 OA
HETATM    6  C4  UNL     1      22.426  43.416  37.946  1.00  0.00     0.109 A 
HETATM    7  C15 UNL     1      22.548  42.877  36.678  1.00  0.00     0.120 A 
ENDROOT
BRANCH   7   8
HETATM    8  O3  UNL     1      21.696  41.990  36.029  1.00  0.00    -0.357 OA
ATOM      9  H3  UNL     1      20.750  42.076  36.018  1.00  0.00     0.218 HD
ENDBRANCH   7   8
BRANCH   6  10
HETATM   10  C5  UNL     1      21.364  43.159  38.929  1.00  0.00     0.138 C 
HETATM   11  C6  UNL     1      20.843  44.433  39.554  1.00  0.00     0.034 C 
HETATM   12  C7  UNL     1      19.779  44.174  40.563  1.00  0.00     0.036 C 
HETATM   13  C8  UNL     1      20.006  42.965  41.408  1.00  0.00     0.146 C 
HETATM   14  C9  UNL     1      21.247  42.210  41.171  1.00  0.00     0.052 C 
HETATM   15  C10 UNL     1      21.040  40.686  41.162  1.00  0.00     0.033 C 
HETATM   16  C14 UNL     1      22.141  42.408  42.417  1.00  0.00     0.033 C 
HETATM   17  N2  UNL     1      22.066  42.516  40.073  1.00  0.00    -0.400 N 
HETATM   18  C11 UNL     1      22.349  40.019  41.618  1.00  0.00     0.002 C 
HETATM   19  C12 UNL     1      22.277  40.004  43.152  1.00  0.00     0.000 C 
HETATM   20  C13 UNL     1      21.755  41.407  43.498  1.00  0.00     0.002 C 
ATOM     21  H2  UNL     1      23.066  42.313  40.060  1.00  0.00     0.154 HD
BRANCH  13  22
HETATM   22  O2  UNL     1      18.926  42.076  41.381  1.00  0.00    -0.393 OA
ATOM     23  H2  UNL     1      19.183  41.182  41.576  1.00  0.00     0.210 HD
ENDBRANCH  13  22
ENDBRANCH   6  10
TORSDOF 3
ENDMDL
MODEL 2
REMARK VINA RESULT: -6.787012820      2.544      3.899
REMARK  3 active torsions:
REMARK  status: ('A' for Active; 'I' for Inactive)
REMARK    1  A    between atoms: C4_6  and  C5_7 
REMARK    2  A    between atoms: C8_10  and  O2_11 
REMARK    3  A    between atoms: C15_21  and  O3_22 
ROOT
HETATM    1  N1  UNL     1      19.243  42.290  33.694  1.00  0.00    -0.191 NA
HETATM    2  C1  UNL     1      19.629  42.074  34.741  1.00  0.00     0.104 C 
HETATM    3  C2  UNL     1      20.111  41.839  36.064  1.00  0.00     0.102 A 
HETATM    4  C3  UNL     1      19.516  41.067  37.078  1.00  0.00     0.167 A 
HETATM    5  O1  UNL     1      20.296  41.115  38.114  1.00  0.00    -0.320 OA
HETATM    6  C4  UNL     1      21.357  41.824  37.928  1.00  0.00     0.109 A 
HETATM    7  C15 UNL     1      21.289  42.314  36.636  1.00  0.00     0.120 A 
ENDROOT
BRANCH   7   8
HETATM    8  O3  UNL     1      22.200  43.130  35.971  1.00  0.00    -0.357 OA
ATOM      9  H3  UNL     1      23.112  43.217  36.220  1.00  0.00     0.218 HD
ENDBRANCH   7   8
BRANCH   6  10
HETATM   10  C5  UNL     1      22.408  42.070  38.923  1.00  0.00     0.138 C 
HETATM   11  C6  UNL     1      22.933  40.787  39.529  1.00  0.00     0.034 C 
HETATM   12  C7  UNL     1      23.986  41.034  40.552  1.00  0.00     0.036 C 
HETATM   13  C8  UNL     1      23.745  42.226  41.418  1.00  0.00     0.146 C 
HETATM   14  C9  UNL     1      22.501  42.978  41.184  1.00  0.00     0.052 C 
HETATM   15  C10 UNL     1      22.698  44.502  41.205  1.00  0.00     0.033 C 
HETATM   16  C14 UNL     1      21.598  42.752  42.418  1.00  0.00     0.033 C 
HETATM   17  N2  UNL     1      21.693  42.687  40.074  1.00  0.00    -0.400 N 
HETATM   18  C11 UNL     1      21.381  45.153  41.662  1.00  0.00     0.002 C 
HETATM   19  C12 UNL     1      21.441  45.141  43.196  1.00  0.00     0.000 C 
HETATM   20  C13 UNL     1      21.969  43.735  43.521  1.00  0.00     0.002 C 
ATOM     21  H2  UNL     1      20.692  42.884  40.056  1.00  0.00     0.154 HD
BRANCH  13  22
HETATM   22  O2  UNL     1      24.819  43.122  41.416  1.00  0.00    -0.393 OA
ATOM     23  H2  UNL     1      24.550  44.017  41.588  1.00  0.00     0.210 HD
ENDBRANCH  13  22
ENDBRANCH   6  10
TORSDOF 3
ENDMDL
MODEL 3
REMARK VINA RESULT: -6.283611978      2.677      3.893
REMARK  3 active torsions:
REMARK  status: ('A' for Active; 'I' for Inactive)
REMARK    1  A    between atoms: C4_6  and  C5_7 
REMARK    2  A    between atoms: C8_10  and  O2_11 
REMARK    3  A    between atoms: C15_21  and  O3_22 
ROOT
HETATM    1  N1  UNL     1      18.105  40.978  35.051  1.00  0.00    -0.191 NA
HETATM    2  C1  UNL     1      19.057  41.385  35.519  1.00  0.00     0.104 C 
HETATM    3  C2  UNL     1      20.265  41.861  36.113  1.00  0.00     0.102 A 
HETATM    4  C3  UNL     1      21.277  42.636  35.516  1.00  0.00     0.167 A 
HETATM    5  O1  UNL     1      22.185  42.852  36.418  1.00  0.00    -0.320 OA
HETATM    6  C4  UNL     1      21.913  42.322  37.561  1.00  0.00     0.109 A 
HETATM    7  C15 UNL     1      20.699  41.673  37.423  1.00  0.00     0.120 A 
ENDROOT
BRANCH   7   8
HETATM    8  O3  UNL     1      19.990  40.953  38.380  1.00  0.00    -0.357 OA
ATOM      9  H3  UNL     1      19.068  41.087  38.568  1.00  0.00     0.218 HD
ENDBRANCH   7   8
BRANCH   6  10
HETATM   10  C5  UNL     1      22.762  42.387  38.759  1.00  0.00     0.138 C 
HETATM   11  C6  UNL     1      23.112  41.014  39.287  1.00  0.00     0.034 C 
HETATM   12  C7  UNL     1      23.957  41.078  40.511  1.00  0.00     0.036 C 
HETATM   13  C8  UNL     1      23.597  42.174  41.458  1.00  0.00     0.146 C 
HETATM   14  C9  UNL     1      22.451  43.021  41.092  1.00  0.00     0.052 C 
HETATM   15  C10 UNL     1      22.695  44.518  41.340  1.00  0.00     0.033 C 
HETATM   16  C14 UNL     1      21.319  42.708  42.098  1.00  0.00     0.033 C 
HETATM   17  N2  UNL     1      21.861  42.909  39.823  1.00  0.00    -0.400 N 
HETATM   18  C11 UNL     1      21.340  45.189  41.621  1.00  0.00     0.002 C 
HETATM   19  C12 UNL     1      21.103  44.996  43.125  1.00  0.00     0.000 C 
HETATM   20  C13 UNL     1      21.506  43.533  43.364  1.00  0.00     0.002 C 
ATOM     21  H2  UNL     1      20.890  43.166  39.644  1.00  0.00     0.154 HD
BRANCH  13  22
HETATM   22  O2  UNL     1      24.684  42.999  41.769  1.00  0.00    -0.393 OA
ATOM     23  H2  UNL     1      24.766  43.162  42.701  1.00  0.00     0.210 HD
ENDBRANCH  13  22
ENDBRANCH   6  10
TORSDOF 3
ENDMDL
MODEL 4
REMARK VINA RESULT: -6.244842057      1.921      2.531
REMARK  3 active torsions:
REMARK  status: ('A' for Active; 'I' for Inactive)
REMARK    1  A    between atoms: C4_6  and  C5_7 
REMARK    2  A    between atoms: C8_10  and  O2_11 
REMARK    3  A    between atoms: C15_21  and  O3_22 
ROOT
HETATM    1  N1  UNL     1      26.586  44.977  32.944  1.00  0.00    -0.191 NA
HETATM    2  C1  UNL     1      25.985  44.854  33.900  1.00  0.00     0.104 C 
HETATM    3  C2  UNL     1      25.247  44.668  35.109  1.00  0.00     0.102 A 
HETATM    4  C3  UNL     1      25.262  45.471  36.265  1.00  0.00     0.167 A 
HETATM    5  O1  UNL     1      24.435  44.944  37.115  1.00  0.00    -0.320 OA
HETATM    6  C4  UNL     1      23.853  43.880  36.677  1.00  0.00     0.109 A 
HETATM    7  C15 UNL     1      24.336  43.656  35.401  1.00  0.00     0.120 A 
ENDROOT
BRANCH   7   8
HETATM    8  O3  UNL     1      24.009  42.629  34.520  1.00  0.00    -0.357 OA
ATOM      9  H3  UNL     1      23.156  42.532  34.114  1.00  0.00     0.218 HD
ENDBRANCH   7   8
BRANCH   6  10
HETATM   10  C5  UNL     1      22.883  43.067  37.422  1.00  0.00     0.138 C 
HETATM   11  C6  UNL     1      21.456  43.367  37.020  1.00  0.00     0.034 C 
HETATM   12  C7  UNL     1      20.470  42.556  37.787  1.00  0.00     0.036 C 
HETATM   13  C8  UNL     1      20.815  42.355  39.225  1.00  0.00     0.146 C 
HETATM   14  C9  UNL     1      22.046  42.999  39.711  1.00  0.00     0.052 C 
HETATM   15  C10 UNL     1      22.887  42.095  40.626  1.00  0.00     0.033 C 
HETATM   16  C14 UNL     1      21.614  44.125  40.679  1.00  0.00     0.033 C 
HETATM   17  N2  UNL     1      22.935  43.605  38.809  1.00  0.00    -0.400 N 
HETATM   18  C11 UNL     1      23.676  42.990  41.597  1.00  0.00     0.002 C 
HETATM   19  C12 UNL     1      22.717  43.252  42.767  1.00  0.00     0.000 C 
HETATM   20  C13 UNL     1      21.381  43.553  42.071  1.00  0.00     0.002 C 
ATOM     21  H2  UNL     1      23.568  44.357  39.083  1.00  0.00     0.154 HD
BRANCH  13  22
HETATM   22  O2  UNL     1      20.840  41.005  39.592  1.00  0.00    -0.393 OA
ATOM     23  H2  UNL     1      20.644  40.871  40.512  1.00  0.00     0.210 HD
ENDBRANCH  13  22
ENDBRANCH   6  10
TORSDOF 3
ENDMDL
MODEL 5
REMARK VINA RESULT: -6.235561726      3.257      4.385
REMARK  3 active torsions:
REMARK  status: ('A' for Active; 'I' for Inactive)
REMARK    1  A    between atoms: C4_6  and  C5_7 
REMARK    2  A    between atoms: C8_10  and  O2_11 
REMARK    3  A    between atoms: C15_21  and  O3_22 
ROOT
HETATM    1  N1  UNL     1      17.196  40.245  32.910  1.00  0.00    -0.191 NA
HETATM    2  C1  UNL     1      17.792  40.360  33.872  1.00  0.00     0.104 C 
HETATM    3  C2  UNL     1      18.523  40.537  35.086  1.00  0.00     0.102 A 
HETATM    4  C3  UNL     1      18.482  39.740  36.245  1.00  0.00     0.167 A 
HETATM    5  O1  UNL     1      19.312  40.255  37.100  1.00  0.00    -0.320 OA
HETATM    6  C4  UNL     1      19.919  41.304  36.662  1.00  0.00     0.109 A 
HETATM    7  C15 UNL     1      19.451  41.532  35.381  1.00  0.00     0.120 A 
ENDROOT
BRANCH   7   8
HETATM    8  O3  UNL     1      19.806  42.548  34.499  1.00  0.00    -0.357 OA
ATOM      9  H3  UNL     1      20.301  43.319  34.750  1.00  0.00     0.218 HD
ENDBRANCH   7   8
BRANCH   6  10
HETATM   10  C5  UNL     1      20.898  42.102  37.412  1.00  0.00     0.138 C 
HETATM   11  C6  UNL     1      22.323  41.747  37.050  1.00  0.00     0.034 C 
HETATM   12  C7  UNL     1      23.318  42.542  37.822  1.00  0.00     0.036 C 
HETATM   13  C8  UNL     1      22.947  42.785  39.247  1.00  0.00     0.146 C 
HETATM   14  C9  UNL     1      21.685  42.192  39.718  1.00  0.00     0.052 C 
HETATM   15  C10 UNL     1      20.854  43.144  40.593  1.00  0.00     0.033 C 
HETATM   16  C14 UNL     1      22.058  41.075  40.719  1.00  0.00     0.033 C 
HETATM   17  N2  UNL     1      20.797  41.596  38.809  1.00  0.00    -0.400 N 
HETATM   18  C11 UNL     1      20.014  42.297  41.565  1.00  0.00     0.002 C 
HETATM   19  C12 UNL     1      20.938  42.029  42.762  1.00  0.00     0.000 C 
HETATM   20  C13 UNL     1      22.278  41.670  42.104  1.00  0.00     0.002 C 
ATOM     21  H2  UNL     1      20.134  40.872  39.084  1.00  0.00     0.154 HD
BRANCH  13  22
HETATM   22  O2  UNL     1      22.959  44.143  39.584  1.00  0.00    -0.393 OA
ATOM     23  H2  UNL     1      23.610  44.636  39.098  1.00  0.00     0.210 HD
ENDBRANCH  13  22
ENDBRANCH   6  10
TORSDOF 3
ENDMDL
