MODEL 1
REMARK VINA RESULT: -6.929821117      0.000      0.000
REMARK  4 active torsions:
REMARK  status: ('A' for Active; 'I' for Inactive)
REMARK    1  A    between atoms: N1_1  and  N2_4 
REMARK    2  A    between atoms: N2_4  and  N3_5 
REMARK    3  A    between atoms: N3_5  and  C1_7 
REMARK    4  A    between atoms: C2_10  and  N5_11 
ROOT
HETATM    1  C1  UNL     1      22.322  43.326  44.286  1.00  0.00     0.162 A 
HETATM    2  N4  UNL     1      21.747  43.157  45.488  1.00  0.00    -0.174 N 
ATOM      3  H4  UNL     1      21.838  43.923  46.154  1.00  0.00     0.186 HD
HETATM    4  C2  UNL     1      21.074  42.091  45.890  1.00  0.00     0.678 A 
HETATM    5  N6  UNL     1      20.967  41.092  44.991  1.00  0.00    -0.185 N 
ATOM      6  H6  UNL     1      20.459  40.243  45.238  1.00  0.00     0.185 HD
HETATM    7  C3  UNL     1      21.530  41.209  43.756  1.00  0.00     0.105 A 
HETATM    8  S1  UNL     1      21.568  40.148  42.431  1.00  0.00    -0.075 SA
HETATM    9  C4  UNL     1      22.476  41.114  41.342  1.00  0.00    -0.008 A 
HETATM   10  C5  UNL     1      22.718  42.249  42.075  1.00  0.00    -0.026 A 
HETATM   11  C6  UNL     1      22.227  42.303  43.330  1.00  0.00     0.052 A 
HETATM   12  C7  UNL     1      23.487  43.472  41.631  1.00  0.00     0.068 C 
HETATM   13  C8  UNL     1      24.043  43.342  40.241  1.00  0.00     0.237 C 
HETATM   14  N7  UNL     1      23.012  43.526  39.258  1.00  0.00    -0.075 N 
ATOM     15  H71 UNL     1      23.106  44.409  38.757  1.00  0.00     0.277 HD
ATOM     16  H72 UNL     1      22.099  43.698  39.679  1.00  0.00     0.277 HD
HETATM   17  C9  UNL     1      23.004  42.369  38.356  1.00  0.00     0.232 C 
HETATM   18  C10 UNL     1      22.048  41.381  38.967  1.00  0.00     0.032 C 
HETATM   19  C11 UNL     1      22.773  40.565  39.976  1.00  0.00     0.048 C 
ENDROOT
BRANCH   1  20
HETATM   20  N3  UNL     1      22.985  44.558  44.099  1.00  0.00    -0.198 N 
ATOM     21  H3  UNL     1      23.945  44.638  44.436  1.00  0.00     0.205 HD
BRANCH  20  22
HETATM   22  N2  UNL     1      22.484  45.541  43.556  1.00  0.00    -0.242 NA
BRANCH  22  23
HETATM   23  N1  UNL     1      21.821  46.249  42.793  1.00  0.00    -0.260 N 
ATOM     24  H12 UNL     1      21.731  45.545  42.060  1.00  0.00     0.193 HD
ATOM     25  H11 UNL     1      21.313  47.042  42.404  1.00  0.00     0.193 HD
ENDBRANCH  22  23
ENDBRANCH  20  22
ENDBRANCH   1  20
BRANCH   4  26
HETATM   26  N5  UNL     1      20.572  42.057  47.070  1.00  0.00    -0.234 N 
ATOM     27  H52 UNL     1      19.779  42.624  47.372  1.00  0.00     0.174 HD
ATOM     28  H51 UNL     1      20.968  41.436  47.775  1.00  0.00     0.174 HD
ENDBRANCH   4  26
TORSDOF 4
ENDMDL
MODEL 2
REMARK VINA RESULT: -6.927276901      2.311      3.697
REMARK  4 active torsions:
REMARK  status: ('A' for Active; 'I' for Inactive)
REMARK    1  A    between atoms: N1_1  and  N2_4 
REMARK    2  A    between atoms: N2_4  and  N3_5 
REMARK    3  A    between atoms: N3_5  and  C1_7 
REMARK    4  A    between atoms: C2_10  and  N5_11 
ROOT
HETATM    1  C1  UNL     1      21.414  41.862  44.267  1.00  0.00     0.162 A 
HETATM    2  N4  UNL     1      21.988  42.024  45.470  1.00  0.00    -0.174 N 
ATOM      3  H4  UNL     1      21.898  41.253  46.131  1.00  0.00     0.186 HD
HETATM    4  C2  UNL     1      22.660  43.087  45.879  1.00  0.00     0.678 A 
HETATM    5  N6  UNL     1      22.767  44.092  44.986  1.00  0.00    -0.185 N 
ATOM      6  H6  UNL     1      23.274  44.940  45.238  1.00  0.00     0.185 HD
HETATM    7  C3  UNL     1      22.204  43.982  43.750  1.00  0.00     0.105 A 
HETATM    8  S1  UNL     1      22.166  45.051  42.432  1.00  0.00    -0.075 SA
HETATM    9  C4  UNL     1      21.259  44.091  41.337  1.00  0.00    -0.008 A 
HETATM   10  C5  UNL     1      21.018  42.952  42.062  1.00  0.00    -0.026 A 
HETATM   11  C6  UNL     1      21.508  42.891  43.317  1.00  0.00     0.052 A 
HETATM   12  C7  UNL     1      20.249  41.731  41.611  1.00  0.00     0.068 C 
HETATM   13  C8  UNL     1      19.694  41.869  40.221  1.00  0.00     0.237 C 
HETATM   14  N7  UNL     1      20.725  41.692  39.237  1.00  0.00    -0.075 N 
ATOM     15  H71 UNL     1      20.632  40.811  38.731  1.00  0.00     0.277 HD
ATOM     16  H72 UNL     1      21.638  41.518  39.658  1.00  0.00     0.277 HD
HETATM   17  C9  UNL     1      20.733  42.855  38.343  1.00  0.00     0.232 C 
HETATM   18  C10 UNL     1      21.687  43.839  38.960  1.00  0.00     0.032 C 
HETATM   19  C11 UNL     1      20.962  44.648  39.974  1.00  0.00     0.048 C 
ENDROOT
BRANCH   1  20
HETATM   20  N3  UNL     1      20.752  40.630  44.072  1.00  0.00    -0.198 N 
ATOM     21  H3  UNL     1      19.793  40.547  44.409  1.00  0.00     0.205 HD
BRANCH  20  22
HETATM   22  N2  UNL     1      21.254  39.651  43.522  1.00  0.00    -0.242 NA
BRANCH  22  23
HETATM   23  N1  UNL     1      21.916  38.949  42.753  1.00  0.00    -0.260 N 
ATOM     24  H12 UNL     1      22.781  39.002  43.292  1.00  0.00     0.193 HD
ATOM     25  H11 UNL     1      22.182  38.364  41.962  1.00  0.00     0.193 HD
ENDBRANCH  22  23
ENDBRANCH  20  22
ENDBRANCH   1  20
BRANCH   4  26
HETATM   26  N5  UNL     1      23.162  43.114  47.059  1.00  0.00    -0.234 N 
ATOM     27  H52 UNL     1      23.588  42.310  47.520  1.00  0.00     0.174 HD
ATOM     28  H51 UNL     1      23.149  43.979  47.599  1.00  0.00     0.174 HD
ENDBRANCH   4  26
TORSDOF 4
ENDMDL
MODEL 3
REMARK VINA RESULT: -6.483863102      2.252      3.703
REMARK  4 active torsions:
REMARK  status: ('A' for Active; 'I' for Inactive)
REMARK    1  A    between atoms: N1_1  and  N2_4 
REMARK    2  A    between atoms: N2_4  and  N3_5 
REMARK    3  A    between atoms: N3_5  and  C1_7 
REMARK    4  A    between atoms: C2_10  and  N5_11 
ROOT
HETATM    1  C1  UNL     1      21.609  41.842  44.324  1.00  0.00     0.162 A 
HETATM    2  N4  UNL     1      22.182  42.073  45.516  1.00  0.00    -0.174 N 
ATOM      3  H4  UNL     1      22.147  41.315  46.198  1.00  0.00     0.186 HD
HETATM    4  C2  UNL     1      22.787  43.188  45.891  1.00  0.00     0.678 A 
HETATM    5  N6  UNL     1      22.821  44.173  44.972  1.00  0.00    -0.185 N 
ATOM      6  H6  UNL     1      23.274  45.059  45.197  1.00  0.00     0.185 HD
HETATM    7  C3  UNL     1      22.256  43.996  43.745  1.00  0.00     0.105 A 
HETATM    8  S1  UNL     1      22.137  45.025  42.400  1.00  0.00    -0.075 SA
HETATM    9  C4  UNL     1      21.285  43.980  41.339  1.00  0.00    -0.008 A 
HETATM   10  C5  UNL     1      21.125  42.846  42.096  1.00  0.00    -0.026 A 
HETATM   11  C6  UNL     1      21.628  42.850  43.347  1.00  0.00     0.052 A 
HETATM   12  C7  UNL     1      20.434  41.567  41.684  1.00  0.00     0.068 C 
HETATM   13  C8  UNL     1      19.859  41.633  40.297  1.00  0.00     0.237 C 
HETATM   14  N7  UNL     1      20.891  41.496  39.308  1.00  0.00    -0.075 N 
ATOM     15  H71 UNL     1      20.851  40.599  38.824  1.00  0.00     0.277 HD
ATOM     16  H72 UNL     1      21.817  41.393  39.723  1.00  0.00     0.277 HD
HETATM   17  C9  UNL     1      20.816  42.634  38.383  1.00  0.00     0.232 C 
HETATM   18  C10 UNL     1      21.710  43.694  38.965  1.00  0.00     0.032 C 
HETATM   19  C11 UNL     1      20.942  44.480  39.966  1.00  0.00     0.048 C 
ENDROOT
BRANCH   1  20
HETATM   20  N3  UNL     1      21.027  40.566  44.167  1.00  0.00    -0.198 N 
ATOM     21  H3  UNL     1      21.226  40.054  43.307  1.00  0.00     0.205 HD
BRANCH  20  22
HETATM   22  N2  UNL     1      20.296  40.029  44.997  1.00  0.00    -0.242 NA
BRANCH  22  23
HETATM   23  N1  UNL     1      19.697  39.784  46.048  1.00  0.00    -0.260 N 
ATOM     24  H12 UNL     1      19.866  40.695  46.473  1.00  0.00     0.193 HD
ATOM     25  H11 UNL     1      19.159  39.300  46.766  1.00  0.00     0.193 HD
ENDBRANCH  22  23
ENDBRANCH  20  22
ENDBRANCH   1  20
BRANCH   4  26
HETATM   26  N5  UNL     1      23.296  43.278  47.065  1.00  0.00    -0.234 N 
ATOM     27  H52 UNL     1      23.539  42.477  47.648  1.00  0.00     0.174 HD
ATOM     28  H51 UNL     1      23.481  44.195  47.472  1.00  0.00     0.174 HD
ENDBRANCH   4  26
TORSDOF 4
ENDMDL
MODEL 4
REMARK VINA RESULT: -6.127856383      2.424      3.867
REMARK  4 active torsions:
REMARK  status: ('A' for Active; 'I' for Inactive)
REMARK    1  A    between atoms: N1_1  and  N2_4 
REMARK    2  A    between atoms: N2_4  and  N3_5 
REMARK    3  A    between atoms: N3_5  and  C1_7 
REMARK    4  A    between atoms: C2_10  and  N5_11 
ROOT
HETATM    1  C1  UNL     1      22.371  41.980  42.176  1.00  0.00     0.162 A 
HETATM    2  N4  UNL     1      22.346  42.379  43.458  1.00  0.00    -0.174 N 
ATOM      3  H4  UNL     1      22.730  41.735  44.148  1.00  0.00     0.186 HD
HETATM    4  C2  UNL     1      21.871  43.528  43.911  1.00  0.00     0.678 A 
HETATM    5  N6  UNL     1      21.369  44.362  42.978  1.00  0.00    -0.185 N 
ATOM      6  H6  UNL     1      20.988  45.265  43.261  1.00  0.00     0.185 HD
HETATM    7  C3  UNL     1      21.369  44.010  41.662  1.00  0.00     0.105 A 
HETATM    8  S1  UNL     1      20.820  44.826  40.279  1.00  0.00    -0.075 SA
HETATM    9  C4  UNL     1      21.218  43.647  39.098  1.00  0.00    -0.008 A 
HETATM   10  C5  UNL     1      21.775  42.643  39.850  1.00  0.00    -0.026 A 
HETATM   11  C6  UNL     1      21.855  42.828  41.183  1.00  0.00     0.052 A 
HETATM   12  C7  UNL     1      22.319  41.325  39.348  1.00  0.00     0.068 C 
HETATM   13  C8  UNL     1      22.169  41.156  37.863  1.00  0.00     0.237 C 
HETATM   14  N7  UNL     1      23.152  41.930  37.157  1.00  0.00    -0.075 N 
ATOM     15  H71 UNL     1      23.868  41.347  36.724  1.00  0.00     0.277 HD
ATOM     16  H72 UNL     1      23.758  42.456  37.787  1.00  0.00     0.277 HD
HETATM   17  C9  UNL     1      22.470  42.793  36.187  1.00  0.00     0.232 C 
HETATM   18  C10 UNL     1      22.184  44.079  36.912  1.00  0.00     0.032 C 
HETATM   19  C11 UNL     1      20.906  43.942  37.659  1.00  0.00     0.048 C 
ENDROOT
BRANCH   1  20
HETATM   20  N3  UNL     1      22.934  40.706  41.948  1.00  0.00    -0.198 N 
ATOM     21  H3  UNL     1      23.782  40.654  41.384  1.00  0.00     0.205 HD
BRANCH  20  22
HETATM   22  N2  UNL     1      22.470  39.653  42.384  1.00  0.00    -0.242 NA
BRANCH  22  23
HETATM   23  N1  UNL     1      21.735  38.844  42.955  1.00  0.00    -0.260 N 
ATOM     24  H12 UNL     1      21.948  38.062  42.335  1.00  0.00     0.193 HD
ATOM     25  H11 UNL     1      21.072  38.432  43.612  1.00  0.00     0.193 HD
ENDBRANCH  22  23
ENDBRANCH  20  22
ENDBRANCH   1  20
BRANCH   4  26
HETATM   26  N5  UNL     1      21.908  43.787  45.167  1.00  0.00    -0.234 N 
ATOM     27  H52 UNL     1      21.924  44.729  45.557  1.00  0.00     0.174 HD
ATOM     28  H51 UNL     1      21.924  43.025  45.844  1.00  0.00     0.174 HD
ENDBRANCH   4  26
TORSDOF 4
ENDMDL
MODEL 5
REMARK VINA RESULT: -6.107955153      1.872      2.485
REMARK  4 active torsions:
REMARK  status: ('A' for Active; 'I' for Inactive)
REMARK    1  A    between atoms: N1_1  and  N2_4 
REMARK    2  A    between atoms: N2_4  and  N3_5 
REMARK    3  A    between atoms: N3_5  and  C1_7 
REMARK    4  A    between atoms: C2_10  and  N5_11 
ROOT
HETATM    1  C1  UNL     1      21.385  43.201  42.163  1.00  0.00     0.162 A 
HETATM    2  N4  UNL     1      21.418  42.805  43.446  1.00  0.00    -0.174 N 
ATOM      3  H4  UNL     1      21.039  43.451  44.137  1.00  0.00     0.186 HD
HETATM    4  C2  UNL     1      21.897  41.658  43.898  1.00  0.00     0.678 A 
HETATM    5  N6  UNL     1      22.391  40.820  42.965  1.00  0.00    -0.185 N 
ATOM      6  H6  UNL     1      22.774  39.918  43.247  1.00  0.00     0.185 HD
HETATM    7  C3  UNL     1      22.383  41.169  41.647  1.00  0.00     0.105 A 
HETATM    8  S1  UNL     1      22.922  40.349  40.262  1.00  0.00    -0.075 SA
HETATM    9  C4  UNL     1      22.515  41.526  39.081  1.00  0.00    -0.008 A 
HETATM   10  C5  UNL     1      21.964  42.532  39.834  1.00  0.00    -0.026 A 
HETATM   11  C6  UNL     1      21.893  42.351  41.169  1.00  0.00     0.052 A 
HETATM   12  C7  UNL     1      21.416  43.849  39.333  1.00  0.00     0.068 C 
HETATM   13  C8  UNL     1      21.557  44.013  37.846  1.00  0.00     0.237 C 
HETATM   14  N7  UNL     1      20.568  43.238  37.150  1.00  0.00    -0.075 N 
ATOM     15  H71 UNL     1      19.849  43.820  36.720  1.00  0.00     0.277 HD
ATOM     16  H72 UNL     1      19.966  42.714  37.785  1.00  0.00     0.277 HD
HETATM   17  C9  UNL     1      21.243  42.372  36.177  1.00  0.00     0.232 C 
HETATM   18  C10 UNL     1      21.533  41.088  36.903  1.00  0.00     0.032 C 
HETATM   19  C11 UNL     1      22.817  41.227  37.641  1.00  0.00     0.048 C 
ENDROOT
BRANCH   1  20
HETATM   20  N3  UNL     1      20.820  44.475  41.936  1.00  0.00    -0.198 N 
ATOM     21  H3  UNL     1      19.985  44.528  41.354  1.00  0.00     0.205 HD
BRANCH  20  22
HETATM   22  N2  UNL     1      21.269  45.525  42.393  1.00  0.00    -0.242 NA
BRANCH  22  23
HETATM   23  N1  UNL     1      21.991  46.333  42.984  1.00  0.00    -0.260 N 
ATOM     24  H12 UNL     1      22.678  45.645  43.292  1.00  0.00     0.193 HD
ATOM     25  H11 UNL     1      22.360  47.203  43.366  1.00  0.00     0.193 HD
ENDBRANCH  22  23
ENDBRANCH  20  22
ENDBRANCH   1  20
BRANCH   4  26
HETATM   26  N5  UNL     1      21.868  41.402  45.155  1.00  0.00    -0.234 N 
ATOM     27  H52 UNL     1      22.265  42.008  45.873  1.00  0.00     0.174 HD
ATOM     28  H51 UNL     1      21.429  40.545  45.491  1.00  0.00     0.174 HD
ENDBRANCH   4  26
TORSDOF 4
ENDMDL
