MODEL 1
REMARK VINA RESULT: -6.696687266      0.000      0.000
REMARK  2 active torsions:
REMARK  status: ('A' for Active; 'I' for Inactive)
REMARK    1  A    between atoms: C2_2  and  N1_4 
REMARK    2  A    between atoms: N1_4  and  C4_6 
ROOT
HETATM    1  C4  UNL     1      14.806  37.315  29.393  1.00  0.00     0.160 C 
HETATM    2  N2  UNL     1      13.598  37.707  29.209  1.00  0.00    -0.283 N 
ATOM      3  H2  UNL     1      12.914  37.003  28.933  1.00  0.00     0.188 HD
HETATM    4  N3  UNL     1      13.148  39.013  29.354  1.00  0.00    -0.325 N 
ATOM      5  H3  UNL     1      12.516  39.294  28.605  1.00  0.00     0.181 HD
HETATM    6  C5  UNL     1      13.357  40.020  30.279  1.00  0.00     0.134 C 
HETATM    7  C6  UNL     1      13.129  41.404  29.647  1.00  0.00     0.032 C 
HETATM    8  C7  UNL     1      12.766  42.337  30.780  1.00  0.00     0.007 C 
HETATM    9  C8  UNL     1      13.274  41.875  32.115  1.00  0.00     0.041 C 
HETATM   10  C9  UNL     1      14.549  41.124  32.012  1.00  0.00    -0.024 A 
HETATM   11  C10 UNL     1      15.576  41.426  32.848  1.00  0.00     0.055 A 
HETATM   12  N4  UNL     1      15.514  42.434  33.843  1.00  0.00    -0.102 NA
HETATM   13  C11 UNL     1      16.767  40.723  32.745  1.00  0.00     0.055 A 
HETATM   14  C12 UNL     1      16.891  39.734  31.800  1.00  0.00     0.066 A 
HETATM   15  N5  UNL     1      18.114  38.983  31.664  1.00  0.00    -0.101 NA
HETATM   16  C13 UNL     1      15.818  39.465  30.974  1.00  0.00     0.041 A 
HETATM   17  C14 UNL     1      14.611  40.125  31.026  1.00  0.00    -0.007 A 
HETATM   18  S1  UNL     1      16.318  38.136  29.858  1.00  0.00    -0.051 SA
ENDROOT
BRANCH   1  19
HETATM   19  N1  UNL     1      15.007  35.917  29.178  1.00  0.00    -0.365 N 
ATOM     20  H1  UNL     1      14.326  35.403  28.620  1.00  0.00     0.162 HD
BRANCH  19  21
HETATM   21  C2  UNL     1      16.123  35.216  29.712  1.00  0.00     0.075 C 
HETATM   22  C1  UNL     1      15.701  33.923  30.424  1.00  0.00     0.032 C 
HETATM   23  C3  UNL     1      17.143  34.803  28.674  1.00  0.00     0.032 C 
ENDBRANCH  19  21
ENDBRANCH   1  19
TORSDOF 2
ENDMDL
MODEL 2
REMARK VINA RESULT: -6.072135561      1.561      3.465
REMARK  2 active torsions:
REMARK  status: ('A' for Active; 'I' for Inactive)
REMARK    1  A    between atoms: C2_2  and  N1_4 
REMARK    2  A    between atoms: N1_4  and  C4_6 
ROOT
HETATM    1  C4  UNL     1      16.513  37.668  29.823  1.00  0.00     0.160 C 
HETATM    2  N2  UNL     1      17.331  38.309  30.575  1.00  0.00    -0.283 N 
ATOM      3  H2  UNL     1      18.326  38.119  30.454  1.00  0.00     0.188 HD
HETATM    4  N3  UNL     1      16.972  39.241  31.539  1.00  0.00    -0.325 N 
ATOM      5  H3  UNL     1      17.500  39.131  32.405  1.00  0.00     0.181 HD
HETATM    6  C5  UNL     1      16.066  40.285  31.599  1.00  0.00     0.134 C 
HETATM    7  C6  UNL     1      15.649  40.570  33.052  1.00  0.00     0.032 C 
HETATM    8  C7  UNL     1      15.206  42.015  33.093  1.00  0.00     0.007 C 
HETATM    9  C8  UNL     1      14.751  42.535  31.760  1.00  0.00     0.041 C 
HETATM   10  C9  UNL     1      14.131  41.482  30.919  1.00  0.00    -0.024 A 
HETATM   11  C10 UNL     1      12.950  41.730  30.295  1.00  0.00     0.055 A 
HETATM   12  N4  UNL     1      12.249  42.960  30.389  1.00  0.00    -0.102 NA
HETATM   13  C11 UNL     1      12.372  40.742  29.512  1.00  0.00     0.055 A 
HETATM   14  C12 UNL     1      13.001  39.527  29.381  1.00  0.00     0.066 A 
HETATM   15  N5  UNL     1      12.430  38.477  28.576  1.00  0.00    -0.101 NA
HETATM   16  C13 UNL     1      14.199  39.324  30.035  1.00  0.00     0.041 A 
HETATM   17  C14 UNL     1      14.823  40.264  30.825  1.00  0.00    -0.007 A 
HETATM   18  S1  UNL     1      14.739  37.642  29.662  1.00  0.00    -0.051 SA
ENDROOT
BRANCH   1  19
HETATM   19  N1  UNL     1      17.140  36.764  28.911  1.00  0.00    -0.365 N 
ATOM     20  H1  UNL     1      18.069  36.990  28.556  1.00  0.00     0.162 HD
BRANCH  19  21
HETATM   21  C2  UNL     1      16.517  35.560  28.481  1.00  0.00     0.075 C 
HETATM   22  C1  UNL     1      17.055  35.090  27.122  1.00  0.00     0.032 C 
HETATM   23  C3  UNL     1      16.710  34.396  29.428  1.00  0.00     0.032 C 
ENDBRANCH  19  21
ENDBRANCH   1  19
TORSDOF 2
ENDMDL
MODEL 3
REMARK VINA RESULT: -5.720571231      2.772      5.289
REMARK  2 active torsions:
REMARK  status: ('A' for Active; 'I' for Inactive)
REMARK    1  A    between atoms: C2_2  and  N1_4 
REMARK    2  A    between atoms: N1_4  and  C4_6 
ROOT
HETATM    1  C4  UNL     1      18.248  42.364  30.765  1.00  0.00     0.160 C 
HETATM    2  N2  UNL     1      17.438  43.359  30.734  1.00  0.00    -0.283 N 
ATOM      3  H2  UNL     1      17.822  44.268  30.477  1.00  0.00     0.188 HD
HETATM    4  N3  UNL     1      16.081  43.298  31.022  1.00  0.00    -0.325 N 
ATOM      5  H3  UNL     1      15.769  44.078  31.599  1.00  0.00     0.181 HD
HETATM    6  C5  UNL     1      15.055  42.425  30.708  1.00  0.00     0.134 C 
HETATM    7  C6  UNL     1      13.937  42.487  31.763  1.00  0.00     0.032 C 
HETATM    8  C7  UNL     1      12.672  42.033  31.072  1.00  0.00     0.007 C 
HETATM    9  C8  UNL     1      12.927  41.159  29.879  1.00  0.00     0.041 C 
HETATM   10  C9  UNL     1      14.153  40.336  30.027  1.00  0.00    -0.024 A 
HETATM   11  C10 UNL     1      14.111  39.010  29.735  1.00  0.00     0.055 A 
HETATM   12  N4  UNL     1      12.948  38.337  29.282  1.00  0.00    -0.102 NA
HETATM   13  C11 UNL     1      15.259  38.244  29.879  1.00  0.00     0.055 A 
HETATM   14  C12 UNL     1      16.419  38.838  30.315  1.00  0.00     0.066 A 
HETATM   15  N5  UNL     1      17.630  38.073  30.476  1.00  0.00    -0.101 NA
HETATM   16  C13 UNL     1      16.410  40.188  30.599  1.00  0.00     0.041 A 
HETATM   17  C14 UNL     1      15.305  41.001  30.476  1.00  0.00    -0.007 A 
HETATM   18  S1  UNL     1      18.070  40.634  31.150  1.00  0.00    -0.051 SA
ENDROOT
BRANCH   1  19
HETATM   19  N1  UNL     1      19.596  42.695  30.425  1.00  0.00    -0.365 N 
ATOM     20  H1  UNL     1      19.779  43.573  29.939  1.00  0.00     0.162 HD
BRANCH  19  21
HETATM   21  C2  UNL     1      20.692  41.846  30.741  1.00  0.00     0.075 C 
HETATM   22  C1  UNL     1      21.691  41.744  29.580  1.00  0.00     0.032 C 
HETATM   23  C3  UNL     1      21.495  42.301  31.940  1.00  0.00     0.032 C 
ENDBRANCH  19  21
ENDBRANCH   1  19
TORSDOF 2
ENDMDL
MODEL 4
REMARK VINA RESULT: -5.718739174      2.344      4.918
REMARK  2 active torsions:
REMARK  status: ('A' for Active; 'I' for Inactive)
REMARK    1  A    between atoms: C2_2  and  N1_4 
REMARK    2  A    between atoms: N1_4  and  C4_6 
ROOT
HETATM    1  C4  UNL     1      15.870  40.742  33.037  1.00  0.00     0.160 C 
HETATM    2  N2  UNL     1      15.669  41.981  32.775  1.00  0.00    -0.283 N 
ATOM      3  H2  UNL     1      16.325  42.656  33.167  1.00  0.00     0.188 HD
HETATM    4  N3  UNL     1      14.630  42.479  32.000  1.00  0.00    -0.325 N 
ATOM      5  H3  UNL     1      14.204  43.312  32.405  1.00  0.00     0.181 HD
HETATM    6  C5  UNL     1      14.038  42.108  30.806  1.00  0.00     0.134 C 
HETATM    7  C6  UNL     1      12.586  42.610  30.730  1.00  0.00     0.032 C 
HETATM    8  C7  UNL     1      12.249  42.724  29.261  1.00  0.00     0.007 C 
HETATM    9  C8  UNL     1      13.089  41.836  28.388  1.00  0.00     0.041 C 
HETATM   10  C9  UNL     1      13.490  40.581  29.070  1.00  0.00    -0.024 A 
HETATM   11  C10 UNL     1      13.349  39.393  28.427  1.00  0.00     0.055 A 
HETATM   12  N4  UNL     1      12.835  39.262  27.113  1.00  0.00    -0.102 NA
HETATM   13  C11 UNL     1      13.723  38.222  29.071  1.00  0.00     0.055 A 
HETATM   14  C12 UNL     1      14.228  38.282  30.347  1.00  0.00     0.066 A 
HETATM   15  N5  UNL     1      14.626  37.086  31.046  1.00  0.00    -0.101 NA
HETATM   16  C13 UNL     1      14.351  39.513  30.957  1.00  0.00     0.041 A 
HETATM   17  C14 UNL     1      14.000  40.710  30.373  1.00  0.00    -0.007 A 
HETATM   18  S1  UNL     1      15.027  39.232  32.608  1.00  0.00    -0.051 SA
ENDROOT
BRANCH   1  19
HETATM   19  N1  UNL     1      17.012  40.495  33.860  1.00  0.00    -0.365 N 
ATOM     20  H1  UNL     1      16.867  40.210  34.829  1.00  0.00     0.162 HD
BRANCH  19  21
HETATM   21  C2  UNL     1      18.343  40.631  33.378  1.00  0.00     0.075 C 
HETATM   22  C1  UNL     1      19.381  40.355  34.475  1.00  0.00     0.032 C 
HETATM   23  C3  UNL     1      18.682  39.692  32.241  1.00  0.00     0.032 C 
ENDBRANCH  19  21
ENDBRANCH   1  19
TORSDOF 2
ENDMDL
MODEL 5
REMARK VINA RESULT: -5.664689468      2.761      4.850
REMARK  2 active torsions:
REMARK  status: ('A' for Active; 'I' for Inactive)
REMARK    1  A    between atoms: C2_2  and  N1_4 
REMARK    2  A    between atoms: N1_4  and  C4_6 
ROOT
HETATM    1  C4  UNL     1      14.645  39.789  31.363  1.00  0.00     0.160 C 
HETATM    2  N2  UNL     1      15.025  39.024  32.320  1.00  0.00    -0.283 N 
ATOM      3  H2  UNL     1      14.536  38.136  32.433  1.00  0.00     0.188 HD
HETATM    4  N3  UNL     1      16.048  39.307  33.215  1.00  0.00    -0.325 N 
ATOM      5  H3  UNL     1      15.804  39.066  34.175  1.00  0.00     0.181 HD
HETATM    6  C5  UNL     1      17.320  39.840  33.108  1.00  0.00     0.134 C 
HETATM    7  C6  UNL     1      17.758  40.492  34.430  1.00  0.00     0.032 C 
HETATM    8  C7  UNL     1      19.269  40.472  34.436  1.00  0.00     0.007 C 
HETATM    9  C8  UNL     1      19.868  40.407  33.061  1.00  0.00     0.041 C 
HETATM   10  C9  UNL     1      19.034  41.093  32.043  1.00  0.00    -0.024 A 
HETATM   11  C10 UNL     1      19.616  41.953  31.168  1.00  0.00     0.055 A 
HETATM   12  N4  UNL     1      21.002  42.248  31.152  1.00  0.00    -0.102 NA
HETATM   13  C11 UNL     1      18.831  42.594  30.220  1.00  0.00     0.055 A 
HETATM   14  C12 UNL     1      17.479  42.351  30.183  1.00  0.00     0.066 A 
HETATM   15  N5  UNL     1      16.633  42.999  29.212  1.00  0.00    -0.101 NA
HETATM   16  C13 UNL     1      16.936  41.469  31.095  1.00  0.00     0.041 A 
HETATM   17  C14 UNL     1      17.660  40.801  32.057  1.00  0.00    -0.007 A 
HETATM   18  S1  UNL     1      15.160  41.391  30.778  1.00  0.00    -0.051 SA
ENDROOT
BRANCH   1  19
HETATM   19  N1  UNL     1      13.569  39.263  30.584  1.00  0.00    -0.365 N 
ATOM     20  H1  UNL     1      12.670  39.098  31.037  1.00  0.00     0.162 HD
BRANCH  19  21
HETATM   21  C2  UNL     1      13.704  38.960  29.201  1.00  0.00     0.075 C 
HETATM   22  C1  UNL     1      13.985  37.470  28.965  1.00  0.00     0.032 C 
HETATM   23  C3  UNL     1      12.476  39.287  28.379  1.00  0.00     0.032 C 
ENDBRANCH  19  21
ENDBRANCH   1  19
TORSDOF 2
ENDMDL
