MODEL 1
REMARK VINA RESULT: -5.733344823      0.000      0.000
REMARK  1 active torsions:
REMARK  status: ('A' for Active; 'I' for Inactive)
REMARK    1  A    between atoms: N4_9  and  N5_11 
ROOT
HETATM    1  N1  UNL     1      22.417  43.667  43.415  1.00  0.00    -0.191 NA
HETATM    2  C1  UNL     1      22.082  43.237  42.394  1.00  0.00     0.105 C 
HETATM    3  C2  UNL     1      21.677  42.706  41.089  1.00  0.00     0.114 A 
HETATM    4  C3  UNL     1      20.619  41.825  41.062  1.00  0.00     0.141 A 
HETATM    5  N2  UNL     1      19.988  41.492  42.324  1.00  0.00    -0.081 NA
HETATM    6  N3  UNL     1      20.102  41.234  39.983  1.00  0.00    -0.323 N 
ATOM      7  H3  UNL     1      19.316  40.605  40.142  1.00  0.00     0.169 HD
HETATM    8  C4  UNL     1      20.499  41.376  38.725  1.00  0.00     0.166 A 
HETATM    9  N4  UNL     1      19.895  40.730  37.766  1.00  0.00    -0.278 N 
ATOM     10  H4  UNL     1      19.109  40.104  37.939  1.00  0.00     0.189 HD
HETATM   11  S1  UNL     1      21.816  42.433  38.509  1.00  0.00    -0.039 SA
HETATM   12  C10 UNL     1      22.370  43.111  39.968  1.00  0.00     0.099 A 
HETATM   13  S2  UNL     1      23.615  44.160  40.084  1.00  0.00    -0.070 SA
ENDROOT
BRANCH   9  14
HETATM   14  N5  UNL     1      20.408  40.962  36.475  1.00  0.00    -0.287 N 
HETATM   15  C5  UNL     1      19.679  40.639  35.491  1.00  0.00     0.091 C 
HETATM   16  C6  UNL     1      18.308  40.028  35.634  1.00  0.00     0.077 C 
HETATM   17  N6  UNL     1      20.116  40.837  34.148  1.00  0.00    -0.379 N 
HETATM   18  C7  UNL     1      17.439  40.721  34.608  1.00  0.00     0.009 C 
HETATM   19  C8  UNL     1      17.941  40.568  33.205  1.00  0.00     0.020 C 
HETATM   20  C9  UNL     1      19.381  40.111  33.127  1.00  0.00     0.121 C 
ATOM     21  H6  UNL     1      20.897  41.451  33.919  1.00  0.00     0.160 HD
ATOM     22  H5  UNL     1      21.331  41.374  36.337  1.00  0.00     0.188 HD
ENDBRANCH   9  14
TORSDOF 1
ENDMDL
MODEL 2
REMARK VINA RESULT: -5.730871636      3.863      4.870
REMARK  1 active torsions:
REMARK  status: ('A' for Active; 'I' for Inactive)
REMARK    1  A    between atoms: N4_9  and  N5_11 
ROOT
HETATM    1  N1  UNL     1      20.818  41.065  43.475  1.00  0.00    -0.191 NA
HETATM    2  C1  UNL     1      21.155  41.495  42.454  1.00  0.00     0.105 C 
HETATM    3  C2  UNL     1      21.562  42.026  41.150  1.00  0.00     0.114 A 
HETATM    4  C3  UNL     1      22.624  42.902  41.124  1.00  0.00     0.141 A 
HETATM    5  N2  UNL     1      23.256  43.232  42.386  1.00  0.00    -0.081 NA
HETATM    6  N3  UNL     1      23.143  43.492  40.045  1.00  0.00    -0.323 N 
ATOM      7  H3  UNL     1      23.933  44.118  40.205  1.00  0.00     0.169 HD
HETATM    8  C4  UNL     1      22.746  43.353  38.787  1.00  0.00     0.166 A 
HETATM    9  N4  UNL     1      23.353  43.997  37.829  1.00  0.00    -0.278 N 
ATOM     10  H4  UNL     1      24.142  44.620  38.003  1.00  0.00     0.189 HD
HETATM   11  S1  UNL     1      21.425  42.301  38.570  1.00  0.00    -0.039 SA
HETATM   12  C10 UNL     1      20.869  41.624  40.028  1.00  0.00     0.099 A 
HETATM   13  S2  UNL     1      19.619  40.581  40.143  1.00  0.00    -0.070 SA
ENDROOT
BRANCH   9  14
HETATM   14  N5  UNL     1      22.840  43.768  36.537  1.00  0.00    -0.287 N 
HETATM   15  C5  UNL     1      23.557  44.119  35.554  1.00  0.00     0.091 C 
HETATM   16  C6  UNL     1      24.914  44.759  35.699  1.00  0.00     0.077 C 
HETATM   17  N6  UNL     1      23.119  43.927  34.211  1.00  0.00    -0.379 N 
HETATM   18  C7  UNL     1      25.794  44.097  34.661  1.00  0.00     0.009 C 
HETATM   19  C8  UNL     1      25.283  44.255  33.262  1.00  0.00     0.020 C 
HETATM   20  C9  UNL     1      23.832  44.681  33.196  1.00  0.00     0.121 C 
ATOM     21  H6  UNL     1      22.350  43.298  33.978  1.00  0.00     0.160 HD
ATOM     22  H5  UNL     1      21.925  43.337  36.399  1.00  0.00     0.188 HD
ENDBRANCH   9  14
TORSDOF 1
ENDMDL
MODEL 3
REMARK VINA RESULT: -5.129645886      1.415      1.647
REMARK  1 active torsions:
REMARK  status: ('A' for Active; 'I' for Inactive)
REMARK    1  A    between atoms: N4_9  and  N5_11 
ROOT
HETATM    1  N1  UNL     1      23.116  43.889  41.351  1.00  0.00    -0.191 NA
HETATM    2  C1  UNL     1      22.610  43.373  40.446  1.00  0.00     0.105 C 
HETATM    3  C2  UNL     1      21.985  42.734  39.284  1.00  0.00     0.114 A 
HETATM    4  C3  UNL     1      21.000  41.803  39.525  1.00  0.00     0.141 A 
HETATM    5  N2  UNL     1      20.658  41.526  40.906  1.00  0.00    -0.081 NA
HETATM    6  N3  UNL     1      20.315  41.114  38.610  1.00  0.00    -0.323 N 
ATOM      7  H3  UNL     1      19.617  40.459  38.963  1.00  0.00     0.169 HD
HETATM    8  C4  UNL     1      20.441  41.189  37.291  1.00  0.00     0.166 A 
HETATM    9  N4  UNL     1      19.698  40.450  36.515  1.00  0.00    -0.278 N 
ATOM     10  H4  UNL     1      19.003  39.799  36.881  1.00  0.00     0.189 HD
HETATM   11  S1  UNL     1      21.619  42.293  36.751  1.00  0.00    -0.039 SA
HETATM   12  C10 UNL     1      22.411  43.095  38.024  1.00  0.00     0.099 A 
HETATM   13  S2  UNL     1      23.586  44.210  37.822  1.00  0.00    -0.070 SA
ENDROOT
BRANCH   9  14
HETATM   14  N5  UNL     1      19.925  40.618  35.135  1.00  0.00    -0.287 N 
HETATM   15  C5  UNL     1      18.931  40.486  34.360  1.00  0.00     0.091 C 
HETATM   16  C6  UNL     1      17.538  40.164  34.838  1.00  0.00     0.077 C 
HETATM   17  N6  UNL     1      19.067  40.638  32.949  1.00  0.00    -0.379 N 
HETATM   18  C7  UNL     1      16.612  41.056  34.041  1.00  0.00     0.009 C 
HETATM   19  C8  UNL     1      16.723  40.854  32.561  1.00  0.00     0.020 C 
HETATM   20  C9  UNL     1      17.976  40.114  32.146  1.00  0.00     0.121 C 
ATOM     21  H6  UNL     1      19.880  41.087  32.530  1.00  0.00     0.160 HD
ATOM     22  H5  UNL     1      20.853  40.837  34.774  1.00  0.00     0.188 HD
ENDBRANCH   9  14
TORSDOF 1
ENDMDL
MODEL 4
REMARK VINA RESULT: -5.081279844      4.666      5.653
REMARK  1 active torsions:
REMARK  status: ('A' for Active; 'I' for Inactive)
REMARK    1  A    between atoms: N4_9  and  N5_11 
ROOT
HETATM    1  N1  UNL     1      20.152  40.938  41.065  1.00  0.00    -0.191 NA
HETATM    2  C1  UNL     1      20.672  41.453  40.168  1.00  0.00     0.105 C 
HETATM    3  C2  UNL     1      21.315  42.091  39.015  1.00  0.00     0.114 A 
HETATM    4  C3  UNL     1      22.280  43.039  39.270  1.00  0.00     0.141 A 
HETATM    5  N2  UNL     1      22.585  43.334  40.656  1.00  0.00    -0.081 NA
HETATM    6  N3  UNL     1      22.976  43.729  38.364  1.00  0.00    -0.323 N 
ATOM      7  H3  UNL     1      23.655  44.398  38.727  1.00  0.00     0.169 HD
HETATM    8  C4  UNL     1      22.883  43.641  37.044  1.00  0.00     0.166 A 
HETATM    9  N4  UNL     1      23.633  44.384  36.278  1.00  0.00    -0.278 N 
ATOM     10  H4  UNL     1      24.309  45.049  36.654  1.00  0.00     0.189 HD
HETATM   11  S1  UNL     1      21.735  42.514  36.486  1.00  0.00    -0.039 SA
HETATM   12  C10 UNL     1      20.924  41.711  37.748  1.00  0.00     0.099 A 
HETATM   13  S2  UNL     1      19.771  40.577  37.529  1.00  0.00    -0.070 SA
ENDROOT
BRANCH   9  14
HETATM   14  N5  UNL     1      23.441  44.200  34.895  1.00  0.00    -0.287 N 
HETATM   15  C5  UNL     1      24.457  44.310  34.146  1.00  0.00     0.091 C 
HETATM   16  C6  UNL     1      25.840  44.623  34.657  1.00  0.00     0.077 C 
HETATM   17  N6  UNL     1      24.357  44.140  32.734  1.00  0.00    -0.379 N 
HETATM   18  C7  UNL     1      26.777  43.710  33.897  1.00  0.00     0.009 C 
HETATM   19  C8  UNL     1      26.708  43.893  32.412  1.00  0.00     0.020 C 
HETATM   20  C9  UNL     1      25.475  44.641  31.953  1.00  0.00     0.121 C 
ATOM     21  H6  UNL     1      23.550  43.694  32.298  1.00  0.00     0.160 HD
ATOM     22  H5  UNL     1      22.520  43.986  34.512  1.00  0.00     0.188 HD
ENDBRANCH   9  14
TORSDOF 1
ENDMDL
MODEL 5
REMARK VINA RESULT: -5.058902383      8.650     10.378
REMARK  1 active torsions:
REMARK  status: ('A' for Active; 'I' for Inactive)
REMARK    1  A    between atoms: N4_9  and  N5_11 
ROOT
HETATM    1  N1  UNL     1      17.087  43.901  30.888  1.00  0.00    -0.191 NA
HETATM    2  C1  UNL     1      16.588  42.856  30.907  1.00  0.00     0.105 C 
HETATM    3  C2  UNL     1      15.977  41.525  30.948  1.00  0.00     0.114 A 
HETATM    4  C3  UNL     1      14.804  41.343  30.249  1.00  0.00     0.141 A 
HETATM    5  N2  UNL     1      14.266  42.480  29.528  1.00  0.00    -0.081 NA
HETATM    6  N3  UNL     1      14.097  40.215  30.161  1.00  0.00    -0.323 N 
ATOM      7  H3  UNL     1      13.246  40.254  29.600  1.00  0.00     0.169 HD
HETATM    8  C4  UNL     1      14.378  39.047  30.724  1.00  0.00     0.166 A 
HETATM    9  N4  UNL     1      13.589  38.023  30.550  1.00  0.00    -0.278 N 
ATOM     10  H4  UNL     1      12.741  38.076  29.985  1.00  0.00     0.189 HD
HETATM   11  S1  UNL     1      15.804  39.031  31.653  1.00  0.00    -0.039 SA
HETATM   12  C10 UNL     1      16.600  40.534  31.676  1.00  0.00     0.099 A 
HETATM   13  S2  UNL     1      17.990  40.830  32.478  1.00  0.00    -0.070 SA
ENDROOT
BRANCH   9  14
HETATM   14  N5  UNL     1      13.993  36.840  31.198  1.00  0.00    -0.287 N 
HETATM   15  C5  UNL     1      14.718  36.034  30.542  1.00  0.00     0.091 C 
HETATM   16  C6  UNL     1      15.163  36.279  29.123  1.00  0.00     0.077 C 
HETATM   17  N6  UNL     1      15.175  34.813  31.117  1.00  0.00    -0.379 N 
HETATM   18  C7  UNL     1      16.618  35.869  29.070  1.00  0.00     0.009 C 
HETATM   19  C8  UNL     1      16.846  34.439  29.456  1.00  0.00     0.020 C 
HETATM   20  C9  UNL     1      15.674  33.818  30.184  1.00  0.00     0.121 C 
ATOM     21  H6  UNL     1      15.152  34.647  32.123  1.00  0.00     0.160 HD
ATOM     22  H5  UNL     1      13.713  36.640  32.158  1.00  0.00     0.188 HD
ENDBRANCH   9  14
TORSDOF 1
ENDMDL
