MODEL 1
REMARK VINA RESULT: -6.489363059      0.000      0.000
REMARK  4 active torsions:
REMARK  status: ('A' for Active; 'I' for Inactive)
REMARK    1  A    between atoms: C5_8  and  O2_9 
REMARK    2  A    between atoms: C10_15  and  O3_16 
REMARK    3  A    between atoms: C11_18  and  O4_19 
REMARK    4  A    between atoms: O4_19  and  O5_20 
ROOT
HETATM    1  C1  UNL     1      23.310  39.680  40.638  1.00  0.00     0.033 C 
HETATM    2  C2  UNL     1      22.751  41.028  40.301  1.00  0.00     0.087 C 
HETATM    3  N1  UNL     1      22.620  41.132  38.861  1.00  0.00    -0.383 N 
ATOM      4  H1  UNL     1      22.923  40.386  38.235  1.00  0.00     0.160 HD
HETATM    5  C3  UNL     1      22.042  42.337  38.377  1.00  0.00     0.063 A 
HETATM    6  C4  UNL     1      22.227  43.093  37.215  1.00  0.00     0.174 A 
HETATM    7  O1  UNL     1      21.416  44.114  37.305  1.00  0.00    -0.298 OA
HETATM    8  C5  UNL     1      20.730  44.065  38.433  1.00  0.00     0.192 A 
HETATM    9  C6  UNL     1      21.093  42.954  39.147  1.00  0.00     0.038 A 
HETATM   10  C7  UNL     1      20.639  42.426  40.445  1.00  0.00     0.002 C 
HETATM   11  C8  UNL     1      19.262  41.788  40.110  1.00  0.00     0.021 C 
HETATM   12  C9  UNL     1      20.241  43.523  41.404  1.00  0.00     0.049 C 
HETATM   13  C10 UNL     1      21.269  44.458  41.851  1.00  0.00     0.151 C 
HETATM   14  C11 UNL     1      21.877  43.967  43.175  1.00  0.00     0.188 C 
HETATM   15  C12 UNL     1      22.788  42.817  42.710  1.00  0.00     0.038 C 
HETATM   16  C13 UNL     1      21.928  41.650  42.479  1.00  0.00     0.015 C 
HETATM   17  C14 UNL     1      21.507  41.381  41.042  1.00  0.00    -0.012 C 
HETATM   18  C15 UNL     1      20.715  40.060  41.190  1.00  0.00     0.018 C 
ENDROOT
BRANCH  14  19
HETATM   19  O4  UNL     1      22.578  44.950  43.822  1.00  0.00    -0.235 OA
BRANCH  19  20
HETATM   20  O5  UNL     1      22.359  46.151  43.346  1.00  0.00    -0.250 OA
ATOM     21  H5  UNL     1      21.440  46.392  43.326  1.00  0.00     0.253 HD
ENDBRANCH  19  20
ENDBRANCH  14  19
BRANCH  13  22
HETATM   22  O3  UNL     1      22.317  44.721  41.014  1.00  0.00    -0.393 OA
ATOM     23  H3  UNL     1      23.174  44.382  41.244  1.00  0.00     0.210 HD
ENDBRANCH  13  22
BRANCH   8  24
HETATM   24  O2  UNL     1      19.774  45.045  38.794  1.00  0.00    -0.340 OA
ATOM     25  H2  UNL     1      19.528  45.218  39.696  1.00  0.00     0.220 HD
ENDBRANCH   8  24
TORSDOF 4
ENDMDL
MODEL 2
REMARK VINA RESULT: -6.469205394      2.912      4.141
REMARK  4 active torsions:
REMARK  status: ('A' for Active; 'I' for Inactive)
REMARK    1  A    between atoms: C5_8  and  O2_9 
REMARK    2  A    between atoms: C10_15  and  O3_16 
REMARK    3  A    between atoms: C11_18  and  O4_19 
REMARK    4  A    between atoms: O4_19  and  O5_20 
ROOT
HETATM    1  C1  UNL     1      20.011  45.071  40.779  1.00  0.00     0.033 C 
HETATM    2  C2  UNL     1      20.543  43.732  40.370  1.00  0.00     0.087 C 
HETATM    3  N1  UNL     1      20.641  43.690  38.924  1.00  0.00    -0.383 N 
ATOM      4  H1  UNL     1      20.335  44.467  38.338  1.00  0.00     0.160 HD
HETATM    5  C3  UNL     1      21.190  42.499  38.375  1.00  0.00     0.063 A 
HETATM    6  C4  UNL     1      20.968  41.798  37.186  1.00  0.00     0.174 A 
HETATM    7  O1  UNL     1      21.766  40.763  37.212  1.00  0.00    -0.298 OA
HETATM    8  C5  UNL     1      22.478  40.753  38.326  1.00  0.00     0.192 A 
HETATM    9  C6  UNL     1      22.147  41.836  39.096  1.00  0.00     0.038 A 
HETATM   10  C7  UNL     1      22.637  42.300  40.405  1.00  0.00     0.002 C 
HETATM   11  C8  UNL     1      24.015  42.934  40.067  1.00  0.00     0.021 C 
HETATM   12  C9  UNL     1      23.039  41.156  41.306  1.00  0.00     0.049 C 
HETATM   13  C10 UNL     1      22.008  40.217  41.735  1.00  0.00     0.151 C 
HETATM   14  C11 UNL     1      21.436  40.658  43.093  1.00  0.00     0.188 C 
HETATM   15  C12 UNL     1      20.533  41.839  42.698  1.00  0.00     0.038 C 
HETATM   16  C13 UNL     1      21.405  43.004  42.500  1.00  0.00     0.015 C 
HETATM   17  C14 UNL     1      21.797  43.330  41.067  1.00  0.00    -0.012 C 
HETATM   18  C15 UNL     1      22.612  44.631  41.255  1.00  0.00     0.018 C 
ENDROOT
BRANCH  14  19
HETATM   19  O4  UNL     1      20.736  39.656  43.711  1.00  0.00    -0.235 OA
BRANCH  19  20
HETATM   20  O5  UNL     1      20.907  38.479  43.163  1.00  0.00    -0.250 OA
ATOM     21  H5  UNL     1      20.292  37.822  43.469  1.00  0.00     0.253 HD
ENDBRANCH  19  20
ENDBRANCH  14  19
BRANCH  13  22
HETATM   22  O3  UNL     1      20.939  40.006  40.911  1.00  0.00    -0.393 OA
ATOM     23  H3  UNL     1      20.243  39.433  41.212  1.00  0.00     0.210 HD
ENDBRANCH  13  22
BRANCH   8  24
HETATM   24  O2  UNL     1      23.426  39.745  38.622  1.00  0.00    -0.340 OA
ATOM     25  H2  UNL     1      24.173  39.891  39.191  1.00  0.00     0.220 HD
ENDBRANCH   8  24
TORSDOF 4
ENDMDL
MODEL 3
REMARK VINA RESULT: -6.111196314     10.385     12.793
REMARK  4 active torsions:
REMARK  status: ('A' for Active; 'I' for Inactive)
REMARK    1  A    between atoms: C5_8  and  O2_9 
REMARK    2  A    between atoms: C10_15  and  O3_16 
REMARK    3  A    between atoms: C11_18  and  O4_19 
REMARK    4  A    between atoms: O4_19  and  O5_20 
ROOT
HETATM    1  C1  UNL     1      14.275  41.243  27.188  1.00  0.00     0.033 C 
HETATM    2  C2  UNL     1      14.965  41.065  28.506  1.00  0.00     0.087 C 
HETATM    3  N1  UNL     1      16.001  42.071  28.629  1.00  0.00    -0.383 N 
ATOM      4  H1  UNL     1      16.206  42.732  27.879  1.00  0.00     0.160 HD
HETATM    5  C3  UNL     1      16.715  42.078  29.858  1.00  0.00     0.063 A 
HETATM    6  C4  UNL     1      18.033  42.394  30.203  1.00  0.00     0.174 A 
HETATM    7  O1  UNL     1      18.129  42.220  31.495  1.00  0.00    -0.298 OA
HETATM    8  C5  UNL     1      16.974  41.817  31.997  1.00  0.00     0.192 A 
HETATM    9  C6  UNL     1      16.046  41.713  30.996  1.00  0.00     0.038 A 
HETATM   10  C7  UNL     1      14.626  41.322  31.006  1.00  0.00     0.002 C 
HETATM   11  C8  UNL     1      13.912  42.584  31.567  1.00  0.00     0.021 C 
HETATM   12  C9  UNL     1      14.320  40.299  32.074  1.00  0.00     0.049 C 
HETATM   13  C10 UNL     1      14.948  38.985  31.975  1.00  0.00     0.151 C 
HETATM   14  C11 UNL     1      14.010  38.016  31.235  1.00  0.00     0.188 C 
HETATM   15  C12 UNL     1      14.165  38.465  29.772  1.00  0.00     0.038 C 
HETATM   16  C13 UNL     1      13.335  39.664  29.597  1.00  0.00     0.015 C 
HETATM   17  C14 UNL     1      14.046  41.007  29.677  1.00  0.00    -0.012 C 
HETATM   18  C15 UNL     1      12.893  41.989  29.360  1.00  0.00     0.018 C 
ENDROOT
BRANCH  14  19
HETATM   19  O4  UNL     1      14.371  36.707  31.414  1.00  0.00    -0.235 OA
BRANCH  19  20
HETATM   20  O5  UNL     1      14.001  36.211  32.568  1.00  0.00    -0.250 OA
ATOM     21  H5  UNL     1      13.970  35.262  32.584  1.00  0.00     0.253 HD
ENDBRANCH  19  20
ENDBRANCH  14  19
BRANCH  13  22
HETATM   22  O3  UNL     1      16.166  38.892  31.363  1.00  0.00    -0.393 OA
ATOM     23  H3  UNL     1      16.663  38.089  31.465  1.00  0.00     0.210 HD
ENDBRANCH  13  22
BRANCH   8  24
HETATM   24  O2  UNL     1      16.788  41.551  33.375  1.00  0.00    -0.340 OA
ATOM     25  H2  UNL     1      16.292  40.805  33.693  1.00  0.00     0.220 HD
ENDBRANCH   8  24
TORSDOF 4
ENDMDL
MODEL 4
REMARK VINA RESULT: -6.016108605     11.366     13.269
REMARK  4 active torsions:
REMARK  status: ('A' for Active; 'I' for Inactive)
REMARK    1  A    between atoms: C5_8  and  O2_9 
REMARK    2  A    between atoms: C10_15  and  O3_16 
REMARK    3  A    between atoms: C11_18  and  O4_19 
REMARK    4  A    between atoms: O4_19  and  O5_20 
ROOT
HETATM    1  C1  UNL     1      14.903  42.339  33.498  1.00  0.00     0.033 C 
HETATM    2  C2  UNL     1      14.409  41.759  32.208  1.00  0.00     0.087 C 
HETATM    3  N1  UNL     1      13.792  42.814  31.429  1.00  0.00    -0.383 N 
ATOM      4  H1  UNL     1      13.701  43.767  31.782  1.00  0.00     0.160 HD
HETATM    5  C3  UNL     1      13.323  42.438  30.140  1.00  0.00     0.063 A 
HETATM    6  C4  UNL     1      12.253  42.862  29.345  1.00  0.00     0.174 A 
HETATM    7  O1  UNL     1      12.310  42.160  28.245  1.00  0.00    -0.298 OA
HETATM    8  C5  UNL     1      13.332  41.323  28.279  1.00  0.00     0.192 A 
HETATM    9  C6  UNL     1      14.005  41.463  29.463  1.00  0.00     0.038 A 
HETATM   10  C7  UNL     1      15.202  40.794  30.001  1.00  0.00     0.002 C 
HETATM   11  C8  UNL     1      16.369  41.474  29.231  1.00  0.00     0.021 C 
HETATM   12  C9  UNL     1      15.319  39.363  29.531  1.00  0.00     0.049 C 
HETATM   13  C10 UNL     1      14.288  38.414  29.938  1.00  0.00     0.151 C 
HETATM   14  C11 UNL     1      14.728  37.687  31.220  1.00  0.00     0.188 C 
HETATM   15  C12 UNL     1      14.501  38.761  32.298  1.00  0.00     0.038 C 
HETATM   16  C13 UNL     1      15.639  39.687  32.233  1.00  0.00     0.015 C 
HETATM   17  C14 UNL     1      15.430  40.978  31.456  1.00  0.00    -0.012 C 
HETATM   18  C15 UNL     1      16.776  41.704  31.689  1.00  0.00     0.018 C 
ENDROOT
BRANCH  14  19
HETATM   19  O4  UNL     1      13.990  36.557  31.455  1.00  0.00    -0.235 OA
BRANCH  19  20
HETATM   20  O5  UNL     1      13.175  36.663  32.474  1.00  0.00    -0.250 OA
ATOM     21  H5  UNL     1      12.545  35.954  32.535  1.00  0.00     0.253 HD
ENDBRANCH  19  20
ENDBRANCH  14  19
BRANCH  13  22
HETATM   22  O3  UNL     1      13.027  38.885  30.169  1.00  0.00    -0.393 OA
ATOM     23  H3  UNL     1      12.914  39.814  30.333  1.00  0.00     0.210 HD
ENDBRANCH  13  22
BRANCH   8  24
HETATM   24  O2  UNL     1      13.635  40.437  27.217  1.00  0.00    -0.340 OA
ATOM     25  H2  UNL     1      14.193  40.680  26.486  1.00  0.00     0.220 HD
ENDBRANCH   8  24
TORSDOF 4
ENDMDL
MODEL 5
REMARK VINA RESULT: -5.910242968      9.697     12.236
REMARK  4 active torsions:
REMARK  status: ('A' for Active; 'I' for Inactive)
REMARK    1  A    between atoms: C5_8  and  O2_9 
REMARK    2  A    between atoms: C10_15  and  O3_16 
REMARK    3  A    between atoms: C11_18  and  O4_19 
REMARK    4  A    between atoms: O4_19  and  O5_20 
ROOT
HETATM    1  C1  UNL     1      27.701  43.903  27.129  1.00  0.00     0.033 C 
HETATM    2  C2  UNL     1      27.399  44.062  28.588  1.00  0.00     0.087 C 
HETATM    3  N1  UNL     1      26.303  43.180  28.936  1.00  0.00    -0.383 N 
ATOM      4  H1  UNL     1      25.829  42.604  28.239  1.00  0.00     0.160 HD
HETATM    5  C3  UNL     1      25.930  43.166  30.308  1.00  0.00     0.063 A 
HETATM    6  C4  UNL     1      24.714  42.983  30.972  1.00  0.00     0.174 A 
HETATM    7  O1  UNL     1      24.973  43.071  32.250  1.00  0.00    -0.298 OA
HETATM    8  C5  UNL     1      26.260  43.296  32.449  1.00  0.00     0.192 A 
HETATM    9  C6  UNL     1      26.909  43.364  31.245  1.00  0.00     0.038 A 
HETATM   10  C7  UNL     1      28.325  43.582  30.900  1.00  0.00     0.002 C 
HETATM   11  C8  UNL     1      28.983  42.207  31.202  1.00  0.00     0.021 C 
HETATM   12  C9  UNL     1      29.025  44.480  31.892  1.00  0.00     0.049 C 
HETATM   13  C10 UNL     1      28.573  45.862  32.014  1.00  0.00     0.151 C 
HETATM   14  C11 UNL     1      29.413  46.766  31.096  1.00  0.00     0.188 C 
HETATM   15  C12 UNL     1      28.833  46.448  29.706  1.00  0.00     0.038 C 
HETATM   16  C13 UNL     1      29.424  45.176  29.272  1.00  0.00     0.015 C 
HETATM   17  C14 UNL     1      28.585  43.924  29.480  1.00  0.00    -0.012 C 
HETATM   18  C15 UNL     1      29.477  42.839  28.832  1.00  0.00     0.018 C 
ENDROOT
BRANCH  14  19
HETATM   19  O4  UNL     1      29.287  48.092  31.416  1.00  0.00    -0.235 OA
BRANCH  19  20
HETATM   20  O5  UNL     1      29.308  48.327  32.705  1.00  0.00    -0.250 OA
ATOM     21  H5  UNL     1      30.128  48.694  33.013  1.00  0.00     0.253 HD
ENDBRANCH  19  20
ENDBRANCH  14  19
BRANCH  13  22
HETATM   22  O3  UNL     1      27.263  46.144  31.747  1.00  0.00    -0.393 OA
ATOM     23  H3  UNL     1      26.609  45.486  31.952  1.00  0.00     0.210 HD
ENDBRANCH  13  22
BRANCH   8  24
HETATM   24  O2  UNL     1      26.824  43.436  33.740  1.00  0.00    -0.340 OA
ATOM     25  H2  UNL     1      26.490  42.975  34.501  1.00  0.00     0.220 HD
ENDBRANCH   8  24
TORSDOF 4
ENDMDL
