MODEL 1
REMARK VINA RESULT: -5.622521883      0.000      0.000
REMARK  4 active torsions:
REMARK  status: ('A' for Active; 'I' for Inactive)
REMARK    1  A    between atoms: C2_2  and  N1_5 
REMARK    2  A    between atoms: C12_18  and  C13_19 
REMARK    3  A    between atoms: C13_19  and  O1_20 
REMARK    4  A    between atoms: N5_22  and  O2_24 
ROOT
HETATM    1  N1  UNL     1      21.219  42.173  40.821  1.00  0.00    -0.331 N 
HETATM    2  C5  UNL     1      20.189  41.307  41.089  1.00  0.00     0.184 A 
HETATM    3  N2  UNL     1      19.628  40.838  39.988  1.00  0.00    -0.350 N 
ATOM      4  H2  UNL     1      18.848  40.182  39.947  1.00  0.00     0.166 HD
HETATM    5  C6  UNL     1      20.256  41.369  38.942  1.00  0.00     0.070 A 
HETATM    6  C7  UNL     1      20.035  41.189  37.603  1.00  0.00    -0.000 A 
HETATM    7  C8  UNL     1      20.844  41.871  36.718  1.00  0.00     0.039 A 
HETATM    8  C9  UNL     1      21.828  42.697  37.212  1.00  0.00     0.058 A 
HETATM    9  C10 UNL     1      22.052  42.880  38.579  1.00  0.00     0.077 A 
HETATM   10  N3  UNL     1      23.081  43.742  38.999  1.00  0.00    -0.100 NA
HETATM   11  C11 UNL     1      21.253  42.206  39.463  1.00  0.00     0.088 A 
HETATM   12  N4  UNL     1      20.437  41.520  35.399  1.00  0.00    -0.377 N 
ATOM     13  H4  UNL     1      20.606  42.060  34.550  1.00  0.00     0.160 HD
HETATM   14  C12 UNL     1      19.727  40.231  35.492  1.00  0.00     0.162 C 
HETATM   15  C14 UNL     1      19.034  40.364  36.841  1.00  0.00     0.076 C 
ENDROOT
BRANCH  14  16
HETATM   16  C13 UNL     1      18.772  40.053  34.396  1.00  0.00     0.159 C 
HETATM   17  N5  UNL     1      19.123  39.973  33.181  1.00  0.00    -0.249 N 
ATOM     18  H5  UNL     1      18.358  39.847  32.519  1.00  0.00     0.196 HD
BRANCH  16  19
HETATM   19  O1  UNL     1      17.378  39.965  34.674  1.00  0.00    -0.347 OA
ATOM     20  H1  UNL     1      16.752  40.387  34.098  1.00  0.00     0.219 HD
ENDBRANCH  16  19
BRANCH  17  21
HETATM   21  O2  UNL     1      20.356  40.029  32.628  1.00  0.00    -0.288 OA
ATOM     22  H2  UNL     1      20.792  40.745  32.180  1.00  0.00     0.244 HD
ENDBRANCH  17  21
ENDBRANCH  14  16
BRANCH   1  23
HETATM   23  C2  UNL     1      22.036  42.858  41.801  1.00  0.00     0.027 C 
HETATM   24  C1  UNL     1      21.655  42.163  43.145  1.00  0.00     0.038 C 
HETATM   25  C3  UNL     1      23.503  42.591  41.737  1.00  0.00     0.038 C 
HETATM   26  C4  UNL     1      21.637  44.280  42.078  1.00  0.00     0.038 C 
ENDBRANCH   1  23
TORSDOF 4
ENDMDL
MODEL 2
REMARK VINA RESULT: -5.619972939      2.936      4.541
REMARK  4 active torsions:
REMARK  status: ('A' for Active; 'I' for Inactive)
REMARK    1  A    between atoms: C2_2  and  N1_5 
REMARK    2  A    between atoms: C12_18  and  C13_19 
REMARK    3  A    between atoms: C13_19  and  O1_20 
REMARK    4  A    between atoms: N5_22  and  O2_24 
ROOT
HETATM    1  N1  UNL     1      22.044  42.623  40.812  1.00  0.00    -0.331 N 
HETATM    2  C5  UNL     1      23.073  43.492  41.078  1.00  0.00     0.184 A 
HETATM    3  N2  UNL     1      23.634  43.959  39.977  1.00  0.00    -0.350 N 
ATOM      4  H2  UNL     1      24.413  44.615  39.935  1.00  0.00     0.166 HD
HETATM    5  C6  UNL     1      23.008  43.423  38.932  1.00  0.00     0.070 A 
HETATM    6  C7  UNL     1      23.229  43.601  37.592  1.00  0.00    -0.000 A 
HETATM    7  C8  UNL     1      22.423  42.915  36.709  1.00  0.00     0.039 A 
HETATM    8  C9  UNL     1      21.439  42.089  37.204  1.00  0.00     0.058 A 
HETATM    9  C10 UNL     1      21.215  41.909  38.571  1.00  0.00     0.077 A 
HETATM   10  N3  UNL     1      20.186  41.047  38.992  1.00  0.00    -0.100 NA
HETATM   11  C11 UNL     1      22.011  42.587  39.453  1.00  0.00     0.088 A 
HETATM   12  N4  UNL     1      22.830  43.263  35.389  1.00  0.00    -0.377 N 
ATOM     13  H4  UNL     1      22.663  42.721  34.541  1.00  0.00     0.160 HD
HETATM   14  C12 UNL     1      23.538  44.553  35.479  1.00  0.00     0.162 C 
HETATM   15  C14 UNL     1      24.230  44.426  36.829  1.00  0.00     0.076 C 
ENDROOT
BRANCH  14  16
HETATM   16  C13 UNL     1      24.493  44.730  34.383  1.00  0.00     0.159 C 
HETATM   17  N5  UNL     1      24.143  44.806  33.168  1.00  0.00    -0.249 N 
ATOM     18  H5  UNL     1      24.909  44.932  32.506  1.00  0.00     0.196 HD
BRANCH  16  19
HETATM   19  O1  UNL     1      25.887  44.821  34.662  1.00  0.00    -0.347 OA
ATOM     20  H1  UNL     1      26.341  45.647  34.542  1.00  0.00     0.219 HD
ENDBRANCH  16  19
BRANCH  17  21
HETATM   21  O2  UNL     1      22.911  44.746  32.613  1.00  0.00    -0.288 OA
ATOM     22  H2  UNL     1      22.333  45.447  32.334  1.00  0.00     0.244 HD
ENDBRANCH  17  21
ENDBRANCH  14  16
BRANCH   1  23
HETATM   23  C2  UNL     1      21.228  41.939  41.793  1.00  0.00     0.027 C 
HETATM   24  C1  UNL     1      21.603  42.643  43.134  1.00  0.00     0.038 C 
HETATM   25  C3  UNL     1      19.760  42.201  41.724  1.00  0.00     0.038 C 
HETATM   26  C4  UNL     1      21.631  40.521  42.077  1.00  0.00     0.038 C 
ENDBRANCH   1  23
TORSDOF 4
ENDMDL
MODEL 3
REMARK VINA RESULT: -5.334542976      7.644      9.111
REMARK  4 active torsions:
REMARK  status: ('A' for Active; 'I' for Inactive)
REMARK    1  A    between atoms: C2_2  and  N1_5 
REMARK    2  A    between atoms: C12_18  and  C13_19 
REMARK    3  A    between atoms: C13_19  and  O1_20 
REMARK    4  A    between atoms: N5_22  and  O2_24 
ROOT
HETATM    1  N1  UNL     1      16.275  42.127  31.494  1.00  0.00    -0.331 N 
HETATM    2  C5  UNL     1      16.400  43.207  30.656  1.00  0.00     0.184 A 
HETATM    3  N2  UNL     1      17.605  43.290  30.120  1.00  0.00    -0.350 N 
ATOM      4  H2  UNL     1      17.921  44.009  29.469  1.00  0.00     0.166 HD
HETATM    5  C6  UNL     1      18.334  42.274  30.575  1.00  0.00     0.070 A 
HETATM    6  C7  UNL     1      19.634  41.940  30.307  1.00  0.00    -0.000 A 
HETATM    7  C8  UNL     1      20.152  40.820  30.923  1.00  0.00     0.039 A 
HETATM    8  C9  UNL     1      19.349  40.091  31.771  1.00  0.00     0.058 A 
HETATM    9  C10 UNL     1      18.022  40.434  32.043  1.00  0.00     0.077 A 
HETATM   10  N3  UNL     1      17.271  39.634  32.923  1.00  0.00    -0.100 NA
HETATM   11  C11 UNL     1      17.502  41.545  31.436  1.00  0.00     0.088 A 
HETATM   12  N4  UNL     1      21.500  40.669  30.489  1.00  0.00    -0.377 N 
ATOM     13  H4  UNL     1      22.237  40.152  30.969  1.00  0.00     0.160 HD
HETATM   14  C12 UNL     1      21.630  41.400  29.214  1.00  0.00     0.162 C 
HETATM   15  C14 UNL     1      20.689  42.575  29.442  1.00  0.00     0.076 C 
ENDROOT
BRANCH  14  16
HETATM   16  C13 UNL     1      23.008  41.835  28.972  1.00  0.00     0.159 C 
HETATM   17  N5  UNL     1      23.843  42.031  29.903  1.00  0.00    -0.249 N 
ATOM     18  H5  UNL     1      24.769  42.329  29.596  1.00  0.00     0.196 HD
BRANCH  16  19
HETATM   19  O1  UNL     1      23.458  42.058  27.639  1.00  0.00    -0.347 OA
ATOM     20  H1  UNL     1      23.621  42.943  27.336  1.00  0.00     0.219 HD
ENDBRANCH  16  19
BRANCH  17  21
HETATM   21  O2  UNL     1      23.698  41.907  31.242  1.00  0.00    -0.288 OA
ATOM     22  H2  UNL     1      23.239  42.464  31.860  1.00  0.00     0.244 HD
ENDBRANCH  17  21
ENDBRANCH  14  16
BRANCH   1  23
HETATM   23  C2  UNL     1      15.089  41.754  32.236  1.00  0.00     0.027 C 
HETATM   24  C1  UNL     1      13.973  42.649  31.613  1.00  0.00     0.038 C 
HETATM   25  C3  UNL     1      14.552  40.387  31.972  1.00  0.00     0.038 C 
HETATM   26  C4  UNL     1      15.068  42.205  33.668  1.00  0.00     0.038 C 
ENDBRANCH   1  23
TORSDOF 4
ENDMDL
MODEL 4
REMARK VINA RESULT: -5.332197072      8.092      8.981
REMARK  4 active torsions:
REMARK  status: ('A' for Active; 'I' for Inactive)
REMARK    1  A    between atoms: C2_2  and  N1_5 
REMARK    2  A    between atoms: C12_18  and  C13_19 
REMARK    3  A    between atoms: C13_19  and  O1_20 
REMARK    4  A    between atoms: N5_22  and  O2_24 
ROOT
HETATM    1  N1  UNL     1      27.031  42.652  31.497  1.00  0.00    -0.331 N 
HETATM    2  C5  UNL     1      26.905  41.575  30.657  1.00  0.00     0.184 A 
HETATM    3  N2  UNL     1      25.698  41.491  30.125  1.00  0.00    -0.350 N 
ATOM      4  H2  UNL     1      25.380  40.773  29.473  1.00  0.00     0.166 HD
HETATM    5  C6  UNL     1      24.969  42.505  30.585  1.00  0.00     0.070 A 
HETATM    6  C7  UNL     1      23.667  42.838  30.323  1.00  0.00    -0.000 A 
HETATM    7  C8  UNL     1      23.150  43.956  30.943  1.00  0.00     0.039 A 
HETATM    8  C9  UNL     1      23.955  44.683  31.791  1.00  0.00     0.058 A 
HETATM    9  C10 UNL     1      25.284  44.341  32.058  1.00  0.00     0.077 A 
HETATM   10  N3  UNL     1      26.037  45.140  32.936  1.00  0.00    -0.100 NA
HETATM   11  C11 UNL     1      25.803  43.233  31.445  1.00  0.00     0.088 A 
HETATM   12  N4  UNL     1      21.801  44.106  30.515  1.00  0.00    -0.377 N 
ATOM     13  H4  UNL     1      21.065  44.620  30.999  1.00  0.00     0.160 HD
HETATM   14  C12 UNL     1      21.667  43.378  29.239  1.00  0.00     0.162 C 
HETATM   15  C14 UNL     1      22.610  42.204  29.460  1.00  0.00     0.076 C 
ENDROOT
BRANCH  14  16
HETATM   16  C13 UNL     1      20.289  42.942  29.000  1.00  0.00     0.159 C 
HETATM   17  N5  UNL     1      19.456  42.745  29.934  1.00  0.00    -0.249 N 
ATOM     18  H5  UNL     1      18.530  42.447  29.629  1.00  0.00     0.196 HD
BRANCH  16  19
HETATM   19  O1  UNL     1      19.835  42.719  27.669  1.00  0.00    -0.347 OA
ATOM     20  H1  UNL     1      20.040  43.348  26.987  1.00  0.00     0.219 HD
ENDBRANCH  16  19
BRANCH  17  21
HETATM   21  O2  UNL     1      19.605  42.870  31.272  1.00  0.00    -0.288 OA
ATOM     22  H2  UNL     1      19.526  42.217  31.958  1.00  0.00     0.244 HD
ENDBRANCH  17  21
ENDBRANCH  14  16
BRANCH   1  23
HETATM   23  C2  UNL     1      28.219  43.024  32.236  1.00  0.00     0.027 C 
HETATM   24  C1  UNL     1      29.338  42.145  31.596  1.00  0.00     0.038 C 
HETATM   25  C3  UNL     1      28.746  44.398  31.984  1.00  0.00     0.038 C 
HETATM   26  C4  UNL     1      28.252  42.557  33.663  1.00  0.00     0.038 C 
ENDBRANCH   1  23
TORSDOF 4
ENDMDL
MODEL 5
REMARK VINA RESULT: -5.298469461      8.830     11.562
REMARK  4 active torsions:
REMARK  status: ('A' for Active; 'I' for Inactive)
REMARK    1  A    between atoms: C2_2  and  N1_5 
REMARK    2  A    between atoms: C12_18  and  C13_19 
REMARK    3  A    between atoms: C13_19  and  O1_20 
REMARK    4  A    between atoms: N5_22  and  O2_24 
ROOT
HETATM    1  N1  UNL     1      17.062  36.889  28.688  1.00  0.00    -0.331 N 
HETATM    2  C5  UNL     1      17.972  37.888  28.446  1.00  0.00     0.184 A 
HETATM    3  N2  UNL     1      17.692  38.994  29.113  1.00  0.00    -0.350 N 
ATOM      4  H2  UNL     1      18.229  39.861  29.086  1.00  0.00     0.166 HD
HETATM    5  C6  UNL     1      16.588  38.783  29.825  1.00  0.00     0.070 A 
HETATM    6  C7  UNL     1      15.914  39.626  30.667  1.00  0.00    -0.000 A 
HETATM    7  C8  UNL     1      14.780  39.146  31.289  1.00  0.00     0.039 A 
HETATM    8  C9  UNL     1      14.377  37.853  31.040  1.00  0.00     0.058 A 
HETATM    9  C10 UNL     1      15.067  36.994  30.180  1.00  0.00     0.077 A 
HETATM   10  N3  UNL     1      14.587  35.687  29.983  1.00  0.00    -0.100 NA
HETATM   11  C11 UNL     1      16.192  37.464  29.560  1.00  0.00     0.088 A 
HETATM   12  N4  UNL     1      14.263  40.185  32.113  1.00  0.00    -0.377 N 
ATOM     13  H4  UNL     1      13.304  40.271  32.450  1.00  0.00     0.160 HD
HETATM   14  C12 UNL     1      15.374  41.115  32.387  1.00  0.00     0.162 C 
HETATM   15  C14 UNL     1      16.151  41.053  31.080  1.00  0.00     0.076 C 
ENDROOT
BRANCH  14  16
HETATM   16  C13 UNL     1      14.895  42.468  32.681  1.00  0.00     0.159 C 
HETATM   17  N5  UNL     1      13.945  43.016  32.048  1.00  0.00    -0.249 N 
ATOM     18  H5  UNL     1      13.709  43.959  32.356  1.00  0.00     0.196 HD
BRANCH  16  19
HETATM   19  O1  UNL     1      15.506  43.229  33.719  1.00  0.00    -0.347 OA
ATOM     20  H1  UNL     1      15.230  43.108  34.620  1.00  0.00     0.219 HD
ENDBRANCH  16  19
BRANCH  17  21
HETATM   21  O2  UNL     1      13.194  42.544  31.027  1.00  0.00    -0.288 OA
ATOM     22  H2  UNL     1      13.430  42.380  30.122  1.00  0.00     0.244 HD
ENDBRANCH  17  21
ENDBRANCH  14  16
BRANCH   1  23
HETATM   23  C2  UNL     1      17.081  35.559  28.115  1.00  0.00     0.027 C 
HETATM   24  C1  UNL     1      18.349  35.572  27.205  1.00  0.00     0.038 C 
HETATM   25  C3  UNL     1      17.404  34.444  29.053  1.00  0.00     0.038 C 
HETATM   26  C4  UNL     1      15.998  35.284  27.113  1.00  0.00     0.038 C 
ENDBRANCH   1  23
TORSDOF 4
ENDMDL
