MODEL 1
REMARK VINA RESULT: -6.566862115      0.000      0.000
REMARK  4 active torsions:
REMARK  status: ('A' for Active; 'I' for Inactive)
REMARK    1  A    between atoms: O1_1  and  C1_3 
REMARK    2  A    between atoms: C1_3  and  C2_4 
REMARK    3  A    between atoms: C9_13  and  C10_14 
REMARK    4  A    between atoms: N3_21  and  O2_22 
ROOT
HETATM    1  C2  UNL     1      21.144  42.955  41.776  1.00  0.00     0.062 C 
HETATM    2  C3  UNL     1      20.580  41.763  42.539  1.00  0.00     0.011 C 
HETATM    3  C4  UNL     1      21.577  40.744  42.938  1.00  0.00     0.001 C 
HETATM    4  C5  UNL     1      22.008  39.779  41.893  1.00  0.00     0.000 C 
HETATM    5  C6  UNL     1      22.839  40.307  40.788  1.00  0.00     0.004 C 
HETATM    6  C7  UNL     1      23.119  41.769  40.803  1.00  0.00     0.058 C 
HETATM    7  C8  UNL     1      21.845  42.549  40.543  1.00  0.00     0.155 C 
HETATM    8  N1  UNL     1      22.191  43.661  39.693  1.00  0.00    -0.344 N 
ATOM      9  H1  UNL     1      22.322  44.631  39.980  1.00  0.00     0.163 HD
HETATM   10  C9  UNL     1      22.315  43.142  38.379  1.00  0.00     0.130 C 
HETATM   11  N2  UNL     1      21.609  42.072  38.342  1.00  0.00    -0.261 N 
ATOM     12  H2  UNL     1      21.503  41.476  37.521  1.00  0.00     0.191 HD
HETATM   13  N3  UNL     1      20.991  41.829  39.603  1.00  0.00    -0.169 N 
ENDROOT
BRANCH   1  14
HETATM   14  C1  UNL     1      21.959  43.783  42.752  1.00  0.00     0.173 C 
BRANCH  14  15
HETATM   15  O1  UNL     1      22.344  45.016  42.283  1.00  0.00    -0.400 OA
ATOM     16  H1  UNL     1      23.156  45.021  41.791  1.00  0.00     0.209 HD
ENDBRANCH  14  15
ENDBRANCH   1  14
BRANCH  13  17
HETATM   17  O2  UNL     1      19.895  41.103  39.751  1.00  0.00    -0.270 OA
ATOM     18  H2  UNL     1      19.743  40.170  39.849  1.00  0.00     0.246 HD
ENDBRANCH  13  17
BRANCH  10  19
HETATM   19  C10 UNL     1      23.096  43.707  37.231  1.00  0.00     0.016 A 
HETATM   20  C11 UNL     1      24.169  44.512  37.417  1.00  0.00     0.023 A 
HETATM   21  C12 UNL     1      24.807  44.966  36.296  1.00  0.00     0.050 A 
HETATM   22  S1  UNL     1      23.913  44.275  35.025  1.00  0.00    -0.113 SA
HETATM   23  C13 UNL     1      22.754  43.428  35.936  1.00  0.00     0.064 A 
ENDBRANCH  10  19
TORSDOF 4
ENDMDL
MODEL 2
REMARK VINA RESULT: -6.541021776      2.728      4.126
REMARK  4 active torsions:
REMARK  status: ('A' for Active; 'I' for Inactive)
REMARK    1  A    between atoms: O1_1  and  C1_3 
REMARK    2  A    between atoms: C1_3  and  C2_4 
REMARK    3  A    between atoms: C9_13  and  C10_14 
REMARK    4  A    between atoms: N3_21  and  O2_22 
ROOT
HETATM    1  C2  UNL     1      22.153  41.815  41.715  1.00  0.00     0.062 C 
HETATM    2  C3  UNL     1      22.707  43.009  42.482  1.00  0.00     0.011 C 
HETATM    3  C4  UNL     1      21.697  44.007  42.904  1.00  0.00     0.001 C 
HETATM    4  C5  UNL     1      21.236  44.975  41.875  1.00  0.00     0.000 C 
HETATM    5  C6  UNL     1      20.399  44.442  40.776  1.00  0.00     0.004 C 
HETATM    6  C7  UNL     1      20.145  42.975  40.781  1.00  0.00     0.058 C 
HETATM    7  C8  UNL     1      21.428  42.220  40.496  1.00  0.00     0.155 C 
HETATM    8  N1  UNL     1      21.089  41.111  39.640  1.00  0.00    -0.344 N 
ATOM      9  H1  UNL     1      20.980  40.136  39.919  1.00  0.00     0.163 HD
HETATM   10  C9  UNL     1      20.939  41.639  38.333  1.00  0.00     0.130 C 
HETATM   11  N2  UNL     1      21.626  42.722  38.296  1.00  0.00    -0.261 N 
ATOM     12  H2  UNL     1      21.710  43.328  37.480  1.00  0.00     0.191 HD
HETATM   13  N3  UNL     1      22.257  42.964  39.551  1.00  0.00    -0.169 N 
ENDROOT
BRANCH   1  14
HETATM   14  C1  UNL     1      21.366  40.964  42.694  1.00  0.00     0.173 C 
BRANCH  14  15
HETATM   15  O1  UNL     1      20.920  39.766  42.190  1.00  0.00    -0.400 OA
ATOM     16  H1  UNL     1      20.612  39.799  41.293  1.00  0.00     0.209 HD
ENDBRANCH  14  15
ENDBRANCH   1  14
BRANCH  13  17
HETATM   17  O2  UNL     1      23.342  43.708  39.692  1.00  0.00    -0.270 OA
ATOM     18  H2  UNL     1      24.253  43.499  39.864  1.00  0.00     0.246 HD
ENDBRANCH  13  17
BRANCH  10  19
HETATM   19  C10 UNL     1      20.152  41.072  37.190  1.00  0.00     0.016 A 
HETATM   20  C11 UNL     1      19.069  40.282  37.384  1.00  0.00     0.023 A 
HETATM   21  C12 UNL     1      18.427  39.824  36.267  1.00  0.00     0.050 A 
HETATM   22  S1  UNL     1      19.330  40.491  34.990  1.00  0.00    -0.113 SA
HETATM   23  C13 UNL     1      20.498  41.334  35.892  1.00  0.00     0.064 A 
ENDBRANCH  10  19
TORSDOF 4
ENDMDL
MODEL 3
REMARK VINA RESULT: -6.037551326      3.033      4.209
REMARK  4 active torsions:
REMARK  status: ('A' for Active; 'I' for Inactive)
REMARK    1  A    between atoms: O1_1  and  C1_3 
REMARK    2  A    between atoms: C1_3  and  C2_4 
REMARK    3  A    between atoms: C9_13  and  C10_14 
REMARK    4  A    between atoms: N3_21  and  O2_22 
ROOT
HETATM    1  C2  UNL     1      22.953  41.370  40.146  1.00  0.00     0.062 C 
HETATM    2  C3  UNL     1      23.059  42.244  41.390  1.00  0.00     0.011 C 
HETATM    3  C4  UNL     1      22.001  42.026  42.403  1.00  0.00     0.001 C 
HETATM    4  C5  UNL     1      20.686  42.670  42.151  1.00  0.00     0.000 C 
HETATM    5  C6  UNL     1      19.873  42.130  41.037  1.00  0.00     0.004 C 
HETATM    6  C7  UNL     1      20.478  41.027  40.242  1.00  0.00     0.058 C 
HETATM    7  C8  UNL     1      21.663  41.541  39.450  1.00  0.00     0.155 C 
HETATM    8  N1  UNL     1      21.624  40.901  38.159  1.00  0.00    -0.344 N 
ATOM      9  H1  UNL     1      22.195  40.114  37.851  1.00  0.00     0.163 HD
HETATM   10  C9  UNL     1      20.637  41.580  37.400  1.00  0.00     0.130 C 
HETATM   11  N2  UNL     1      20.530  42.753  37.909  1.00  0.00    -0.261 N 
ATOM     12  H2  UNL     1      19.893  43.475  37.571  1.00  0.00     0.191 HD
HETATM   13  N3  UNL     1      21.423  42.912  39.008  1.00  0.00    -0.169 N 
ENDROOT
BRANCH   1  14
HETATM   14  C1  UNL     1      23.295  39.949  40.552  1.00  0.00     0.173 C 
BRANCH  14  15
HETATM   15  O1  UNL     1      23.683  39.130  39.519  1.00  0.00    -0.400 OA
ATOM     16  H1  UNL     1      23.183  39.233  38.718  1.00  0.00     0.209 HD
ENDBRANCH  14  15
ENDBRANCH   1  14
BRANCH  13  17
HETATM   17  O2  UNL     1      21.862  44.088  39.429  1.00  0.00    -0.270 OA
ATOM     18  H2  UNL     1      21.425  44.858  39.773  1.00  0.00     0.246 HD
ENDBRANCH  13  17
BRANCH  10  19
HETATM   19  C10 UNL     1      19.859  41.069  36.227  1.00  0.00     0.016 A 
HETATM   20  C11 UNL     1      18.584  40.627  36.345  1.00  0.00     0.023 A 
HETATM   21  C12 UNL     1      17.970  40.186  35.206  1.00  0.00     0.050 A 
HETATM   22  S1  UNL     1      19.162  40.391  34.010  1.00  0.00    -0.113 SA
HETATM   23  C13 UNL     1      20.409  41.029  34.974  1.00  0.00     0.064 A 
ENDBRANCH  10  19
TORSDOF 4
ENDMDL
MODEL 4
REMARK VINA RESULT: -6.034593869      1.578      1.885
REMARK  4 active torsions:
REMARK  status: ('A' for Active; 'I' for Inactive)
REMARK    1  A    between atoms: O1_1  and  C1_3 
REMARK    2  A    between atoms: C1_3  and  C2_4 
REMARK    3  A    between atoms: C9_13  and  C10_14 
REMARK    4  A    between atoms: N3_21  and  O2_22 
ROOT
HETATM    1  C2  UNL     1      20.280  43.405  40.118  1.00  0.00     0.062 C 
HETATM    2  C3  UNL     1      20.152  42.514  41.347  1.00  0.00     0.011 C 
HETATM    3  C4  UNL     1      21.205  42.700  42.371  1.00  0.00     0.001 C 
HETATM    4  C5  UNL     1      22.512  42.040  42.119  1.00  0.00     0.000 C 
HETATM    5  C6  UNL     1      23.342  42.584  41.019  1.00  0.00     0.004 C 
HETATM    6  C7  UNL     1      22.759  43.708  40.237  1.00  0.00     0.058 C 
HETATM    7  C8  UNL     1      21.572  43.225  39.429  1.00  0.00     0.155 C 
HETATM    8  N1  UNL     1      21.631  43.884  38.147  1.00  0.00    -0.344 N 
ATOM      9  H1  UNL     1      21.075  44.685  37.847  1.00  0.00     0.163 HD
HETATM   10  C9  UNL     1      22.613  43.201  37.386  1.00  0.00     0.130 C 
HETATM   11  N2  UNL     1      22.697  42.019  37.876  1.00  0.00    -0.261 N 
ATOM     12  H2  UNL     1      23.326  41.293  37.532  1.00  0.00     0.191 HD
HETATM   13  N3  UNL     1      21.794  41.857  38.967  1.00  0.00    -0.169 N 
ENDROOT
BRANCH   1  14
HETATM   14  C1  UNL     1      19.957  44.825  40.543  1.00  0.00     0.173 C 
BRANCH  14  15
HETATM   15  O1  UNL     1      19.574  45.662  39.522  1.00  0.00    -0.400 OA
ATOM     16  H1  UNL     1      19.320  45.223  38.719  1.00  0.00     0.209 HD
ENDBRANCH  14  15
ENDBRANCH   1  14
BRANCH  13  17
HETATM   17  O2  UNL     1      21.334  40.683  39.366  1.00  0.00    -0.270 OA
ATOM     18  H2  UNL     1      20.520  40.218  39.212  1.00  0.00     0.246 HD
ENDBRANCH  13  17
BRANCH  10  19
HETATM   19  C10 UNL     1      23.407  43.718  36.226  1.00  0.00     0.016 A 
HETATM   20  C11 UNL     1      24.654  44.227  36.376  1.00  0.00     0.023 A 
HETATM   21  C12 UNL     1      25.287  44.667  35.246  1.00  0.00     0.050 A 
HETATM   22  S1  UNL     1      24.151  44.369  34.016  1.00  0.00    -0.113 SA
HETATM   23  C13 UNL     1      22.903  43.696  34.953  1.00  0.00     0.064 A 
ENDBRANCH  10  19
TORSDOF 4
ENDMDL
MODEL 5
REMARK VINA RESULT: -5.559339734      9.640     11.919
REMARK  4 active torsions:
REMARK  status: ('A' for Active; 'I' for Inactive)
REMARK    1  A    between atoms: O1_1  and  C1_3 
REMARK    2  A    between atoms: C1_3  and  C2_4 
REMARK    3  A    between atoms: C9_13  and  C10_14 
REMARK    4  A    between atoms: N3_21  and  O2_22 
ROOT
HETATM    1  C2  UNL     1      14.080  38.119  30.713  1.00  0.00     0.062 C 
HETATM    2  C3  UNL     1      13.583  38.269  29.281  1.00  0.00     0.011 C 
HETATM    3  C4  UNL     1      14.518  37.789  28.238  1.00  0.00     0.001 C 
HETATM    4  C5  UNL     1      15.635  38.696  27.868  1.00  0.00     0.000 C 
HETATM    5  C6  UNL     1      16.702  38.898  28.875  1.00  0.00     0.004 C 
HETATM    6  C7  UNL     1      16.522  38.213  30.184  1.00  0.00     0.058 C 
HETATM    7  C8  UNL     1      15.357  38.821  30.939  1.00  0.00     0.155 C 
HETATM    8  N1  UNL     1      15.734  38.884  32.329  1.00  0.00    -0.344 N 
ATOM      9  H1  UNL     1      15.439  38.249  33.070  1.00  0.00     0.163 HD
HETATM   10  C9  UNL     1      16.596  40.002  32.465  1.00  0.00     0.130 C 
HETATM   11  N2  UNL     1      16.319  40.795  31.495  1.00  0.00    -0.261 N 
ATOM     12  H2  UNL     1      16.780  41.690  31.329  1.00  0.00     0.191 HD
HETATM   13  N3  UNL     1      15.280  40.257  30.682  1.00  0.00    -0.169 N 
ENDROOT
BRANCH   1  14
HETATM   14  C1  UNL     1      14.078  36.639  31.048  1.00  0.00     0.173 C 
BRANCH  14  15
HETATM   15  O1  UNL     1      14.002  36.350  32.389  1.00  0.00    -0.400 OA
ATOM     16  H1  UNL     1      14.120  35.433  32.608  1.00  0.00     0.209 HD
ENDBRANCH  14  15
ENDBRANCH   1  14
BRANCH  13  17
HETATM   17  O2  UNL     1      14.492  40.997  29.917  1.00  0.00    -0.270 OA
ATOM     18  H2  UNL     1      14.268  41.920  29.919  1.00  0.00     0.246 HD
ENDBRANCH  13  17
BRANCH  10  19
HETATM   19  C10 UNL     1      17.629  40.251  33.520  1.00  0.00     0.016 A 
HETATM   20  C11 UNL     1      17.306  40.730  34.746  1.00  0.00     0.023 A 
HETATM   21  C12 UNL     1      18.332  40.915  35.631  1.00  0.00     0.050 A 
HETATM   22  S1  UNL     1      19.704  40.428  34.753  1.00  0.00    -0.113 SA
HETATM   23  C13 UNL     1      18.955  40.000  33.289  1.00  0.00     0.064 A 
ENDBRANCH  10  19
TORSDOF 4
ENDMDL
