MODEL 1
REMARK VINA RESULT: -10.448835170      0.000      0.000
REMARK  12 active torsions:
REMARK  status: ('A' for Active; 'I' for Inactive)
REMARK       I    between atoms: N1_2  and  C3_4 
REMARK       I    between atoms: C3_4  and  N2_6 
REMARK    1  A    between atoms: N2_6  and  C4_8 
REMARK    2  A    between atoms: C5_13  and  C6_14 
REMARK    3  A    between atoms: C6_14  and  C7_15 
REMARK    4  A    between atoms: C7_15  and  S1_16 
REMARK    5  A    between atoms: S1_16  and  C8_17 
REMARK    6  A    between atoms: C8_17  and  C9_18 
REMARK    7  A    between atoms: C9_18  and  C10_19 
REMARK       I    between atoms: N7_25  and  C12_27 
REMARK    8  A    between atoms: C12_27  and  C13_29 
REMARK    9  A    between atoms: C13_29  and  C14_30 
REMARK   10  A    between atoms: C15_31  and  C16_32 
REMARK   11  A    between atoms: C16_32  and  C17_33 
REMARK   12  A    between atoms: C17_33  and  N8_34 
ROOT
HETATM    1  C10 UNL     1      16.146  21.670  17.432  1.00  0.00     0.070 A 
HETATM    2  N5  UNL     1      15.482  22.284  18.360  1.00  0.00    -0.296 N 
ATOM      3  H5  UNL     1      14.526  22.573  18.154  1.00  0.00     0.187 HD
HETATM    4  N6  UNL     1      15.947  22.546  19.504  1.00  0.00    -0.279 N 
ATOM      5  H6  UNL     1      15.384  23.033  20.201  1.00  0.00     0.189 HD
HETATM    6  C11 UNL     1      17.212  22.162  19.776  1.00  0.00     0.167 A 
HETATM    7  N7  UNL     1      17.861  22.371  20.896  1.00  0.00    -0.306 N 
ATOM      8  H7  UNL     1      17.424  22.857  21.678  1.00  0.00     0.171 HD
HETATM    9  C12 UNL     1      19.198  21.892  20.978  1.00  0.00     0.227 C 
HETATM   10  O2  UNL     1      19.449  21.016  21.802  1.00  0.00    -0.273 OA
HETATM   11  S2  UNL     1      17.654  21.420  18.306  1.00  0.00    -0.038 SA
ENDROOT
BRANCH   9  12
HETATM   12  C13 UNL     1      20.175  22.474  20.070  1.00  0.00     0.130 C 
BRANCH  12  13
HETATM   13  C14 UNL     1      21.094  23.458  20.624  1.00  0.00    -0.022 C 
HETATM   14  C15 UNL     1      21.230  24.800  20.138  1.00  0.00    -0.029 C 
BRANCH  14  15
HETATM   15  C16 UNL     1      21.626  25.182  18.776  1.00  0.00     0.047 C 
BRANCH  15  16
HETATM   16  C17 UNL     1      20.647  26.310  18.339  1.00  0.00     0.128 C 
BRANCH  16  17
HETATM   17  N8  UNL     1      20.332  26.172  16.957  1.00  0.00    -0.361 N 
HETATM   18  C18 UNL     1      21.039  27.012  16.015  1.00  0.00     0.058 A 
HETATM   19  C19 UNL     1      22.288  27.528  16.405  1.00  0.00     0.031 A 
HETATM   20  C23 UNL     1      20.563  27.311  14.764  1.00  0.00     0.061 A 
HETATM   21  C20 UNL     1      22.994  28.315  15.520  1.00  0.00     0.002 A 
HETATM   22  C21 UNL     1      22.480  28.585  14.286  1.00  0.00     0.002 A 
HETATM   23  C22 UNL     1      21.253  28.094  13.872  1.00  0.00     0.032 A 
HETATM   24  N9  UNL     1      19.318  26.778  14.366  1.00  0.00    -0.323 N 
HETATM   25  C24 UNL     1      18.626  25.949  15.309  1.00  0.00     0.250 C 
ATOM     26  H9  UNL     1      18.927  26.974  13.444  1.00  0.00     0.169 HD
HETATM   27  O3  UNL     1      17.381  25.789  15.285  1.00  0.00    -0.270 OA
HETATM   28  C25 UNL     1      19.405  25.231  16.384  1.00  0.00     0.106 C 
HETATM   29  C26 UNL     1      18.467  24.588  17.346  1.00  0.00     0.049 C 
HETATM   30  C27 UNL     1      20.227  24.159  15.692  1.00  0.00     0.049 C 
ENDBRANCH  16  17
ENDBRANCH  15  16
ENDBRANCH  14  15
ENDBRANCH  12  13
ENDBRANCH   9  12
BRANCH   1  31
HETATM   31  C9  UNL     1      15.978  21.293  16.020  1.00  0.00     0.076 C 
BRANCH  31  32
HETATM   32  C8  UNL     1      15.680  22.323  15.012  1.00  0.00     0.080 C 
BRANCH  32  33
HETATM   33  S1  UNL     1      13.968  22.787  14.836  1.00  0.00    -0.168 SA
BRANCH  33  34
HETATM   34  C7  UNL     1      13.015  21.588  13.901  1.00  0.00     0.080 C 
BRANCH  34  35
HETATM   35  C6  UNL     1      11.560  21.629  14.219  1.00  0.00     0.076 C 
BRANCH  35  36
HETATM   36  C5  UNL     1      11.157  20.830  15.398  1.00  0.00     0.070 A 
HETATM   37  N4  UNL     1      10.160  20.903  16.254  1.00  0.00    -0.296 N 
HETATM   38  N3  UNL     1      10.007  20.053  17.178  1.00  0.00    -0.279 N 
ATOM     39  H4  UNL     1       9.490  21.668  16.169  1.00  0.00     0.187 HD
HETATM   40  C4  UNL     1      10.889  19.051  17.284  1.00  0.00     0.169 A 
ATOM     41  H3  UNL     1       9.226  20.129  17.830  1.00  0.00     0.189 HD
HETATM   42  S3  UNL     1      11.951  19.390  15.991  1.00  0.00    -0.038 SA
BRANCH  40  43
HETATM   43  N2  UNL     1      10.928  18.050  18.142  1.00  0.00    -0.288 N 
HETATM   44  C3  UNL     1      11.727  18.228  19.309  1.00  0.00     0.323 C 
HETATM   45  N1  UNL     1      13.125  18.013  19.371  1.00  0.00    -0.343 N 
HETATM   46  O1  UNL     1      11.140  18.604  20.354  1.00  0.00    -0.247 OA
HETATM   47  C1  UNL     1      13.920  17.603  18.232  1.00  0.00     0.154 C 
HETATM   48  C2  UNL     1      13.849  18.184  20.636  1.00  0.00     0.154 C 
ATOM     49  H2  UNL     1      10.408  17.188  17.978  1.00  0.00     0.172 HD
ENDBRANCH  40  43
ENDBRANCH  35  36
ENDBRANCH  34  35
ENDBRANCH  33  34
ENDBRANCH  32  33
ENDBRANCH  31  32
ENDBRANCH   1  31
TORSDOF 12
ENDMDL
MODEL 2
REMARK VINA RESULT: -10.240453075      1.951      2.981
REMARK  12 active torsions:
REMARK  status: ('A' for Active; 'I' for Inactive)
REMARK       I    between atoms: N1_2  and  C3_4 
REMARK       I    between atoms: C3_4  and  N2_6 
REMARK    1  A    between atoms: N2_6  and  C4_8 
REMARK    2  A    between atoms: C5_13  and  C6_14 
REMARK    3  A    between atoms: C6_14  and  C7_15 
REMARK    4  A    between atoms: C7_15  and  S1_16 
REMARK    5  A    between atoms: S1_16  and  C8_17 
REMARK    6  A    between atoms: C8_17  and  C9_18 
REMARK    7  A    between atoms: C9_18  and  C10_19 
REMARK       I    between atoms: N7_25  and  C12_27 
REMARK    8  A    between atoms: C12_27  and  C13_29 
REMARK    9  A    between atoms: C13_29  and  C14_30 
REMARK   10  A    between atoms: C15_31  and  C16_32 
REMARK   11  A    between atoms: C16_32  and  C17_33 
REMARK   12  A    between atoms: C17_33  and  N8_34 
ROOT
HETATM    1  C10 UNL     1      15.321  22.297  14.841  1.00  0.00     0.070 A 
HETATM    2  N5  UNL     1      14.909  23.410  15.361  1.00  0.00    -0.296 N 
ATOM      3  H5  UNL     1      14.416  24.068  14.758  1.00  0.00     0.187 HD
HETATM    4  N6  UNL     1      15.082  23.730  16.570  1.00  0.00    -0.279 N 
ATOM      5  H6  UNL     1      14.739  24.619  16.932  1.00  0.00     0.189 HD
HETATM    6  C11 UNL     1      15.734  22.858  17.368  1.00  0.00     0.167 A 
HETATM    7  N7  UNL     1      16.021  23.034  18.635  1.00  0.00    -0.306 N 
ATOM      8  H7  UNL     1      15.748  23.884  19.126  1.00  0.00     0.171 HD
HETATM    9  C12 UNL     1      16.727  21.992  19.298  1.00  0.00     0.227 C 
HETATM   10  O2  UNL     1      16.164  21.407  20.220  1.00  0.00    -0.273 OA
HETATM   11  S2  UNL     1      16.060  21.591  16.275  1.00  0.00    -0.038 SA
ENDROOT
BRANCH   9  12
HETATM   12  C13 UNL     1      18.071  21.689  18.829  1.00  0.00     0.130 C 
BRANCH  12  13
HETATM   13  C14 UNL     1      19.156  21.824  19.790  1.00  0.00    -0.022 C 
HETATM   14  C15 UNL     1      19.438  23.020  20.529  1.00  0.00    -0.029 C 
BRANCH  14  15
HETATM   15  C16 UNL     1      19.777  24.325  19.948  1.00  0.00     0.047 C 
BRANCH  15  16
HETATM   16  C17 UNL     1      20.628  24.027  18.679  1.00  0.00     0.128 C 
BRANCH  16  17
HETATM   17  N8  UNL     1      20.940  25.243  18.006  1.00  0.00    -0.361 N 
HETATM   18  C18 UNL     1      20.162  25.588  16.836  1.00  0.00     0.058 A 
HETATM   19  C19 UNL     1      18.881  25.022  16.710  1.00  0.00     0.031 A 
HETATM   20  C23 UNL     1      20.602  26.447  15.862  1.00  0.00     0.061 A 
HETATM   21  C20 UNL     1      18.109  25.347  15.615  1.00  0.00     0.002 A 
HETATM   22  C21 UNL     1      18.590  26.207  14.673  1.00  0.00     0.002 A 
HETATM   23  C22 UNL     1      19.846  26.781  14.766  1.00  0.00     0.032 A 
HETATM   24  N9  UNL     1      21.881  27.031  15.999  1.00  0.00    -0.323 N 
HETATM   25  C24 UNL     1      22.642  26.679  17.161  1.00  0.00     0.250 C 
ATOM     26  H9  UNL     1      22.247  27.676  15.299  1.00  0.00     0.169 HD
HETATM   27  O3  UNL     1      23.896  26.745  17.195  1.00  0.00    -0.270 OA
HETATM   28  C25 UNL     1      21.931  26.208  18.406  1.00  0.00     0.106 C 
HETATM   29  C26 UNL     1      22.923  25.731  19.408  1.00  0.00     0.049 C 
HETATM   30  C27 UNL     1      21.187  27.406  18.969  1.00  0.00     0.049 C 
ENDBRANCH  16  17
ENDBRANCH  15  16
ENDBRANCH  14  15
ENDBRANCH  12  13
ENDBRANCH   9  12
BRANCH   1  31
HETATM   31  C9  UNL     1      15.384  21.652  13.520  1.00  0.00     0.076 C 
BRANCH  31  32
HETATM   32  C8  UNL     1      14.151  21.170  12.876  1.00  0.00     0.080 C 
BRANCH  32  33
HETATM   33  S1  UNL     1      12.966  20.366  13.937  1.00  0.00    -0.168 SA
BRANCH  33  34
HETATM   34  C7  UNL     1      11.686  21.480  14.522  1.00  0.00     0.080 C 
BRANCH  34  35
HETATM   35  C6  UNL     1      10.360  20.816  14.663  1.00  0.00     0.076 C 
BRANCH  35  36
HETATM   36  C5  UNL     1      10.332  19.673  15.602  1.00  0.00     0.070 A 
HETATM   37  N4  UNL     1       9.877  18.441  15.528  1.00  0.00    -0.296 N 
HETATM   38  N3  UNL     1      10.014  17.617  16.479  1.00  0.00    -0.279 N 
ATOM     39  H4  UNL     1       9.399  18.140  14.678  1.00  0.00     0.187 HD
HETATM   40  C4  UNL     1      10.642  18.018  17.592  1.00  0.00     0.169 A 
ATOM     41  H3  UNL     1       9.653  16.667  16.400  1.00  0.00     0.189 HD
HETATM   42  S3  UNL     1      11.025  19.637  17.207  1.00  0.00    -0.038 SA
BRANCH  40  43
HETATM   43  N2  UNL     1      10.915  17.345  18.693  1.00  0.00    -0.288 N 
HETATM   44  C3  UNL     1      11.798  17.963  19.626  1.00  0.00     0.323 C 
HETATM   45  N1  UNL     1      13.212  17.927  19.547  1.00  0.00    -0.343 N 
HETATM   46  O1  UNL     1      11.275  18.581  20.587  1.00  0.00    -0.247 OA
HETATM   47  C1  UNL     1      13.933  17.269  18.479  1.00  0.00     0.154 C 
HETATM   48  C2  UNL     1      14.031  18.560  20.586  1.00  0.00     0.154 C 
ATOM     49  H2  UNL     1      10.512  16.424  18.869  1.00  0.00     0.172 HD
ENDBRANCH  40  43
ENDBRANCH  35  36
ENDBRANCH  34  35
ENDBRANCH  33  34
ENDBRANCH  32  33
ENDBRANCH  31  32
ENDBRANCH   1  31
TORSDOF 12
ENDMDL
MODEL 3
REMARK VINA RESULT: -10.217461662      1.229      1.375
REMARK  12 active torsions:
REMARK  status: ('A' for Active; 'I' for Inactive)
REMARK       I    between atoms: N1_2  and  C3_4 
REMARK       I    between atoms: C3_4  and  N2_6 
REMARK    1  A    between atoms: N2_6  and  C4_8 
REMARK    2  A    between atoms: C5_13  and  C6_14 
REMARK    3  A    between atoms: C6_14  and  C7_15 
REMARK    4  A    between atoms: C7_15  and  S1_16 
REMARK    5  A    between atoms: S1_16  and  C8_17 
REMARK    6  A    between atoms: C8_17  and  C9_18 
REMARK    7  A    between atoms: C9_18  and  C10_19 
REMARK       I    between atoms: N7_25  and  C12_27 
REMARK    8  A    between atoms: C12_27  and  C13_29 
REMARK    9  A    between atoms: C13_29  and  C14_30 
REMARK   10  A    between atoms: C15_31  and  C16_32 
REMARK   11  A    between atoms: C16_32  and  C17_33 
REMARK   12  A    between atoms: C17_33  and  N8_34 
ROOT
HETATM    1  C10 UNL     1      14.972  22.459  16.560  1.00  0.00     0.070 A 
HETATM    2  N5  UNL     1      14.159  22.599  17.558  1.00  0.00    -0.296 N 
ATOM      3  H5  UNL     1      13.162  22.678  17.358  1.00  0.00     0.187 HD
HETATM    4  N6  UNL     1      14.526  22.646  18.765  1.00  0.00    -0.279 N 
ATOM      5  H6  UNL     1      13.846  22.759  19.517  1.00  0.00     0.189 HD
HETATM    6  C11 UNL     1      15.845  22.542  19.030  1.00  0.00     0.167 A 
HETATM    7  N7  UNL     1      16.404  22.592  20.214  1.00  0.00    -0.306 N 
ATOM      8  H7  UNL     1      15.845  22.713  21.059  1.00  0.00     0.171 HD
HETATM    9  C12 UNL     1      17.820  22.471  20.278  1.00  0.00     0.227 C 
HETATM   10  O2  UNL     1      18.292  21.497  20.860  1.00  0.00    -0.273 OA
HETATM   11  S2  UNL     1      16.484  22.374  17.458  1.00  0.00    -0.038 SA
ENDROOT
BRANCH   9  12
HETATM   12  C13 UNL     1      18.611  23.512  19.639  1.00  0.00     0.130 C 
BRANCH  12  13
HETATM   13  C14 UNL     1      19.809  23.959  20.337  1.00  0.00    -0.022 C 
HETATM   14  C15 UNL     1      20.565  25.123  19.978  1.00  0.00    -0.029 C 
BRANCH  14  15
HETATM   15  C16 UNL     1      21.220  25.354  18.684  1.00  0.00     0.047 C 
BRANCH  15  16
HETATM   16  C17 UNL     1      20.562  26.632  18.087  1.00  0.00     0.128 C 
BRANCH  16  17
HETATM   17  N8  UNL     1      20.660  26.611  16.666  1.00  0.00    -0.361 N 
HETATM   18  C18 UNL     1      21.727  27.370  16.051  1.00  0.00     0.058 A 
HETATM   19  C19 UNL     1      22.860  27.660  16.831  1.00  0.00     0.031 A 
HETATM   20  C23 UNL     1      21.695  27.799  14.749  1.00  0.00     0.061 A 
HETATM   21  C20 UNL     1      23.901  28.365  16.265  1.00  0.00     0.002 A 
HETATM   22  C21 UNL     1      23.824  28.771  14.966  1.00  0.00     0.002 A 
HETATM   23  C22 UNL     1      22.723  28.502  14.171  1.00  0.00     0.032 A 
HETATM   24  N9  UNL     1      20.566  27.491  13.960  1.00  0.00    -0.323 N 
HETATM   25  C24 UNL     1      19.514  26.741  14.582  1.00  0.00     0.250 C 
ATOM     26  H9  UNL     1      20.500  27.790  12.987  1.00  0.00     0.169 HD
HETATM   27  O3  UNL     1      18.325  26.783  14.184  1.00  0.00    -0.270 OA
HETATM   28  C25 UNL     1      19.827  25.858  15.765  1.00  0.00     0.106 C 
HETATM   29  C26 UNL     1      18.564  25.329  16.351  1.00  0.00     0.049 C 
HETATM   30  C27 UNL     1      20.661  24.701  15.246  1.00  0.00     0.049 C 
ENDBRANCH  16  17
ENDBRANCH  15  16
ENDBRANCH  14  15
ENDBRANCH  12  13
ENDBRANCH   9  12
BRANCH   1  31
HETATM   31  C9  UNL     1      14.925  22.456  15.089  1.00  0.00     0.076 C 
BRANCH  31  32
HETATM   32  C8  UNL     1      14.844  21.181  14.356  1.00  0.00     0.080 C 
BRANCH  32  33
HETATM   33  S1  UNL     1      13.206  20.565  14.019  1.00  0.00    -0.168 SA
BRANCH  33  34
HETATM   34  C7  UNL     1      11.914  21.658  14.615  1.00  0.00     0.080 C 
BRANCH  34  35
HETATM   35  C6  UNL     1      10.574  21.007  14.648  1.00  0.00     0.076 C 
BRANCH  35  36
HETATM   36  C5  UNL     1      10.463  19.856  15.569  1.00  0.00     0.070 A 
HETATM   37  N4  UNL     1       9.894  18.671  15.488  1.00  0.00    -0.296 N 
HETATM   38  N3  UNL     1       9.976  17.823  16.423  1.00  0.00    -0.279 N 
ATOM     39  H4  UNL     1       9.370  18.431  14.646  1.00  0.00     0.187 HD
HETATM   40  C4  UNL     1      10.664  18.145  17.526  1.00  0.00     0.169 A 
ATOM     41  H3  UNL     1       9.527  16.911  16.338  1.00  0.00     0.189 HD
HETATM   42  S3  UNL     1      11.187  19.728  17.156  1.00  0.00    -0.038 SA
BRANCH  40  43
HETATM   43  N2  UNL     1      10.900  17.431  18.610  1.00  0.00    -0.288 N 
HETATM   44  C3  UNL     1      11.791  17.989  19.572  1.00  0.00     0.323 C 
HETATM   45  N1  UNL     1      13.204  17.906  19.508  1.00  0.00    -0.343 N 
HETATM   46  O1  UNL     1      11.278  18.597  20.544  1.00  0.00    -0.247 OA
HETATM   47  C1  UNL     1      13.916  17.255  18.429  1.00  0.00     0.154 C 
HETATM   48  C2  UNL     1      14.031  18.480  20.575  1.00  0.00     0.154 C 
ATOM     49  H2  UNL     1      10.463  16.520  18.753  1.00  0.00     0.172 HD
ENDBRANCH  40  43
ENDBRANCH  35  36
ENDBRANCH  34  35
ENDBRANCH  33  34
ENDBRANCH  32  33
ENDBRANCH  31  32
ENDBRANCH   1  31
TORSDOF 12
ENDMDL
MODEL 4
REMARK VINA RESULT: -10.181614970      2.748     10.990
REMARK  12 active torsions:
REMARK  status: ('A' for Active; 'I' for Inactive)
REMARK       I    between atoms: N1_2  and  C3_4 
REMARK       I    between atoms: C3_4  and  N2_6 
REMARK    1  A    between atoms: N2_6  and  C4_8 
REMARK    2  A    between atoms: C5_13  and  C6_14 
REMARK    3  A    between atoms: C6_14  and  C7_15 
REMARK    4  A    between atoms: C7_15  and  S1_16 
REMARK    5  A    between atoms: S1_16  and  C8_17 
REMARK    6  A    between atoms: C8_17  and  C9_18 
REMARK    7  A    between atoms: C9_18  and  C10_19 
REMARK       I    between atoms: N7_25  and  C12_27 
REMARK    8  A    between atoms: C12_27  and  C13_29 
REMARK    9  A    between atoms: C13_29  and  C14_30 
REMARK   10  A    between atoms: C15_31  and  C16_32 
REMARK   11  A    between atoms: C16_32  and  C17_33 
REMARK   12  A    between atoms: C17_33  and  N8_34 
ROOT
HETATM    1  C10 UNL     1      19.711  24.360  20.233  1.00  0.00     0.070 A 
HETATM    2  N5  UNL     1      18.530  24.559  20.726  1.00  0.00    -0.296 N 
ATOM      3  H5  UNL     1      18.447  24.698  21.733  1.00  0.00     0.187 HD
HETATM    4  N6  UNL     1      17.473  24.591  20.035  1.00  0.00    -0.279 N 
ATOM      5  H6  UNL     1      16.565  24.750  20.471  1.00  0.00     0.189 HD
HETATM    6  C11 UNL     1      17.583  24.407  18.703  1.00  0.00     0.167 A 
HETATM    7  N7  UNL     1      16.597  24.386  17.840  1.00  0.00    -0.306 N 
ATOM      8  H7  UNL     1      15.631  24.521  18.137  1.00  0.00     0.171 HD
HETATM    9  C12 UNL     1      16.925  24.167  16.474  1.00  0.00     0.227 C 
HETATM   10  O2  UNL     1      16.691  25.068  15.671  1.00  0.00    -0.273 OA
HETATM   11  S2  UNL     1      19.267  24.197  18.537  1.00  0.00    -0.038 SA
ENDROOT
BRANCH   9  12
HETATM   12  C13 UNL     1      17.524  22.887  16.124  1.00  0.00     0.130 C 
BRANCH  12  13
HETATM   13  C14 UNL     1      16.699  21.950  15.374  1.00  0.00    -0.022 C 
HETATM   14  C15 UNL     1      15.448  21.424  15.838  1.00  0.00    -0.029 C 
BRANCH  14  15
HETATM   15  C16 UNL     1      15.253  20.634  17.060  1.00  0.00     0.047 C 
BRANCH  15  16
HETATM   16  C17 UNL     1      13.872  21.064  17.638  1.00  0.00     0.128 C 
BRANCH  16  17
HETATM   17  N8  UNL     1      13.009  19.934  17.727  1.00  0.00    -0.361 N 
HETATM   18  C18 UNL     1      12.063  19.720  16.654  1.00  0.00     0.058 A 
HETATM   19  C19 UNL     1      12.351  20.290  15.401  1.00  0.00     0.031 A 
HETATM   20  C23 UNL     1      10.917  18.980  16.794  1.00  0.00     0.061 A 
HETATM   21  C20 UNL     1      11.477  20.087  14.355  1.00  0.00     0.002 A 
HETATM   22  C21 UNL     1      10.350  19.342  14.542  1.00  0.00     0.002 A 
HETATM   23  C22 UNL     1      10.037  18.768  15.762  1.00  0.00     0.032 A 
HETATM   24  N9  UNL     1      10.637  18.391  18.046  1.00  0.00    -0.323 N 
HETATM   25  C24 UNL     1      11.582  18.612  19.102  1.00  0.00     0.250 C 
ATOM     26  H9  UNL     1       9.797  17.832  18.194  1.00  0.00     0.169 HD
HETATM   27  O3  UNL     1      11.268  18.550  20.316  1.00  0.00    -0.270 OA
HETATM   28  C25 UNL     1      13.017  18.935  18.764  1.00  0.00     0.106 C 
HETATM   29  C26 UNL     1      13.760  19.301  20.001  1.00  0.00     0.049 C 
HETATM   30  C27 UNL     1      13.624  17.677  18.168  1.00  0.00     0.049 C 
ENDBRANCH  16  17
ENDBRANCH  15  16
ENDBRANCH  14  15
ENDBRANCH  12  13
ENDBRANCH   9  12
BRANCH   1  31
HETATM   31  C9  UNL     1      21.090  24.172  20.711  1.00  0.00     0.076 C 
BRANCH  31  32
HETATM   32  C8  UNL     1      22.008  23.281  19.982  1.00  0.00     0.080 C 
BRANCH  32  33
HETATM   33  S1  UNL     1      23.732  23.730  20.008  1.00  0.00    -0.168 SA
BRANCH  33  34
HETATM   34  C7  UNL     1      24.100  25.018  21.203  1.00  0.00     0.080 C 
BRANCH  34  35
HETATM   35  C6  UNL     1      24.587  26.275  20.569  1.00  0.00     0.076 C 
BRANCH  35  36
HETATM   36  C5  UNL     1      23.797  26.733  19.405  1.00  0.00     0.070 A 
HETATM   37  N4  UNL     1      22.558  27.150  19.249  1.00  0.00    -0.296 N 
HETATM   38  N3  UNL     1      22.118  27.537  18.127  1.00  0.00    -0.279 N 
ATOM     39  H4  UNL     1      21.934  27.162  20.056  1.00  0.00     0.187 HD
HETATM   40  C4  UNL     1      22.941  27.519  17.072  1.00  0.00     0.169 A 
ATOM     41  H3  UNL     1      21.154  27.856  18.030  1.00  0.00     0.189 HD
HETATM   42  S3  UNL     1      24.380  26.918  17.768  1.00  0.00    -0.038 SA
BRANCH  40  43
HETATM   43  N2  UNL     1      22.719  27.884  15.824  1.00  0.00    -0.288 N 
HETATM   44  C3  UNL     1      21.379  27.784  15.349  1.00  0.00     0.323 C 
HETATM   45  N1  UNL     1      20.785  26.599  14.849  1.00  0.00    -0.343 N 
HETATM   46  O1  UNL     1      20.681  28.828  15.380  1.00  0.00    -0.247 OA
HETATM   47  C1  UNL     1      21.475  25.329  14.783  1.00  0.00     0.154 C 
HETATM   48  C2  UNL     1      19.408  26.614  14.343  1.00  0.00     0.154 C 
ATOM     49  H2  UNL     1      23.473  28.223  15.226  1.00  0.00     0.172 HD
ENDBRANCH  40  43
ENDBRANCH  35  36
ENDBRANCH  34  35
ENDBRANCH  33  34
ENDBRANCH  32  33
ENDBRANCH  31  32
ENDBRANCH   1  31
TORSDOF 12
ENDMDL
MODEL 5
REMARK VINA RESULT: -10.094543129      1.611      2.046
REMARK  12 active torsions:
REMARK  status: ('A' for Active; 'I' for Inactive)
REMARK       I    between atoms: N1_2  and  C3_4 
REMARK       I    between atoms: C3_4  and  N2_6 
REMARK    1  A    between atoms: N2_6  and  C4_8 
REMARK    2  A    between atoms: C5_13  and  C6_14 
REMARK    3  A    between atoms: C6_14  and  C7_15 
REMARK    4  A    between atoms: C7_15  and  S1_16 
REMARK    5  A    between atoms: S1_16  and  C8_17 
REMARK    6  A    between atoms: C8_17  and  C9_18 
REMARK    7  A    between atoms: C9_18  and  C10_19 
REMARK       I    between atoms: N7_25  and  C12_27 
REMARK    8  A    between atoms: C12_27  and  C13_29 
REMARK    9  A    between atoms: C13_29  and  C14_30 
REMARK   10  A    between atoms: C15_31  and  C16_32 
REMARK   11  A    between atoms: C16_32  and  C17_33 
REMARK   12  A    between atoms: C17_33  and  N8_34 
ROOT
HETATM    1  C10 UNL     1      16.813  24.014  17.570  1.00  0.00     0.070 A 
HETATM    2  N5  UNL     1      16.614  24.825  18.561  1.00  0.00    -0.296 N 
ATOM      3  H5  UNL     1      16.022  25.640  18.402  1.00  0.00     0.187 HD
HETATM    4  N6  UNL     1      17.107  24.667  19.712  1.00  0.00    -0.279 N 
ATOM      5  H6  UNL     1      16.921  25.335  20.460  1.00  0.00     0.189 HD
HETATM    6  C11 UNL     1      17.889  23.587  19.922  1.00  0.00     0.167 A 
HETATM    7  N7  UNL     1      18.499  23.279  21.041  1.00  0.00    -0.306 N 
ATOM      8  H7  UNL     1      18.411  23.865  21.871  1.00  0.00     0.171 HD
HETATM    9  C12 UNL     1      19.289  22.096  21.052  1.00  0.00     0.227 C 
HETATM   10  O2  UNL     1      18.946  21.179  21.795  1.00  0.00    -0.273 OA
HETATM   11  S2  UNL     1      17.851  22.848  18.386  1.00  0.00    -0.038 SA
ENDROOT
BRANCH   9  12
HETATM   12  C13 UNL     1      20.449  22.055  20.174  1.00  0.00     0.130 C 
BRANCH  12  13
HETATM   13  C14 UNL     1      21.448  23.099  20.344  1.00  0.00    -0.022 C 
HETATM   14  C15 UNL     1      21.336  24.422  19.800  1.00  0.00    -0.029 C 
BRANCH  14  15
HETATM   15  C16 UNL     1      21.216  24.754  18.375  1.00  0.00     0.047 C 
BRANCH  15  16
HETATM   16  C17 UNL     1      21.108  26.305  18.298  1.00  0.00     0.128 C 
BRANCH  16  17
HETATM   17  N8  UNL     1      21.633  26.768  17.058  1.00  0.00    -0.361 N 
HETATM   18  C18 UNL     1      22.976  27.304  17.050  1.00  0.00     0.058 A 
HETATM   19  C19 UNL     1      23.848  26.905  18.079  1.00  0.00     0.031 A 
HETATM   20  C23 UNL     1      23.443  28.160  16.086  1.00  0.00     0.061 A 
HETATM   21  C20 UNL     1      25.140  27.384  18.086  1.00  0.00     0.002 A 
HETATM   22  C21 UNL     1      25.559  28.234  17.106  1.00  0.00     0.002 A 
HETATM   23  C22 UNL     1      24.726  28.647  16.080  1.00  0.00     0.032 A 
HETATM   24  N9  UNL     1      22.574  28.546  15.042  1.00  0.00    -0.323 N 
HETATM   25  C24 UNL     1      21.244  28.010  15.062  1.00  0.00     0.250 C 
ATOM     26  H9  UNL     1      22.879  29.180  14.304  1.00  0.00     0.169 HD
HETATM   27  O3  UNL     1      20.275  28.580  14.504  1.00  0.00    -0.270 OA
HETATM   28  C25 UNL     1      20.975  26.709  15.778  1.00  0.00     0.106 C 
HETATM   29  C26 UNL     1      19.509  26.449  15.822  1.00  0.00     0.049 C 
HETATM   30  C27 UNL     1      21.655  25.614  14.976  1.00  0.00     0.049 C 
ENDBRANCH  16  17
ENDBRANCH  15  16
ENDBRANCH  14  15
ENDBRANCH  12  13
ENDBRANCH   9  12
BRANCH   1  31
HETATM   31  C9  UNL     1      16.498  23.925  16.136  1.00  0.00     0.076 C 
BRANCH  31  32
HETATM   32  C8  UNL     1      16.727  22.665  15.408  1.00  0.00     0.080 C 
BRANCH  32  33
HETATM   33  S1  UNL     1      15.364  22.055  14.435  1.00  0.00    -0.168 SA
BRANCH  33  34
HETATM   34  C7  UNL     1      13.810  22.859  14.832  1.00  0.00     0.080 C 
BRANCH  34  35
HETATM   35  C6  UNL     1      12.626  22.122  14.307  1.00  0.00     0.076 C 
BRANCH  35  36
HETATM   36  C5  UNL     1      11.978  21.212  15.277  1.00  0.00     0.070 A 
HETATM   37  N4  UNL     1      10.771  21.141  15.798  1.00  0.00    -0.296 N 
HETATM   38  N3  UNL     1      10.441  20.218  16.599  1.00  0.00    -0.279 N 
ATOM     39  H4  UNL     1      10.082  21.851  15.550  1.00  0.00     0.187 HD
HETATM   40  C4  UNL     1      11.349  19.289  16.921  1.00  0.00     0.169 A 
ATOM     41  H3  UNL     1       9.500  20.183  16.990  1.00  0.00     0.189 HD
HETATM   42  S3  UNL     1      12.705  19.806  16.019  1.00  0.00    -0.038 SA
BRANCH  40  43
HETATM   43  N2  UNL     1      11.236  18.237  17.709  1.00  0.00    -0.288 N 
HETATM   44  C3  UNL     1      11.831  18.329  19.001  1.00  0.00     0.323 C 
HETATM   45  N1  UNL     1      13.197  18.083  19.280  1.00  0.00    -0.343 N 
HETATM   46  O1  UNL     1      11.081  18.651  19.955  1.00  0.00    -0.247 OA
HETATM   47  C1  UNL     1      14.167  17.729  18.266  1.00  0.00     0.154 C 
HETATM   48  C2  UNL     1      13.701  18.163  20.656  1.00  0.00     0.154 C 
ATOM     49  H2  UNL     1      10.744  17.396  17.406  1.00  0.00     0.172 HD
ENDBRANCH  40  43
ENDBRANCH  35  36
ENDBRANCH  34  35
ENDBRANCH  33  34
ENDBRANCH  32  33
ENDBRANCH  31  32
ENDBRANCH   1  31
TORSDOF 12
ENDMDL
