MODEL 1
REMARK VINA RESULT: -10.663311582      0.000      0.000
REMARK  14 active torsions:
REMARK  status: ('A' for Active; 'I' for Inactive)
REMARK    1  A    between atoms: C2_2  and  C3_3 
REMARK       I    between atoms: C3_3  and  N1_5 
REMARK    2  A    between atoms: N1_5  and  C4_7 
REMARK    3  A    between atoms: C9_12  and  C10_13 
REMARK    4  A    between atoms: C14_19  and  C15_20 
REMARK    5  A    between atoms: C15_20  and  C16_21 
REMARK    6  A    between atoms: C17_22  and  C18_23 
REMARK    7  A    between atoms: C18_23  and  S1_24 
REMARK    8  A    between atoms: S1_24  and  N3_25 
REMARK    9  A    between atoms: N4_32  and  C20_33 
REMARK   10  A    between atoms: C20_33  and  C21_34 
REMARK   11  A    between atoms: C21_34  and  C22_35 
REMARK   12  A    between atoms: C22_35  and  C23_36 
REMARK   13  A    between atoms: C23_36  and  S2_37 
REMARK   14  A    between atoms: S2_37  and  C24_38 
ROOT
HETATM    1  C10 UNL     1      20.157  23.575  19.667  1.00  0.00    -0.007 A 
HETATM    2  C11 UNL     1      20.232  22.266  20.080  1.00  0.00     0.016 A 
HETATM    3  C12 UNL     1      19.087  21.496  20.020  1.00  0.00     0.033 A 
HETATM    4  C13 UNL     1      17.866  21.939  19.577  1.00  0.00     0.059 A 
HETATM    5  N2  UNL     1      16.776  21.126  19.545  1.00  0.00    -0.353 N 
ATOM      6  H2  UNL     1      16.863  20.160  19.859  1.00  0.00     0.166 HD
HETATM    7  C14 UNL     1      15.593  21.568  19.112  1.00  0.00     0.082 A 
HETATM    8  C19 UNL     1      15.529  22.882  18.701  1.00  0.00     0.271 A 
HETATM    9  O4  UNL     1      14.438  23.347  18.285  1.00  0.00    -0.266 OA
HETATM   10  N4  UNL     1      16.606  23.701  18.728  1.00  0.00    -0.311 N 
HETATM   11  C29 UNL     1      17.806  23.252  19.166  1.00  0.00     0.065 A 
HETATM   12  C30 UNL     1      18.933  24.072  19.207  1.00  0.00     0.045 A 
ENDROOT
BRANCH  10  13
HETATM   13  C20 UNL     1      16.456  25.055  18.270  1.00  0.00     0.133 C 
BRANCH  13  14
HETATM   14  C21 UNL     1      17.478  25.378  17.201  1.00  0.00     0.021 C 
BRANCH  14  15
HETATM   15  C22 UNL     1      17.063  24.816  15.844  1.00  0.00     0.012 C 
BRANCH  15  16
HETATM   16  C23 UNL     1      18.010  23.743  15.392  1.00  0.00     0.082 C 
BRANCH  16  17
HETATM   17  S2  UNL     1      17.304  22.132  15.725  1.00  0.00    -0.094 SA
BRANCH  17  18
HETATM   18  C24 UNL     1      15.890  21.734  14.744  1.00  0.00     0.147 A 
HETATM   19  N5  UNL     1      14.832  21.148  15.374  1.00  0.00    -0.341 N 
HETATM   20  C25 UNL     1      13.712  20.788  14.750  1.00  0.00     0.012 A 
ATOM     21  H5  UNL     1      14.902  20.976  16.376  1.00  0.00     0.167 HD
HETATM   22  C26 UNL     1      12.565  20.155  15.427  1.00  0.00     0.068 C 
HETATM   23  C27 UNL     1      13.618  21.021  13.386  1.00  0.00     0.099 A 
HETATM   24  C28 UNL     1      14.686  21.612  12.753  1.00  0.00     0.249 A 
HETATM   25  O5  UNL     1      14.653  21.849  11.512  1.00  0.00    -0.268 OA
HETATM   26  N6  UNL     1      15.801  21.959  13.435  1.00  0.00    -0.304 N 
ATOM     27  H6  UNL     1      16.580  22.397  12.943  1.00  0.00     0.171 HD
ENDBRANCH  17  18
ENDBRANCH  16  17
ENDBRANCH  15  16
ENDBRANCH  14  15
ENDBRANCH  13  14
ENDBRANCH  10  13
BRANCH   7  28
HETATM   28  C15 UNL     1      14.344  20.782  19.004  1.00  0.00     0.090 C 
BRANCH  28  29
HETATM   29  C16 UNL     1      14.336  19.460  19.630  1.00  0.00    -0.020 C 
HETATM   30  C17 UNL     1      14.076  18.214  18.951  1.00  0.00     0.010 C 
BRANCH  30  31
HETATM   31  C18 UNL     1      12.833  17.802  18.314  1.00  0.00     0.131 C 
BRANCH  31  32
HETATM   32  S1  UNL     1      11.261  18.247  18.885  1.00  0.00     0.246 S 
HETATM   33  O2  UNL     1      11.102  18.425  20.345  1.00  0.00    -0.202 OA
HETATM   34  O3  UNL     1      10.723  19.485  18.169  1.00  0.00    -0.202 OA
BRANCH  32  35
HETATM   35  N3  UNL     1      10.105  16.943  18.495  1.00  0.00    -0.325 N 
ATOM     36  H32 UNL     1       9.690  16.791  17.576  1.00  0.00     0.169 HD
ATOM     37  H31 UNL     1       9.934  16.386  19.332  1.00  0.00     0.169 HD
ENDBRANCH  32  35
ENDBRANCH  31  32
ENDBRANCH  30  31
ENDBRANCH  28  29
ENDBRANCH   7  28
BRANCH   1  38
HETATM   38  C9  UNL     1      21.313  24.469  19.691  1.00  0.00     0.044 A 
HETATM   39  C8  UNL     1      22.322  24.319  20.612  1.00  0.00     0.037 A 
HETATM   40  C6  UNL     1      23.434  25.164  20.621  1.00  0.00    -0.056 A 
HETATM   41  C5  UNL     1      23.511  26.159  19.690  1.00  0.00     0.055 A 
HETATM   42  C7  UNL     1      24.529  24.998  21.623  1.00  0.00     0.048 C 
HETATM   43  C4  UNL     1      22.473  26.321  18.735  1.00  0.00     0.108 A 
HETATM   44  N7  UNL     1      21.436  25.469  18.789  1.00  0.00    -0.342 N 
ATOM     45  H7  UNL     1      20.690  25.584  18.103  1.00  0.00     0.167 HD
BRANCH  43  46
HETATM   46  N1  UNL     1      22.655  27.257  17.926  1.00  0.00    -0.310 N 
HETATM   47  C3  UNL     1      21.844  27.706  16.899  1.00  0.00     0.245 C 
HETATM   48  O1  UNL     1      20.601  27.521  16.771  1.00  0.00    -0.268 OA
ATOM     49  H1  UNL     1      23.531  27.766  18.041  1.00  0.00     0.170 HD
BRANCH  47  50
HETATM   50  C2  UNL     1      22.469  28.496  15.811  1.00  0.00     0.064 C 
HETATM   51  C1  UNL     1      21.966  28.441  14.602  1.00  0.00     0.017 C 
ENDBRANCH  47  50
ENDBRANCH  43  46
ENDBRANCH   1  38
TORSDOF 14
ENDMDL
MODEL 2
REMARK VINA RESULT: -10.019764246      3.052     10.813
REMARK  14 active torsions:
REMARK  status: ('A' for Active; 'I' for Inactive)
REMARK    1  A    between atoms: C2_2  and  C3_3 
REMARK       I    between atoms: C3_3  and  N1_5 
REMARK    2  A    between atoms: N1_5  and  C4_7 
REMARK    3  A    between atoms: C9_12  and  C10_13 
REMARK    4  A    between atoms: C14_19  and  C15_20 
REMARK    5  A    between atoms: C15_20  and  C16_21 
REMARK    6  A    between atoms: C17_22  and  C18_23 
REMARK    7  A    between atoms: C18_23  and  S1_24 
REMARK    8  A    between atoms: S1_24  and  N3_25 
REMARK    9  A    between atoms: N4_32  and  C20_33 
REMARK   10  A    between atoms: C20_33  and  C21_34 
REMARK   11  A    between atoms: C21_34  and  C22_35 
REMARK   12  A    between atoms: C22_35  and  C23_36 
REMARK   13  A    between atoms: C23_36  and  S2_37 
REMARK   14  A    between atoms: S2_37  and  C24_38 
ROOT
HETATM    1  C10 UNL     1      14.666  20.774  17.202  1.00  0.00    -0.007 A 
HETATM    2  C11 UNL     1      14.656  21.151  15.880  1.00  0.00     0.016 A 
HETATM    3  C12 UNL     1      15.491  22.180  15.490  1.00  0.00     0.033 A 
HETATM    4  C13 UNL     1      16.336  22.866  16.325  1.00  0.00     0.059 A 
HETATM    5  N2  UNL     1      17.131  23.873  15.874  1.00  0.00    -0.353 N 
ATOM      6  H2  UNL     1      17.101  24.129  14.888  1.00  0.00     0.166 HD
HETATM    7  C14 UNL     1      17.950  24.532  16.697  1.00  0.00     0.082 A 
HETATM    8  C19 UNL     1      17.951  24.147  18.019  1.00  0.00     0.271 A 
HETATM    9  O4  UNL     1      18.704  24.736  18.835  1.00  0.00    -0.266 OA
HETATM   10  N4  UNL     1      17.164  23.146  18.481  1.00  0.00    -0.311 N 
HETATM   11  C29 UNL     1      16.335  22.477  17.647  1.00  0.00     0.065 A 
HETATM   12  C30 UNL     1      15.511  21.443  18.092  1.00  0.00     0.045 A 
ENDROOT
BRANCH  10  13
HETATM   13  C20 UNL     1      17.235  22.799  19.874  1.00  0.00     0.133 C 
BRANCH  13  14
HETATM   14  C21 UNL     1      18.204  21.657  20.095  1.00  0.00     0.021 C 
BRANCH  14  15
HETATM   15  C22 UNL     1      19.394  22.091  20.946  1.00  0.00     0.012 C 
BRANCH  15  16
HETATM   16  C23 UNL     1      20.622  22.275  20.103  1.00  0.00     0.082 C 
BRANCH  16  17
HETATM   17  S2  UNL     1      21.720  23.455  20.881  1.00  0.00    -0.094 SA
BRANCH  17  18
HETATM   18  C24 UNL     1      22.165  24.827  19.862  1.00  0.00     0.147 A 
HETATM   19  N5  UNL     1      23.455  24.896  19.426  1.00  0.00    -0.341 N 
HETATM   20  C25 UNL     1      23.922  25.881  18.663  1.00  0.00     0.012 A 
ATOM     21  H5  UNL     1      24.097  24.152  19.699  1.00  0.00     0.167 HD
HETATM   22  C26 UNL     1      25.317  25.958  18.188  1.00  0.00     0.068 C 
HETATM   23  C27 UNL     1      23.049  26.892  18.291  1.00  0.00     0.099 A 
HETATM   24  C28 UNL     1      21.748  26.822  18.731  1.00  0.00     0.249 A 
HETATM   25  O5  UNL     1      20.911  27.716  18.421  1.00  0.00    -0.268 OA
HETATM   26  N6  UNL     1      21.325  25.797  19.505  1.00  0.00    -0.304 N 
ATOM     27  H6  UNL     1      20.355  25.766  19.819  1.00  0.00     0.171 HD
ENDBRANCH  17  18
ENDBRANCH  16  17
ENDBRANCH  15  16
ENDBRANCH  14  15
ENDBRANCH  13  14
ENDBRANCH  10  13
BRANCH   7  28
HETATM   28  C15 UNL     1      18.879  25.623  16.327  1.00  0.00     0.090 C 
BRANCH  28  29
HETATM   29  C16 UNL     1      19.519  25.534  15.015  1.00  0.00    -0.020 C 
HETATM   30  C17 UNL     1      20.940  25.457  14.780  1.00  0.00     0.010 C 
BRANCH  30  31
HETATM   31  C18 UNL     1      21.938  26.476  15.079  1.00  0.00     0.131 C 
BRANCH  31  32
HETATM   32  S1  UNL     1      21.782  28.140  14.632  1.00  0.00     0.246 S 
HETATM   33  O2  UNL     1      21.727  28.445  13.185  1.00  0.00    -0.202 OA
HETATM   34  O3  UNL     1      20.599  28.811  15.328  1.00  0.00    -0.202 OA
BRANCH  32  35
HETATM   35  N3  UNL     1      23.223  29.035  15.192  1.00  0.00    -0.325 N 
ATOM     36  H32 UNL     1      24.173  28.869  14.861  1.00  0.00     0.169 HD
ATOM     37  H31 UNL     1      22.938  29.727  15.884  1.00  0.00     0.169 HD
ENDBRANCH  32  35
ENDBRANCH  31  32
ENDBRANCH  30  31
ENDBRANCH  28  29
ENDBRANCH   7  28
BRANCH   1  38
HETATM   38  C9  UNL     1      13.821  19.696  17.712  1.00  0.00     0.044 A 
HETATM   39  C8  UNL     1      13.714  19.438  19.058  1.00  0.00     0.037 A 
HETATM   40  C6  UNL     1      12.893  18.418  19.543  1.00  0.00    -0.056 A 
HETATM   41  C5  UNL     1      12.185  17.664  18.652  1.00  0.00     0.055 A 
HETATM   42  C7  UNL     1      12.778  18.140  21.005  1.00  0.00     0.048 C 
HETATM   43  C4  UNL     1      12.290  17.923  17.260  1.00  0.00     0.108 A 
HETATM   44  N7  UNL     1      13.099  18.922  16.870  1.00  0.00    -0.342 N 
ATOM     45  H7  UNL     1      13.176  19.109  15.870  1.00  0.00     0.167 HD
BRANCH  43  46
HETATM   46  N1  UNL     1      11.590  17.178  16.540  1.00  0.00    -0.310 N 
HETATM   47  C3  UNL     1      10.390  17.440  15.903  1.00  0.00     0.245 C 
HETATM   48  O1  UNL     1       9.916  18.573  15.603  1.00  0.00    -0.268 OA
ATOM     49  H1  UNL     1      11.958  16.237  16.402  1.00  0.00     0.170 HD
BRANCH  47  50
HETATM   50  C2  UNL     1       9.541  16.289  15.513  1.00  0.00     0.064 C 
HETATM   51  C1  UNL     1       9.298  15.341  16.384  1.00  0.00     0.017 C 
ENDBRANCH  47  50
ENDBRANCH  43  46
ENDBRANCH   1  38
TORSDOF 14
ENDMDL
MODEL 3
REMARK VINA RESULT: -9.955441184      1.960      2.717
REMARK  14 active torsions:
REMARK  status: ('A' for Active; 'I' for Inactive)
REMARK    1  A    between atoms: C2_2  and  C3_3 
REMARK       I    between atoms: C3_3  and  N1_5 
REMARK    2  A    between atoms: N1_5  and  C4_7 
REMARK    3  A    between atoms: C9_12  and  C10_13 
REMARK    4  A    between atoms: C14_19  and  C15_20 
REMARK    5  A    between atoms: C15_20  and  C16_21 
REMARK    6  A    between atoms: C17_22  and  C18_23 
REMARK    7  A    between atoms: C18_23  and  S1_24 
REMARK    8  A    between atoms: S1_24  and  N3_25 
REMARK    9  A    between atoms: N4_32  and  C20_33 
REMARK   10  A    between atoms: C20_33  and  C21_34 
REMARK   11  A    between atoms: C21_34  and  C22_35 
REMARK   12  A    between atoms: C22_35  and  C23_36 
REMARK   13  A    between atoms: C23_36  and  S2_37 
REMARK   14  A    between atoms: S2_37  and  C24_38 
ROOT
HETATM    1  C10 UNL     1      19.285  24.279  19.122  1.00  0.00    -0.007 A 
HETATM    2  C11 UNL     1      18.798  24.226  20.406  1.00  0.00     0.016 A 
HETATM    3  C12 UNL     1      17.698  23.427  20.654  1.00  0.00     0.033 A 
HETATM    4  C13 UNL     1      17.045  22.676  19.709  1.00  0.00     0.059 A 
HETATM    5  N2  UNL     1      15.965  21.911  20.021  1.00  0.00    -0.353 N 
ATOM      6  H2  UNL     1      15.627  21.893  20.984  1.00  0.00     0.166 HD
HETATM    7  C14 UNL     1      15.338  21.184  19.094  1.00  0.00     0.082 A 
HETATM    8  C19 UNL     1      15.834  21.245  17.811  1.00  0.00     0.271 A 
HETATM    9  O4  UNL     1      15.280  20.580  16.900  1.00  0.00    -0.266 OA
HETATM   10  N4  UNL     1      16.909  22.003  17.487  1.00  0.00    -0.311 N 
HETATM   11  C29 UNL     1      17.545  22.739  18.428  1.00  0.00     0.065 A 
HETATM   12  C30 UNL     1      18.653  23.530  18.125  1.00  0.00     0.045 A 
ENDROOT
BRANCH  10  13
HETATM   13  C20 UNL     1      17.369  22.001  16.125  1.00  0.00     0.133 C 
BRANCH  13  14
HETATM   14  C21 UNL     1      16.561  22.965  15.283  1.00  0.00     0.021 C 
BRANCH  14  15
HETATM   15  C22 UNL     1      15.898  22.258  14.105  1.00  0.00     0.012 C 
BRANCH  15  16
HETATM   16  C23 UNL     1      14.406  22.219  14.272  1.00  0.00     0.082 C 
BRANCH  16  17
HETATM   17  S2  UNL     1      13.759  20.698  13.580  1.00  0.00    -0.094 SA
BRANCH  17  18
HETATM   18  C24 UNL     1      12.177  20.223  14.204  1.00  0.00     0.147 A 
HETATM   19  N5  UNL     1      11.954  18.893  14.408  1.00  0.00    -0.341 N 
HETATM   20  C25 UNL     1      10.804  18.401  14.863  1.00  0.00     0.012 A 
ATOM     21  H5  UNL     1      12.710  18.240  14.201  1.00  0.00     0.167 HD
HETATM   22  C26 UNL     1      10.559  16.964  15.086  1.00  0.00     0.068 C 
HETATM   23  C27 UNL     1       9.777  19.290  15.145  1.00  0.00     0.099 A 
HETATM   24  C28 UNL     1      10.004  20.631  14.939  1.00  0.00     0.249 A 
HETATM   25  O5  UNL     1       9.103  21.484  15.180  1.00  0.00    -0.268 OA
HETATM   26  N6  UNL     1      11.193  21.078  14.475  1.00  0.00    -0.304 N 
ATOM     27  H6  UNL     1      11.336  22.077  14.331  1.00  0.00     0.171 HD
ENDBRANCH  17  18
ENDBRANCH  16  17
ENDBRANCH  15  16
ENDBRANCH  14  15
ENDBRANCH  13  14
ENDBRANCH  10  13
BRANCH   7  28
HETATM   28  C15 UNL     1      14.174  20.296  19.310  1.00  0.00     0.090 C 
BRANCH  28  29
HETATM   29  C16 UNL     1      14.456  18.890  19.598  1.00  0.00    -0.020 C 
HETATM   30  C17 UNL     1      14.108  17.776  18.750  1.00  0.00     0.010 C 
BRANCH  30  31
HETATM   31  C18 UNL     1      12.768  17.324  18.397  1.00  0.00     0.131 C 
BRANCH  31  32
HETATM   32  S1  UNL     1      11.315  18.060  18.982  1.00  0.00     0.246 S 
HETATM   33  O2  UNL     1      11.240  18.338  20.433  1.00  0.00    -0.202 OA
HETATM   34  O3  UNL     1      10.969  19.333  18.212  1.00  0.00    -0.202 OA
BRANCH  32  35
HETATM   35  N3  UNL     1       9.942  16.953  18.698  1.00  0.00    -0.325 N 
ATOM     36  H32 UNL     1       9.193  17.120  18.027  1.00  0.00     0.169 HD
ATOM     37  H31 UNL     1      10.034  16.142  19.309  1.00  0.00     0.169 HD
ENDBRANCH  32  35
ENDBRANCH  31  32
ENDBRANCH  30  31
ENDBRANCH  28  29
ENDBRANCH   7  28
BRANCH   1  38
HETATM   38  C9  UNL     1      20.445  25.093  18.760  1.00  0.00     0.044 A 
HETATM   39  C8  UNL     1      21.636  24.994  19.439  1.00  0.00     0.037 A 
HETATM   40  C6  UNL     1      22.746  25.761  19.079  1.00  0.00    -0.056 A 
HETATM   41  C5  UNL     1      22.637  26.625  18.029  1.00  0.00     0.055 A 
HETATM   42  C7  UNL     1      24.039  25.651  19.819  1.00  0.00     0.048 C 
HETATM   43  C4  UNL     1      21.410  26.733  17.322  1.00  0.00     0.108 A 
HETATM   44  N7  UNL     1      20.386  25.963  17.726  1.00  0.00    -0.342 N 
ATOM     45  H7  UNL     1      19.505  26.039  17.219  1.00  0.00     0.167 HD
BRANCH  43  46
HETATM   46  N1  UNL     1      21.429  27.548  16.373  1.00  0.00    -0.310 N 
HETATM   47  C3  UNL     1      20.674  27.570  15.214  1.00  0.00     0.245 C 
HETATM   48  O1  UNL     1      19.565  27.000  15.015  1.00  0.00    -0.268 OA
ATOM     49  H1  UNL     1      22.100  28.309  16.468  1.00  0.00     0.170 HD
BRANCH  47  50
HETATM   50  C2  UNL     1      21.194  28.339  14.057  1.00  0.00     0.064 C 
HETATM   51  C1  UNL     1      22.488  28.469  13.897  1.00  0.00     0.017 C 
ENDBRANCH  47  50
ENDBRANCH  43  46
ENDBRANCH   1  38
TORSDOF 14
ENDMDL
MODEL 4
REMARK VINA RESULT: -9.913803947      2.702      4.413
REMARK  14 active torsions:
REMARK  status: ('A' for Active; 'I' for Inactive)
REMARK    1  A    between atoms: C2_2  and  C3_3 
REMARK       I    between atoms: C3_3  and  N1_5 
REMARK    2  A    between atoms: N1_5  and  C4_7 
REMARK    3  A    between atoms: C9_12  and  C10_13 
REMARK    4  A    between atoms: C14_19  and  C15_20 
REMARK    5  A    between atoms: C15_20  and  C16_21 
REMARK    6  A    between atoms: C17_22  and  C18_23 
REMARK    7  A    between atoms: C18_23  and  S1_24 
REMARK    8  A    between atoms: S1_24  and  N3_25 
REMARK    9  A    between atoms: N4_32  and  C20_33 
REMARK   10  A    between atoms: C20_33  and  C21_34 
REMARK   11  A    between atoms: C21_34  and  C22_35 
REMARK   12  A    between atoms: C22_35  and  C23_36 
REMARK   13  A    between atoms: C23_36  and  S2_37 
REMARK   14  A    between atoms: S2_37  and  C24_38 
ROOT
HETATM    1  C10 UNL     1      18.745  23.572  16.795  1.00  0.00    -0.007 A 
HETATM    2  C11 UNL     1      19.168  23.163  18.037  1.00  0.00     0.016 A 
HETATM    3  C12 UNL     1      18.454  22.166  18.674  1.00  0.00     0.033 A 
HETATM    4  C13 UNL     1      17.343  21.547  18.162  1.00  0.00     0.059 A 
HETATM    5  N2  UNL     1      16.685  20.572  18.844  1.00  0.00    -0.353 N 
ATOM      6  H2  UNL     1      17.024  20.291  19.764  1.00  0.00     0.166 HD
HETATM    7  C14 UNL     1      15.604  19.976  18.335  1.00  0.00     0.082 A 
HETATM    8  C19 UNL     1      15.188  20.394  17.090  1.00  0.00     0.271 A 
HETATM    9  O4  UNL     1      14.176  19.865  16.567  1.00  0.00    -0.266 OA
HETATM   10  N4  UNL     1      15.834  21.364  16.400  1.00  0.00    -0.311 N 
HETATM   11  C29 UNL     1      16.930  21.967  16.917  1.00  0.00     0.065 A 
HETATM   12  C30 UNL     1      17.616  22.969  16.231  1.00  0.00     0.045 A 
ENDROOT
BRANCH  10  13
HETATM   13  C20 UNL     1      15.340  21.732  15.102  1.00  0.00     0.133 C 
BRANCH  13  14
HETATM   14  C21 UNL     1      14.434  22.942  15.195  1.00  0.00     0.021 C 
BRANCH  14  15
HETATM   15  C22 UNL     1      13.234  22.814  14.262  1.00  0.00     0.012 C 
BRANCH  15  16
HETATM   16  C23 UNL     1      12.986  21.378  13.897  1.00  0.00     0.082 C 
BRANCH  16  17
HETATM   17  S2  UNL     1      11.459  20.817  14.645  1.00  0.00    -0.094 SA
BRANCH  17  18
HETATM   18  C24 UNL     1      11.073  19.121  14.341  1.00  0.00     0.147 A 
HETATM   19  N5  UNL     1      11.674  18.520  13.274  1.00  0.00    -0.341 N 
HETATM   20  C25 UNL     1      11.462  17.253  12.928  1.00  0.00     0.012 A 
ATOM     21  H5  UNL     1      12.322  19.072  12.712  1.00  0.00     0.167 HD
HETATM   22  C26 UNL     1      12.111  16.599  11.776  1.00  0.00     0.068 C 
HETATM   23  C27 UNL     1      10.582  16.503  13.694  1.00  0.00     0.099 A 
HETATM   24  C28 UNL     1       9.976  17.111  14.769  1.00  0.00     0.249 A 
HETATM   25  O5  UNL     1       9.166  16.474  15.501  1.00  0.00    -0.268 OA
HETATM   26  N6  UNL     1      10.228  18.403  15.078  1.00  0.00    -0.304 N 
ATOM     27  H6  UNL     1       9.768  18.831  15.881  1.00  0.00     0.171 HD
ENDBRANCH  17  18
ENDBRANCH  16  17
ENDBRANCH  15  16
ENDBRANCH  14  15
ENDBRANCH  13  14
ENDBRANCH  10  13
BRANCH   7  28
HETATM   28  C15 UNL     1      14.819  18.890  18.963  1.00  0.00     0.090 C 
BRANCH  28  29
HETATM   29  C16 UNL     1      13.783  19.286  19.916  1.00  0.00    -0.020 C 
HETATM   30  C17 UNL     1      12.931  18.382  20.649  1.00  0.00     0.010 C 
BRANCH  30  31
HETATM   31  C18 UNL     1      11.929  17.476  20.100  1.00  0.00     0.131 C 
BRANCH  31  32
HETATM   32  S1  UNL     1      11.219  17.659  18.533  1.00  0.00     0.246 S 
HETATM   33  O2  UNL     1      10.687  18.996  18.188  1.00  0.00    -0.202 OA
HETATM   34  O3  UNL     1      12.158  17.193  17.421  1.00  0.00    -0.202 OA
BRANCH  32  35
HETATM   35  N3  UNL     1       9.788  16.597  18.411  1.00  0.00    -0.325 N 
ATOM     36  H32 UNL     1       9.790  15.596  18.607  1.00  0.00     0.169 HD
ATOM     37  H31 UNL     1       8.983  17.151  18.119  1.00  0.00     0.169 HD
ENDBRANCH  32  35
ENDBRANCH  31  32
ENDBRANCH  30  31
ENDBRANCH  28  29
ENDBRANCH   7  28
BRANCH   1  38
HETATM   38  C9  UNL     1      19.434  24.617  16.040  1.00  0.00     0.044 A 
HETATM   39  C8  UNL     1      18.745  25.533  15.282  1.00  0.00     0.037 A 
HETATM   40  C6  UNL     1      19.406  26.540  14.576  1.00  0.00    -0.056 A 
HETATM   41  C5  UNL     1      20.767  26.609  14.647  1.00  0.00     0.055 A 
HETATM   42  C7  UNL     1      18.655  27.534  13.753  1.00  0.00     0.048 C 
HETATM   43  C4  UNL     1      21.487  25.666  15.428  1.00  0.00     0.108 A 
HETATM   44  N7  UNL     1      20.782  24.726  16.079  1.00  0.00    -0.342 N 
ATOM     45  H7  UNL     1      21.297  24.049  16.640  1.00  0.00     0.167 HD
BRANCH  43  46
HETATM   46  N1  UNL     1      22.727  25.831  15.426  1.00  0.00    -0.310 N 
HETATM   47  C3  UNL     1      23.513  26.617  16.249  1.00  0.00     0.245 C 
HETATM   48  O1  UNL     1      23.216  27.055  17.397  1.00  0.00    -0.268 OA
ATOM     49  H1  UNL     1      23.233  25.308  14.712  1.00  0.00     0.170 HD
BRANCH  47  50
HETATM   50  C2  UNL     1      24.859  27.007  15.764  1.00  0.00     0.064 C 
HETATM   51  C1  UNL     1      25.923  26.487  16.324  1.00  0.00     0.017 C 
ENDBRANCH  47  50
ENDBRANCH  43  46
ENDBRANCH   1  38
TORSDOF 14
ENDMDL
MODEL 5
REMARK VINA RESULT: -9.892625191      3.374     10.561
REMARK  14 active torsions:
REMARK  status: ('A' for Active; 'I' for Inactive)
REMARK    1  A    between atoms: C2_2  and  C3_3 
REMARK       I    between atoms: C3_3  and  N1_5 
REMARK    2  A    between atoms: N1_5  and  C4_7 
REMARK    3  A    between atoms: C9_12  and  C10_13 
REMARK    4  A    between atoms: C14_19  and  C15_20 
REMARK    5  A    between atoms: C15_20  and  C16_21 
REMARK    6  A    between atoms: C17_22  and  C18_23 
REMARK    7  A    between atoms: C18_23  and  S1_24 
REMARK    8  A    between atoms: S1_24  and  N3_25 
REMARK    9  A    between atoms: N4_32  and  C20_33 
REMARK   10  A    between atoms: C20_33  and  C21_34 
REMARK   11  A    between atoms: C21_34  and  C22_35 
REMARK   12  A    between atoms: C22_35  and  C23_36 
REMARK   13  A    between atoms: C23_36  and  S2_37 
REMARK   14  A    between atoms: S2_37  and  C24_38 
ROOT
HETATM    1  C10 UNL     1      16.581  21.847  17.131  1.00  0.00    -0.007 A 
HETATM    2  C11 UNL     1      16.529  21.407  18.433  1.00  0.00     0.016 A 
HETATM    3  C12 UNL     1      17.462  21.898  19.325  1.00  0.00     0.033 A 
HETATM    4  C13 UNL     1      18.449  22.799  19.013  1.00  0.00     0.059 A 
HETATM    5  N2  UNL     1      19.338  23.242  19.942  1.00  0.00    -0.353 N 
ATOM      6  H2  UNL     1      19.273  22.896  20.900  1.00  0.00     0.166 HD
HETATM    7  C14 UNL     1      20.293  24.118  19.626  1.00  0.00     0.082 A 
HETATM    8  C19 UNL     1      20.337  24.552  18.319  1.00  0.00     0.271 A 
HETATM    9  O4  UNL     1      21.218  25.377  17.971  1.00  0.00    -0.266 OA
HETATM   10  N4  UNL     1      19.458  24.119  17.385  1.00  0.00    -0.311 N 
HETATM   11  C29 UNL     1      18.488  23.231  17.706  1.00  0.00     0.065 A 
HETATM   12  C30 UNL     1      17.570  22.766  16.765  1.00  0.00     0.045 A 
ENDROOT
BRANCH  10  13
HETATM   13  C20 UNL     1      19.566  24.631  16.046  1.00  0.00     0.133 C 
BRANCH  13  14
HETATM   14  C21 UNL     1      18.598  25.775  15.828  1.00  0.00     0.021 C 
BRANCH  14  15
HETATM   15  C22 UNL     1      18.922  26.546  14.552  1.00  0.00     0.012 C 
BRANCH  15  16
HETATM   16  C23 UNL     1      20.391  26.484  14.244  1.00  0.00     0.082 C 
BRANCH  16  17
HETATM   17  S2  UNL     1      21.127  28.100  14.475  1.00  0.00    -0.094 SA
BRANCH  17  18
HETATM   18  C24 UNL     1      22.773  28.072  15.115  1.00  0.00     0.147 A 
HETATM   19  N5  UNL     1      23.356  29.270  15.403  1.00  0.00    -0.341 N 
HETATM   20  C25 UNL     1      24.593  29.390  15.880  1.00  0.00     0.012 A 
ATOM     21  H5  UNL     1      22.815  30.120  15.246  1.00  0.00     0.167 HD
HETATM   22  C26 UNL     1      25.228  30.684  16.194  1.00  0.00     0.068 C 
HETATM   23  C27 UNL     1      25.328  28.234  16.094  1.00  0.00     0.099 A 
HETATM   24  C28 UNL     1      24.738  27.026  15.802  1.00  0.00     0.249 A 
HETATM   25  O5  UNL     1      25.362  25.942  15.979  1.00  0.00    -0.268 OA
HETATM   26  N6  UNL     1      23.476  26.961  15.320  1.00  0.00    -0.304 N 
ATOM     27  H6  UNL     1      23.060  26.053  15.113  1.00  0.00     0.171 HD
ENDBRANCH  17  18
ENDBRANCH  16  17
ENDBRANCH  15  16
ENDBRANCH  14  15
ENDBRANCH  13  14
ENDBRANCH  10  13
BRANCH   7  28
HETATM   28  C15 UNL     1      21.299  24.694  20.546  1.00  0.00     0.090 C 
BRANCH  28  29
HETATM   29  C16 UNL     1      22.391  23.817  20.969  1.00  0.00    -0.020 C 
HETATM   30  C17 UNL     1      23.749  24.233  21.219  1.00  0.00     0.010 C 
BRANCH  30  31
HETATM   31  C18 UNL     1      24.698  24.767  20.250  1.00  0.00     0.131 C 
BRANCH  31  32
HETATM   32  S1  UNL     1      24.978  26.457  20.005  1.00  0.00     0.246 S 
HETATM   33  O2  UNL     1      25.094  27.301  21.215  1.00  0.00    -0.202 OA
HETATM   34  O3  UNL     1      26.185  26.711  19.102  1.00  0.00    -0.202 OA
BRANCH  32  35
HETATM   35  N3  UNL     1      23.587  27.162  19.136  1.00  0.00    -0.325 N 
ATOM     36  H32 UNL     1      22.611  27.036  19.404  1.00  0.00     0.169 HD
ATOM     37  H31 UNL     1      23.928  27.703  18.341  1.00  0.00     0.169 HD
ENDBRANCH  32  35
ENDBRANCH  31  32
ENDBRANCH  30  31
ENDBRANCH  28  29
ENDBRANCH   7  28
BRANCH   1  38
HETATM   38  C9  UNL     1      15.638  21.387  16.113  1.00  0.00     0.044 A 
HETATM   39  C8  UNL     1      15.775  21.739  14.792  1.00  0.00     0.037 A 
HETATM   40  C6  UNL     1      14.881  21.283  13.820  1.00  0.00    -0.056 A 
HETATM   41  C5  UNL     1      13.852  20.472  14.200  1.00  0.00     0.055 A 
HETATM   42  C7  UNL     1      15.032  21.667  12.385  1.00  0.00     0.048 C 
HETATM   43  C4  UNL     1      13.703  20.105  15.564  1.00  0.00     0.108 A 
HETATM   44  N7  UNL     1      14.602  20.582  16.441  1.00  0.00    -0.342 N 
ATOM     45  H7  UNL     1      14.497  20.318  17.420  1.00  0.00     0.167 HD
BRANCH  43  46
HETATM   46  N1  UNL     1      12.732  19.352  15.794  1.00  0.00    -0.310 N 
HETATM   47  C3  UNL     1      12.127  19.035  16.998  1.00  0.00     0.245 C 
HETATM   48  O1  UNL     1      12.175  19.696  18.073  1.00  0.00    -0.268 OA
ATOM     49  H1  UNL     1      12.324  18.905  14.973  1.00  0.00     0.170 HD
BRANCH  47  50
HETATM   50  C2  UNL     1      11.324  17.790  17.069  1.00  0.00     0.064 C 
HETATM   51  C1  UNL     1      11.847  16.714  17.604  1.00  0.00     0.017 C 
ENDBRANCH  47  50
ENDBRANCH  43  46
ENDBRANCH   1  38
TORSDOF 14
ENDMDL
