MODEL 1
REMARK VINA RESULT: -9.583854316      0.000      0.000
REMARK  15 active torsions:
REMARK  status: ('A' for Active; 'I' for Inactive)
REMARK    1  A    between atoms: C2_2  and  C3_3 
REMARK    2  A    between atoms: C3_3  and  C4_4 
REMARK    3  A    between atoms: C4_4  and  O1_5 
REMARK    4  A    between atoms: O1_5  and  C5_6 
REMARK       I    between atoms: C5_6  and  N1_8 
REMARK    5  A    between atoms: N1_8  and  C6_10 
REMARK    6  A    between atoms: C6_10  and  C7_11 
REMARK       I    between atoms: C7_11  and  N2_13 
REMARK    7  A    between atoms: N2_13  and  C8_15 
REMARK    8  A    between atoms: C8_15  and  C10_18 
REMARK    9  A    between atoms: C10_18  and  C11_19 
REMARK   10  A    between atoms: C11_19  and  C12_20 
REMARK   11  A    between atoms: C12_20  and  C13_21 
REMARK   12  A    between atoms: C13_21  and  N4_22 
REMARK       I    between atoms: C14_24  and  N6_26 
REMARK       I    between atoms: N6_26  and  C16_28 
REMARK   13  A    between atoms: C16_28  and  O5_30 
REMARK   14  A    between atoms: O5_30  and  C17_31 
REMARK   15  A    between atoms: C17_31  and  C18_32 
ROOT
HETATM    1  C8  UNL     1      16.394  22.503  19.517  1.00  0.00     0.192 C 
HETATM    2  C9  UNL     1      16.537  23.461  18.443  1.00  0.00     0.084 C 
HETATM    3  N3  UNL     1      16.665  24.226  17.562  1.00  0.00    -0.195 NA
ENDROOT
BRANCH   1   4
HETATM    4  N2  UNL     1      16.107  21.180  18.942  1.00  0.00    -0.342 N 
HETATM    5  C7  UNL     1      14.772  20.837  18.611  1.00  0.00     0.248 C 
HETATM    6  O3  UNL     1      13.881  21.715  18.832  1.00  0.00    -0.271 OA
ATOM      7  H2  UNL     1      16.863  20.514  18.782  1.00  0.00     0.163 HD
BRANCH   5   8
HETATM    8  C6  UNL     1      14.371  19.552  18.035  1.00  0.00     0.123 C 
HETATM    9  C23 UNL     1      15.601  18.683  17.911  1.00  0.00     0.042 C 
HETATM   10  C24 UNL     1      15.203  17.282  18.311  1.00  0.00     0.004 C 
HETATM   11  C25 UNL     1      13.690  17.305  18.344  1.00  0.00     0.012 C 
HETATM   12  C26 UNL     1      13.445  18.725  18.875  1.00  0.00    -0.006 C 
HETATM   13  C27 UNL     1      13.687  18.738  20.336  1.00  0.00     0.012 C 
HETATM   14  C30 UNL     1      11.986  19.065  18.722  1.00  0.00     0.012 C 
HETATM   15  C28 UNL     1      12.438  18.011  20.871  1.00  0.00     0.001 C 
HETATM   16  C29 UNL     1      11.354  18.328  19.897  1.00  0.00     0.001 C 
BRANCH   8  17
HETATM   17  N1  UNL     1      13.781  19.821  16.729  1.00  0.00    -0.318 N 
HETATM   18  C5  UNL     1      14.433  20.605  15.724  1.00  0.00     0.361 C 
HETATM   19  O2  UNL     1      15.574  21.121  15.895  1.00  0.00    -0.238 OA
ATOM     20  H1  UNL     1      12.861  19.433  16.522  1.00  0.00     0.166 HD
BRANCH  18  21
HETATM   21  O1  UNL     1      13.839  20.840  14.494  1.00  0.00    -0.304 OA
BRANCH  21  22
HETATM   22  C4  UNL     1      12.537  21.290  14.347  1.00  0.00     0.180 C 
BRANCH  22  23
HETATM   23  C3  UNL     1      11.473  20.250  14.232  1.00  0.00     0.026 C 
BRANCH  23  24
HETATM   24  C2  UNL     1      10.281  20.764  15.056  1.00  0.00    -0.002 C 
HETATM   25  C1  UNL     1       9.269  21.456  14.195  1.00  0.00     0.005 C 
ENDBRANCH  23  24
ENDBRANCH  22  23
ENDBRANCH  21  22
ENDBRANCH  18  21
ENDBRANCH   8  17
ENDBRANCH   5   8
ENDBRANCH   1   4
BRANCH   1  26
HETATM   26  C10 UNL     1      17.685  22.388  20.287  1.00  0.00     0.040 C 
BRANCH  26  27
HETATM   27  C11 UNL     1      18.779  21.953  19.346  1.00  0.00     0.004 C 
BRANCH  27  28
HETATM   28  C12 UNL     1      20.115  22.463  19.863  1.00  0.00     0.020 C 
BRANCH  28  29
HETATM   29  C13 UNL     1      20.284  23.880  19.266  1.00  0.00     0.122 C 
BRANCH  29  30
HETATM   30  N4  UNL     1      19.986  23.866  17.903  1.00  0.00    -0.364 N 
HETATM   31  C14 UNL     1      20.099  24.740  17.006  1.00  0.00     0.194 C 
HETATM   32  N5  UNL     1      19.657  24.285  15.685  1.00  0.00    -0.063 NA
HETATM   33  N6  UNL     1      20.564  26.054  17.076  1.00  0.00    -0.272 N 
HETATM   34  C15 UNL     1      21.007  26.630  18.331  1.00  0.00     0.164 C 
HETATM   35  C16 UNL     1      20.614  26.876  15.888  1.00  0.00     0.369 C 
HETATM   36  O4  UNL     1      20.234  26.368  14.817  1.00  0.00    -0.238 OA
ATOM     37  H4  UNL     1      19.604  22.980  17.572  1.00  0.00     0.162 HD
BRANCH  35  38
HETATM   38  O5  UNL     1      21.071  28.170  15.969  1.00  0.00    -0.301 OA
BRANCH  38  39
HETATM   39  C17 UNL     1      22.243  28.634  15.454  1.00  0.00     0.215 C 
BRANCH  39  40
HETATM   40  C18 UNL     1      23.516  28.457  16.186  1.00  0.00     0.200 A 
HETATM   41  N7  UNL     1      24.453  29.512  16.222  1.00  0.00    -0.355 N 
HETATM   42  C19 UNL     1      25.634  29.135  15.912  1.00  0.00     0.145 A 
ATOM     43  H7  UNL     1      24.213  30.472  16.469  1.00  0.00     0.162 HD
HETATM   44  S1  UNL     1      27.306  29.725  15.709  1.00  0.00    -0.092 SA
HETATM   45  N8  UNL     1      25.680  27.761  15.570  1.00  0.00    -0.296 N 
HETATM   46  C20 UNL     1      27.826  28.326  14.607  1.00  0.00     0.103 C 
HETATM   47  C21 UNL     1      26.965  27.255  15.227  1.00  0.00     0.144 C 
HETATM   48  C22 UNL     1      24.312  27.299  15.705  1.00  0.00     0.250 A 
HETATM   49  O6  UNL     1      23.837  26.166  15.477  1.00  0.00    -0.271 OA
ENDBRANCH  39  40
ENDBRANCH  38  39
ENDBRANCH  35  38
ENDBRANCH  29  30
ENDBRANCH  28  29
ENDBRANCH  27  28
ENDBRANCH  26  27
ENDBRANCH   1  26
TORSDOF 15
ENDMDL
MODEL 2
REMARK VINA RESULT: -9.376967006      1.398      2.057
REMARK  15 active torsions:
REMARK  status: ('A' for Active; 'I' for Inactive)
REMARK    1  A    between atoms: C2_2  and  C3_3 
REMARK    2  A    between atoms: C3_3  and  C4_4 
REMARK    3  A    between atoms: C4_4  and  O1_5 
REMARK    4  A    between atoms: O1_5  and  C5_6 
REMARK       I    between atoms: C5_6  and  N1_8 
REMARK    5  A    between atoms: N1_8  and  C6_10 
REMARK    6  A    between atoms: C6_10  and  C7_11 
REMARK       I    between atoms: C7_11  and  N2_13 
REMARK    7  A    between atoms: N2_13  and  C8_15 
REMARK    8  A    between atoms: C8_15  and  C10_18 
REMARK    9  A    between atoms: C10_18  and  C11_19 
REMARK   10  A    between atoms: C11_19  and  C12_20 
REMARK   11  A    between atoms: C12_20  and  C13_21 
REMARK   12  A    between atoms: C13_21  and  N4_22 
REMARK       I    between atoms: C14_24  and  N6_26 
REMARK       I    between atoms: N6_26  and  C16_28 
REMARK   13  A    between atoms: C16_28  and  O5_30 
REMARK   14  A    between atoms: O5_30  and  C17_31 
REMARK   15  A    between atoms: C17_31  and  C18_32 
ROOT
HETATM    1  C8  UNL     1      16.236  22.626  19.461  1.00  0.00     0.192 C 
HETATM    2  C9  UNL     1      16.500  23.537  18.368  1.00  0.00     0.084 C 
HETATM    3  N3  UNL     1      16.726  24.263  17.475  1.00  0.00    -0.195 NA
ENDROOT
BRANCH   1   4
HETATM    4  N2  UNL     1      16.016  21.278  18.916  1.00  0.00    -0.342 N 
HETATM    5  C7  UNL     1      14.706  20.877  18.550  1.00  0.00     0.248 C 
HETATM    6  O3  UNL     1      13.778  21.728  18.714  1.00  0.00    -0.271 OA
ATOM      7  H2  UNL     1      16.801  20.635  18.802  1.00  0.00     0.163 HD
BRANCH   5   8
HETATM    8  C6  UNL     1      14.372  19.562  17.999  1.00  0.00     0.123 C 
HETATM    9  C23 UNL     1      15.637  18.739  17.933  1.00  0.00     0.042 C 
HETATM   10  C24 UNL     1      15.281  17.334  18.360  1.00  0.00     0.004 C 
HETATM   11  C25 UNL     1      13.768  17.299  18.351  1.00  0.00     0.012 C 
HETATM   12  C26 UNL     1      13.455  18.723  18.836  1.00  0.00    -0.006 C 
HETATM   13  C27 UNL     1      13.653  18.784  20.302  1.00  0.00     0.012 C 
HETATM   14  C30 UNL     1      11.988  19.002  18.633  1.00  0.00     0.012 C 
HETATM   15  C28 UNL     1      12.419  18.024  20.822  1.00  0.00     0.001 C 
HETATM   16  C29 UNL     1      11.352  18.272  19.810  1.00  0.00     0.001 C 
BRANCH   8  17
HETATM   17  N1  UNL     1      13.810  19.773  16.670  1.00  0.00    -0.318 N 
HETATM   18  C5  UNL     1      14.467  20.543  15.657  1.00  0.00     0.361 C 
HETATM   19  O2  UNL     1      15.588  21.097  15.842  1.00  0.00    -0.238 OA
ATOM     20  H1  UNL     1      12.907  19.352  16.452  1.00  0.00     0.166 HD
BRANCH  18  21
HETATM   21  O1  UNL     1      13.899  20.723  14.406  1.00  0.00    -0.304 OA
BRANCH  21  22
HETATM   22  C4  UNL     1      12.549  20.554  14.146  1.00  0.00     0.180 C 
BRANCH  22  23
HETATM   23  C3  UNL     1      11.641  21.669  14.544  1.00  0.00     0.026 C 
BRANCH  23  24
HETATM   24  C2  UNL     1      10.218  21.088  14.534  1.00  0.00    -0.002 C 
HETATM   25  C1  UNL     1      10.002  20.131  15.667  1.00  0.00     0.005 C 
ENDBRANCH  23  24
ENDBRANCH  22  23
ENDBRANCH  21  22
ENDBRANCH  18  21
ENDBRANCH   8  17
ENDBRANCH   5   8
ENDBRANCH   1   4
BRANCH   1  26
HETATM   26  C10 UNL     1      17.432  22.551  20.375  1.00  0.00     0.040 C 
BRANCH  26  27
HETATM   27  C11 UNL     1      18.519  21.757  19.698  1.00  0.00     0.004 C 
BRANCH  27  28
HETATM   28  C12 UNL     1      19.790  21.841  20.527  1.00  0.00     0.020 C 
BRANCH  28  29
HETATM   29  C13 UNL     1      20.863  22.447  19.593  1.00  0.00     0.122 C 
BRANCH  29  30
HETATM   30  N4  UNL     1      21.113  23.774  19.945  1.00  0.00    -0.364 N 
HETATM   31  C14 UNL     1      20.940  24.857  19.330  1.00  0.00     0.194 C 
HETATM   32  N5  UNL     1      21.350  26.038  20.094  1.00  0.00    -0.063 NA
HETATM   33  N6  UNL     1      20.434  25.101  18.051  1.00  0.00    -0.272 N 
HETATM   34  C15 UNL     1      20.017  24.014  17.186  1.00  0.00     0.164 C 
HETATM   35  C16 UNL     1      20.315  26.455  17.559  1.00  0.00     0.369 C 
HETATM   36  O4  UNL     1      20.674  27.378  18.312  1.00  0.00    -0.238 OA
ATOM     37  H4  UNL     1      21.512  23.886  20.877  1.00  0.00     0.162 HD
BRANCH  35  38
HETATM   38  O5  UNL     1      19.820  26.683  16.297  1.00  0.00    -0.301 OA
BRANCH  38  39
HETATM   39  C17 UNL     1      20.293  26.132  15.145  1.00  0.00     0.215 C 
BRANCH  39  40
HETATM   40  C18 UNL     1      21.672  26.407  14.684  1.00  0.00     0.200 A 
HETATM   41  N7  UNL     1      22.760  25.779  15.326  1.00  0.00    -0.355 N 
HETATM   42  C19 UNL     1      23.682  26.601  15.656  1.00  0.00     0.145 A 
ATOM     43  H7  UNL     1      22.807  24.776  15.506  1.00  0.00     0.162 HD
HETATM   44  S1  UNL     1      25.283  26.701  16.437  1.00  0.00    -0.092 SA
HETATM   45  N8  UNL     1      23.342  27.937  15.329  1.00  0.00    -0.296 N 
HETATM   46  C20 UNL     1      25.136  28.504  16.850  1.00  0.00     0.103 C 
HETATM   47  C21 UNL     1      24.324  28.917  15.649  1.00  0.00     0.144 C 
HETATM   48  C22 UNL     1      22.026  27.849  14.726  1.00  0.00     0.250 A 
HETATM   49  O6  UNL     1      21.289  28.767  14.307  1.00  0.00    -0.271 OA
ENDBRANCH  39  40
ENDBRANCH  38  39
ENDBRANCH  35  38
ENDBRANCH  29  30
ENDBRANCH  28  29
ENDBRANCH  27  28
ENDBRANCH  26  27
ENDBRANCH   1  26
TORSDOF 15
ENDMDL
MODEL 3
REMARK VINA RESULT: -9.232145387      1.253      1.480
REMARK  15 active torsions:
REMARK  status: ('A' for Active; 'I' for Inactive)
REMARK    1  A    between atoms: C2_2  and  C3_3 
REMARK    2  A    between atoms: C3_3  and  C4_4 
REMARK    3  A    between atoms: C4_4  and  O1_5 
REMARK    4  A    between atoms: O1_5  and  C5_6 
REMARK       I    between atoms: C5_6  and  N1_8 
REMARK    5  A    between atoms: N1_8  and  C6_10 
REMARK    6  A    between atoms: C6_10  and  C7_11 
REMARK       I    between atoms: C7_11  and  N2_13 
REMARK    7  A    between atoms: N2_13  and  C8_15 
REMARK    8  A    between atoms: C8_15  and  C10_18 
REMARK    9  A    between atoms: C10_18  and  C11_19 
REMARK   10  A    between atoms: C11_19  and  C12_20 
REMARK   11  A    between atoms: C12_20  and  C13_21 
REMARK   12  A    between atoms: C13_21  and  N4_22 
REMARK       I    between atoms: C14_24  and  N6_26 
REMARK       I    between atoms: N6_26  and  C16_28 
REMARK   13  A    between atoms: C16_28  and  O5_30 
REMARK   14  A    between atoms: O5_30  and  C17_31 
REMARK   15  A    between atoms: C17_31  and  C18_32 
ROOT
HETATM    1  C8  UNL     1      16.409  22.464  19.492  1.00  0.00     0.192 C 
HETATM    2  C9  UNL     1      16.548  23.420  18.415  1.00  0.00     0.084 C 
HETATM    3  N3  UNL     1      16.672  24.182  17.532  1.00  0.00    -0.195 NA
ENDROOT
BRANCH   1   4
HETATM    4  N2  UNL     1      16.124  21.139  18.921  1.00  0.00    -0.342 N 
HETATM    5  C7  UNL     1      14.792  20.798  18.578  1.00  0.00     0.248 C 
HETATM    6  O3  UNL     1      13.901  21.680  18.784  1.00  0.00    -0.271 OA
ATOM      7  H2  UNL     1      16.880  20.470  18.774  1.00  0.00     0.163 HD
BRANCH   5   8
HETATM    8  C6  UNL     1      14.393  19.510  18.005  1.00  0.00     0.123 C 
HETATM    9  C23 UNL     1      15.620  18.632  17.912  1.00  0.00     0.042 C 
HETATM   10  C24 UNL     1      15.204  17.237  18.315  1.00  0.00     0.004 C 
HETATM   11  C25 UNL     1      13.691  17.270  18.319  1.00  0.00     0.012 C 
HETATM   12  C26 UNL     1      13.446  18.697  18.834  1.00  0.00    -0.006 C 
HETATM   13  C27 UNL     1      13.659  18.721  20.299  1.00  0.00     0.012 C 
HETATM   14  C30 UNL     1      11.992  19.045  18.650  1.00  0.00     0.012 C 
HETATM   15  C28 UNL     1      12.395  18.006  20.816  1.00  0.00     0.001 C 
HETATM   16  C29 UNL     1      11.333  18.323  19.818  1.00  0.00     0.001 C 
BRANCH   8  17
HETATM   17  N1  UNL     1      13.831  19.773  16.685  1.00  0.00    -0.318 N 
HETATM   18  C5  UNL     1      14.500  20.558  15.693  1.00  0.00     0.361 C 
HETATM   19  O2  UNL     1      15.633  21.083  15.889  1.00  0.00    -0.238 OA
ATOM     20  H1  UNL     1      12.918  19.377  16.459  1.00  0.00     0.166 HD
BRANCH  18  21
HETATM   21  O1  UNL     1      13.931  20.786  14.450  1.00  0.00    -0.304 OA
BRANCH  21  22
HETATM   22  C4  UNL     1      12.583  20.617  14.182  1.00  0.00     0.180 C 
BRANCH  22  23
HETATM   23  C3  UNL     1      11.674  21.735  14.566  1.00  0.00     0.026 C 
BRANCH  23  24
HETATM   24  C2  UNL     1      10.249  21.157  14.545  1.00  0.00    -0.002 C 
HETATM   25  C1  UNL     1      10.020  20.206  15.681  1.00  0.00     0.005 C 
ENDBRANCH  23  24
ENDBRANCH  22  23
ENDBRANCH  21  22
ENDBRANCH  18  21
ENDBRANCH   8  17
ENDBRANCH   5   8
ENDBRANCH   1   4
BRANCH   1  26
HETATM   26  C10 UNL     1      17.702  22.355  20.260  1.00  0.00     0.040 C 
BRANCH  26  27
HETATM   27  C11 UNL     1      18.812  22.006  19.302  1.00  0.00     0.004 C 
BRANCH  27  28
HETATM   28  C12 UNL     1      20.129  22.529  19.853  1.00  0.00     0.020 C 
BRANCH  28  29
HETATM   29  C13 UNL     1      20.272  23.968  19.305  1.00  0.00     0.122 C 
BRANCH  29  30
HETATM   30  N4  UNL     1      19.963  23.996  17.944  1.00  0.00    -0.364 N 
HETATM   31  C14 UNL     1      20.133  24.873  17.058  1.00  0.00     0.194 C 
HETATM   32  N5  UNL     1      19.648  24.472  15.735  1.00  0.00    -0.063 NA
HETATM   33  N6  UNL     1      20.695  26.148  17.143  1.00  0.00    -0.272 N 
HETATM   34  C15 UNL     1      21.189  26.671  18.403  1.00  0.00     0.164 C 
HETATM   35  C16 UNL     1      20.797  26.982  15.967  1.00  0.00     0.369 C 
HETATM   36  O4  UNL     1      20.371  26.520  14.892  1.00  0.00    -0.238 OA
ATOM     37  H4  UNL     1      19.514  23.146  17.604  1.00  0.00     0.162 HD
BRANCH  35  38
HETATM   38  O5  UNL     1      21.348  28.238  16.063  1.00  0.00    -0.301 OA
BRANCH  38  39
HETATM   39  C17 UNL     1      22.300  28.753  15.237  1.00  0.00     0.215 C 
BRANCH  39  40
HETATM   40  C18 UNL     1      23.690  28.246  15.274  1.00  0.00     0.200 A 
HETATM   41  N7  UNL     1      23.941  26.931  15.720  1.00  0.00    -0.355 N 
HETATM   42  C19 UNL     1      24.866  26.875  16.601  1.00  0.00     0.145 A 
ATOM     43  H7  UNL     1      23.440  26.112  15.375  1.00  0.00     0.162 HD
HETATM   44  S1  UNL     1      25.774  25.742  17.637  1.00  0.00    -0.092 SA
HETATM   45  N8  UNL     1      25.362  28.161  16.930  1.00  0.00    -0.296 N 
HETATM   46  C20 UNL     1      26.289  27.037  18.862  1.00  0.00     0.103 C 
HETATM   47  C21 UNL     1      26.408  28.188  17.895  1.00  0.00     0.144 C 
HETATM   48  C22 UNL     1      24.594  29.077  16.109  1.00  0.00     0.250 A 
HETATM   49  O6  UNL     1      24.640  30.325  16.068  1.00  0.00    -0.271 OA
ENDBRANCH  39  40
ENDBRANCH  38  39
ENDBRANCH  35  38
ENDBRANCH  29  30
ENDBRANCH  28  29
ENDBRANCH  27  28
ENDBRANCH  26  27
ENDBRANCH   1  26
TORSDOF 15
ENDMDL
MODEL 4
REMARK VINA RESULT: -9.194537077      2.630      5.057
REMARK  15 active torsions:
REMARK  status: ('A' for Active; 'I' for Inactive)
REMARK    1  A    between atoms: C2_2  and  C3_3 
REMARK    2  A    between atoms: C3_3  and  C4_4 
REMARK    3  A    between atoms: C4_4  and  O1_5 
REMARK    4  A    between atoms: O1_5  and  C5_6 
REMARK       I    between atoms: C5_6  and  N1_8 
REMARK    5  A    between atoms: N1_8  and  C6_10 
REMARK    6  A    between atoms: C6_10  and  C7_11 
REMARK       I    between atoms: C7_11  and  N2_13 
REMARK    7  A    between atoms: N2_13  and  C8_15 
REMARK    8  A    between atoms: C8_15  and  C10_18 
REMARK    9  A    between atoms: C10_18  and  C11_19 
REMARK   10  A    between atoms: C11_19  and  C12_20 
REMARK   11  A    between atoms: C12_20  and  C13_21 
REMARK   12  A    between atoms: C13_21  and  N4_22 
REMARK       I    between atoms: C14_24  and  N6_26 
REMARK       I    between atoms: N6_26  and  C16_28 
REMARK   13  A    between atoms: C16_28  and  O5_30 
REMARK   14  A    between atoms: O5_30  and  C17_31 
REMARK   15  A    between atoms: C17_31  and  C18_32 
ROOT
HETATM    1  C8  UNL     1      18.136  22.842  17.539  1.00  0.00     0.192 C 
HETATM    2  C9  UNL     1      18.290  23.248  18.920  1.00  0.00     0.084 C 
HETATM    3  N3  UNL     1      18.404  23.593  20.035  1.00  0.00    -0.195 NA
ENDROOT
BRANCH   1   4
HETATM    4  N2  UNL     1      16.723  22.977  17.157  1.00  0.00    -0.342 N 
HETATM    5  C7  UNL     1      16.054  21.881  16.557  1.00  0.00     0.248 C 
HETATM    6  O3  UNL     1      16.729  20.819  16.385  1.00  0.00    -0.271 OA
ATOM      7  H2  UNL     1      16.227  23.854  17.321  1.00  0.00     0.163 HD
BRANCH   5   8
HETATM    8  C6  UNL     1      14.651  21.902  16.136  1.00  0.00     0.123 C 
HETATM    9  C23 UNL     1      14.130  23.312  16.296  1.00  0.00     0.042 C 
HETATM   10  C24 UNL     1      13.260  23.607  15.097  1.00  0.00     0.004 C 
HETATM   11  C25 UNL     1      13.038  22.262  14.439  1.00  0.00     0.012 C 
HETATM   12  C26 UNL     1      14.404  21.603  14.688  1.00  0.00    -0.006 C 
HETATM   13  C27 UNL     1      15.383  22.150  13.722  1.00  0.00     0.012 C 
HETATM   14  C30 UNL     1      14.312  20.137  14.357  1.00  0.00     0.012 C 
HETATM   15  C28 UNL     1      14.961  21.454  12.414  1.00  0.00     0.001 C 
HETATM   16  C29 UNL     1      14.395  20.140  12.836  1.00  0.00     0.001 C 
BRANCH   8  17
HETATM   17  N1  UNL     1      13.923  20.970  16.988  1.00  0.00    -0.318 N 
HETATM   18  C5  UNL     1      13.881  21.085  18.415  1.00  0.00     0.361 C 
HETATM   19  O2  UNL     1      14.473  22.008  19.042  1.00  0.00    -0.238 OA
ATOM     20  H1  UNL     1      13.420  20.200  16.547  1.00  0.00     0.166 HD
BRANCH  18  21
HETATM   21  O1  UNL     1      13.178  20.177  19.191  1.00  0.00    -0.304 OA
BRANCH  21  22
HETATM   22  C4  UNL     1      13.783  19.185  19.945  1.00  0.00     0.180 C 
BRANCH  22  23
HETATM   23  C3  UNL     1      13.178  17.823  19.877  1.00  0.00     0.026 C 
BRANCH  23  24
HETATM   24  C2  UNL     1      13.532  17.265  18.489  1.00  0.00    -0.002 C 
HETATM   25  C1  UNL     1      15.012  17.269  18.251  1.00  0.00     0.005 C 
ENDBRANCH  23  24
ENDBRANCH  22  23
ENDBRANCH  21  22
ENDBRANCH  18  21
ENDBRANCH   8  17
ENDBRANCH   5   8
ENDBRANCH   1   4
BRANCH   1  26
HETATM   26  C10 UNL     1      18.935  23.751  16.639  1.00  0.00     0.040 C 
BRANCH  26  27
HETATM   27  C11 UNL     1      18.411  25.157  16.773  1.00  0.00     0.004 C 
BRANCH  27  28
HETATM   28  C12 UNL     1      17.755  25.572  15.465  1.00  0.00     0.020 C 
BRANCH  28  29
HETATM   29  C13 UNL     1      18.917  25.910  14.502  1.00  0.00     0.122 C 
BRANCH  29  30
HETATM   30  N4  UNL     1      19.539  27.095  14.896  1.00  0.00    -0.364 N 
HETATM   31  C14 UNL     1      20.736  27.370  15.166  1.00  0.00     0.194 C 
HETATM   32  N5  UNL     1      20.947  28.771  15.541  1.00  0.00    -0.063 NA
HETATM   33  N6  UNL     1      21.872  26.558  15.172  1.00  0.00    -0.272 N 
HETATM   34  C15 UNL     1      21.791  25.147  14.844  1.00  0.00     0.164 C 
HETATM   35  C16 UNL     1      23.164  27.112  15.510  1.00  0.00     0.369 C 
HETATM   36  O4  UNL     1      23.220  28.324  15.787  1.00  0.00    -0.238 OA
ATOM     37  H4  UNL     1      18.903  27.888  14.980  1.00  0.00     0.162 HD
BRANCH  35  38
HETATM   38  O5  UNL     1      24.275  26.302  15.516  1.00  0.00    -0.301 OA
BRANCH  38  39
HETATM   39  C17 UNL     1      25.536  26.686  15.857  1.00  0.00     0.215 C 
BRANCH  39  40
HETATM   40  C18 UNL     1      26.159  26.214  17.113  1.00  0.00     0.200 A 
HETATM   41  N7  UNL     1      25.876  24.915  17.587  1.00  0.00    -0.355 N 
HETATM   42  C19 UNL     1      25.537  24.900  18.820  1.00  0.00     0.145 A 
ATOM     43  H7  UNL     1      25.936  24.077  17.009  1.00  0.00     0.162 HD
HETATM   44  S1  UNL     1      25.047  23.812  20.145  1.00  0.00    -0.092 SA
HETATM   45  N8  UNL     1      25.492  26.204  19.372  1.00  0.00    -0.296 N 
HETATM   46  C20 UNL     1      24.221  25.144  21.137  1.00  0.00     0.103 C 
HETATM   47  C21 UNL     1      25.138  26.277  20.749  1.00  0.00     0.144 C 
HETATM   48  C22 UNL     1      25.858  27.084  18.279  1.00  0.00     0.250 A 
HETATM   49  O6  UNL     1      25.924  28.332  18.260  1.00  0.00    -0.271 OA
ENDBRANCH  39  40
ENDBRANCH  38  39
ENDBRANCH  35  38
ENDBRANCH  29  30
ENDBRANCH  28  29
ENDBRANCH  27  28
ENDBRANCH  26  27
ENDBRANCH   1  26
TORSDOF 15
ENDMDL
MODEL 5
REMARK VINA RESULT: -9.172630848      2.113      2.856
REMARK  15 active torsions:
REMARK  status: ('A' for Active; 'I' for Inactive)
REMARK    1  A    between atoms: C2_2  and  C3_3 
REMARK    2  A    between atoms: C3_3  and  C4_4 
REMARK    3  A    between atoms: C4_4  and  O1_5 
REMARK    4  A    between atoms: O1_5  and  C5_6 
REMARK       I    between atoms: C5_6  and  N1_8 
REMARK    5  A    between atoms: N1_8  and  C6_10 
REMARK    6  A    between atoms: C6_10  and  C7_11 
REMARK       I    between atoms: C7_11  and  N2_13 
REMARK    7  A    between atoms: N2_13  and  C8_15 
REMARK    8  A    between atoms: C8_15  and  C10_18 
REMARK    9  A    between atoms: C10_18  and  C11_19 
REMARK   10  A    between atoms: C11_19  and  C12_20 
REMARK   11  A    between atoms: C12_20  and  C13_21 
REMARK   12  A    between atoms: C13_21  and  N4_22 
REMARK       I    between atoms: C14_24  and  N6_26 
REMARK       I    between atoms: N6_26  and  C16_28 
REMARK   13  A    between atoms: C16_28  and  O5_30 
REMARK   14  A    between atoms: O5_30  and  C17_31 
REMARK   15  A    between atoms: C17_31  and  C18_32 
ROOT
HETATM    1  C8  UNL     1      16.278  22.505  19.166  1.00  0.00     0.192 C 
HETATM    2  C9  UNL     1      16.790  23.289  18.063  1.00  0.00     0.084 C 
HETATM    3  N3  UNL     1      17.217  23.910  17.164  1.00  0.00    -0.195 NA
ENDROOT
BRANCH   1   4
HETATM    4  N2  UNL     1      15.998  21.141  18.693  1.00  0.00    -0.342 N 
HETATM    5  C7  UNL     1      14.663  20.763  18.402  1.00  0.00     0.248 C 
HETATM    6  O3  UNL     1      13.765  21.647  18.567  1.00  0.00    -0.271 OA
ATOM      7  H2  UNL     1      16.758  20.471  18.574  1.00  0.00     0.163 HD
BRANCH   5   8
HETATM    8  C6  UNL     1      14.268  19.435  17.926  1.00  0.00     0.123 C 
HETATM    9  C23 UNL     1      15.512  18.584  17.809  1.00  0.00     0.042 C 
HETATM   10  C24 UNL     1      15.160  17.204  18.314  1.00  0.00     0.004 C 
HETATM   11  C25 UNL     1      13.649  17.200  18.406  1.00  0.00     0.012 C 
HETATM   12  C26 UNL     1      13.394  18.647  18.854  1.00  0.00    -0.006 C 
HETATM   13  C27 UNL     1      13.691  18.760  20.301  1.00  0.00     0.012 C 
HETATM   14  C30 UNL     1      11.923  18.948  18.738  1.00  0.00     0.012 C 
HETATM   15  C28 UNL     1      12.481  18.045  20.931  1.00  0.00     0.001 C 
HETATM   16  C29 UNL     1      11.353  18.277  19.982  1.00  0.00     0.001 C 
BRANCH   8  17
HETATM   17  N1  UNL     1      13.623  19.608  16.630  1.00  0.00    -0.318 N 
HETATM   18  C5  UNL     1      14.185  20.396  15.576  1.00  0.00     0.361 C 
HETATM   19  O2  UNL     1      15.289  21.001  15.691  1.00  0.00    -0.238 OA
ATOM     20  H1  UNL     1      12.728  19.145  16.467  1.00  0.00     0.166 HD
BRANCH  18  21
HETATM   21  O1  UNL     1      13.540  20.537  14.358  1.00  0.00    -0.304 OA
BRANCH  21  22
HETATM   22  C4  UNL     1      12.197  20.256  14.166  1.00  0.00     0.180 C 
BRANCH  22  23
HETATM   23  C3  UNL     1      11.224  21.317  14.553  1.00  0.00     0.026 C 
BRANCH  23  24
HETATM   24  C2  UNL     1      10.180  20.636  15.452  1.00  0.00    -0.002 C 
HETATM   25  C1  UNL     1      10.225  19.143  15.321  1.00  0.00     0.005 C 
ENDBRANCH  23  24
ENDBRANCH  22  23
ENDBRANCH  21  22
ENDBRANCH  18  21
ENDBRANCH   8  17
ENDBRANCH   5   8
ENDBRANCH   1   4
BRANCH   1  26
HETATM   26  C10 UNL     1      17.316  22.399  20.254  1.00  0.00     0.040 C 
BRANCH  26  27
HETATM   27  C11 UNL     1      18.598  21.877  19.659  1.00  0.00     0.004 C 
BRANCH  27  28
HETATM   28  C12 UNL     1      19.562  21.523  20.780  1.00  0.00     0.020 C 
BRANCH  28  29
HETATM   29  C13 UNL     1      20.848  22.336  20.503  1.00  0.00     0.122 C 
BRANCH  29  30
HETATM   30  N4  UNL     1      20.590  23.701  20.632  1.00  0.00    -0.364 N 
HETATM   31  C14 UNL     1      21.299  24.718  20.417  1.00  0.00     0.194 C 
HETATM   32  N5  UNL     1      20.611  25.982  20.690  1.00  0.00    -0.063 NA
HETATM   33  N6  UNL     1      22.619  24.823  19.974  1.00  0.00    -0.272 N 
HETATM   34  C15 UNL     1      23.415  23.644  19.693  1.00  0.00     0.164 C 
HETATM   35  C16 UNL     1      23.225  26.122  19.786  1.00  0.00     0.369 C 
HETATM   36  O4  UNL     1      22.530  27.125  20.028  1.00  0.00    -0.238 OA
ATOM     37  H4  UNL     1      19.650  23.915  20.963  1.00  0.00     0.162 HD
BRANCH  35  38
HETATM   38  O5  UNL     1      24.527  26.214  19.353  1.00  0.00    -0.301 OA
BRANCH  38  39
HETATM   39  C17 UNL     1      25.037  27.207  18.574  1.00  0.00     0.215 C 
BRANCH  39  40
HETATM   40  C18 UNL     1      24.391  27.576  17.296  1.00  0.00     0.200 A 
HETATM   41  N7  UNL     1      23.062  28.053  17.298  1.00  0.00    -0.355 N 
HETATM   42  C19 UNL     1      22.320  27.451  16.448  1.00  0.00     0.145 A 
ATOM     43  H7  UNL     1      22.730  28.797  17.911  1.00  0.00     0.162 HD
HETATM   44  S1  UNL     1      20.656  27.393  15.806  1.00  0.00    -0.092 SA
HETATM   45  N8  UNL     1      23.021  26.431  15.759  1.00  0.00    -0.296 N 
HETATM   46  C20 UNL     1      20.809  25.665  15.149  1.00  0.00     0.103 C 
HETATM   47  C21 UNL     1      22.270  25.722  14.781  1.00  0.00     0.144 C 
HETATM   48  C22 UNL     1      24.362  26.464  16.312  1.00  0.00     0.250 A 
HETATM   49  O6  UNL     1      25.339  25.730  16.052  1.00  0.00    -0.271 OA
ENDBRANCH  39  40
ENDBRANCH  38  39
ENDBRANCH  35  38
ENDBRANCH  29  30
ENDBRANCH  28  29
ENDBRANCH  27  28
ENDBRANCH  26  27
ENDBRANCH   1  26
TORSDOF 15
ENDMDL
