MODEL 1
REMARK VINA RESULT: -9.002658231      0.000      0.000
REMARK  18 active torsions:
REMARK  status: ('A' for Active; 'I' for Inactive)
REMARK    1  A    between atoms: C2_2  and  C3_3 
REMARK    2  A    between atoms: C3_3  and  C4_4 
REMARK    3  A    between atoms: C4_4  and  C5_5 
REMARK    4  A    between atoms: C5_5  and  C6_6 
REMARK    5  A    between atoms: C6_6  and  C7_7 
REMARK    6  A    between atoms: C7_7  and  C8_8 
REMARK    7  A    between atoms: C8_8  and  C9_9 
REMARK    8  A    between atoms: C9_9  and  C10_10 
REMARK    9  A    between atoms: C10_10  and  C11_11 
REMARK       I    between atoms: C11_11  and  N1_13 
REMARK       I    between atoms: N2_16  and  C14_17 
REMARK   10  A    between atoms: C14_17  and  O3_19 
REMARK   11  A    between atoms: O3_19  and  C15_20 
REMARK   12  A    between atoms: C15_20  and  C16_21 
REMARK       I    between atoms: C16_21  and  N3_23 
REMARK       I    between atoms: N5_34  and  C25_35 
REMARK   13  A    between atoms: C25_35  and  O6_37 
REMARK   14  A    between atoms: O6_37  and  C26_38 
REMARK   15  A    between atoms: C26_38  and  C27_39 
REMARK   16  A    between atoms: C27_39  and  C28_40 
REMARK   17  A    between atoms: C28_40  and  O7_41 
REMARK   18  A    between atoms: C28_40  and  O8_43 
ROOT
HETATM    1  C16 UNL     1      17.240  22.392  17.918  1.00  0.00     0.244 C 
HETATM    2  O4  UNL     1      18.356  22.261  17.309  1.00  0.00    -0.271 OA
HETATM    3  N3  UNL     1      16.077  21.959  17.228  1.00  0.00    -0.349 N 
HETATM    4  C17 UNL     1      16.242  21.426  15.887  1.00  0.00     0.126 C 
HETATM    5  C18 UNL     1      15.661  22.352  14.843  1.00  0.00     0.020 C 
HETATM    6  C19 UNL     1      15.625  21.778  13.471  1.00  0.00     0.003 C 
HETATM    7  C20 UNL     1      14.763  20.581  13.286  1.00  0.00     0.019 C 
HETATM    8  C21 UNL     1      13.301  20.784  13.569  1.00  0.00     0.113 C 
HETATM    9  N4  UNL     1      12.742  19.778  14.409  1.00  0.00    -0.421 N 
ATOM     10  H4  UNL     1      13.253  18.920  14.616  1.00  0.00     0.153 HD
HETATM   11  C22 UNL     1      11.455  20.009  14.946  1.00  0.00     0.118 C 
HETATM   12  C23 UNL     1      11.430  19.866  16.486  1.00  0.00     0.064 C 
HETATM   13  C24 UNL     1      12.578  20.551  17.052  1.00  0.00     0.071 C 
HETATM   14  N5  UNL     1      13.477  19.945  17.942  1.00  0.00    -0.306 N 
HETATM   15  C25 UNL     1      13.660  18.581  18.259  1.00  0.00     0.366 C 
HETATM   16  O5  UNL     1      14.547  18.219  19.120  1.00  0.00    -0.238 OA
HETATM   17  C29 UNL     1      14.373  20.876  18.661  1.00  0.00     0.153 C 
HETATM   18  C30 UNL     1      14.798  22.059  17.874  1.00  0.00     0.146 C 
ENDROOT
BRANCH   1  19
HETATM   19  C15 UNL     1      17.246  22.971  19.263  1.00  0.00     0.283 C 
BRANCH  19  20
HETATM   20  O3  UNL     1      18.058  22.211  20.114  1.00  0.00    -0.295 OA
BRANCH  20  21
HETATM   21  C14 UNL     1      19.442  22.252  20.172  1.00  0.00     0.363 C 
HETATM   22  N2  UNL     1      20.139  23.426  20.538  1.00  0.00    -0.325 N 
HETATM   23  C13 UNL     1      19.429  24.623  20.840  1.00  0.00     0.148 C 
HETATM   24  C31 UNL     1      21.570  23.399  20.619  1.00  0.00     0.148 C 
HETATM   25  C12 UNL     1      20.113  25.797  20.241  1.00  0.00     0.145 C 
HETATM   26  N1  UNL     1      21.281  25.539  19.462  1.00  0.00    -0.349 N 
HETATM   27  C11 UNL     1      21.673  26.520  18.503  1.00  0.00     0.219 C 
HETATM   28  C32 UNL     1      22.099  24.355  19.579  1.00  0.00     0.145 C 
HETATM   29  O1  UNL     1      20.993  27.586  18.364  1.00  0.00    -0.273 OA
HETATM   30  O2  UNL     1      20.060  21.179  19.879  1.00  0.00    -0.238 OA
BRANCH  27  31
HETATM   31  C10 UNL     1      22.877  26.247  17.693  1.00  0.00     0.103 C 
BRANCH  31  32
HETATM   32  C9  UNL     1      23.437  27.491  17.066  1.00  0.00     0.009 C 
BRANCH  32  33
HETATM   33  C8  UNL     1      23.368  27.431  15.586  1.00  0.00     0.000 C 
BRANCH  33  34
HETATM   34  C7  UNL     1      22.776  28.707  14.983  1.00  0.00     0.000 C 
BRANCH  34  35
HETATM   35  C6  UNL     1      21.648  28.384  14.090  1.00  0.00     0.000 C 
BRANCH  35  36
HETATM   36  C5  UNL     1      20.345  27.988  14.687  1.00  0.00     0.000 C 
BRANCH  36  37
HETATM   37  C4  UNL     1      19.792  26.656  14.457  1.00  0.00     0.000 C 
BRANCH  37  38
HETATM   38  C3  UNL     1      19.515  25.728  15.567  1.00  0.00    -0.000 C 
BRANCH  38  39
HETATM   39  C2  UNL     1      20.374  24.485  15.590  1.00  0.00    -0.005 C 
HETATM   40  C1  UNL     1      21.471  24.620  14.537  1.00  0.00     0.005 C 
ENDBRANCH  38  39
ENDBRANCH  37  38
ENDBRANCH  36  37
ENDBRANCH  35  36
ENDBRANCH  34  35
ENDBRANCH  33  34
ENDBRANCH  32  33
ENDBRANCH  31  32
ENDBRANCH  27  31
ENDBRANCH  20  21
ENDBRANCH  19  20
ENDBRANCH   1  19
BRANCH  15  41
HETATM   41  O6  UNL     1      12.974  17.497  17.742  1.00  0.00    -0.304 OA
BRANCH  41  42
HETATM   42  C26 UNL     1      12.110  16.732  18.557  1.00  0.00     0.185 C 
BRANCH  42  43
HETATM   43  C27 UNL     1      10.699  16.913  18.118  1.00  0.00     0.087 C 
BRANCH  43  44
HETATM   44  C28 UNL     1      10.363  16.190  16.840  1.00  0.00     0.256 C 
BRANCH  44  45
HETATM   45  O7  UNL     1       9.509  16.958  16.042  1.00  0.00    -0.371 OA
ATOM     46  H7  UNL     1       9.363  17.814  16.429  1.00  0.00     0.212 HD
ENDBRANCH  44  45
BRANCH  44  47
HETATM   47  O8  UNL     1      11.514  15.904  16.126  1.00  0.00    -0.371 OA
ATOM     48  H8  UNL     1      11.321  15.833  15.198  1.00  0.00     0.212 HD
ENDBRANCH  44  47
ENDBRANCH  43  44
ENDBRANCH  42  43
ENDBRANCH  41  42
ENDBRANCH  15  41
TORSDOF 18
ENDMDL
MODEL 2
REMARK VINA RESULT: -8.977700587      1.000      1.121
REMARK  18 active torsions:
REMARK  status: ('A' for Active; 'I' for Inactive)
REMARK    1  A    between atoms: C2_2  and  C3_3 
REMARK    2  A    between atoms: C3_3  and  C4_4 
REMARK    3  A    between atoms: C4_4  and  C5_5 
REMARK    4  A    between atoms: C5_5  and  C6_6 
REMARK    5  A    between atoms: C6_6  and  C7_7 
REMARK    6  A    between atoms: C7_7  and  C8_8 
REMARK    7  A    between atoms: C8_8  and  C9_9 
REMARK    8  A    between atoms: C9_9  and  C10_10 
REMARK    9  A    between atoms: C10_10  and  C11_11 
REMARK       I    between atoms: C11_11  and  N1_13 
REMARK       I    between atoms: N2_16  and  C14_17 
REMARK   10  A    between atoms: C14_17  and  O3_19 
REMARK   11  A    between atoms: O3_19  and  C15_20 
REMARK   12  A    between atoms: C15_20  and  C16_21 
REMARK       I    between atoms: C16_21  and  N3_23 
REMARK       I    between atoms: N5_34  and  C25_35 
REMARK   13  A    between atoms: C25_35  and  O6_37 
REMARK   14  A    between atoms: O6_37  and  C26_38 
REMARK   15  A    between atoms: C26_38  and  C27_39 
REMARK   16  A    between atoms: C27_39  and  C28_40 
REMARK   17  A    between atoms: C28_40  and  O7_41 
REMARK   18  A    between atoms: C28_40  and  O8_43 
ROOT
HETATM    1  C16 UNL     1      16.891  21.300  18.205  1.00  0.00     0.244 C 
HETATM    2  O4  UNL     1      17.811  21.438  17.329  1.00  0.00    -0.271 OA
HETATM    3  N3  UNL     1      15.562  21.161  17.723  1.00  0.00    -0.349 N 
HETATM    4  C17 UNL     1      15.351  21.207  16.287  1.00  0.00     0.126 C 
HETATM    5  C18 UNL     1      14.621  22.463  15.870  1.00  0.00     0.020 C 
HETATM    6  C19 UNL     1      14.205  22.482  14.442  1.00  0.00     0.003 C 
HETATM    7  C20 UNL     1      13.221  21.444  14.035  1.00  0.00     0.019 C 
HETATM    8  C21 UNL     1      11.895  21.496  14.739  1.00  0.00     0.113 C 
HETATM    9  N4  UNL     1      11.467  20.231  15.235  1.00  0.00    -0.421 N 
ATOM     10  H4  UNL     1      11.934  19.369  14.955  1.00  0.00     0.153 HD
HETATM   11  C22 UNL     1      10.372  20.211  16.130  1.00  0.00     0.118 C 
HETATM   12  C23 UNL     1      10.706  19.467  17.444  1.00  0.00     0.064 C 
HETATM   13  C24 UNL     1      12.012  19.887  17.918  1.00  0.00     0.071 C 
HETATM   14  N5  UNL     1      13.042  18.991  18.240  1.00  0.00    -0.306 N 
HETATM   15  C25 UNL     1      13.173  17.616  17.945  1.00  0.00     0.366 C 
HETATM   16  O5  UNL     1      14.206  16.954  18.340  1.00  0.00    -0.238 OA
HETATM   17  C29 UNL     1      14.164  19.572  19.009  1.00  0.00     0.153 C 
HETATM   18  C30 UNL     1      14.490  20.977  18.661  1.00  0.00     0.146 C 
ENDROOT
BRANCH   1  19
HETATM   19  C15 UNL     1      17.271  21.297  19.618  1.00  0.00     0.283 C 
BRANCH  19  20
HETATM   20  O3  UNL     1      18.067  22.413  19.907  1.00  0.00    -0.295 OA
BRANCH  20  21
HETATM   21  C14 UNL     1      19.448  22.421  20.024  1.00  0.00     0.363 C 
HETATM   22  N2  UNL     1      20.156  23.577  20.427  1.00  0.00    -0.325 N 
HETATM   23  C13 UNL     1      19.462  24.788  20.707  1.00  0.00     0.148 C 
HETATM   24  C31 UNL     1      21.581  23.515  20.568  1.00  0.00     0.148 C 
HETATM   25  C12 UNL     1      20.198  25.949  20.145  1.00  0.00     0.145 C 
HETATM   26  N1  UNL     1      21.391  25.667  19.415  1.00  0.00    -0.349 N 
HETATM   27  C11 UNL     1      21.847  26.644  18.480  1.00  0.00     0.219 C 
HETATM   28  C32 UNL     1      22.177  24.464  19.558  1.00  0.00     0.145 C 
HETATM   29  O1  UNL     1      21.199  27.726  18.318  1.00  0.00    -0.273 OA
HETATM   30  O2  UNL     1      20.052  21.335  19.751  1.00  0.00    -0.238 OA
BRANCH  27  31
HETATM   31  C10 UNL     1      23.078  26.348  17.719  1.00  0.00     0.103 C 
BRANCH  31  32
HETATM   32  C9  UNL     1      23.435  27.445  16.760  1.00  0.00     0.009 C 
BRANCH  32  33
HETATM   33  C8  UNL     1      22.953  27.147  15.390  1.00  0.00     0.000 C 
BRANCH  33  34
HETATM   34  C7  UNL     1      22.541  28.412  14.633  1.00  0.00     0.000 C 
BRANCH  34  35
HETATM   35  C6  UNL     1      21.214  28.238  14.016  1.00  0.00     0.000 C 
BRANCH  35  36
HETATM   36  C5  UNL     1      20.090  27.736  14.850  1.00  0.00     0.000 C 
BRANCH  36  37
HETATM   37  C4  UNL     1      19.293  26.591  14.417  1.00  0.00     0.000 C 
BRANCH  37  38
HETATM   38  C3  UNL     1      18.489  25.801  15.367  1.00  0.00    -0.000 C 
BRANCH  38  39
HETATM   39  C2  UNL     1      19.282  25.097  16.443  1.00  0.00    -0.005 C 
HETATM   40  C1  UNL     1      20.263  24.130  15.785  1.00  0.00     0.005 C 
ENDBRANCH  38  39
ENDBRANCH  37  38
ENDBRANCH  36  37
ENDBRANCH  35  36
ENDBRANCH  34  35
ENDBRANCH  33  34
ENDBRANCH  32  33
ENDBRANCH  31  32
ENDBRANCH  27  31
ENDBRANCH  20  21
ENDBRANCH  19  20
ENDBRANCH   1  19
BRANCH  15  41
HETATM   41  O6  UNL     1      12.290  16.817  17.243  1.00  0.00    -0.304 OA
BRANCH  41  42
HETATM   42  C26 UNL     1      11.238  16.146  17.905  1.00  0.00     0.185 C 
BRANCH  42  43
HETATM   43  C27 UNL     1      10.685  15.074  17.032  1.00  0.00     0.087 C 
BRANCH  43  44
HETATM   44  C28 UNL     1      10.234  15.564  15.680  1.00  0.00     0.256 C 
BRANCH  44  45
HETATM   45  O7  UNL     1       9.475  16.732  15.801  1.00  0.00    -0.371 OA
ATOM     46  H7  UNL     1       9.685  17.347  15.108  1.00  0.00     0.212 HD
ENDBRANCH  44  45
BRANCH  44  47
HETATM   47  O8  UNL     1      11.325  15.817  14.866  1.00  0.00    -0.371 OA
ATOM     48  H8  UNL     1      11.105  16.462  14.205  1.00  0.00     0.212 HD
ENDBRANCH  44  47
ENDBRANCH  43  44
ENDBRANCH  42  43
ENDBRANCH  41  42
ENDBRANCH  15  41
TORSDOF 18
ENDMDL
MODEL 3
REMARK VINA RESULT: -8.793651142      0.869      1.062
REMARK  18 active torsions:
REMARK  status: ('A' for Active; 'I' for Inactive)
REMARK    1  A    between atoms: C2_2  and  C3_3 
REMARK    2  A    between atoms: C3_3  and  C4_4 
REMARK    3  A    between atoms: C4_4  and  C5_5 
REMARK    4  A    between atoms: C5_5  and  C6_6 
REMARK    5  A    between atoms: C6_6  and  C7_7 
REMARK    6  A    between atoms: C7_7  and  C8_8 
REMARK    7  A    between atoms: C8_8  and  C9_9 
REMARK    8  A    between atoms: C9_9  and  C10_10 
REMARK    9  A    between atoms: C10_10  and  C11_11 
REMARK       I    between atoms: C11_11  and  N1_13 
REMARK       I    between atoms: N2_16  and  C14_17 
REMARK   10  A    between atoms: C14_17  and  O3_19 
REMARK   11  A    between atoms: O3_19  and  C15_20 
REMARK   12  A    between atoms: C15_20  and  C16_21 
REMARK       I    between atoms: C16_21  and  N3_23 
REMARK       I    between atoms: N5_34  and  C25_35 
REMARK   13  A    between atoms: C25_35  and  O6_37 
REMARK   14  A    between atoms: O6_37  and  C26_38 
REMARK   15  A    between atoms: C26_38  and  C27_39 
REMARK   16  A    between atoms: C27_39  and  C28_40 
REMARK   17  A    between atoms: C28_40  and  O7_41 
REMARK   18  A    between atoms: C28_40  and  O8_43 
ROOT
HETATM    1  C16 UNL     1      16.855  22.751  17.261  1.00  0.00     0.244 C 
HETATM    2  O4  UNL     1      17.968  22.649  16.642  1.00  0.00    -0.271 OA
HETATM    3  N3  UNL     1      15.724  22.145  16.652  1.00  0.00    -0.349 N 
HETATM    4  C17 UNL     1      15.916  21.479  15.375  1.00  0.00     0.126 C 
HETATM    5  C18 UNL     1      15.239  22.227  14.249  1.00  0.00     0.020 C 
HETATM    6  C19 UNL     1      15.234  21.501  12.951  1.00  0.00     0.003 C 
HETATM    7  C20 UNL     1      14.478  20.220  12.922  1.00  0.00     0.019 C 
HETATM    8  C21 UNL     1      13.009  20.327  13.218  1.00  0.00     0.113 C 
HETATM    9  N4  UNL     1      12.554  19.378  14.179  1.00  0.00    -0.421 N 
ATOM     10  H4  UNL     1      13.142  18.596  14.467  1.00  0.00     0.153 HD
HETATM   11  C22 UNL     1      11.260  19.556  14.718  1.00  0.00     0.118 C 
HETATM   12  C23 UNL     1      11.270  19.587  16.265  1.00  0.00     0.064 C 
HETATM   13  C24 UNL     1      12.362  20.428  16.722  1.00  0.00     0.071 C 
HETATM   14  N5  UNL     1      13.325  20.007  17.651  1.00  0.00    -0.306 N 
HETATM   15  C25 UNL     1      13.632  18.708  18.113  1.00  0.00     0.366 C 
HETATM   16  O5  UNL     1      14.561  18.524  18.987  1.00  0.00    -0.238 OA
HETATM   17  C29 UNL     1      14.145  21.088  18.240  1.00  0.00     0.153 C 
HETATM   18  C30 UNL     1      14.452  22.206  17.315  1.00  0.00     0.146 C 
ENDROOT
BRANCH   1  19
HETATM   19  C15 UNL     1      16.830  23.478  18.532  1.00  0.00     0.283 C 
BRANCH  19  20
HETATM   20  O3  UNL     1      17.369  22.686  19.553  1.00  0.00    -0.295 OA
BRANCH  20  21
HETATM   21  C14 UNL     1      18.702  22.330  19.691  1.00  0.00     0.363 C 
HETATM   22  N2  UNL     1      19.613  23.122  20.428  1.00  0.00    -0.325 N 
HETATM   23  C13 UNL     1      19.185  24.336  21.038  1.00  0.00     0.148 C 
HETATM   24  C31 UNL     1      20.970  22.684  20.570  1.00  0.00     0.148 C 
HETATM   25  C12 UNL     1      20.208  25.397  20.854  1.00  0.00     0.145 C 
HETATM   26  N1  UNL     1      21.367  25.054  20.094  1.00  0.00    -0.349 N 
HETATM   27  C11 UNL     1      22.109  26.115  19.495  1.00  0.00     0.219 C 
HETATM   28  C32 UNL     1      21.848  23.708  19.893  1.00  0.00     0.145 C 
HETATM   29  O1  UNL     1      21.735  27.322  19.646  1.00  0.00    -0.273 OA
HETATM   30  O2  UNL     1      19.069  21.253  19.123  1.00  0.00    -0.238 OA
BRANCH  27  31
HETATM   31  C10 UNL     1      23.303  25.759  18.703  1.00  0.00     0.103 C 
BRANCH  31  32
HETATM   32  C9  UNL     1      23.861  26.931  17.950  1.00  0.00     0.009 C 
BRANCH  32  33
HETATM   33  C8  UNL     1      24.210  26.565  16.556  1.00  0.00     0.000 C 
BRANCH  33  34
HETATM   34  C7  UNL     1      22.987  26.556  15.636  1.00  0.00     0.000 C 
BRANCH  34  35
HETATM   35  C6  UNL     1      22.812  27.871  14.994  1.00  0.00     0.000 C 
BRANCH  35  36
HETATM   36  C5  UNL     1      21.510  28.193  14.351  1.00  0.00     0.000 C 
BRANCH  36  37
HETATM   37  C4  UNL     1      20.250  27.856  15.007  1.00  0.00     0.000 C 
BRANCH  37  38
HETATM   38  C3  UNL     1      19.311  26.878  14.430  1.00  0.00    -0.000 C 
BRANCH  38  39
HETATM   39  C2  UNL     1      18.837  25.807  15.386  1.00  0.00    -0.005 C 
HETATM   40  C1  UNL     1      19.537  25.996  16.729  1.00  0.00     0.005 C 
ENDBRANCH  38  39
ENDBRANCH  37  38
ENDBRANCH  36  37
ENDBRANCH  35  36
ENDBRANCH  34  35
ENDBRANCH  33  34
ENDBRANCH  32  33
ENDBRANCH  31  32
ENDBRANCH  27  31
ENDBRANCH  20  21
ENDBRANCH  19  20
ENDBRANCH   1  19
BRANCH  15  41
HETATM   41  O6  UNL     1      13.037  17.518  17.738  1.00  0.00    -0.304 OA
BRANCH  41  42
HETATM   42  C26 UNL     1      12.184  16.824  18.625  1.00  0.00     0.185 C 
BRANCH  42  43
HETATM   43  C27 UNL     1      10.771  16.947  18.176  1.00  0.00     0.087 C 
BRANCH  43  44
HETATM   44  C28 UNL     1      10.428  16.072  16.999  1.00  0.00     0.256 C 
BRANCH  44  45
HETATM   45  O7  UNL     1       9.328  16.582  16.301  1.00  0.00    -0.371 OA
ATOM     46  H7  UNL     1       8.534  16.117  16.534  1.00  0.00     0.212 HD
ENDBRANCH  44  45
BRANCH  44  47
HETATM   47  O8  UNL     1      11.506  15.975  16.135  1.00  0.00    -0.371 OA
ATOM     48  H8  UNL     1      11.311  15.375  15.425  1.00  0.00     0.212 HD
ENDBRANCH  44  47
ENDBRANCH  43  44
ENDBRANCH  42  43
ENDBRANCH  41  42
ENDBRANCH  15  41
TORSDOF 18
ENDMDL
MODEL 4
REMARK VINA RESULT: -8.664010371      2.159     11.429
REMARK  18 active torsions:
REMARK  status: ('A' for Active; 'I' for Inactive)
REMARK    1  A    between atoms: C2_2  and  C3_3 
REMARK    2  A    between atoms: C3_3  and  C4_4 
REMARK    3  A    between atoms: C4_4  and  C5_5 
REMARK    4  A    between atoms: C5_5  and  C6_6 
REMARK    5  A    between atoms: C6_6  and  C7_7 
REMARK    6  A    between atoms: C7_7  and  C8_8 
REMARK    7  A    between atoms: C8_8  and  C9_9 
REMARK    8  A    between atoms: C9_9  and  C10_10 
REMARK    9  A    between atoms: C10_10  and  C11_11 
REMARK       I    between atoms: C11_11  and  N1_13 
REMARK       I    between atoms: N2_16  and  C14_17 
REMARK   10  A    between atoms: C14_17  and  O3_19 
REMARK   11  A    between atoms: O3_19  and  C15_20 
REMARK   12  A    between atoms: C15_20  and  C16_21 
REMARK       I    between atoms: C16_21  and  N3_23 
REMARK       I    between atoms: N5_34  and  C25_35 
REMARK   13  A    between atoms: C25_35  and  O6_37 
REMARK   14  A    between atoms: O6_37  and  C26_38 
REMARK   15  A    between atoms: C26_38  and  C27_39 
REMARK   16  A    between atoms: C27_39  and  C28_40 
REMARK   17  A    between atoms: C28_40  and  O7_41 
REMARK   18  A    between atoms: C28_40  and  O8_43 
ROOT
HETATM    1  C16 UNL     1      16.434  22.597  17.672  1.00  0.00     0.244 C 
HETATM    2  O4  UNL     1      16.480  21.324  17.775  1.00  0.00    -0.271 OA
HETATM    3  N3  UNL     1      17.553  23.322  18.164  1.00  0.00    -0.349 N 
HETATM    4  C17 UNL     1      18.643  22.568  18.758  1.00  0.00     0.126 C 
HETATM    5  C18 UNL     1      18.730  22.796  20.250  1.00  0.00     0.020 C 
HETATM    6  C19 UNL     1      19.938  22.206  20.887  1.00  0.00     0.003 C 
HETATM    7  C20 UNL     1      21.246  22.762  20.447  1.00  0.00     0.019 C 
HETATM    8  C21 UNL     1      21.448  24.227  20.708  1.00  0.00     0.113 C 
HETATM    9  N4  UNL     1      21.935  24.943  19.575  1.00  0.00    -0.421 N 
ATOM     10  H4  UNL     1      22.286  24.452  18.753  1.00  0.00     0.153 HD
HETATM   11  C22 UNL     1      21.914  26.355  19.630  1.00  0.00     0.118 C 
HETATM   12  C23 UNL     1      21.174  26.975  18.421  1.00  0.00     0.064 C 
HETATM   13  C24 UNL     1      19.939  26.247  18.187  1.00  0.00     0.071 C 
HETATM   14  N5  UNL     1      19.585  25.709  16.941  1.00  0.00    -0.306 N 
HETATM   15  C25 UNL     1      20.372  25.496  15.788  1.00  0.00     0.366 C 
HETATM   16  O5  UNL     1      19.853  24.989  14.723  1.00  0.00    -0.238 OA
HETATM   17  C29 UNL     1      18.169  25.303  16.812  1.00  0.00     0.153 C 
HETATM   18  C30 UNL     1      17.567  24.753  18.052  1.00  0.00     0.146 C 
ENDROOT
BRANCH   1  19
HETATM   19  C15 UNL     1      15.248  23.204  17.066  1.00  0.00     0.283 C 
BRANCH  19  20
HETATM   20  O3  UNL     1      15.380  23.238  15.672  1.00  0.00    -0.295 OA
BRANCH  20  21
HETATM   21  C14 UNL     1      15.207  22.166  14.811  1.00  0.00     0.363 C 
HETATM   22  N2  UNL     1      13.975  21.921  14.160  1.00  0.00    -0.325 N 
HETATM   23  C13 UNL     1      12.855  22.769  14.394  1.00  0.00     0.148 C 
HETATM   24  C31 UNL     1      13.866  20.821  13.250  1.00  0.00     0.148 C 
HETATM   25  C12 UNL     1      11.615  21.964  14.531  1.00  0.00     0.145 C 
HETATM   26  N1  UNL     1      11.753  20.545  14.456  1.00  0.00    -0.349 N 
HETATM   27  C11 UNL     1      10.729  19.745  15.044  1.00  0.00     0.219 C 
HETATM   28  C32 UNL     1      12.853  19.860  13.821  1.00  0.00     0.145 C 
HETATM   29  O1  UNL     1       9.731  20.295  15.610  1.00  0.00    -0.273 OA
HETATM   30  O2  UNL     1      16.213  21.408  14.629  1.00  0.00    -0.238 OA
BRANCH  27  31
HETATM   31  C10 UNL     1      10.876  18.277  14.973  1.00  0.00     0.103 C 
BRANCH  31  32
HETATM   32  C9  UNL     1      10.422  17.595  16.231  1.00  0.00     0.009 C 
BRANCH  32  33
HETATM   33  C8  UNL     1      11.504  16.775  16.825  1.00  0.00     0.000 C 
BRANCH  33  34
HETATM   34  C7  UNL     1      11.333  16.598  18.336  1.00  0.00     0.000 C 
BRANCH  34  35
HETATM   35  C6  UNL     1      11.073  17.896  18.984  1.00  0.00     0.000 C 
BRANCH  35  36
HETATM   36  C5  UNL     1      11.799  18.236  20.236  1.00  0.00     0.000 C 
BRANCH  36  37
HETATM   37  C4  UNL     1      13.256  18.158  20.298  1.00  0.00     0.000 C 
BRANCH  37  38
HETATM   38  C3  UNL     1      14.116  19.117  19.581  1.00  0.00    -0.000 C 
BRANCH  38  39
HETATM   39  C2  UNL     1      14.596  18.654  18.225  1.00  0.00    -0.005 C 
HETATM   40  C1  UNL     1      15.023  17.192  18.322  1.00  0.00     0.005 C 
ENDBRANCH  38  39
ENDBRANCH  37  38
ENDBRANCH  36  37
ENDBRANCH  35  36
ENDBRANCH  34  35
ENDBRANCH  33  34
ENDBRANCH  32  33
ENDBRANCH  31  32
ENDBRANCH  27  31
ENDBRANCH  20  21
ENDBRANCH  19  20
ENDBRANCH   1  19
BRANCH  15  41
HETATM   41  O6  UNL     1      21.716  25.774  15.622  1.00  0.00    -0.304 OA
BRANCH  41  42
HETATM   42  C26 UNL     1      22.144  26.767  14.713  1.00  0.00     0.185 C 
BRANCH  42  43
HETATM   43  C27 UNL     1      22.848  27.857  15.441  1.00  0.00     0.087 C 
BRANCH  43  44
HETATM   44  C28 UNL     1      24.217  27.472  15.936  1.00  0.00     0.256 C 
BRANCH  44  45
HETATM   45  O7  UNL     1      24.431  27.952  17.233  1.00  0.00    -0.371 OA
ATOM     46  H7  UNL     1      24.408  27.243  17.864  1.00  0.00     0.212 HD
ENDBRANCH  44  45
BRANCH  44  47
HETATM   47  O8  UNL     1      24.366  26.096  15.933  1.00  0.00    -0.371 OA
ATOM     48  H8  UNL     1      24.966  25.826  15.248  1.00  0.00     0.212 HD
ENDBRANCH  44  47
ENDBRANCH  43  44
ENDBRANCH  42  43
ENDBRANCH  41  42
ENDBRANCH  15  41
TORSDOF 18
ENDMDL
MODEL 5
REMARK VINA RESULT: -8.560242270      2.106     11.273
REMARK  18 active torsions:
REMARK  status: ('A' for Active; 'I' for Inactive)
REMARK    1  A    between atoms: C2_2  and  C3_3 
REMARK    2  A    between atoms: C3_3  and  C4_4 
REMARK    3  A    between atoms: C4_4  and  C5_5 
REMARK    4  A    between atoms: C5_5  and  C6_6 
REMARK    5  A    between atoms: C6_6  and  C7_7 
REMARK    6  A    between atoms: C7_7  and  C8_8 
REMARK    7  A    between atoms: C8_8  and  C9_9 
REMARK    8  A    between atoms: C9_9  and  C10_10 
REMARK    9  A    between atoms: C10_10  and  C11_11 
REMARK       I    between atoms: C11_11  and  N1_13 
REMARK       I    between atoms: N2_16  and  C14_17 
REMARK   10  A    between atoms: C14_17  and  O3_19 
REMARK   11  A    between atoms: O3_19  and  C15_20 
REMARK   12  A    between atoms: C15_20  and  C16_21 
REMARK       I    between atoms: C16_21  and  N3_23 
REMARK       I    between atoms: N5_34  and  C25_35 
REMARK   13  A    between atoms: C25_35  and  O6_37 
REMARK   14  A    between atoms: O6_37  and  C26_38 
REMARK   15  A    between atoms: C26_38  and  C27_39 
REMARK   16  A    between atoms: C27_39  and  C28_40 
REMARK   17  A    between atoms: C28_40  and  O7_41 
REMARK   18  A    between atoms: C28_40  and  O8_43 
ROOT
HETATM    1  C16 UNL     1      16.045  22.335  18.099  1.00  0.00     0.244 C 
HETATM    2  O4  UNL     1      16.031  21.070  18.275  1.00  0.00    -0.271 OA
HETATM    3  N3  UNL     1      17.216  23.027  18.507  1.00  0.00    -0.349 N 
HETATM    4  C17 UNL     1      18.289  22.253  19.106  1.00  0.00     0.126 C 
HETATM    5  C18 UNL     1      18.445  22.562  20.577  1.00  0.00     0.020 C 
HETATM    6  C19 UNL     1      19.646  21.948  21.204  1.00  0.00     0.003 C 
HETATM    7  C20 UNL     1      20.962  22.409  20.686  1.00  0.00     0.019 C 
HETATM    8  C21 UNL     1      21.246  23.875  20.852  1.00  0.00     0.113 C 
HETATM    9  N4  UNL     1      21.724  24.498  19.663  1.00  0.00    -0.421 N 
ATOM     10  H4  UNL     1      22.019  23.943  18.859  1.00  0.00     0.153 HD
HETATM   11  C22 UNL     1      21.776  25.910  19.635  1.00  0.00     0.118 C 
HETATM   12  C23 UNL     1      21.021  26.498  18.418  1.00  0.00     0.064 C 
HETATM   13  C24 UNL     1      19.744  25.822  18.272  1.00  0.00     0.071 C 
HETATM   14  N5  UNL     1      19.315  25.233  17.073  1.00  0.00    -0.306 N 
HETATM   15  C25 UNL     1      20.046  24.913  15.908  1.00  0.00     0.366 C 
HETATM   16  O5  UNL     1      19.462  24.373  14.893  1.00  0.00    -0.238 OA
HETATM   17  C29 UNL     1      17.877  24.894  17.019  1.00  0.00     0.153 C 
HETATM   18  C30 UNL     1      17.297  24.448  18.310  1.00  0.00     0.146 C 
ENDROOT
BRANCH   1  19
HETATM   19  C15 UNL     1      14.867  22.966  17.501  1.00  0.00     0.283 C 
BRANCH  19  20
HETATM   20  O3  UNL     1      15.036  23.092  16.116  1.00  0.00    -0.295 OA
BRANCH  20  21
HETATM   21  C14 UNL     1      14.981  22.061  15.191  1.00  0.00     0.363 C 
HETATM   22  N2  UNL     1      13.823  21.811  14.419  1.00  0.00    -0.325 N 
HETATM   23  C13 UNL     1      12.656  22.610  14.590  1.00  0.00     0.148 C 
HETATM   24  C31 UNL     1      13.837  20.756  13.450  1.00  0.00     0.148 C 
HETATM   25  C12 UNL     1      11.438  21.759  14.572  1.00  0.00     0.145 C 
HETATM   26  N1  UNL     1      11.634  20.352  14.442  1.00  0.00    -0.349 N 
HETATM   27  C11 UNL     1      10.591  19.490  14.894  1.00  0.00     0.219 C 
HETATM   28  C32 UNL     1      12.812  19.735  13.879  1.00  0.00     0.145 C 
HETATM   29  O1  UNL     1       9.527  19.979  15.391  1.00  0.00    -0.273 OA
HETATM   30  O2  UNL     1      16.026  21.346  15.067  1.00  0.00    -0.238 OA
BRANCH  27  31
HETATM   31  C10 UNL     1      10.797  18.033  14.766  1.00  0.00     0.103 C 
BRANCH  31  32
HETATM   32  C9  UNL     1      10.229  17.271  15.928  1.00  0.00     0.009 C 
BRANCH  32  33
HETATM   33  C8  UNL     1      11.267  16.455  16.602  1.00  0.00     0.000 C 
BRANCH  33  34
HETATM   34  C7  UNL     1      11.038  16.361  18.112  1.00  0.00     0.000 C 
BRANCH  34  35
HETATM   35  C6  UNL     1      10.769  17.693  18.681  1.00  0.00     0.000 C 
BRANCH  35  36
HETATM   36  C5  UNL     1      11.569  18.156  19.846  1.00  0.00     0.000 C 
BRANCH  36  37
HETATM   37  C4  UNL     1      12.865  17.554  20.148  1.00  0.00     0.000 C 
BRANCH  37  38
HETATM   38  C3  UNL     1      14.127  18.143  19.663  1.00  0.00    -0.000 C 
BRANCH  38  39
HETATM   39  C2  UNL     1      14.478  17.811  18.232  1.00  0.00    -0.005 C 
HETATM   40  C1  UNL     1      13.968  18.927  17.323  1.00  0.00     0.005 C 
ENDBRANCH  38  39
ENDBRANCH  37  38
ENDBRANCH  36  37
ENDBRANCH  35  36
ENDBRANCH  34  35
ENDBRANCH  33  34
ENDBRANCH  32  33
ENDBRANCH  31  32
ENDBRANCH  27  31
ENDBRANCH  20  21
ENDBRANCH  19  20
ENDBRANCH   1  19
BRANCH  15  41
HETATM   41  O6  UNL     1      21.395  25.111  15.678  1.00  0.00    -0.304 OA
BRANCH  41  42
HETATM   42  C26 UNL     1      21.835  25.958  14.637  1.00  0.00     0.185 C 
BRANCH  42  43
HETATM   43  C27 UNL     1      22.447  27.190  15.204  1.00  0.00     0.087 C 
BRANCH  43  44
HETATM   44  C28 UNL     1      21.758  28.461  14.780  1.00  0.00     0.256 C 
BRANCH  44  45
HETATM   45  O7  UNL     1      21.534  28.470  13.399  1.00  0.00    -0.371 OA
ATOM     46  H7  UNL     1      20.701  28.879  13.194  1.00  0.00     0.212 HD
ENDBRANCH  44  45
BRANCH  44  47
HETATM   47  O8  UNL     1      20.546  28.600  15.435  1.00  0.00    -0.371 OA
ATOM     48  H8  UNL     1      20.645  29.142  16.208  1.00  0.00     0.212 HD
ENDBRANCH  44  47
ENDBRANCH  43  44
ENDBRANCH  42  43
ENDBRANCH  41  42
ENDBRANCH  15  41
TORSDOF 18
ENDMDL
