MODEL 1
REMARK VINA RESULT: -7.330450591      0.000      0.000
REMARK  17 active torsions:
REMARK  status: ('A' for Active; 'I' for Inactive)
REMARK    1  A    between atoms: C5_14  and  C6_15 
REMARK    2  A    between atoms: C6_15  and  O1_16 
REMARK    3  A    between atoms: C6_15  and  C7_18 
REMARK    4  A    between atoms: C7_18  and  O2_19 
REMARK    5  A    between atoms: C7_18  and  C8_21 
REMARK    6  A    between atoms: C8_21  and  O3_22 
REMARK    7  A    between atoms: N5_24  and  C9_25 
REMARK    8  A    between atoms: C10_26  and  O4_27 
REMARK    9  A    between atoms: C11_29  and  O5_30 
REMARK   10  A    between atoms: C12_32  and  O6_33 
REMARK   11  A    between atoms: C13_35  and  C14_36 
REMARK   12  A    between atoms: C14_36  and  O7_37 
REMARK   13  A    between atoms: N6_39  and  C15_40 
REMARK   14  A    between atoms: C15_40  and  O8_41 
REMARK   15  A    between atoms: C15_40  and  C16_43 
REMARK   16  A    between atoms: C17_47  and  O9_48 
REMARK   17  A    between atoms: C18_50  and  O10_51 
ROOT
HETATM    1  C9  UNL     1      -3.527  10.984 -38.277  1.00  0.00     0.228 C 
HETATM    2  C10 UNL     1      -3.041   9.726 -37.587  1.00  0.00     0.192 C 
HETATM    3  C11 UNL     1      -3.337   9.526 -36.156  1.00  0.00     0.181 C 
HETATM    4  C12 UNL     1      -4.129  10.654 -35.626  1.00  0.00     0.174 C 
HETATM    5  C13 UNL     1      -5.249  10.981 -36.539  1.00  0.00     0.143 C 
HETATM    6  N6  UNL     1      -4.767  11.490 -37.835  1.00  0.00    -0.330 N 
ENDROOT
BRANCH   1   7
HETATM    7  N5  UNL     1      -3.439  10.728 -39.739  1.00  0.00    -0.293 N 
HETATM    8  C3  UNL     1      -4.394  10.157 -40.481  1.00  0.00     0.142 A 
HETATM    9  N3  UNL     1      -5.615   9.700 -40.266  1.00  0.00    -0.336 N 
HETATM   10  C4  UNL     1      -3.907  10.063 -41.761  1.00  0.00     0.122 A 
HETATM   11  C2  UNL     1      -6.363   9.169 -41.222  1.00  0.00     0.183 A 
ATOM     12  H3  UNL     1      -5.999   9.758 -39.323  1.00  0.00     0.168 HD
HETATM   13  N2  UNL     1      -5.887   9.073 -42.489  1.00  0.00    -0.337 N 
HETATM   14  C1  UNL     1      -4.666   9.512 -42.782  1.00  0.00     0.131 A 
ATOM     15  H2  UNL     1      -6.468   8.662 -43.219  1.00  0.00     0.168 HD
HETATM   16  N1  UNL     1      -4.184   9.441 -43.956  1.00  0.00    -0.383 N 
ATOM     17  H12 UNL     1      -4.743   9.036 -44.707  1.00  0.00     0.157 HD
ATOM     18  H11 UNL     1      -3.247   9.777 -44.181  1.00  0.00     0.157 HD
HETATM   19  N4  UNL     1      -2.669  10.580 -41.762  1.00  0.00    -0.337 N 
HETATM   20  C5  UNL     1      -2.373  10.999 -40.496  1.00  0.00     0.119 A 
ATOM     21  H4  UNL     1      -2.053  10.649 -42.572  1.00  0.00     0.167 HD
BRANCH  20  22
HETATM   22  C6  UNL     1      -1.052  11.609 -40.214  1.00  0.00     0.216 C 
BRANCH  22  23
HETATM   23  O1  UNL     1      -0.510  12.393 -41.185  1.00  0.00    -0.385 OA
ATOM     24  H1  UNL     1       0.435  12.375 -41.280  1.00  0.00     0.210 HD
ENDBRANCH  22  23
BRANCH  22  25
HETATM   25  C7  UNL     1      -0.026  10.644 -39.678  1.00  0.00     0.177 C 
BRANCH  25  26
HETATM   26  O2  UNL     1      -0.473   9.326 -39.729  1.00  0.00    -0.390 OA
ATOM     27  H2  UNL     1      -0.707   9.062 -40.611  1.00  0.00     0.210 HD
ENDBRANCH  25  26
BRANCH  25  28
HETATM   28  C8  UNL     1       0.232  11.002 -38.207  1.00  0.00     0.198 C 
BRANCH  28  29
HETATM   29  O3  UNL     1       0.239  12.359 -38.011  1.00  0.00    -0.398 OA
ATOM     30  H3  UNL     1      -0.180  12.597 -37.192  1.00  0.00     0.209 HD
ENDBRANCH  28  29
ENDBRANCH  25  28
ENDBRANCH  22  25
ENDBRANCH  20  22
ENDBRANCH   1   7
BRANCH   2  31
HETATM   31  O4  UNL     1      -3.403   8.582 -38.362  1.00  0.00    -0.389 OA
ATOM     32  H4  UNL     1      -3.154   8.718 -39.269  1.00  0.00     0.210 HD
ENDBRANCH   2  31
BRANCH   6  33
HETATM   33  C15 UNL     1      -5.530  12.456 -38.447  1.00  0.00     0.150 C 
BRANCH  33  34
HETATM   34  O8  UNL     1      -6.641  11.953 -38.978  1.00  0.00    -0.348 OA
ATOM     35  H8  UNL     1      -6.551  11.794 -39.911  1.00  0.00     0.219 HD
ENDBRANCH  33  34
BRANCH  33  36
HETATM   36  C16 UNL     1      -5.401  13.895 -38.638  1.00  0.00     0.295 C 
HETATM   37  N7  UNL     1      -4.035  14.386 -38.789  1.00  0.00    -0.032 N 
HETATM   38  C17 UNL     1      -4.032  14.085 -40.178  1.00  0.00     0.351 C 
ATOM     39  H72 UNL     1      -3.808  15.332 -38.483  1.00  0.00     0.281 HD
ATOM     40  H71 UNL     1      -3.299  14.002 -38.195  1.00  0.00     0.281 HD
HETATM   41  C18 UNL     1      -5.541  14.214 -40.141  1.00  0.00     0.213 C 
BRANCH  38  42
HETATM   42  O9  UNL     1      -3.408  15.056 -40.969  1.00  0.00    -0.368 OA
ATOM     43  H9  UNL     1      -2.493  15.196 -40.756  1.00  0.00     0.212 HD
ENDBRANCH  38  42
BRANCH  41  44
HETATM   44  O10 UNL     1      -5.885  15.537 -40.415  1.00  0.00    -0.389 OA
ATOM     45  H10 UNL     1      -5.322  15.963 -41.050  1.00  0.00     0.210 HD
ENDBRANCH  41  44
ENDBRANCH  33  36
ENDBRANCH   6  33
BRANCH   3  46
HETATM   46  O5  UNL     1      -3.911   8.277 -35.875  1.00  0.00    -0.390 OA
ATOM     47  H5  UNL     1      -4.507   8.294 -35.135  1.00  0.00     0.210 HD
ENDBRANCH   3  46
BRANCH   5  48
HETATM   48  C14 UNL     1      -6.226   9.891 -36.588  1.00  0.00     0.192 C 
BRANCH  48  49
HETATM   49  O7  UNL     1      -7.149  10.077 -35.536  1.00  0.00    -0.399 OA
ATOM     50  H7  UNL     1      -6.851  10.805 -35.005  1.00  0.00     0.209 HD
ENDBRANCH  48  49
ENDBRANCH   5  48
BRANCH   4  51
HETATM   51  O6  UNL     1      -4.569  10.365 -34.345  1.00  0.00    -0.391 OA
ATOM     52  H6  UNL     1      -4.887  11.155 -33.923  1.00  0.00     0.210 HD
ENDBRANCH   4  51
TORSDOF 17
ENDMDL
MODEL 2
REMARK VINA RESULT: -7.255403085      6.835      9.239
REMARK  17 active torsions:
REMARK  status: ('A' for Active; 'I' for Inactive)
REMARK    1  A    between atoms: C5_14  and  C6_15 
REMARK    2  A    between atoms: C6_15  and  O1_16 
REMARK    3  A    between atoms: C6_15  and  C7_18 
REMARK    4  A    between atoms: C7_18  and  O2_19 
REMARK    5  A    between atoms: C7_18  and  C8_21 
REMARK    6  A    between atoms: C8_21  and  O3_22 
REMARK    7  A    between atoms: N5_24  and  C9_25 
REMARK    8  A    between atoms: C10_26  and  O4_27 
REMARK    9  A    between atoms: C11_29  and  O5_30 
REMARK   10  A    between atoms: C12_32  and  O6_33 
REMARK   11  A    between atoms: C13_35  and  C14_36 
REMARK   12  A    between atoms: C14_36  and  O7_37 
REMARK   13  A    between atoms: N6_39  and  C15_40 
REMARK   14  A    between atoms: C15_40  and  O8_41 
REMARK   15  A    between atoms: C15_40  and  C16_43 
REMARK   16  A    between atoms: C17_47  and  O9_48 
REMARK   17  A    between atoms: C18_50  and  O10_51 
ROOT
HETATM    1  C9  UNL     1      -6.353  16.129 -32.377  1.00  0.00     0.228 C 
HETATM    2  C10 UNL     1      -4.911  15.744 -32.114  1.00  0.00     0.192 C 
HETATM    3  C11 UNL     1      -4.301  16.070 -30.812  1.00  0.00     0.181 C 
HETATM    4  C12 UNL     1      -5.282  16.735 -29.930  1.00  0.00     0.174 C 
HETATM    5  C13 UNL     1      -6.574  16.009 -29.943  1.00  0.00     0.143 C 
HETATM    6  N6  UNL     1      -7.219  16.067 -31.266  1.00  0.00    -0.330 N 
ENDROOT
BRANCH   1   7
HETATM    7  N5  UNL     1      -6.793  15.346 -33.561  1.00  0.00    -0.293 N 
HETATM    8  C3  UNL     1      -7.014  14.028 -33.575  1.00  0.00     0.142 A 
HETATM    9  N3  UNL     1      -6.977  13.051 -32.686  1.00  0.00    -0.336 N 
HETATM   10  C4  UNL     1      -7.360  13.691 -34.861  1.00  0.00     0.122 A 
HETATM   11  C2  UNL     1      -7.257  11.792 -32.989  1.00  0.00     0.183 A 
ATOM     12  H3  UNL     1      -6.722  13.275 -31.724  1.00  0.00     0.168 HD
HETATM   13  N2  UNL     1      -7.598  11.452 -34.257  1.00  0.00    -0.337 N 
HETATM   14  C1  UNL     1      -7.657  12.382 -35.207  1.00  0.00     0.131 A 
ATOM     15  H2  UNL     1      -7.811  10.481 -34.483  1.00  0.00     0.168 HD
HETATM   16  N1  UNL     1      -7.974  12.105 -36.407  1.00  0.00    -0.383 N 
ATOM     17  H12 UNL     1      -8.193  11.142 -36.662  1.00  0.00     0.157 HD
ATOM     18  H11 UNL     1      -8.018  12.818 -37.136  1.00  0.00     0.157 HD
HETATM   19  N4  UNL     1      -7.340  14.815 -35.592  1.00  0.00    -0.337 N 
HETATM   20  C5  UNL     1      -6.986  15.855 -34.781  1.00  0.00     0.119 A 
ATOM     21  H4  UNL     1      -7.553  14.882 -36.588  1.00  0.00     0.167 HD
BRANCH  20  22
HETATM   22  C6  UNL     1      -6.881  17.223 -35.343  1.00  0.00     0.216 C 
BRANCH  22  23
HETATM   23  O1  UNL     1      -6.747  18.248 -34.460  1.00  0.00    -0.385 OA
ATOM     24  H1  UNL     1      -6.554  19.107 -34.818  1.00  0.00     0.210 HD
ENDBRANCH  22  23
BRANCH  22  25
HETATM   25  C7  UNL     1      -7.927  17.548 -36.378  1.00  0.00     0.177 C 
BRANCH  25  26
HETATM   26  O2  UNL     1      -7.769  16.789 -37.536  1.00  0.00    -0.390 OA
ATOM     27  H2  UNL     1      -8.430  16.992 -38.187  1.00  0.00     0.210 HD
ENDBRANCH  25  26
BRANCH  25  28
HETATM   28  C8  UNL     1      -7.771  19.028 -36.755  1.00  0.00     0.198 C 
BRANCH  28  29
HETATM   29  O3  UNL     1      -6.453  19.373 -36.913  1.00  0.00    -0.398 OA
ATOM     30  H3  UNL     1      -6.358  20.287 -37.156  1.00  0.00     0.209 HD
ENDBRANCH  28  29
ENDBRANCH  25  28
ENDBRANCH  22  25
ENDBRANCH  20  22
ENDBRANCH   1   7
BRANCH   2  31
HETATM   31  O4  UNL     1      -4.709  14.373 -32.460  1.00  0.00    -0.389 OA
ATOM     32  H4  UNL     1      -3.959  14.296 -33.038  1.00  0.00     0.210 HD
ENDBRANCH   2  31
BRANCH   6  33
HETATM   33  C15 UNL     1      -8.592  16.128 -31.286  1.00  0.00     0.150 C 
BRANCH  33  34
HETATM   34  O8  UNL     1      -9.147  14.919 -31.292  1.00  0.00    -0.348 OA
ATOM     35  H8  UNL     1     -10.087  14.958 -31.427  1.00  0.00     0.219 HD
ENDBRANCH  33  34
BRANCH  33  36
HETATM   36  C16 UNL     1      -9.570  17.210 -31.295  1.00  0.00     0.295 C 
HETATM   37  N7  UNL     1      -9.223  18.374 -30.486  1.00  0.00    -0.032 N 
HETATM   38  C17 UNL     1      -8.435  18.923 -31.534  1.00  0.00     0.351 C 
ATOM     39  H72 UNL     1      -9.968  18.936 -30.076  1.00  0.00     0.281 HD
ATOM     40  H71 UNL     1      -8.802  18.235 -29.568  1.00  0.00     0.281 HD
HETATM   41  C18 UNL     1      -9.287  18.129 -32.502  1.00  0.00     0.213 C 
BRANCH  38  42
HETATM   42  O9  UNL     1      -8.568  20.308 -31.680  1.00  0.00    -0.368 OA
ATOM     43  H9  UNL     1      -7.746  20.782 -31.629  1.00  0.00     0.212 HD
ENDBRANCH  38  42
BRANCH  41  44
HETATM   44  O10 UNL     1     -10.373  18.911 -32.891  1.00  0.00    -0.389 OA
ATOM     45  H10 UNL     1     -10.292  19.287 -33.760  1.00  0.00     0.210 HD
ENDBRANCH  41  44
ENDBRANCH  33  36
ENDBRANCH   6  33
BRANCH   3  46
HETATM   46  O5  UNL     1      -3.675  14.973 -30.200  1.00  0.00    -0.390 OA
ATOM     47  H5  UNL     1      -3.668  15.023 -29.251  1.00  0.00     0.210 HD
ENDBRANCH   3  46
BRANCH   5  48
HETATM   48  C14 UNL     1      -6.440  14.682 -29.339  1.00  0.00     0.192 C 
BRANCH  48  49
HETATM   49  O7  UNL     1      -6.730  14.792 -27.962  1.00  0.00    -0.399 OA
ATOM     50  H7  UNL     1      -7.568  14.374 -27.800  1.00  0.00     0.209 HD
ENDBRANCH  48  49
ENDBRANCH   5  48
BRANCH   4  51
HETATM   51  O6  UNL     1      -4.765  16.856 -28.650  1.00  0.00    -0.391 OA
ATOM     52  H6  UNL     1      -5.460  16.765 -28.008  1.00  0.00     0.210 HD
ENDBRANCH   4  51
TORSDOF 17
ENDMDL
MODEL 3
REMARK VINA RESULT: -7.240467278      7.912     11.517
REMARK  17 active torsions:
REMARK  status: ('A' for Active; 'I' for Inactive)
REMARK    1  A    between atoms: C5_14  and  C6_15 
REMARK    2  A    between atoms: C6_15  and  O1_16 
REMARK    3  A    between atoms: C6_15  and  C7_18 
REMARK    4  A    between atoms: C7_18  and  O2_19 
REMARK    5  A    between atoms: C7_18  and  C8_21 
REMARK    6  A    between atoms: C8_21  and  O3_22 
REMARK    7  A    between atoms: N5_24  and  C9_25 
REMARK    8  A    between atoms: C10_26  and  O4_27 
REMARK    9  A    between atoms: C11_29  and  O5_30 
REMARK   10  A    between atoms: C12_32  and  O6_33 
REMARK   11  A    between atoms: C13_35  and  C14_36 
REMARK   12  A    between atoms: C14_36  and  O7_37 
REMARK   13  A    between atoms: N6_39  and  C15_40 
REMARK   14  A    between atoms: C15_40  and  O8_41 
REMARK   15  A    between atoms: C15_40  and  C16_43 
REMARK   16  A    between atoms: C17_47  and  O9_48 
REMARK   17  A    between atoms: C18_50  and  O10_51 
ROOT
HETATM    1  C9  UNL     1      -3.173   5.133 -32.396  1.00  0.00     0.228 C 
HETATM    2  C10 UNL     1      -2.151   4.506 -33.322  1.00  0.00     0.192 C 
HETATM    3  C11 UNL     1      -1.697   5.252 -34.510  1.00  0.00     0.181 C 
HETATM    4  C12 UNL     1      -2.346   6.578 -34.571  1.00  0.00     0.174 C 
HETATM    5  C13 UNL     1      -2.290   7.248 -33.251  1.00  0.00     0.143 C 
HETATM    6  N6  UNL     1      -3.086   6.531 -32.240  1.00  0.00    -0.330 N 
ENDROOT
BRANCH   1   7
HETATM    7  N5  UNL     1      -3.132   4.355 -31.130  1.00  0.00    -0.293 N 
HETATM    8  C3  UNL     1      -2.348   4.628 -30.082  1.00  0.00     0.142 A 
HETATM    9  N3  UNL     1      -1.467   5.564 -29.776  1.00  0.00    -0.336 N 
HETATM   10  C4  UNL     1      -2.580   3.655 -29.141  1.00  0.00     0.122 A 
HETATM   11  C2  UNL     1      -0.818   5.590 -28.621  1.00  0.00     0.183 A 
ATOM     12  H3  UNL     1      -1.278   6.298 -30.459  1.00  0.00     0.168 HD
HETATM   13  N2  UNL     1      -1.041   4.632 -27.689  1.00  0.00    -0.337 N 
HETATM   14  C1  UNL     1      -1.915   3.656 -27.925  1.00  0.00     0.131 A 
ATOM     15  H2  UNL     1      -0.537   4.658 -26.803  1.00  0.00     0.168 HD
HETATM   16  N1  UNL     1      -2.153   2.740 -27.077  1.00  0.00    -0.383 N 
ATOM     17  H12 UNL     1      -1.664   2.741 -26.182  1.00  0.00     0.157 HD
ATOM     18  H11 UNL     1      -2.823   1.992 -27.258  1.00  0.00     0.157 HD
HETATM   19  N4  UNL     1      -3.498   2.817 -29.644  1.00  0.00    -0.337 N 
HETATM   20  C5  UNL     1      -3.848   3.253 -30.890  1.00  0.00     0.119 A 
ATOM     21  H4  UNL     1      -3.873   1.992 -29.175  1.00  0.00     0.167 HD
BRANCH  20  22
HETATM   22  C6  UNL     1      -4.852   2.498 -31.678  1.00  0.00     0.216 C 
BRANCH  22  23
HETATM   23  O1  UNL     1      -6.098   2.381 -31.147  1.00  0.00    -0.385 OA
ATOM     24  H1  UNL     1      -6.262   1.633 -30.586  1.00  0.00     0.210 HD
ENDBRANCH  22  23
BRANCH  22  25
HETATM   25  C7  UNL     1      -4.364   1.166 -32.186  1.00  0.00     0.177 C 
BRANCH  25  26
HETATM   26  O2  UNL     1      -3.362   0.634 -31.378  1.00  0.00    -0.390 OA
ATOM     27  H2  UNL     1      -2.724   0.139 -31.879  1.00  0.00     0.210 HD
ENDBRANCH  25  26
BRANCH  25  28
HETATM   28  C8  UNL     1      -3.778   1.384 -33.589  1.00  0.00     0.198 C 
BRANCH  28  29
HETATM   29  O3  UNL     1      -2.628   0.659 -33.773  1.00  0.00    -0.398 OA
ATOM     30  H3  UNL     1      -2.805  -0.177 -34.190  1.00  0.00     0.209 HD
ENDBRANCH  28  29
ENDBRANCH  25  28
ENDBRANCH  22  25
ENDBRANCH  20  22
ENDBRANCH   1   7
BRANCH   2  31
HETATM   31  O4  UNL     1      -1.049   4.013 -32.559  1.00  0.00    -0.389 OA
ATOM     32  H4  UNL     1      -1.334   3.285 -32.019  1.00  0.00     0.210 HD
ENDBRANCH   2  31
BRANCH   6  33
HETATM   33  C15 UNL     1      -3.722   7.297 -31.292  1.00  0.00     0.150 C 
BRANCH  33  34
HETATM   34  O8  UNL     1      -2.885   8.125 -30.673  1.00  0.00    -0.348 OA
ATOM     35  H8  UNL     1      -3.331   8.886 -30.321  1.00  0.00     0.219 HD
ENDBRANCH  33  34
BRANCH  33  36
HETATM   36  C16 UNL     1      -5.097   7.409 -30.819  1.00  0.00     0.295 C 
HETATM   37  N7  UNL     1      -5.471   6.480 -29.757  1.00  0.00    -0.032 N 
HETATM   38  C17 UNL     1      -4.936   7.337 -28.758  1.00  0.00     0.351 C 
ATOM     39  H72 UNL     1      -6.440   6.172 -29.683  1.00  0.00     0.281 HD
ATOM     40  H71 UNL     1      -5.152   5.513 -29.807  1.00  0.00     0.281 HD
HETATM   41  C18 UNL     1      -5.160   8.487 -29.717  1.00  0.00     0.213 C 
BRANCH  38  42
HETATM   42  O9  UNL     1      -5.716   7.416 -27.599  1.00  0.00    -0.368 OA
ATOM     43  H9  UNL     1      -5.417   8.067 -26.976  1.00  0.00     0.212 HD
ENDBRANCH  38  42
BRANCH  41  44
HETATM   44  O10 UNL     1      -6.435   9.010 -29.502  1.00  0.00    -0.389 OA
ATOM     45  H10 UNL     1      -6.445   9.937 -29.292  1.00  0.00     0.210 HD
ENDBRANCH  41  44
ENDBRANCH  33  36
ENDBRANCH   6  33
BRANCH   3  46
HETATM   46  O5  UNL     1      -0.300   5.324 -34.622  1.00  0.00    -0.390 OA
ATOM     47  H5  UNL     1       0.058   4.730 -35.271  1.00  0.00     0.210 HD
ENDBRANCH   3  46
BRANCH   5  48
HETATM   48  C14 UNL     1      -0.912   7.578 -32.884  1.00  0.00     0.192 C 
BRANCH  48  49
HETATM   49  O7  UNL     1      -0.772   8.982 -32.903  1.00  0.00    -0.399 OA
ATOM     50  H7  UNL     1      -0.215   9.216 -33.636  1.00  0.00     0.209 HD
ENDBRANCH  48  49
ENDBRANCH   5  48
BRANCH   4  51
HETATM   51  O6  UNL     1      -1.769   7.344 -35.570  1.00  0.00    -0.391 OA
ATOM     52  H6  UNL     1      -2.246   8.160 -35.672  1.00  0.00     0.210 HD
ENDBRANCH   4  51
TORSDOF 17
ENDMDL
MODEL 4
REMARK VINA RESULT: -7.107267307      9.618     12.426
REMARK  17 active torsions:
REMARK  status: ('A' for Active; 'I' for Inactive)
REMARK    1  A    between atoms: C5_14  and  C6_15 
REMARK    2  A    between atoms: C6_15  and  O1_16 
REMARK    3  A    between atoms: C6_15  and  C7_18 
REMARK    4  A    between atoms: C7_18  and  O2_19 
REMARK    5  A    between atoms: C7_18  and  C8_21 
REMARK    6  A    between atoms: C8_21  and  O3_22 
REMARK    7  A    between atoms: N5_24  and  C9_25 
REMARK    8  A    between atoms: C10_26  and  O4_27 
REMARK    9  A    between atoms: C11_29  and  O5_30 
REMARK   10  A    between atoms: C12_32  and  O6_33 
REMARK   11  A    between atoms: C13_35  and  C14_36 
REMARK   12  A    between atoms: C14_36  and  O7_37 
REMARK   13  A    between atoms: N6_39  and  C15_40 
REMARK   14  A    between atoms: C15_40  and  O8_41 
REMARK   15  A    between atoms: C15_40  and  C16_43 
REMARK   16  A    between atoms: C17_47  and  O9_48 
REMARK   17  A    between atoms: C18_50  and  O10_51 
ROOT
HETATM    1  C9  UNL     1      -2.295   5.227 -30.601  1.00  0.00     0.228 C 
HETATM    2  C10 UNL     1      -1.061   4.912 -31.421  1.00  0.00     0.192 C 
HETATM    3  C11 UNL     1      -0.328   6.012 -32.074  1.00  0.00     0.181 C 
HETATM    4  C12 UNL     1      -0.958   7.312 -31.767  1.00  0.00     0.174 C 
HETATM    5  C13 UNL     1      -1.252   7.422 -30.320  1.00  0.00     0.143 C 
HETATM    6  N6  UNL     1      -2.271   6.447 -29.894  1.00  0.00    -0.330 N 
ENDROOT
BRANCH   1   7
HETATM    7  N5  UNL     1      -2.571   4.025 -29.770  1.00  0.00    -0.293 N 
HETATM    8  C3  UNL     1      -1.897   3.678 -28.668  1.00  0.00     0.142 A 
HETATM    9  N3  UNL     1      -0.906   4.193 -27.962  1.00  0.00    -0.336 N 
HETATM   10  C4  UNL     1      -2.430   2.492 -28.227  1.00  0.00     0.122 A 
HETATM   11  C2  UNL     1      -0.424   3.614 -26.872  1.00  0.00     0.183 A 
ATOM     12  H3  UNL     1      -0.493   5.074 -28.269  1.00  0.00     0.168 HD
HETATM   13  N2  UNL     1      -0.945   2.442 -26.432  1.00  0.00    -0.337 N 
HETATM   14  C1  UNL     1      -1.946   1.864 -27.091  1.00  0.00     0.131 A 
ATOM     15  H2  UNL     1      -0.569   2.003 -25.592  1.00  0.00     0.168 HD
HETATM   16  N1  UNL     1      -2.462   0.766 -26.710  1.00  0.00    -0.383 N 
ATOM     17  H12 UNL     1      -2.107   0.304 -25.874  1.00  0.00     0.157 HD
ATOM     18  H11 UNL     1      -3.229   0.321 -27.216  1.00  0.00     0.157 HD
HETATM   19  N4  UNL     1      -3.413   2.151 -29.074  1.00  0.00    -0.337 N 
HETATM   20  C5  UNL     1      -3.505   3.110 -30.042  1.00  0.00     0.119 A 
ATOM     21  H4  UNL     1      -3.994   1.315 -29.006  1.00  0.00     0.167 HD
BRANCH  20  22
HETATM   22  C6  UNL     1      -4.516   2.974 -31.117  1.00  0.00     0.216 C 
BRANCH  22  23
HETATM   23  O1  UNL     1      -5.818   3.167 -30.774  1.00  0.00    -0.385 OA
ATOM     24  H1  UNL     1      -6.436   2.488 -31.016  1.00  0.00     0.210 HD
ENDBRANCH  22  23
BRANCH  22  25
HETATM   25  C7  UNL     1      -4.367   1.729 -31.952  1.00  0.00     0.177 C 
BRANCH  25  26
HETATM   26  O2  UNL     1      -3.373   0.886 -31.461  1.00  0.00    -0.390 OA
ATOM     27  H2  UNL     1      -2.525   1.313 -31.435  1.00  0.00     0.210 HD
ENDBRANCH  25  26
BRANCH  25  28
HETATM   28  C8  UNL     1      -3.968   2.160 -33.371  1.00  0.00     0.198 C 
BRANCH  28  29
HETATM   29  O3  UNL     1      -2.643   2.509 -33.438  1.00  0.00    -0.398 OA
ATOM     30  H3  UNL     1      -2.272   2.310 -34.290  1.00  0.00     0.209 HD
ENDBRANCH  28  29
ENDBRANCH  25  28
ENDBRANCH  22  25
ENDBRANCH  20  22
ENDBRANCH   1   7
BRANCH   2  31
HETATM   31  O4  UNL     1      -0.185   4.071 -30.669  1.00  0.00    -0.389 OA
ATOM     32  H4  UNL     1      -0.234   3.182 -31.000  1.00  0.00     0.210 HD
ENDBRANCH   2  31
BRANCH   6  33
HETATM   33  C15 UNL     1      -3.141   6.846 -28.907  1.00  0.00     0.150 C 
BRANCH  33  34
HETATM   34  O8  UNL     1      -2.513   7.450 -27.902  1.00  0.00    -0.348 OA
ATOM     35  H8  UNL     1      -2.994   8.204 -27.581  1.00  0.00     0.219 HD
ENDBRANCH  33  34
BRANCH  33  36
HETATM   36  C16 UNL     1      -4.583   6.762 -28.717  1.00  0.00     0.295 C 
HETATM   37  N7  UNL     1      -5.273   8.042 -28.586  1.00  0.00    -0.032 N 
HETATM   38  C17 UNL     1      -5.352   8.193 -29.997  1.00  0.00     0.351 C 
ATOM     39  H72 UNL     1      -6.126   8.094 -28.030  1.00  0.00     0.281 HD
ATOM     40  H71 UNL     1      -4.847   8.783 -28.029  1.00  0.00     0.281 HD
HETATM   41  C18 UNL     1      -5.267   6.685 -30.097  1.00  0.00     0.213 C 
BRANCH  38  42
HETATM   42  O9  UNL     1      -6.571   8.715 -30.445  1.00  0.00    -0.368 OA
ATOM     43  H9  UNL     1      -6.707   9.627 -30.216  1.00  0.00     0.212 HD
ENDBRANCH  38  42
BRANCH  41  44
HETATM   44  O10 UNL     1      -6.558   6.158 -30.067  1.00  0.00    -0.389 OA
ATOM     45  H10 UNL     1      -6.602   5.252 -29.785  1.00  0.00     0.210 HD
ENDBRANCH  41  44
ENDBRANCH  33  36
ENDBRANCH   6  33
BRANCH   3  46
HETATM   46  O5  UNL     1       1.050   5.998 -31.807  1.00  0.00    -0.390 OA
ATOM     47  H5  UNL     1       1.452   6.858 -31.852  1.00  0.00     0.210 HD
ENDBRANCH   3  46
BRANCH   5  48
HETATM   48  C14 UNL     1      -0.019   7.464 -29.531  1.00  0.00     0.192 C 
BRANCH  48  49
HETATM   49  O7  UNL     1      -0.056   8.614 -28.714  1.00  0.00    -0.399 OA
ATOM     50  H7  UNL     1       0.763   9.083 -28.823  1.00  0.00     0.209 HD
ENDBRANCH  48  49
ENDBRANCH   5  48
BRANCH   4  51
HETATM   51  O6  UNL     1      -0.154   8.348 -32.215  1.00  0.00    -0.391 OA
ATOM     52  H6  UNL     1      -0.542   9.184 -31.986  1.00  0.00     0.210 HD
ENDBRANCH   4  51
TORSDOF 17
ENDMDL
MODEL 5
REMARK VINA RESULT: -7.103683745      2.458      5.094
REMARK  17 active torsions:
REMARK  status: ('A' for Active; 'I' for Inactive)
REMARK    1  A    between atoms: C5_14  and  C6_15 
REMARK    2  A    between atoms: C6_15  and  O1_16 
REMARK    3  A    between atoms: C6_15  and  C7_18 
REMARK    4  A    between atoms: C7_18  and  O2_19 
REMARK    5  A    between atoms: C7_18  and  C8_21 
REMARK    6  A    between atoms: C8_21  and  O3_22 
REMARK    7  A    between atoms: N5_24  and  C9_25 
REMARK    8  A    between atoms: C10_26  and  O4_27 
REMARK    9  A    between atoms: C11_29  and  O5_30 
REMARK   10  A    between atoms: C12_32  and  O6_33 
REMARK   11  A    between atoms: C13_35  and  C14_36 
REMARK   12  A    between atoms: C14_36  and  O7_37 
REMARK   13  A    between atoms: N6_39  and  C15_40 
REMARK   14  A    between atoms: C15_40  and  O8_41 
REMARK   15  A    between atoms: C15_40  and  C16_43 
REMARK   16  A    between atoms: C17_47  and  O9_48 
REMARK   17  A    between atoms: C18_50  and  O10_51 
ROOT
HETATM    1  C9  UNL     1      -5.944  13.109 -38.671  1.00  0.00     0.228 C 
HETATM    2  C10 UNL     1      -5.619  14.020 -37.505  1.00  0.00     0.192 C 
HETATM    3  C11 UNL     1      -6.496  14.018 -36.319  1.00  0.00     0.181 C 
HETATM    4  C12 UNL     1      -7.592  13.043 -36.484  1.00  0.00     0.174 C 
HETATM    5  C13 UNL     1      -7.069  11.747 -36.978  1.00  0.00     0.143 C 
HETATM    6  N6  UNL     1      -6.517  11.864 -38.338  1.00  0.00    -0.330 N 
ENDROOT
BRANCH   1   7
HETATM    7  N5  UNL     1      -4.716  13.033 -39.506  1.00  0.00    -0.293 N 
HETATM    8  C3  UNL     1      -3.652  12.268 -39.244  1.00  0.00     0.142 A 
HETATM    9  N3  UNL     1      -3.324  11.386 -38.317  1.00  0.00    -0.336 N 
HETATM   10  C4  UNL     1      -2.725  12.519 -40.225  1.00  0.00     0.122 A 
HETATM   11  C2  UNL     1      -2.159  10.754 -38.306  1.00  0.00     0.183 A 
ATOM     12  H3  UNL     1      -3.996  11.182 -37.577  1.00  0.00     0.168 HD
HETATM   13  N2  UNL     1      -1.239  10.998 -39.272  1.00  0.00    -0.337 N 
HETATM   14  C1  UNL     1      -1.498  11.874 -40.239  1.00  0.00     0.131 A 
ATOM     15  H2  UNL     1      -0.345  10.508 -39.256  1.00  0.00     0.168 HD
HETATM   16  N1  UNL     1      -0.663  12.130 -41.163  1.00  0.00    -0.383 N 
ATOM     17  H12 UNL     1       0.240  11.655 -41.173  1.00  0.00     0.157 HD
ATOM     18  H11 UNL     1      -0.861  12.802 -41.904  1.00  0.00     0.157 HD
HETATM   19  N4  UNL     1      -3.252  13.431 -41.056  1.00  0.00    -0.337 N 
HETATM   20  C5  UNL     1      -4.502  13.754 -40.609  1.00  0.00     0.119 A 
ATOM     21  H4  UNL     1      -2.797  13.817 -41.883  1.00  0.00     0.167 HD
BRANCH  20  22
HETATM   22  C6  UNL     1      -5.310  14.753 -41.348  1.00  0.00     0.216 C 
BRANCH  22  23
HETATM   23  O1  UNL     1      -6.519  14.348 -41.819  1.00  0.00    -0.385 OA
ATOM     24  H1  UNL     1      -7.161  15.023 -42.007  1.00  0.00     0.210 HD
ENDBRANCH  22  23
BRANCH  22  25
HETATM   25  C7  UNL     1      -4.549  15.500 -42.413  1.00  0.00     0.177 C 
BRANCH  25  26
HETATM   26  O2  UNL     1      -3.580  16.341 -41.870  1.00  0.00    -0.390 OA
ATOM     27  H2  UNL     1      -2.700  16.040 -42.061  1.00  0.00     0.210 HD
ENDBRANCH  25  26
BRANCH  25  28
HETATM   28  C8  UNL     1      -5.552  16.368 -43.187  1.00  0.00     0.198 C 
BRANCH  28  29
HETATM   29  O3  UNL     1      -6.075  15.697 -44.262  1.00  0.00    -0.398 OA
ATOM     30  H3  UNL     1      -6.286  16.289 -44.975  1.00  0.00     0.209 HD
ENDBRANCH  28  29
ENDBRANCH  25  28
ENDBRANCH  22  25
ENDBRANCH  20  22
ENDBRANCH   1   7
BRANCH   2  31
HETATM   31  O4  UNL     1      -4.246  13.866 -37.142  1.00  0.00    -0.389 OA
ATOM     32  H4  UNL     1      -3.864  14.718 -36.966  1.00  0.00     0.210 HD
ENDBRANCH   2  31
BRANCH   6  33
HETATM   33  C15 UNL     1      -6.678  10.782 -39.170  1.00  0.00     0.150 C 
BRANCH  33  34
HETATM   34  O8  UNL     1      -5.982   9.725 -38.757  1.00  0.00    -0.348 OA
ATOM     35  H8  UNL     1      -5.767   9.137 -39.471  1.00  0.00     0.219 HD
ENDBRANCH  33  34
BRANCH  33  36
HETATM   36  C16 UNL     1      -7.435  10.530 -40.390  1.00  0.00     0.295 C 
HETATM   37  N7  UNL     1      -6.939  11.204 -41.585  1.00  0.00    -0.032 N 
HETATM   38  C17 UNL     1      -5.990  10.173 -41.825  1.00  0.00     0.351 C 
ATOM     39  H72 UNL     1      -7.596  11.458 -42.323  1.00  0.00     0.281 HD
ATOM     40  H71 UNL     1      -6.619  12.169 -41.516  1.00  0.00     0.281 HD
HETATM   41  C18 UNL     1      -6.902   9.243 -41.053  1.00  0.00     0.213 C 
BRANCH  38  42
HETATM   42  O9  UNL     1      -5.854   9.829 -43.175  1.00  0.00    -0.368 OA
ATOM     43  H9  UNL     1      -6.293  10.425 -43.771  1.00  0.00     0.212 HD
ENDBRANCH  38  42
BRANCH  41  44
HETATM   44  O10 UNL     1      -7.795   8.647 -41.943  1.00  0.00    -0.389 OA
ATOM     45  H10 UNL     1      -7.378   8.166 -42.649  1.00  0.00     0.210 HD
ENDBRANCH  41  44
ENDBRANCH  33  36
ENDBRANCH   6  33
BRANCH   3  46
HETATM   46  O5  UNL     1      -5.799  13.855 -35.112  1.00  0.00    -0.390 OA
ATOM     47  H5  UNL     1      -6.125  13.137 -34.582  1.00  0.00     0.210 HD
ENDBRANCH   3  46
BRANCH   5  48
HETATM   48  C14 UNL     1      -6.213  11.108 -35.978  1.00  0.00     0.192 C 
BRANCH  48  49
HETATM   49  O7  UNL     1      -7.037  10.392 -35.082  1.00  0.00    -0.399 OA
ATOM     50  H7  UNL     1      -6.910  10.750 -34.212  1.00  0.00     0.209 HD
ENDBRANCH  48  49
ENDBRANCH   5  48
BRANCH   4  51
HETATM   51  O6  UNL     1      -8.289  12.904 -35.295  1.00  0.00    -0.391 OA
ATOM     52  H6  UNL     1      -9.006  12.292 -35.407  1.00  0.00     0.210 HD
ENDBRANCH   4  51
TORSDOF 17
ENDMDL
