MODEL 1
REMARK VINA RESULT: -8.635347004      0.000      0.000
REMARK  13 active torsions:
REMARK  status: ('A' for Active; 'I' for Inactive)
REMARK    1  A    between atoms: N1_2  and  C3_4 
REMARK    2  A    between atoms: C5_10  and  N4_11 
REMARK    3  A    between atoms: N4_11  and  O1_12 
REMARK    4  A    between atoms: O1_12  and  C6_13 
REMARK    5  A    between atoms: C7_17  and  C8_18 
REMARK    6  A    between atoms: C8_18  and  O2_19 
REMARK    7  A    between atoms: O2_19  and  C9_20 
REMARK    8  A    between atoms: N6_23  and  N7_24 
REMARK    9  A    between atoms: C11_27  and  O4_28 
REMARK   10  A    between atoms: C12_30  and  O5_31 
REMARK   11  A    between atoms: C13_33  and  O6_34 
REMARK   12  A    between atoms: C14_36  and  O7_37 
REMARK   13  A    between atoms: C15_39  and  N8_40 
ROOT
HETATM    1  C6  UNL     1      -5.671   9.664 -35.735  1.00  0.00     0.397 C 
HETATM    2  N5  UNL     1      -5.243   9.135 -34.494  1.00  0.00    -0.034 N 
ATOM      3  H51 UNL     1      -5.933   8.489 -34.109  1.00  0.00     0.281 HD
ATOM      4  H52 UNL     1      -5.261   9.844 -33.762  1.00  0.00     0.281 HD
HETATM    5  C7  UNL     1      -3.919   8.504 -34.597  1.00  0.00     0.243 C 
HETATM    6  C12 UNL     1      -3.035   9.594 -35.149  1.00  0.00     0.182 C 
HETATM    7  C13 UNL     1      -3.310   9.599 -36.643  1.00  0.00     0.182 C 
HETATM    8  C14 UNL     1      -4.779   9.438 -36.927  1.00  0.00     0.209 C 
ENDROOT
BRANCH   1   9
HETATM    9  O1  UNL     1      -6.013  11.015 -35.576  1.00  0.00    -0.170 OA
BRANCH   9  10
HETATM   10  N4  UNL     1      -6.104  11.901 -34.762  1.00  0.00    -0.256 NA
BRANCH  10  11
HETATM   11  C5  UNL     1      -6.174  12.780 -33.957  1.00  0.00     0.257 C 
HETATM   12  N3  UNL     1      -6.878  13.929 -34.247  1.00  0.00    -0.309 N 
HETATM   13  C4  UNL     1      -6.844  15.145 -33.675  1.00  0.00     0.156 A 
ATOM     14  H3  UNL     1      -7.534  13.842 -35.024  1.00  0.00     0.170 HD
HETATM   15  N2  UNL     1      -7.659  16.172 -34.034  1.00  0.00    -0.174 N 
HETATM   16  C17 UNL     1      -6.036  15.622 -32.669  1.00  0.00     0.161 A 
HETATM   17  C3  UNL     1      -7.375  17.260 -33.283  1.00  0.00     0.681 A 
ATOM     18  H2  UNL     1      -8.374  16.128 -34.760  1.00  0.00     0.186 HD
HETATM   19  N10 UNL     1      -6.380  16.889 -32.460  1.00  0.00    -0.182 N 
ATOM     20  H10 UNL     1      -5.945  17.499 -31.768  1.00  0.00     0.184 HD
HETATM   21  C16 UNL     1      -5.067  14.915 -32.001  1.00  0.00     0.278 C 
HETATM   22  N9  UNL     1      -4.973  13.559 -31.905  1.00  0.00    -0.304 N 
HETATM   23  O8  UNL     1      -4.195  15.591 -31.437  1.00  0.00    -0.265 OA
HETATM   24  C15 UNL     1      -5.532  12.644 -32.704  1.00  0.00     0.164 C 
ATOM     25  H9  UNL     1      -4.411  13.200 -31.133  1.00  0.00     0.171 HD
BRANCH  17  26
HETATM   26  N1  UNL     1      -8.017  18.543 -33.335  1.00  0.00    -0.226 N 
HETATM   27  C1  UNL     1      -8.329  19.230 -34.561  1.00  0.00     0.168 C 
HETATM   28  C2  UNL     1      -8.345  19.179 -32.071  1.00  0.00     0.168 C 
ENDBRANCH  17  26
BRANCH  24  29
HETATM   29  N8  UNL     1      -5.513  11.397 -32.317  1.00  0.00    -0.381 N 
ATOM     30  H82 UNL     1      -4.606  10.943 -32.207  1.00  0.00     0.157 HD
ATOM     31  H81 UNL     1      -6.458  11.040 -32.175  1.00  0.00     0.157 HD
ENDBRANCH  24  29
ENDBRANCH  10  11
ENDBRANCH   9  10
ENDBRANCH   1   9
BRANCH   8  32
HETATM   32  O7  UNL     1      -5.029   8.203 -37.518  1.00  0.00    -0.388 OA
ATOM     33  H7  UNL     1      -5.222   8.297 -38.444  1.00  0.00     0.210 HD
ENDBRANCH   8  32
BRANCH   5  34
HETATM   34  C8  UNL     1      -3.478   7.976 -33.279  1.00  0.00     0.207 C 
BRANCH  34  35
HETATM   35  O2  UNL     1      -3.904   8.686 -32.218  1.00  0.00    -0.355 OA
BRANCH  35  36
HETATM   36  C9  UNL     1      -4.248   8.081 -31.062  1.00  0.00     0.305 C 
HETATM   37  O3  UNL     1      -4.229   6.642 -31.215  1.00  0.00    -0.342 OA
HETATM   38  C10 UNL     1      -4.812   6.240 -29.999  1.00  0.00     0.287 C 
HETATM   39  N6  UNL     1      -5.900   7.124 -29.748  1.00  0.00    -0.180 NA
HETATM   40  C11 UNL     1      -5.612   8.304 -30.527  1.00  0.00     0.268 C 
BRANCH  39  41
HETATM   41  N7  UNL     1      -5.907   7.526 -28.403  1.00  0.00    -0.359 NA
ATOM     42  H72 UNL     1      -6.137   6.697 -27.854  1.00  0.00     0.171 HD
ATOM     43  H71 UNL     1      -6.670   8.180 -28.230  1.00  0.00     0.171 HD
ENDBRANCH  39  41
BRANCH  40  44
HETATM   44  O4  UNL     1      -5.696   9.467 -29.757  1.00  0.00    -0.374 OA
ATOM     45  H4  UNL     1      -5.528  10.250 -30.268  1.00  0.00     0.212 HD
ENDBRANCH  40  44
ENDBRANCH  35  36
ENDBRANCH  34  35
ENDBRANCH   5  34
BRANCH   7  46
HETATM   46  O6  UNL     1      -2.745  10.733 -37.186  1.00  0.00    -0.390 OA
ATOM     47  H6  UNL     1      -3.422  11.214 -37.647  1.00  0.00     0.210 HD
ENDBRANCH   7  46
BRANCH   6  48
HETATM   48  O5  UNL     1      -3.335  10.825 -34.572  1.00  0.00    -0.391 OA
ATOM     49  H5  UNL     1      -3.828  11.373 -35.172  1.00  0.00     0.210 HD
ENDBRANCH   6  48
TORSDOF 13
ENDMDL
MODEL 2
REMARK VINA RESULT: -8.572955256      4.419      8.596
REMARK  13 active torsions:
REMARK  status: ('A' for Active; 'I' for Inactive)
REMARK    1  A    between atoms: N1_2  and  C3_4 
REMARK    2  A    between atoms: C5_10  and  N4_11 
REMARK    3  A    between atoms: N4_11  and  O1_12 
REMARK    4  A    between atoms: O1_12  and  C6_13 
REMARK    5  A    between atoms: C7_17  and  C8_18 
REMARK    6  A    between atoms: C8_18  and  O2_19 
REMARK    7  A    between atoms: O2_19  and  C9_20 
REMARK    8  A    between atoms: N6_23  and  N7_24 
REMARK    9  A    between atoms: C11_27  and  O4_28 
REMARK   10  A    between atoms: C12_30  and  O5_31 
REMARK   11  A    between atoms: C13_33  and  O6_34 
REMARK   12  A    between atoms: C14_36  and  O7_37 
REMARK   13  A    between atoms: C15_39  and  N8_40 
ROOT
HETATM    1  C6  UNL     1      -6.649  13.749 -35.524  1.00  0.00     0.397 C 
HETATM    2  N5  UNL     1      -5.965  14.658 -34.683  1.00  0.00    -0.034 N 
ATOM      3  H51 UNL     1      -5.941  15.594 -35.088  1.00  0.00     0.281 HD
ATOM      4  H52 UNL     1      -4.963  14.466 -34.665  1.00  0.00     0.281 HD
HETATM    5  C7  UNL     1      -6.530  14.678 -33.325  1.00  0.00     0.243 C 
HETATM    6  C12 UNL     1      -6.460  13.239 -32.877  1.00  0.00     0.182 C 
HETATM    7  C13 UNL     1      -7.661  12.572 -33.526  1.00  0.00     0.182 C 
HETATM    8  C14 UNL     1      -7.843  13.037 -34.945  1.00  0.00     0.209 C 
ENDROOT
BRANCH   1   9
HETATM    9  O1  UNL     1      -5.731  12.861 -36.101  1.00  0.00    -0.170 OA
BRANCH   9  10
HETATM   10  N4  UNL     1      -5.129  12.617 -37.119  1.00  0.00    -0.256 NA
BRANCH  10  11
HETATM   11  C5  UNL     1      -4.519  12.391 -38.121  1.00  0.00     0.257 C 
HETATM   12  N3  UNL     1      -4.822  11.280 -38.879  1.00  0.00    -0.309 N 
HETATM   13  C4  UNL     1      -4.112  10.647 -39.828  1.00  0.00     0.156 A 
ATOM     14  H3  UNL     1      -5.737  10.870 -38.688  1.00  0.00     0.170 HD
HETATM   15  N2  UNL     1      -4.579   9.590 -40.543  1.00  0.00    -0.174 N 
HETATM   16  C17 UNL     1      -2.832  10.884 -40.274  1.00  0.00     0.161 A 
HETATM   17  C3  UNL     1      -3.629   9.173 -41.410  1.00  0.00     0.681 A 
ATOM     18  H2  UNL     1      -5.506   9.175 -40.441  1.00  0.00     0.186 HD
HETATM   19  N10 UNL     1      -2.576   9.985 -41.219  1.00  0.00    -0.182 N 
ATOM     20  H10 UNL     1      -1.695   9.919 -41.731  1.00  0.00     0.184 HD
HETATM   21  C16 UNL     1      -1.988  11.872 -39.833  1.00  0.00     0.278 C 
HETATM   22  N9  UNL     1      -2.347  13.020 -39.190  1.00  0.00    -0.304 N 
HETATM   23  O8  UNL     1      -0.781  11.688 -40.043  1.00  0.00    -0.265 OA
HETATM   24  C15 UNL     1      -3.485  13.263 -38.531  1.00  0.00     0.164 C 
ATOM     25  H9  UNL     1      -1.669  13.782 -39.216  1.00  0.00     0.171 HD
BRANCH  17  26
HETATM   26  N1  UNL     1      -3.727   8.098 -42.356  1.00  0.00    -0.226 N 
HETATM   27  C1  UNL     1      -2.750   7.048 -42.475  1.00  0.00     0.168 C 
HETATM   28  C2  UNL     1      -4.873   8.095 -43.250  1.00  0.00     0.168 C 
ENDBRANCH  17  26
BRANCH  24  29
HETATM   29  N8  UNL     1      -3.738  14.495 -38.178  1.00  0.00    -0.381 N 
ATOM     30  H82 UNL     1      -3.419  15.244 -38.792  1.00  0.00     0.157 HD
ATOM     31  H81 UNL     1      -4.244  14.528 -37.293  1.00  0.00     0.157 HD
ENDBRANCH  24  29
ENDBRANCH  10  11
ENDBRANCH   9  10
ENDBRANCH   1   9
BRANCH   8  32
HETATM   32  O7  UNL     1      -8.996  13.809 -35.062  1.00  0.00    -0.388 OA
ATOM     33  H7  UNL     1      -9.755  13.268 -35.249  1.00  0.00     0.210 HD
ENDBRANCH   8  32
BRANCH   5  34
HETATM   34  C8  UNL     1      -5.782  15.621 -32.451  1.00  0.00     0.207 C 
BRANCH  34  35
HETATM   35  O2  UNL     1      -5.268  15.066 -31.337  1.00  0.00    -0.355 OA
BRANCH  35  36
HETATM   36  C9  UNL     1      -5.776  15.344 -30.118  1.00  0.00     0.305 C 
HETATM   37  O3  UNL     1      -7.193  15.054 -30.079  1.00  0.00    -0.342 OA
HETATM   38  C10 UNL     1      -7.541  15.607 -28.833  1.00  0.00     0.287 C 
HETATM   39  N6  UNL     1      -6.853  16.849 -28.723  1.00  0.00    -0.180 NA
HETATM   40  C11 UNL     1      -5.749  16.749 -29.645  1.00  0.00     0.268 C 
BRANCH  39  41
HETATM   41  N7  UNL     1      -6.293  16.990 -27.444  1.00  0.00    -0.359 NA
ATOM     42  H72 UNL     1      -6.690  17.841 -27.046  1.00  0.00     0.171 HD
ATOM     43  H71 UNL     1      -5.291  17.170 -27.510  1.00  0.00     0.171 HD
ENDBRANCH  39  41
BRANCH  40  44
HETATM   44  O4  UNL     1      -4.534  17.080 -29.038  1.00  0.00    -0.374 OA
ATOM     45  H4  UNL     1      -4.183  17.902 -29.360  1.00  0.00     0.212 HD
ENDBRANCH  40  44
ENDBRANCH  35  36
ENDBRANCH  34  35
ENDBRANCH   5  34
BRANCH   7  46
HETATM   46  O6  UNL     1      -7.530  11.207 -33.386  1.00  0.00    -0.390 OA
ATOM     47  H6  UNL     1      -6.782  10.923 -33.899  1.00  0.00     0.210 HD
ENDBRANCH   7  46
BRANCH   6  48
HETATM   48  O5  UNL     1      -5.268  12.644 -33.282  1.00  0.00    -0.391 OA
ATOM     49  H5  UNL     1      -5.347  11.698 -33.300  1.00  0.00     0.210 HD
ENDBRANCH   6  48
TORSDOF 13
ENDMDL
MODEL 3
REMARK VINA RESULT: -8.402656593      3.817      8.952
REMARK  13 active torsions:
REMARK  status: ('A' for Active; 'I' for Inactive)
REMARK    1  A    between atoms: N1_2  and  C3_4 
REMARK    2  A    between atoms: C5_10  and  N4_11 
REMARK    3  A    between atoms: N4_11  and  O1_12 
REMARK    4  A    between atoms: O1_12  and  C6_13 
REMARK    5  A    between atoms: C7_17  and  C8_18 
REMARK    6  A    between atoms: C8_18  and  O2_19 
REMARK    7  A    between atoms: O2_19  and  C9_20 
REMARK    8  A    between atoms: N6_23  and  N7_24 
REMARK    9  A    between atoms: C11_27  and  O4_28 
REMARK   10  A    between atoms: C12_30  and  O5_31 
REMARK   11  A    between atoms: C13_33  and  O6_34 
REMARK   12  A    between atoms: C14_36  and  O7_37 
REMARK   13  A    between atoms: C15_39  and  N8_40 
ROOT
HETATM    1  C6  UNL     1      -6.423  13.801 -32.290  1.00  0.00     0.397 C 
HETATM    2  N5  UNL     1      -7.380  14.782 -31.937  1.00  0.00    -0.034 N 
ATOM      3  H51 UNL     1      -8.253  14.355 -31.629  1.00  0.00     0.281 HD
ATOM      4  H52 UNL     1      -7.724  15.278 -32.759  1.00  0.00     0.281 HD
HETATM    5  C7  UNL     1      -6.857  15.717 -30.930  1.00  0.00     0.243 C 
HETATM    6  C12 UNL     1      -5.599  16.267 -31.556  1.00  0.00     0.182 C 
HETATM    7  C13 UNL     1      -4.548  15.196 -31.321  1.00  0.00     0.182 C 
HETATM    8  C14 UNL     1      -5.110  13.820 -31.553  1.00  0.00     0.209 C 
ENDROOT
BRANCH   1   9
HETATM    9  O1  UNL     1      -6.251  13.791 -33.681  1.00  0.00    -0.170 OA
BRANCH   9  10
HETATM   10  N4  UNL     1      -6.087  13.065 -34.631  1.00  0.00    -0.256 NA
BRANCH  10  11
HETATM   11  C5  UNL     1      -5.907  12.339 -35.562  1.00  0.00     0.257 C 
HETATM   12  N3  UNL     1      -4.830  12.540 -36.398  1.00  0.00    -0.309 N 
HETATM   13  C4  UNL     1      -4.591  12.091 -37.641  1.00  0.00     0.156 A 
ATOM     14  H3  UNL     1      -4.092  13.128 -36.009  1.00  0.00     0.170 HD
HETATM   15  N2  UNL     1      -3.437  12.323 -38.321  1.00  0.00    -0.174 N 
HETATM   16  C17 UNL     1      -5.393  11.349 -38.478  1.00  0.00     0.161 A 
HETATM   17  C3  UNL     1      -3.506  11.750 -39.543  1.00  0.00     0.681 A 
ATOM     18  H2  UNL     1      -2.640  12.850 -37.962  1.00  0.00     0.186 HD
HETATM   19  N10 UNL     1      -4.713  11.164 -39.606  1.00  0.00    -0.182 N 
ATOM     20  H10 UNL     1      -5.063  10.645 -40.413  1.00  0.00     0.184 HD
HETATM   21  C16 UNL     1      -6.650  10.880 -38.193  1.00  0.00     0.278 C 
HETATM   22  N9  UNL     1      -7.189  10.702 -36.953  1.00  0.00    -0.304 N 
HETATM   23  O8  UNL     1      -7.358  10.596 -39.170  1.00  0.00    -0.265 OA
HETATM   24  C15 UNL     1      -6.800  11.269 -35.807  1.00  0.00     0.164 C 
ATOM     25  H9  UNL     1      -7.981  10.062 -36.894  1.00  0.00     0.171 HD
BRANCH  17  26
HETATM   26  N1  UNL     1      -2.493  11.747 -40.560  1.00  0.00    -0.226 N 
HETATM   27  C1  UNL     1      -1.091  11.927 -40.291  1.00  0.00     0.168 C 
HETATM   28  C2  UNL     1      -2.927  11.572 -41.936  1.00  0.00     0.168 C 
ENDBRANCH  17  26
BRANCH  24  29
HETATM   29  N8  UNL     1      -7.293  10.801 -34.692  1.00  0.00    -0.381 N 
ATOM     30  H82 UNL     1      -6.982  11.222 -33.817  1.00  0.00     0.157 HD
ATOM     31  H81 UNL     1      -7.952  10.043 -34.870  1.00  0.00     0.157 HD
ENDBRANCH  24  29
ENDBRANCH  10  11
ENDBRANCH   9  10
ENDBRANCH   1   9
BRANCH   8  32
HETATM   32  O7  UNL     1      -5.194  13.117 -30.354  1.00  0.00    -0.388 OA
ATOM     33  H7  UNL     1      -4.443  12.548 -30.235  1.00  0.00     0.210 HD
ENDBRANCH   8  32
BRANCH   5  34
HETATM   34  C8  UNL     1      -7.868  16.754 -30.591  1.00  0.00     0.207 C 
BRANCH  34  35
HETATM   35  O2  UNL     1      -7.540  18.003 -30.971  1.00  0.00    -0.355 OA
BRANCH  35  36
HETATM   36  C9  UNL     1      -8.399  18.768 -31.677  1.00  0.00     0.305 C 
HETATM   37  O3  UNL     1      -9.686  18.830 -31.019  1.00  0.00    -0.342 OA
HETATM   38  C10 UNL     1     -10.457  19.471 -32.005  1.00  0.00     0.287 C 
HETATM   39  N6  UNL     1     -10.090  18.898 -33.256  1.00  0.00    -0.180 NA
HETATM   40  C11 UNL     1      -8.784  18.326 -33.039  1.00  0.00     0.268 C 
BRANCH  39  41
HETATM   41  N7  UNL     1      -9.930  19.898 -34.228  1.00  0.00    -0.359 NA
ATOM     42  H72 UNL     1      -9.355  20.626 -33.803  1.00  0.00     0.171 HD
ATOM     43  H71 UNL     1     -10.824  20.349 -34.426  1.00  0.00     0.171 HD
ENDBRANCH  39  41
BRANCH  40  44
HETATM   44  O4  UNL     1      -7.868  18.740 -34.009  1.00  0.00    -0.374 OA
ATOM     45  H4  UNL     1      -7.291  18.036 -34.283  1.00  0.00     0.212 HD
ENDBRANCH  40  44
ENDBRANCH  35  36
ENDBRANCH  34  35
ENDBRANCH   5  34
BRANCH   7  46
HETATM   46  O6  UNL     1      -3.441  15.496 -32.086  1.00  0.00    -0.390 OA
ATOM     47  H6  UNL     1      -2.705  14.993 -31.760  1.00  0.00     0.210 HD
ENDBRANCH   7  46
BRANCH   6  48
HETATM   48  O5  UNL     1      -5.781  16.512 -32.914  1.00  0.00    -0.391 OA
ATOM     49  H5  UNL     1      -5.442  17.366 -33.156  1.00  0.00     0.210 HD
ENDBRANCH   6  48
TORSDOF 13
ENDMDL
MODEL 4
REMARK VINA RESULT: -8.398186153      2.559      7.885
REMARK  13 active torsions:
REMARK  status: ('A' for Active; 'I' for Inactive)
REMARK    1  A    between atoms: N1_2  and  C3_4 
REMARK    2  A    between atoms: C5_10  and  N4_11 
REMARK    3  A    between atoms: N4_11  and  O1_12 
REMARK    4  A    between atoms: O1_12  and  C6_13 
REMARK    5  A    between atoms: C7_17  and  C8_18 
REMARK    6  A    between atoms: C8_18  and  O2_19 
REMARK    7  A    between atoms: O2_19  and  C9_20 
REMARK    8  A    between atoms: N6_23  and  N7_24 
REMARK    9  A    between atoms: C11_27  and  O4_28 
REMARK   10  A    between atoms: C12_30  and  O5_31 
REMARK   11  A    between atoms: C13_33  and  O6_34 
REMARK   12  A    between atoms: C14_36  and  O7_37 
REMARK   13  A    between atoms: C15_39  and  N8_40 
ROOT
HETATM    1  C6  UNL     1      -6.479  13.336 -35.274  1.00  0.00     0.397 C 
HETATM    2  N5  UNL     1      -5.858  14.387 -34.559  1.00  0.00    -0.034 N 
ATOM      3  H51 UNL     1      -5.783  15.230 -35.129  1.00  0.00     0.281 HD
ATOM      4  H52 UNL     1      -4.865  14.202 -34.415  1.00  0.00     0.281 HD
HETATM    5  C7  UNL     1      -6.541  14.661 -33.286  1.00  0.00     0.243 C 
HETATM    6  C12 UNL     1      -6.535  13.332 -32.573  1.00  0.00     0.182 C 
HETATM    7  C13 UNL     1      -7.684  12.554 -33.191  1.00  0.00     0.182 C 
HETATM    8  C14 UNL     1      -7.732  12.744 -34.682  1.00  0.00     0.209 C 
ENDROOT
BRANCH   1   9
HETATM    9  O1  UNL     1      -5.528  12.356 -35.590  1.00  0.00    -0.170 OA
BRANCH   9  10
HETATM   10  N4  UNL     1      -5.052  11.312 -35.215  1.00  0.00    -0.256 NA
BRANCH  10  11
HETATM   11  C5  UNL     1      -4.598  10.276 -34.831  1.00  0.00     0.257 C 
HETATM   12  N3  UNL     1      -4.838   9.851 -33.542  1.00  0.00    -0.309 N 
HETATM   13  C4  UNL     1      -4.210   8.930 -32.792  1.00  0.00     0.156 A 
ATOM     14  H3  UNL     1      -5.623  10.311 -33.081  1.00  0.00     0.170 HD
HETATM   15  N2  UNL     1      -4.611   8.569 -31.545  1.00  0.00    -0.174 N 
HETATM   16  C17 UNL     1      -3.086   8.186 -33.071  1.00  0.00     0.161 A 
HETATM   17  C3  UNL     1      -3.771   7.631 -31.052  1.00  0.00     0.681 A 
ATOM     18  H2  UNL     1      -5.422   8.948 -31.055  1.00  0.00     0.186 HD
HETATM   19  N10 UNL     1      -2.852   7.421 -32.009  1.00  0.00    -0.182 N 
ATOM     20  H10 UNL     1      -2.077   6.762 -31.931  1.00  0.00     0.184 HD
HETATM   21  C16 UNL     1      -2.356   8.222 -34.232  1.00  0.00     0.278 C 
HETATM   22  N9  UNL     1      -2.784   8.667 -35.447  1.00  0.00    -0.304 N 
HETATM   23  O8  UNL     1      -1.190   7.807 -34.153  1.00  0.00    -0.265 OA
HETATM   24  C15 UNL     1      -3.813   9.483 -35.700  1.00  0.00     0.164 C 
ATOM     25  H9  UNL     1      -2.259   8.339 -36.258  1.00  0.00     0.171 HD
BRANCH  17  26
HETATM   26  N1  UNL     1      -3.852   6.976 -29.777  1.00  0.00    -0.226 N 
HETATM   27  C1  UNL     1      -2.928   5.961 -29.342  1.00  0.00     0.168 C 
HETATM   28  C2  UNL     1      -4.944   7.355 -28.897  1.00  0.00     0.168 C 
ENDBRANCH  17  26
BRANCH  24  29
HETATM   29  N8  UNL     1      -4.204   9.612 -36.939  1.00  0.00    -0.381 N 
ATOM     30  H82 UNL     1      -4.586  10.512 -37.230  1.00  0.00     0.157 HD
ATOM     31  H81 UNL     1      -4.063   8.747 -37.462  1.00  0.00     0.157 HD
ENDBRANCH  24  29
ENDBRANCH  10  11
ENDBRANCH   9  10
ENDBRANCH   1   9
BRANCH   8  32
HETATM   32  O7  UNL     1      -8.857  13.479 -35.045  1.00  0.00    -0.388 OA
ATOM     33  H7  UNL     1      -9.508  13.476 -34.354  1.00  0.00     0.210 HD
ENDBRANCH   8  32
BRANCH   5  34
HETATM   34  C8  UNL     1      -5.858  15.752 -32.540  1.00  0.00     0.207 C 
BRANCH  34  35
HETATM   35  O2  UNL     1      -5.204  15.351 -31.433  1.00  0.00    -0.355 OA
BRANCH  35  36
HETATM   36  C9  UNL     1      -5.735  15.523 -30.205  1.00  0.00     0.305 C 
HETATM   37  O3  UNL     1      -7.150  15.218 -30.214  1.00  0.00    -0.342 OA
HETATM   38  C10 UNL     1      -7.524  15.663 -28.933  1.00  0.00     0.287 C 
HETATM   39  N6  UNL     1      -6.851  16.897 -28.710  1.00  0.00    -0.180 NA
HETATM   40  C11 UNL     1      -5.731  16.884 -29.617  1.00  0.00     0.268 C 
BRANCH  39  41
HETATM   41  N7  UNL     1      -6.315  16.938 -27.413  1.00  0.00    -0.359 NA
ATOM     42  H72 UNL     1      -6.817  16.236 -26.869  1.00  0.00     0.171 HD
ATOM     43  H71 UNL     1      -6.532  17.827 -26.964  1.00  0.00     0.171 HD
ENDBRANCH  39  41
BRANCH  40  44
HETATM   44  O4  UNL     1      -4.530  17.175 -28.964  1.00  0.00    -0.374 OA
ATOM     45  H4  UNL     1      -3.790  17.190 -29.560  1.00  0.00     0.212 HD
ENDBRANCH  40  44
ENDBRANCH  35  36
ENDBRANCH  34  35
ENDBRANCH   5  34
BRANCH   7  46
HETATM   46  O6  UNL     1      -7.587  11.239 -32.787  1.00  0.00    -0.390 OA
ATOM     47  H6  UNL     1      -7.964  10.689 -33.463  1.00  0.00     0.210 HD
ENDBRANCH   7  46
BRANCH   6  48
HETATM   48  O5  UNL     1      -5.321  12.672 -32.749  1.00  0.00    -0.391 OA
ATOM     49  H5  UNL     1      -5.204  11.991 -32.098  1.00  0.00     0.210 HD
ENDBRANCH   6  48
TORSDOF 13
ENDMDL
MODEL 5
REMARK VINA RESULT: -8.389169931      4.564      8.044
REMARK  13 active torsions:
REMARK  status: ('A' for Active; 'I' for Inactive)
REMARK    1  A    between atoms: N1_2  and  C3_4 
REMARK    2  A    between atoms: C5_10  and  N4_11 
REMARK    3  A    between atoms: N4_11  and  O1_12 
REMARK    4  A    between atoms: O1_12  and  C6_13 
REMARK    5  A    between atoms: C7_17  and  C8_18 
REMARK    6  A    between atoms: C8_18  and  O2_19 
REMARK    7  A    between atoms: O2_19  and  C9_20 
REMARK    8  A    between atoms: N6_23  and  N7_24 
REMARK    9  A    between atoms: C11_27  and  O4_28 
REMARK   10  A    between atoms: C12_30  and  O5_31 
REMARK   11  A    between atoms: C13_33  and  O6_34 
REMARK   12  A    between atoms: C14_36  and  O7_37 
REMARK   13  A    between atoms: C15_39  and  N8_40 
ROOT
HETATM    1  C6  UNL     1      -6.405  13.747 -32.314  1.00  0.00     0.397 C 
HETATM    2  N5  UNL     1      -7.357  14.731 -31.955  1.00  0.00    -0.034 N 
ATOM      3  H51 UNL     1      -8.235  14.306 -31.659  1.00  0.00     0.281 HD
ATOM      4  H52 UNL     1      -7.692  15.239 -32.774  1.00  0.00     0.281 HD
HETATM    5  C7  UNL     1      -6.835  15.649 -30.932  1.00  0.00     0.243 C 
HETATM    6  C12 UNL     1      -5.569  16.198 -31.543  1.00  0.00     0.182 C 
HETATM    7  C13 UNL     1      -4.527  15.117 -31.314  1.00  0.00     0.182 C 
HETATM    8  C14 UNL     1      -5.096  13.747 -31.568  1.00  0.00     0.209 C 
ENDROOT
BRANCH   1   9
HETATM    9  O1  UNL     1      -6.223  13.754 -33.704  1.00  0.00    -0.170 OA
BRANCH   9  10
HETATM   10  N4  UNL     1      -6.501  14.355 -34.714  1.00  0.00    -0.256 NA
BRANCH  10  11
HETATM   11  C5  UNL     1      -6.755  14.949 -35.718  1.00  0.00     0.257 C 
HETATM   12  N3  UNL     1      -7.575  16.057 -35.678  1.00  0.00    -0.309 N 
HETATM   13  C4  UNL     1      -8.249  16.683 -36.657  1.00  0.00     0.156 A 
ATOM     14  H3  UNL     1      -7.689  16.469 -34.752  1.00  0.00     0.170 HD
HETATM   15  N2  UNL     1      -8.972  17.819 -36.470  1.00  0.00    -0.174 N 
HETATM   16  C17 UNL     1      -8.375  16.356 -37.987  1.00  0.00     0.161 A 
HETATM   17  C3  UNL     1      -9.536  18.196 -37.640  1.00  0.00     0.681 A 
ATOM     18  H2  UNL     1      -9.074  18.311 -35.582  1.00  0.00     0.186 HD
HETATM   19  N10 UNL     1      -9.151  17.280 -38.545  1.00  0.00    -0.182 N 
ATOM     20  H10 UNL     1      -9.419  17.293 -39.529  1.00  0.00     0.184 HD
HETATM   21  C16 UNL     1      -7.797  15.283 -38.618  1.00  0.00     0.278 C 
HETATM   22  N9  UNL     1      -6.709  14.580 -38.192  1.00  0.00    -0.304 N 
HETATM   23  O8  UNL     1      -8.329  14.926 -39.679  1.00  0.00    -0.265 OA
HETATM   24  C15 UNL     1      -6.214  14.517 -36.951  1.00  0.00     0.164 C 
ATOM     25  H9  UNL     1      -6.215  14.039 -38.902  1.00  0.00     0.171 HD
BRANCH  17  26
HETATM   26  N1  UNL     1     -10.360  19.347 -37.876  1.00  0.00    -0.226 N 
HETATM   27  C1  UNL     1     -11.775  19.277 -38.128  1.00  0.00     0.168 C 
HETATM   28  C2  UNL     1      -9.710  20.646 -37.879  1.00  0.00     0.168 C 
ENDBRANCH  17  26
BRANCH  24  29
HETATM   29  N8  UNL     1      -5.037  13.975 -36.786  1.00  0.00    -0.381 N 
ATOM     30  H82 UNL     1      -4.667  13.913 -35.838  1.00  0.00     0.157 HD
ATOM     31  H81 UNL     1      -4.640  13.679 -37.678  1.00  0.00     0.157 HD
ENDBRANCH  24  29
ENDBRANCH  10  11
ENDBRANCH   9  10
ENDBRANCH   1   9
BRANCH   8  32
HETATM   32  O7  UNL     1      -5.193  13.030 -30.379  1.00  0.00    -0.388 OA
ATOM     33  H7  UNL     1      -4.336  12.777 -30.059  1.00  0.00     0.210 HD
ENDBRANCH   8  32
BRANCH   5  34
HETATM   34  C8  UNL     1      -7.841  16.688 -30.587  1.00  0.00     0.207 C 
BRANCH  34  35
HETATM   35  O2  UNL     1      -7.490  17.943 -30.923  1.00  0.00    -0.355 OA
BRANCH  35  36
HETATM   36  C9  UNL     1      -8.297  18.719 -31.676  1.00  0.00     0.305 C 
HETATM   37  O3  UNL     1      -9.630  18.764 -31.113  1.00  0.00    -0.342 OA
HETATM   38  C10 UNL     1     -10.329  19.422 -32.142  1.00  0.00     0.287 C 
HETATM   39  N6  UNL     1      -9.869  18.872 -33.372  1.00  0.00    -0.180 NA
HETATM   40  C11 UNL     1      -8.580  18.300 -33.070  1.00  0.00     0.268 C 
BRANCH  39  41
HETATM   41  N7  UNL     1      -9.643  19.890 -34.312  1.00  0.00    -0.359 NA
ATOM     42  H72 UNL     1     -10.407  19.838 -34.986  1.00  0.00     0.171 HD
ATOM     43  H71 UNL     1      -8.800  19.697 -34.852  1.00  0.00     0.171 HD
ENDBRANCH  39  41
BRANCH  40  44
HETATM   44  O4  UNL     1      -7.597  18.733 -33.964  1.00  0.00    -0.374 OA
ATOM     45  H4  UNL     1      -6.820  18.189 -33.935  1.00  0.00     0.212 HD
ENDBRANCH  40  44
ENDBRANCH  35  36
ENDBRANCH  34  35
ENDBRANCH   5  34
BRANCH   7  46
HETATM   46  O6  UNL     1      -3.413  15.419 -32.068  1.00  0.00    -0.390 OA
ATOM     47  H6  UNL     1      -3.035  16.224 -31.735  1.00  0.00     0.210 HD
ENDBRANCH   7  46
BRANCH   6  48
HETATM   48  O5  UNL     1      -5.739  16.462 -32.899  1.00  0.00    -0.391 OA
ATOM     49  H5  UNL     1      -5.944  17.378 -33.046  1.00  0.00     0.210 HD
ENDBRANCH   6  48
TORSDOF 13
ENDMDL
