MODEL 1
REMARK VINA RESULT: -8.294317745      0.000      0.000
REMARK  14 active torsions:
REMARK  status: ('A' for Active; 'I' for Inactive)
REMARK    1  A    between atoms: C2_2  and  C5_12 
REMARK    2  A    between atoms: N1_3  and  N2_5 
REMARK       I    between atoms: N2_5  and  C3_7 
REMARK    3  A    between atoms: C3_7  and  C4_9 
REMARK    4  A    between atoms: C8_20  and  C9_21 
REMARK    5  A    between atoms: C9_21  and  N5_22 
REMARK    6  A    between atoms: N5_22  and  N6_23 
REMARK    7  A    between atoms: C10_24  and  O5_25 
REMARK    8  A    between atoms: C11_27  and  O6_28 
REMARK    9  A    between atoms: C12_30  and  O7_31 
REMARK   10  A    between atoms: C13_33  and  O8_34 
REMARK   11  A    between atoms: C14_36  and  O9_37 
REMARK   12  A    between atoms: C14_36  and  C15_39 
REMARK   13  A    between atoms: C15_39  and  O10_40 
REMARK   14  A    between atoms: C15_39  and  O11_42 
ROOT
HETATM    1  N5  UNL     1      -6.425  12.347 -33.242  1.00  0.00    -0.134 NA
ENDROOT
BRANCH   1   2
HETATM    2  C9  UNL     1      -5.216  12.121 -34.054  1.00  0.00     0.180 C 
BRANCH   2   3
HETATM    3  C8  UNL     1      -5.477  11.183 -35.184  1.00  0.00     0.045 A 
HETATM    4  C5  UNL     1      -5.049   9.898 -35.050  1.00  0.00     0.046 A 
HETATM    5  S1  UNL     1      -5.368   8.916 -36.473  1.00  0.00    -0.026 SA
HETATM    6  C6  UNL     1      -6.139   9.766 -37.705  1.00  0.00     0.291 A 
HETATM    7  O3  UNL     1      -6.464   9.242 -38.824  1.00  0.00    -0.260 OA
HETATM    8  N4  UNL     1      -6.394  11.048 -37.433  1.00  0.00    -0.284 N 
HETATM    9  C7  UNL     1      -6.100  11.676 -36.314  1.00  0.00     0.257 A 
ATOM     10  H4  UNL     1      -6.861  11.591 -38.160  1.00  0.00     0.172 HD
HETATM   11  O4  UNL     1      -6.440  12.909 -36.288  1.00  0.00    -0.267 OA
BRANCH   4  12
HETATM   12  C2  UNL     1      -4.403   9.266 -33.925  1.00  0.00     0.040 C 
HETATM   13  C1  UNL     1      -3.155   8.542 -33.907  1.00  0.00     0.071 C 
HETATM   14  N1  UNL     1      -5.012   9.361 -32.747  1.00  0.00    -0.301 N 
ATOM     15  H1  UNL     1      -5.899   9.863 -32.710  1.00  0.00     0.186 HD
BRANCH  14  16
HETATM   16  N2  UNL     1      -4.531   8.833 -31.583  1.00  0.00    -0.262 N 
HETATM   17  C3  UNL     1      -5.316   8.480 -30.456  1.00  0.00     0.325 C 
HETATM   18  O1  UNL     1      -6.553   8.660 -30.521  1.00  0.00    -0.261 OA
ATOM     19  H2  UNL     1      -3.524   8.681 -31.518  1.00  0.00     0.190 HD
BRANCH  17  20
HETATM   20  C4  UNL     1      -4.754   7.923 -29.243  1.00  0.00     0.324 C 
HETATM   21  N3  UNL     1      -5.343   6.840 -28.554  1.00  0.00    -0.053 NA
HETATM   22  O2  UNL     1      -3.699   8.422 -28.781  1.00  0.00    -0.266 OA
ENDBRANCH  17  20
ENDBRANCH  14  16
ENDBRANCH   4  12
ENDBRANCH   2   3
ENDBRANCH   1   2
BRANCH   1  23
HETATM   23  N6  UNL     1      -6.312  13.531 -32.536  1.00  0.00    -0.259 N 
HETATM   24  C10 UNL     1      -5.163  13.793 -31.822  1.00  0.00     0.267 C 
HETATM   25  C11 UNL     1      -5.007  15.216 -31.362  1.00  0.00     0.199 C 
HETATM   26  C12 UNL     1      -6.289  15.585 -30.650  1.00  0.00     0.185 C 
HETATM   27  C13 UNL     1      -7.382  15.580 -31.690  1.00  0.00     0.211 C 
HETATM   28  C14 UNL     1      -7.449  14.347 -32.520  1.00  0.00     0.226 C 
BRANCH  24  29
HETATM   29  O5  UNL     1      -5.157  13.017 -30.639  1.00  0.00    -0.373 OA
ATOM     30  H5  UNL     1      -4.965  13.577 -29.895  1.00  0.00     0.212 HD
ENDBRANCH  24  29
BRANCH  25  31
HETATM   31  O6  UNL     1      -3.990  15.266 -30.398  1.00  0.00    -0.388 OA
ATOM     32  H6  UNL     1      -4.101  16.054 -29.880  1.00  0.00     0.210 HD
ENDBRANCH  25  31
BRANCH  26  33
HETATM   33  O7  UNL     1      -6.228  16.845 -30.079  1.00  0.00    -0.390 OA
ATOM     34  H7  UNL     1      -6.337  16.818 -29.135  1.00  0.00     0.210 HD
ENDBRANCH  26  33
BRANCH  27  35
HETATM   35  O8  UNL     1      -7.208  16.742 -32.453  1.00  0.00    -0.388 OA
ATOM     36  H8  UNL     1      -8.035  16.903 -32.890  1.00  0.00     0.210 HD
ENDBRANCH  27  35
BRANCH  28  37
HETATM   37  O9  UNL     1      -8.482  13.558 -31.929  1.00  0.00    -0.364 OA
ATOM     38  H9  UNL     1      -9.102  13.382 -32.626  1.00  0.00     0.213 HD
ENDBRANCH  28  37
BRANCH  28  39
HETATM   39  C15 UNL     1      -8.013  14.629 -33.918  1.00  0.00     0.314 C 
BRANCH  39  40
HETATM   40  O10 UNL     1      -6.959  15.065 -34.742  1.00  0.00    -0.367 OA
ATOM     41  H10 UNL     1      -6.594  15.859 -34.367  1.00  0.00     0.212 HD
ENDBRANCH  39  40
BRANCH  39  42
HETATM   42  O11 UNL     1      -8.629  13.556 -34.478  1.00  0.00    -0.367 OA
ATOM     43  H11 UNL     1      -9.576  13.581 -34.399  1.00  0.00     0.212 HD
ENDBRANCH  39  42
ENDBRANCH  28  39
ENDBRANCH   1  23
TORSDOF 14
ENDMDL
MODEL 2
REMARK VINA RESULT: -8.133937508      1.527      2.754
REMARK  14 active torsions:
REMARK  status: ('A' for Active; 'I' for Inactive)
REMARK    1  A    between atoms: C2_2  and  C5_12 
REMARK    2  A    between atoms: N1_3  and  N2_5 
REMARK       I    between atoms: N2_5  and  C3_7 
REMARK    3  A    between atoms: C3_7  and  C4_9 
REMARK    4  A    between atoms: C8_20  and  C9_21 
REMARK    5  A    between atoms: C9_21  and  N5_22 
REMARK    6  A    between atoms: N5_22  and  N6_23 
REMARK    7  A    between atoms: C10_24  and  O5_25 
REMARK    8  A    between atoms: C11_27  and  O6_28 
REMARK    9  A    between atoms: C12_30  and  O7_31 
REMARK   10  A    between atoms: C13_33  and  O8_34 
REMARK   11  A    between atoms: C14_36  and  O9_37 
REMARK   12  A    between atoms: C14_36  and  C15_39 
REMARK   13  A    between atoms: C15_39  and  O10_40 
REMARK   14  A    between atoms: C15_39  and  O11_42 
ROOT
HETATM    1  N5  UNL     1      -5.637  12.953 -32.373  1.00  0.00    -0.134 NA
ENDROOT
BRANCH   1   2
HETATM    2  C9  UNL     1      -6.541  12.239 -33.292  1.00  0.00     0.180 C 
BRANCH   2   3
HETATM    3  C8  UNL     1      -5.959  12.125 -34.661  1.00  0.00     0.045 A 
HETATM    4  C5  UNL     1      -5.192  11.034 -34.932  1.00  0.00     0.046 A 
HETATM    5  S1  UNL     1      -4.524  11.051 -36.558  1.00  0.00    -0.026 SA
HETATM    6  C6  UNL     1      -4.971  12.411 -37.443  1.00  0.00     0.291 A 
HETATM    7  O3  UNL     1      -4.597  12.622 -38.647  1.00  0.00    -0.260 OA
HETATM    8  N4  UNL     1      -5.758  13.273 -36.796  1.00  0.00    -0.284 N 
HETATM    9  C7  UNL     1      -6.195  13.146 -35.560  1.00  0.00     0.257 A 
ATOM     10  H4  UNL     1      -6.047  14.109 -37.305  1.00  0.00     0.172 HD
HETATM   11  O4  UNL     1      -6.936  14.107 -35.154  1.00  0.00    -0.267 OA
BRANCH   4  12
HETATM   12  C2  UNL     1      -4.885   9.904 -34.088  1.00  0.00     0.040 C 
HETATM   13  C1  UNL     1      -4.491   8.575 -34.490  1.00  0.00     0.071 C 
HETATM   14  N1  UNL     1      -4.953  10.094 -32.774  1.00  0.00    -0.301 N 
ATOM     15  H1  UNL     1      -5.229  11.019 -32.441  1.00  0.00     0.186 HD
BRANCH  14  16
HETATM   16  N2  UNL     1      -4.681   9.138 -31.839  1.00  0.00    -0.262 N 
HETATM   17  C3  UNL     1      -5.574   8.699 -30.829  1.00  0.00     0.325 C 
HETATM   18  O1  UNL     1      -6.710   9.223 -30.780  1.00  0.00    -0.261 OA
ATOM     19  H2  UNL     1      -3.758   8.702 -31.869  1.00  0.00     0.190 HD
BRANCH  17  20
HETATM   20  C4  UNL     1      -5.233   7.680 -29.858  1.00  0.00     0.324 C 
HETATM   21  N3  UNL     1      -5.970   6.483 -29.716  1.00  0.00    -0.053 NA
HETATM   22  O2  UNL     1      -4.241   7.863 -29.112  1.00  0.00    -0.266 OA
ENDBRANCH  17  20
ENDBRANCH  14  16
ENDBRANCH   4  12
ENDBRANCH   2   3
ENDBRANCH   1   2
BRANCH   1  23
HETATM   23  N6  UNL     1      -6.252  14.094 -31.888  1.00  0.00    -0.259 N 
HETATM   24  C10 UNL     1      -7.602  14.078 -31.617  1.00  0.00     0.267 C 
HETATM   25  C11 UNL     1      -8.105  15.241 -30.806  1.00  0.00     0.199 C 
HETATM   26  C12 UNL     1      -7.615  16.494 -31.495  1.00  0.00     0.185 C 
HETATM   27  C13 UNL     1      -6.111  16.498 -31.378  1.00  0.00     0.211 C 
HETATM   28  C14 UNL     1      -5.448  15.236 -31.807  1.00  0.00     0.226 C 
BRANCH  24  29
HETATM   29  O5  UNL     1      -8.327  14.131 -32.831  1.00  0.00    -0.373 OA
ATOM     30  H5  UNL     1      -8.299  13.279 -33.252  1.00  0.00     0.212 HD
ENDBRANCH  24  29
BRANCH  25  31
HETATM   31  O6  UNL     1      -9.504  15.267 -30.882  1.00  0.00    -0.388 OA
ATOM     32  H6  UNL     1      -9.854  15.368 -30.004  1.00  0.00     0.210 HD
ENDBRANCH  25  31
BRANCH  26  33
HETATM   33  O7  UNL     1      -8.107  17.645 -30.903  1.00  0.00    -0.390 OA
ATOM     34  H7  UNL     1      -7.422  18.160 -30.492  1.00  0.00     0.210 HD
ENDBRANCH  26  33
BRANCH  27  35
HETATM   35  O8  UNL     1      -5.819  16.843 -30.051  1.00  0.00    -0.388 OA
ATOM     36  H8  UNL     1      -4.930  17.176 -30.050  1.00  0.00     0.210 HD
ENDBRANCH  27  35
BRANCH  28  37
HETATM   37  O9  UNL     1      -5.000  15.489 -33.139  1.00  0.00    -0.364 OA
ATOM     38  H9  UNL     1      -4.717  16.396 -33.147  1.00  0.00     0.213 HD
ENDBRANCH  28  37
BRANCH  28  39
HETATM   39  C15 UNL     1      -4.131  15.000 -31.058  1.00  0.00     0.314 C 
BRANCH  39  40
HETATM   40  O10 UNL     1      -4.346  14.006 -30.085  1.00  0.00    -0.367 OA
ATOM     41  H10 UNL     1      -4.538  14.433 -29.258  1.00  0.00     0.212 HD
ENDBRANCH  39  40
BRANCH  39  42
HETATM   42  O11 UNL     1      -3.104  14.642 -31.872  1.00  0.00    -0.367 OA
ATOM     43  H11 UNL     1      -3.330  14.665 -32.795  1.00  0.00     0.212 HD
ENDBRANCH  39  42
ENDBRANCH  28  39
ENDBRANCH   1  23
TORSDOF 14
ENDMDL
MODEL 3
REMARK VINA RESULT: -8.125780315      3.146      5.196
REMARK  14 active torsions:
REMARK  status: ('A' for Active; 'I' for Inactive)
REMARK    1  A    between atoms: C2_2  and  C5_12 
REMARK    2  A    between atoms: N1_3  and  N2_5 
REMARK       I    between atoms: N2_5  and  C3_7 
REMARK    3  A    between atoms: C3_7  and  C4_9 
REMARK    4  A    between atoms: C8_20  and  C9_21 
REMARK    5  A    between atoms: C9_21  and  N5_22 
REMARK    6  A    between atoms: N5_22  and  N6_23 
REMARK    7  A    between atoms: C10_24  and  O5_25 
REMARK    8  A    between atoms: C11_27  and  O6_28 
REMARK    9  A    between atoms: C12_30  and  O7_31 
REMARK   10  A    between atoms: C13_33  and  O8_34 
REMARK   11  A    between atoms: C14_36  and  O9_37 
REMARK   12  A    between atoms: C14_36  and  C15_39 
REMARK   13  A    between atoms: C15_39  and  O10_40 
REMARK   14  A    between atoms: C15_39  and  O11_42 
ROOT
HETATM    1  N5  UNL     1      -8.106  15.789 -32.816  1.00  0.00    -0.134 NA
ENDROOT
BRANCH   1   2
HETATM    2  C9  UNL     1      -7.254  16.516 -33.774  1.00  0.00     0.180 C 
BRANCH   2   3
HETATM    3  C8  UNL     1      -7.909  16.646 -35.108  1.00  0.00     0.045 A 
HETATM    4  C5  UNL     1      -7.510  15.796 -36.092  1.00  0.00     0.046 A 
HETATM    5  S1  UNL     1      -8.319  16.093 -37.624  1.00  0.00    -0.026 SA
HETATM    6  C6  UNL     1      -9.420  17.365 -37.557  1.00  0.00     0.291 A 
HETATM    7  O3  UNL     1     -10.116  17.747 -38.558  1.00  0.00    -0.260 OA
HETATM    8  N4  UNL     1      -9.522  17.962 -36.367  1.00  0.00    -0.284 N 
HETATM    9  C7  UNL     1      -8.850  17.642 -35.281  1.00  0.00     0.257 A 
ATOM     10  H4  UNL     1     -10.181  18.737 -36.293  1.00  0.00     0.172 HD
HETATM   11  O4  UNL     1      -9.115  18.364 -34.257  1.00  0.00    -0.267 OA
BRANCH   4  12
HETATM   12  C2  UNL     1      -6.555  14.717 -36.032  1.00  0.00     0.040 C 
HETATM   13  C1  UNL     1      -5.521  14.389 -36.985  1.00  0.00     0.071 C 
HETATM   14  N1  UNL     1      -6.608  13.920 -34.969  1.00  0.00    -0.301 N 
ATOM     15  H1  UNL     1      -7.324  14.111 -34.267  1.00  0.00     0.186 HD
BRANCH  14  16
HETATM   16  N2  UNL     1      -5.771  12.864 -34.750  1.00  0.00    -0.262 N 
HETATM   17  C3  UNL     1      -6.131  11.648 -34.118  1.00  0.00     0.325 C 
HETATM   18  O1  UNL     1      -7.313  11.517 -33.724  1.00  0.00    -0.261 OA
ATOM     19  H2  UNL     1      -4.805  12.958 -35.068  1.00  0.00     0.190 HD
BRANCH  17  20
HETATM   20  C4  UNL     1      -5.201  10.557 -33.910  1.00  0.00     0.324 C 
HETATM   21  N3  UNL     1      -5.256   9.710 -32.781  1.00  0.00    -0.053 NA
HETATM   22  O2  UNL     1      -4.308  10.352 -34.767  1.00  0.00    -0.266 OA
ENDBRANCH  17  20
ENDBRANCH  14  16
ENDBRANCH   4  12
ENDBRANCH   2   3
ENDBRANCH   1   2
BRANCH   1  23
HETATM   23  N6  UNL     1      -7.462  15.672 -31.597  1.00  0.00    -0.259 N 
HETATM   24  C10 UNL     1      -6.233  15.053 -31.530  1.00  0.00     0.267 C 
HETATM   25  C11 UNL     1      -5.482  15.258 -30.243  1.00  0.00     0.199 C 
HETATM   26  C12 UNL     1      -6.433  14.894 -29.125  1.00  0.00     0.185 C 
HETATM   27  C13 UNL     1      -7.545  15.913 -29.148  1.00  0.00     0.211 C 
HETATM   28  C14 UNL     1      -8.179  16.115 -30.480  1.00  0.00     0.226 C 
BRANCH  24  29
HETATM   29  O5  UNL     1      -6.405  13.652 -31.642  1.00  0.00    -0.373 OA
ATOM     30  H5  UNL     1      -5.580  13.252 -31.893  1.00  0.00     0.212 HD
ENDBRANCH  24  29
BRANCH  25  31
HETATM   31  O6  UNL     1      -4.431  14.333 -30.187  1.00  0.00    -0.388 OA
ATOM     32  H6  UNL     1      -3.726  14.706 -29.671  1.00  0.00     0.210 HD
ENDBRANCH  25  31
BRANCH  26  33
HETATM   33  O7  UNL     1      -5.821  14.936 -27.883  1.00  0.00    -0.390 OA
ATOM     34  H7  UNL     1      -5.676  15.826 -27.584  1.00  0.00     0.210 HD
ENDBRANCH  26  33
BRANCH  27  35
HETATM   35  O8  UNL     1      -7.011  17.093 -28.614  1.00  0.00    -0.388 OA
ATOM     36  H8  UNL     1      -6.218  17.275 -29.103  1.00  0.00     0.210 HD
ENDBRANCH  27  35
BRANCH  28  37
HETATM   37  O9  UNL     1      -9.368  15.326 -30.447  1.00  0.00    -0.364 OA
ATOM     38  H9  UNL     1      -9.882  15.603 -31.196  1.00  0.00     0.213 HD
ENDBRANCH  28  37
BRANCH  28  39
HETATM   39  C15 UNL     1      -8.733  17.536 -30.639  1.00  0.00     0.314 C 
BRANCH  39  40
HETATM   40  O10 UNL     1      -7.732  18.341 -31.213  1.00  0.00    -0.367 OA
ATOM     41  H10 UNL     1      -8.015  19.247 -31.170  1.00  0.00     0.212 HD
ENDBRANCH  39  40
BRANCH  39  42
HETATM   42  O11 UNL     1      -9.864  17.593 -31.389  1.00  0.00    -0.367 OA
ATOM     43  H11 UNL     1      -9.785  17.147 -32.224  1.00  0.00     0.212 HD
ENDBRANCH  39  42
ENDBRANCH  28  39
ENDBRANCH   1  23
TORSDOF 14
ENDMDL
MODEL 4
REMARK VINA RESULT: -8.040499974      2.699      6.028
REMARK  14 active torsions:
REMARK  status: ('A' for Active; 'I' for Inactive)
REMARK    1  A    between atoms: C2_2  and  C5_12 
REMARK    2  A    between atoms: N1_3  and  N2_5 
REMARK       I    between atoms: N2_5  and  C3_7 
REMARK    3  A    between atoms: C3_7  and  C4_9 
REMARK    4  A    between atoms: C8_20  and  C9_21 
REMARK    5  A    between atoms: C9_21  and  N5_22 
REMARK    6  A    between atoms: N5_22  and  N6_23 
REMARK    7  A    between atoms: C10_24  and  O5_25 
REMARK    8  A    between atoms: C11_27  and  O6_28 
REMARK    9  A    between atoms: C12_30  and  O7_31 
REMARK   10  A    between atoms: C13_33  and  O8_34 
REMARK   11  A    between atoms: C14_36  and  O9_37 
REMARK   12  A    between atoms: C14_36  and  C15_39 
REMARK   13  A    between atoms: C15_39  and  O10_40 
REMARK   14  A    between atoms: C15_39  and  O11_42 
ROOT
HETATM    1  N5  UNL     1      -5.919  13.504 -32.540  1.00  0.00    -0.134 NA
ENDROOT
BRANCH   1   2
HETATM    2  C9  UNL     1      -6.879  12.445 -32.899  1.00  0.00     0.180 C 
BRANCH   2   3
HETATM    3  C8  UNL     1      -6.447  11.697 -34.116  1.00  0.00     0.045 A 
HETATM    4  C5  UNL     1      -6.790  12.212 -35.328  1.00  0.00     0.046 A 
HETATM    5  S1  UNL     1      -6.269  11.207 -36.673  1.00  0.00    -0.026 SA
HETATM    6  C6  UNL     1      -5.455   9.816 -36.185  1.00  0.00     0.291 A 
HETATM    7  O3  UNL     1      -4.991   8.950 -37.000  1.00  0.00    -0.260 OA
HETATM    8  N4  UNL     1      -5.322   9.674 -34.864  1.00  0.00    -0.284 N 
HETATM    9  C7  UNL     1      -5.763  10.509 -33.946  1.00  0.00     0.257 A 
ATOM     10  H4  UNL     1      -4.832   8.842 -34.535  1.00  0.00     0.172 HD
HETATM   11  O4  UNL     1      -5.518  10.156 -32.741  1.00  0.00    -0.267 OA
BRANCH   4  12
HETATM   12  C2  UNL     1      -7.486  13.438 -35.633  1.00  0.00     0.040 C 
HETATM   13  C1  UNL     1      -8.886  13.616 -35.933  1.00  0.00     0.071 C 
HETATM   14  N1  UNL     1      -6.769  14.559 -35.629  1.00  0.00    -0.301 N 
ATOM     15  H1  UNL     1      -5.773  14.484 -35.422  1.00  0.00     0.186 HD
BRANCH  14  16
HETATM   16  N2  UNL     1      -7.274  15.802 -35.881  1.00  0.00    -0.262 N 
HETATM   17  C3  UNL     1      -7.051  16.955 -35.087  1.00  0.00     0.325 C 
HETATM   18  O1  UNL     1      -6.333  16.838 -34.068  1.00  0.00    -0.261 OA
ATOM     19  H2  UNL     1      -7.860  15.910 -36.710  1.00  0.00     0.190 HD
BRANCH  17  20
HETATM   20  C4  UNL     1      -7.613  18.252 -35.401  1.00  0.00     0.324 C 
HETATM   21  N3  UNL     1      -8.961  18.585 -35.141  1.00  0.00    -0.053 NA
HETATM   22  O2  UNL     1      -6.874  19.121 -35.924  1.00  0.00    -0.266 OA
ENDBRANCH  17  20
ENDBRANCH  14  16
ENDBRANCH   4  12
ENDBRANCH   2   3
ENDBRANCH   1   2
BRANCH   1  23
HETATM   23  N6  UNL     1      -6.511  14.414 -31.683  1.00  0.00    -0.259 N 
HETATM   24  C10 UNL     1      -7.880  14.570 -31.692  1.00  0.00     0.267 C 
HETATM   25  C11 UNL     1      -8.444  15.331 -30.524  1.00  0.00     0.199 C 
HETATM   26  C12 UNL     1      -7.663  16.623 -30.430  1.00  0.00     0.185 C 
HETATM   27  C13 UNL     1      -6.248  16.251 -30.065  1.00  0.00     0.211 C 
HETATM   28  C14 UNL     1      -5.637  15.200 -30.925  1.00  0.00     0.226 C 
BRANCH  24  29
HETATM   29  O5  UNL     1      -8.262  15.309 -32.837  1.00  0.00    -0.373 OA
ATOM     30  H5  UNL     1      -9.164  15.592 -32.743  1.00  0.00     0.212 HD
ENDBRANCH  24  29
BRANCH  25  31
HETATM   31  O6  UNL     1      -9.767  15.688 -30.820  1.00  0.00    -0.388 OA
ATOM     32  H6  UNL     1     -10.202  15.936 -30.012  1.00  0.00     0.210 HD
ENDBRANCH  25  31
BRANCH  26  33
HETATM   33  O7  UNL     1      -8.164  17.468 -29.453  1.00  0.00    -0.390 OA
ATOM     34  H7  UNL     1      -7.580  18.196 -29.275  1.00  0.00     0.210 HD
ENDBRANCH  26  33
BRANCH  27  35
HETATM   35  O8  UNL     1      -6.267  15.902 -28.708  1.00  0.00    -0.388 OA
ATOM     36  H8  UNL     1      -5.394  15.593 -28.498  1.00  0.00     0.210 HD
ENDBRANCH  27  35
BRANCH  28  37
HETATM   37  O9  UNL     1      -4.840  15.914 -31.871  1.00  0.00    -0.364 OA
ATOM     38  H9  UNL     1      -4.028  16.116 -31.422  1.00  0.00     0.213 HD
ENDBRANCH  28  37
BRANCH  28  39
HETATM   39  C15 UNL     1      -4.586  14.380 -30.165  1.00  0.00     0.314 C 
BRANCH  39  40
HETATM   40  O10 UNL     1      -5.181  13.175 -29.750  1.00  0.00    -0.367 OA
ATOM     41  H10 UNL     1      -4.565  12.468 -29.905  1.00  0.00     0.212 HD
ENDBRANCH  39  40
BRANCH  39  42
HETATM   42  O11 UNL     1      -3.471  14.123 -30.896  1.00  0.00    -0.367 OA
ATOM     43  H11 UNL     1      -3.652  13.958 -31.814  1.00  0.00     0.212 HD
ENDBRANCH  39  42
ENDBRANCH  28  39
ENDBRANCH   1  23
TORSDOF 14
ENDMDL
MODEL 5
REMARK VINA RESULT: -8.034005651      2.794      4.421
REMARK  14 active torsions:
REMARK  status: ('A' for Active; 'I' for Inactive)
REMARK    1  A    between atoms: C2_2  and  C5_12 
REMARK    2  A    between atoms: N1_3  and  N2_5 
REMARK       I    between atoms: N2_5  and  C3_7 
REMARK    3  A    between atoms: C3_7  and  C4_9 
REMARK    4  A    between atoms: C8_20  and  C9_21 
REMARK    5  A    between atoms: C9_21  and  N5_22 
REMARK    6  A    between atoms: N5_22  and  N6_23 
REMARK    7  A    between atoms: C10_24  and  O5_25 
REMARK    8  A    between atoms: C11_27  and  O6_28 
REMARK    9  A    between atoms: C12_30  and  O7_31 
REMARK   10  A    between atoms: C13_33  and  O8_34 
REMARK   11  A    between atoms: C14_36  and  O9_37 
REMARK   12  A    between atoms: C14_36  and  C15_39 
REMARK   13  A    between atoms: C15_39  and  O10_40 
REMARK   14  A    between atoms: C15_39  and  O11_42 
ROOT
HETATM    1  N5  UNL     1      -7.811  15.970 -32.764  1.00  0.00    -0.134 NA
ENDROOT
BRANCH   1   2
HETATM    2  C9  UNL     1      -6.707  16.173 -33.719  1.00  0.00     0.180 C 
BRANCH   2   3
HETATM    3  C8  UNL     1      -7.114  15.830 -35.113  1.00  0.00     0.045 A 
HETATM    4  C5  UNL     1      -7.167  14.512 -35.449  1.00  0.00     0.046 A 
HETATM    5  S1  UNL     1      -7.603  14.250 -37.131  1.00  0.00    -0.026 SA
HETATM    6  C6  UNL     1      -7.865  15.680 -37.979  1.00  0.00     0.291 A 
HETATM    7  O3  UNL     1      -8.193  15.717 -39.213  1.00  0.00    -0.260 OA
HETATM    8  N4  UNL     1      -7.706  16.797 -37.265  1.00  0.00    -0.284 N 
HETATM    9  C7  UNL     1      -7.372  16.863 -35.993  1.00  0.00     0.257 A 
ATOM     10  H4  UNL     1      -7.858  17.682 -37.750  1.00  0.00     0.172 HD
HETATM   11  O4  UNL     1      -7.275  18.050 -35.526  1.00  0.00    -0.267 OA
BRANCH   4  12
HETATM   12  C2  UNL     1      -6.934  13.352 -34.623  1.00  0.00     0.040 C 
HETATM   13  C1  UNL     1      -7.905  12.557 -33.910  1.00  0.00     0.071 C 
HETATM   14  N1  UNL     1      -5.676  12.939 -34.502  1.00  0.00    -0.301 N 
ATOM     15  H1  UNL     1      -4.953  13.470 -34.987  1.00  0.00     0.186 HD
BRANCH  14  16
HETATM   16  N2  UNL     1      -5.285  11.853 -33.773  1.00  0.00    -0.262 N 
HETATM   17  C3  UNL     1      -4.994  10.570 -34.302  1.00  0.00     0.325 C 
HETATM   18  O1  UNL     1      -5.099  10.406 -35.539  1.00  0.00    -0.261 OA
ATOM     19  H2  UNL     1      -5.195  11.974 -32.763  1.00  0.00     0.190 HD
BRANCH  17  20
HETATM   20  C4  UNL     1      -4.583   9.449 -33.482  1.00  0.00     0.324 C 
HETATM   21  N3  UNL     1      -3.649   8.484 -33.918  1.00  0.00    -0.053 NA
HETATM   22  O2  UNL     1      -5.075   9.328 -32.334  1.00  0.00    -0.266 OA
ENDBRANCH  17  20
ENDBRANCH  14  16
ENDBRANCH   4  12
ENDBRANCH   2   3
ENDBRANCH   1   2
BRANCH   1  23
HETATM   23  N6  UNL     1      -7.312  15.824 -31.481  1.00  0.00    -0.259 N 
HETATM   24  C10 UNL     1      -6.076  15.246 -31.291  1.00  0.00     0.267 C 
HETATM   25  C11 UNL     1      -5.492  15.422 -29.917  1.00  0.00     0.199 C 
HETATM   26  C12 UNL     1      -6.554  14.978 -28.935  1.00  0.00     0.185 C 
HETATM   27  C13 UNL     1      -7.695  15.958 -29.053  1.00  0.00     0.211 C 
HETATM   28  C14 UNL     1      -8.173  16.194 -30.443  1.00  0.00     0.226 C 
BRANCH  24  29
HETATM   29  O5  UNL     1      -6.178  13.846 -31.475  1.00  0.00    -0.373 OA
ATOM     30  H5  UNL     1      -6.072  13.641 -32.397  1.00  0.00     0.212 HD
ENDBRANCH  24  29
BRANCH  25  31
HETATM   31  O6  UNL     1      -4.419  14.533 -29.769  1.00  0.00    -0.388 OA
ATOM     32  H6  UNL     1      -3.626  14.964 -30.067  1.00  0.00     0.210 HD
ENDBRANCH  25  31
BRANCH  26  33
HETATM   33  O7  UNL     1      -6.096  14.989 -27.628  1.00  0.00    -0.390 OA
ATOM     34  H7  UNL     1      -6.807  14.972 -26.998  1.00  0.00     0.210 HD
ENDBRANCH  26  33
BRANCH  27  35
HETATM   35  O8  UNL     1      -7.276  17.133 -28.414  1.00  0.00    -0.388 OA
ATOM     36  H8  UNL     1      -7.909  17.305 -27.727  1.00  0.00     0.210 HD
ENDBRANCH  27  35
BRANCH  28  37
HETATM   37  O9  UNL     1      -9.326  15.363 -30.582  1.00  0.00    -0.364 OA
ATOM     38  H9  UNL     1      -9.800  15.704 -31.332  1.00  0.00     0.213 HD
ENDBRANCH  28  37
BRANCH  28  39
HETATM   39  C15 UNL     1      -8.762  17.600 -30.613  1.00  0.00     0.314 C 
BRANCH  39  40
HETATM   40  O10 UNL     1      -7.769  18.432 -31.164  1.00  0.00    -0.367 OA
ATOM     41  H10 UNL     1      -8.051  18.700 -32.031  1.00  0.00     0.212 HD
ENDBRANCH  39  40
BRANCH  39  42
HETATM   42  O11 UNL     1      -9.877  17.628 -31.388  1.00  0.00    -0.367 OA
ATOM     43  H11 UNL     1     -10.311  18.473 -31.393  1.00  0.00     0.212 HD
ENDBRANCH  39  42
ENDBRANCH  28  39
ENDBRANCH   1  23
TORSDOF 14
ENDMDL
