MODEL 1
REMARK VINA RESULT: -4.479138179      0.000      0.000
REMARK  2 active torsions:
REMARK  status: ('A' for Active; 'I' for Inactive)
REMARK    1  A    between atoms: C2_2  and  S1_3 
REMARK    2  A    between atoms: S1_3  and  C3_4 
ROOT
HETATM    1  C3  UNL     1     -67.186  27.366 -52.282  1.00  0.00     0.183 C 
HETATM    2  C4  UNL     1     -67.167  28.782 -51.754  1.00  0.00     0.046 C 
HETATM    3  C5  UNL     1     -68.656  29.108 -51.806  1.00  0.00     0.043 C 
HETATM    4  C6  UNL     1     -69.278  27.759 -51.586  1.00  0.00     0.078 C 
HETATM    5  C7  UNL     1     -69.974  27.674 -50.249  1.00  0.00     0.040 C 
HETATM    6  C8  UNL     1     -71.188  28.557 -50.158  1.00  0.00     0.004 C 
HETATM    7  C9  UNL     1     -72.243  28.146 -51.151  1.00  0.00     0.019 C 
HETATM    8  C10 UNL     1     -72.193  26.699 -51.520  1.00  0.00     0.113 C 
HETATM    9  N1  UNL     1     -71.066  26.304 -52.298  1.00  0.00    -0.418 N 
ATOM     10  H1  UNL     1     -70.886  25.329 -52.537  1.00  0.00     0.153 HD
HETATM   11  C11 UNL     1     -70.202  27.363 -52.722  1.00  0.00     0.151 C 
HETATM   12  O1  UNL     1     -68.245  26.822 -51.547  1.00  0.00    -0.363 OA
ENDROOT
BRANCH   1  13
HETATM   13  S1  UNL     1     -65.665  26.468 -51.953  1.00  0.00    -0.138 SA
BRANCH  13  14
HETATM   14  C2  UNL     1     -64.573  26.375 -53.386  1.00  0.00     0.072 C 
HETATM   15  C1  UNL     1     -64.065  27.773 -53.679  1.00  0.00     0.016 C 
ENDBRANCH  13  14
ENDBRANCH   1  13
TORSDOF 2
ENDMDL
MODEL 2
REMARK VINA RESULT: -4.370490992     12.027     13.458
REMARK  2 active torsions:
REMARK  status: ('A' for Active; 'I' for Inactive)
REMARK    1  A    between atoms: C2_2  and  S1_3 
REMARK    2  A    between atoms: S1_3  and  C3_4 
ROOT
HETATM    1  C3  UNL     1     -68.271  35.311 -42.892  1.00  0.00     0.183 C 
HETATM    2  C4  UNL     1     -68.606  36.296 -43.988  1.00  0.00     0.046 C 
HETATM    3  C5  UNL     1     -67.478  37.304 -43.798  1.00  0.00     0.043 C 
HETATM    4  C6  UNL     1     -66.371  36.438 -43.268  1.00  0.00     0.078 C 
HETATM    5  C7  UNL     1     -65.246  36.297 -44.263  1.00  0.00     0.040 C 
HETATM    6  C8  UNL     1     -64.501  37.582 -44.499  1.00  0.00     0.004 C 
HETATM    7  C9  UNL     1     -63.826  38.066 -43.243  1.00  0.00     0.019 C 
HETATM    8  C10 UNL     1     -63.478  36.973 -42.286  1.00  0.00     0.113 C 
HETATM    9  N1  UNL     1     -64.586  36.340 -41.650  1.00  0.00    -0.418 N 
ATOM     10  H1  UNL     1     -64.471  35.529 -41.042  1.00  0.00     0.153 HD
HETATM   11  C11 UNL     1     -65.868  36.914 -41.918  1.00  0.00     0.151 C 
HETATM   12  O1  UNL     1     -66.893  35.157 -43.086  1.00  0.00    -0.363 OA
ENDROOT
BRANCH   1  13
HETATM   13  S1  UNL     1     -69.112  33.735 -43.076  1.00  0.00    -0.138 SA
BRANCH  13  14
HETATM   14  C2  UNL     1     -69.906  33.174 -41.556  1.00  0.00     0.072 C 
HETATM   15  C1  UNL     1     -69.036  32.094 -40.944  1.00  0.00     0.016 C 
ENDBRANCH  13  14
ENDBRANCH   1  13
TORSDOF 2
ENDMDL
MODEL 3
REMARK VINA RESULT: -4.336513646      9.588     11.075
REMARK  2 active torsions:
REMARK  status: ('A' for Active; 'I' for Inactive)
REMARK    1  A    between atoms: C2_2  and  S1_3 
REMARK    2  A    between atoms: S1_3  and  C3_4 
ROOT
HETATM    1  C3  UNL     1     -64.562  35.386 -46.149  1.00  0.00     0.183 C 
HETATM    2  C4  UNL     1     -66.012  35.411 -46.573  1.00  0.00     0.046 C 
HETATM    3  C5  UNL     1     -65.887  36.119 -47.918  1.00  0.00     0.043 C 
HETATM    4  C6  UNL     1     -64.518  35.696 -48.367  1.00  0.00     0.078 C 
HETATM    5  C7  UNL     1     -64.581  34.771 -49.558  1.00  0.00     0.040 C 
HETATM    6  C8  UNL     1     -65.083  35.446 -50.804  1.00  0.00     0.004 C 
HETATM    7  C9  UNL     1     -64.161  36.552 -51.243  1.00  0.00     0.019 C 
HETATM    8  C10 UNL     1     -62.740  36.354 -50.823  1.00  0.00     0.113 C 
HETATM    9  N1  UNL     1     -62.493  36.472 -49.424  1.00  0.00    -0.418 N 
ATOM     10  H1  UNL     1     -61.579  36.275 -49.016  1.00  0.00     0.153 HD
HETATM   11  C11 UNL     1     -63.609  36.882 -48.628  1.00  0.00     0.151 C 
HETATM   12  O1  UNL     1     -63.946  34.957 -47.330  1.00  0.00    -0.363 OA
ENDROOT
BRANCH   1  13
HETATM   13  S1  UNL     1     -64.235  34.230 -44.814  1.00  0.00    -0.138 SA
BRANCH  13  14
HETATM   14  C2  UNL     1     -62.993  34.826 -43.649  1.00  0.00     0.072 C 
HETATM   15  C1  UNL     1     -62.486  36.164 -44.149  1.00  0.00     0.016 C 
ENDBRANCH  13  14
ENDBRANCH   1  13
TORSDOF 2
ENDMDL
MODEL 4
REMARK VINA RESULT: -4.326857781     11.841     13.372
REMARK  2 active torsions:
REMARK  status: ('A' for Active; 'I' for Inactive)
REMARK    1  A    between atoms: C2_2  and  S1_3 
REMARK    2  A    between atoms: S1_3  and  C3_4 
ROOT
HETATM    1  C3  UNL     1     -67.443  35.852 -42.999  1.00  0.00     0.183 C 
HETATM    2  C4  UNL     1     -67.658  36.909 -44.057  1.00  0.00     0.046 C 
HETATM    3  C5  UNL     1     -66.231  37.423 -44.217  1.00  0.00     0.043 C 
HETATM    4  C6  UNL     1     -65.421  36.198 -43.900  1.00  0.00     0.078 C 
HETATM    5  C7  UNL     1     -64.709  35.666 -45.119  1.00  0.00     0.040 C 
HETATM    6  C8  UNL     1     -63.632  36.586 -45.623  1.00  0.00     0.004 C 
HETATM    7  C9  UNL     1     -62.538  36.764 -44.604  1.00  0.00     0.019 C 
HETATM    8  C10 UNL     1     -62.385  35.604 -43.674  1.00  0.00     0.113 C 
HETATM    9  N1  UNL     1     -63.452  35.416 -42.747  1.00  0.00    -0.418 N 
ATOM     10  H1  UNL     1     -63.493  34.611 -42.123  1.00  0.00     0.153 HD
HETATM   11  C11 UNL     1     -64.460  36.430 -42.749  1.00  0.00     0.151 C 
HETATM   12  O1  UNL     1     -66.310  35.200 -43.501  1.00  0.00    -0.363 OA
ENDROOT
BRANCH   1  13
HETATM   13  S1  UNL     1     -68.817  34.704 -42.857  1.00  0.00    -0.138 SA
BRANCH  13  14
HETATM   14  C2  UNL     1     -70.251  35.416 -42.026  1.00  0.00     0.072 C 
HETATM   15  C1  UNL     1     -70.953  34.306 -41.269  1.00  0.00     0.016 C 
ENDBRANCH  13  14
ENDBRANCH   1  13
TORSDOF 2
ENDMDL
MODEL 5
REMARK VINA RESULT: -4.313978723      2.728      5.776
REMARK  2 active torsions:
REMARK  status: ('A' for Active; 'I' for Inactive)
REMARK    1  A    between atoms: C2_2  and  S1_3 
REMARK    2  A    between atoms: S1_3  and  C3_4 
ROOT
HETATM    1  C3  UNL     1     -68.937  28.946 -51.914  1.00  0.00     0.183 C 
HETATM    2  C4  UNL     1     -69.003  27.557 -51.324  1.00  0.00     0.046 C 
HETATM    3  C5  UNL     1     -67.933  26.860 -52.156  1.00  0.00     0.043 C 
HETATM    4  C6  UNL     1     -66.985  27.987 -52.454  1.00  0.00     0.078 C 
HETATM    5  C7  UNL     1     -65.667  27.814 -51.740  1.00  0.00     0.040 C 
HETATM    6  C8  UNL     1     -64.870  26.644 -52.246  1.00  0.00     0.004 C 
HETATM    7  C9  UNL     1     -64.488  26.821 -53.692  1.00  0.00     0.019 C 
HETATM    8  C10 UNL     1     -64.380  28.250 -54.116  1.00  0.00     0.113 C 
HETATM    9  N1  UNL     1     -65.611  28.966 -54.177  1.00  0.00    -0.418 N 
ATOM     10  H1  UNL     1     -65.648  29.966 -54.374  1.00  0.00     0.153 HD
HETATM   11  C11 UNL     1     -66.791  28.192 -53.944  1.00  0.00     0.151 C 
HETATM   12  O1  UNL     1     -67.553  29.156 -51.946  1.00  0.00    -0.363 OA
ENDROOT
BRANCH   1  13
HETATM   13  S1  UNL     1     -69.737  30.188 -50.893  1.00  0.00    -0.138 SA
BRANCH  13  14
HETATM   14  C2  UNL     1     -70.875  29.484 -49.683  1.00  0.00     0.072 C 
HETATM   15  C1  UNL     1     -71.059  30.496 -48.569  1.00  0.00     0.016 C 
ENDBRANCH  13  14
ENDBRANCH   1  13
TORSDOF 2
ENDMDL
