MODEL 1
REMARK VINA RESULT: -4.600672033      0.000      0.000
REMARK  3 active torsions:
REMARK  status: ('A' for Active; 'I' for Inactive)
REMARK    1  A    between atoms: C5_5  and  C6_6 
REMARK    2  A    between atoms: C6_6  and  S1_7 
REMARK    3  A    between atoms: S1_7  and  C7_8 
ROOT
HETATM    1  C6  UNL     1     -68.345  29.025 -52.695  1.00  0.00     0.087 C 
ENDROOT
BRANCH   1   2
HETATM    2  C5  UNL     1     -67.222  28.008 -52.705  1.00  0.00    -0.005 C 
HETATM    3  C4  UNL     1     -66.357  28.295 -51.499  1.00  0.00     0.005 C 
HETATM    4  C3  UNL     1     -64.951  27.837 -51.661  1.00  0.00     0.000 C 
HETATM    5  C2  UNL     1     -64.781  26.691 -52.607  1.00  0.00     0.000 C 
HETATM    6  C1  UNL     1     -65.547  25.475 -52.285  1.00  0.00     0.000 C 
HETATM    7  C11 UNL     1     -66.950  25.660 -51.850  1.00  0.00     0.000 C 
HETATM    8  C10 UNL     1     -67.750  26.619 -52.671  1.00  0.00     0.005 C 
ENDBRANCH   1   2
BRANCH   1   9
HETATM    9  S1  UNL     1     -68.934  29.398 -51.047  1.00  0.00    -0.094 SA
BRANCH   9  10
HETATM   10  C7  UNL     1     -70.521  28.615 -50.813  1.00  0.00     0.136 C 
HETATM   11  N1  UNL     1     -71.646  29.222 -50.690  1.00  0.00    -0.369 N 
HETATM   12  C8  UNL     1     -72.743  28.302 -50.514  1.00  0.00     0.141 C 
ATOM     13  H1  UNL     1     -71.751  30.237 -50.714  1.00  0.00     0.161 HD
HETATM   14  C9  UNL     1     -72.156  26.992 -50.965  1.00  0.00     0.141 C 
HETATM   15  N2  UNL     1     -70.748  27.189 -50.732  1.00  0.00    -0.369 N 
ATOM     16  H2  UNL     1     -70.051  26.468 -50.546  1.00  0.00     0.161 HD
ENDBRANCH   9  10
ENDBRANCH   1   9
TORSDOF 3
ENDMDL
MODEL 2
REMARK VINA RESULT: -4.584489256      1.372      1.711
REMARK  3 active torsions:
REMARK  status: ('A' for Active; 'I' for Inactive)
REMARK    1  A    between atoms: C5_5  and  C6_6 
REMARK    2  A    between atoms: C6_6  and  S1_7 
REMARK    3  A    between atoms: S1_7  and  C7_8 
ROOT
HETATM    1  C6  UNL     1     -67.752  28.620 -51.497  1.00  0.00     0.087 C 
ENDROOT
BRANCH   1   2
HETATM    2  C5  UNL     1     -66.744  27.740 -52.204  1.00  0.00    -0.005 C 
HETATM    3  C4  UNL     1     -65.389  28.056 -51.611  1.00  0.00     0.005 C 
HETATM    4  C3  UNL     1     -64.260  27.770 -52.536  1.00  0.00     0.000 C 
HETATM    5  C2  UNL     1     -64.546  26.704 -53.546  1.00  0.00     0.000 C 
HETATM    6  C1  UNL     1     -64.938  25.394 -53.002  1.00  0.00     0.000 C 
HETATM    7  C11 UNL     1     -65.901  25.394 -51.877  1.00  0.00     0.000 C 
HETATM    8  C10 UNL     1     -67.078  26.300 -52.046  1.00  0.00     0.005 C 
ENDBRANCH   1   2
BRANCH   1   9
HETATM    9  S1  UNL     1     -69.356  27.845 -51.325  1.00  0.00    -0.094 SA
BRANCH   9  10
HETATM   10  C7  UNL     1     -70.373  28.857 -50.264  1.00  0.00     0.136 C 
HETATM   11  N1  UNL     1     -69.979  29.891 -49.610  1.00  0.00    -0.369 N 
HETATM   12  C8  UNL     1     -71.046  30.488 -48.844  1.00  0.00     0.141 C 
ATOM     13  H1  UNL     1     -69.023  30.247 -49.630  1.00  0.00     0.161 HD
HETATM   14  C9  UNL     1     -72.279  29.887 -49.463  1.00  0.00     0.141 C 
HETATM   15  N2  UNL     1     -71.779  28.647 -50.001  1.00  0.00    -0.369 N 
ATOM     16  H2  UNL     1     -72.311  27.792 -50.164  1.00  0.00     0.161 HD
ENDBRANCH   9  10
ENDBRANCH   1   9
TORSDOF 3
ENDMDL
MODEL 3
REMARK VINA RESULT: -4.456948533      1.517      2.279
REMARK  3 active torsions:
REMARK  status: ('A' for Active; 'I' for Inactive)
REMARK    1  A    between atoms: C5_5  and  C6_6 
REMARK    2  A    between atoms: C6_6  and  S1_7 
REMARK    3  A    between atoms: S1_7  and  C7_8 
ROOT
HETATM    1  C6  UNL     1     -69.313  28.469 -51.614  1.00  0.00     0.087 C 
ENDROOT
BRANCH   1   2
HETATM    2  C5  UNL     1     -67.990  27.731 -51.636  1.00  0.00    -0.005 C 
HETATM    3  C4  UNL     1     -68.107  26.649 -52.685  1.00  0.00     0.005 C 
HETATM    4  C3  UNL     1     -67.200  25.495 -52.445  1.00  0.00     0.000 C 
HETATM    5  C2  UNL     1     -65.967  25.832 -51.670  1.00  0.00     0.000 C 
HETATM    6  C1  UNL     1     -65.110  26.879 -52.251  1.00  0.00     0.000 C 
HETATM    7  C11 UNL     1     -65.789  28.074 -52.801  1.00  0.00     0.000 C 
HETATM    8  C10 UNL     1     -66.862  28.652 -51.936  1.00  0.00     0.005 C 
ENDBRANCH   1   2
BRANCH   1   9
HETATM    9  S1  UNL     1     -70.433  27.856 -50.361  1.00  0.00    -0.094 SA
BRANCH   9  10
HETATM   10  C7  UNL     1     -71.786  27.012 -51.162  1.00  0.00     0.136 C 
HETATM   11  N1  UNL     1     -73.035  27.244 -50.969  1.00  0.00    -0.369 N 
HETATM   12  C8  UNL     1     -73.876  26.390 -51.772  1.00  0.00     0.141 C 
ATOM     13  H1  UNL     1     -73.390  27.949 -50.323  1.00  0.00     0.161 HD
HETATM   14  C9  UNL     1     -72.924  25.866 -52.813  1.00  0.00     0.141 C 
HETATM   15  N2  UNL     1     -71.653  25.954 -52.139  1.00  0.00    -0.369 N 
ATOM     16  H2  UNL     1     -70.826  25.385 -52.316  1.00  0.00     0.161 HD
ENDBRANCH   9  10
ENDBRANCH   1   9
TORSDOF 3
ENDMDL
MODEL 4
REMARK VINA RESULT: -4.402611181      1.742      2.512
REMARK  3 active torsions:
REMARK  status: ('A' for Active; 'I' for Inactive)
REMARK    1  A    between atoms: C5_5  and  C6_6 
REMARK    2  A    between atoms: C6_6  and  S1_7 
REMARK    3  A    between atoms: S1_7  and  C7_8 
ROOT
HETATM    1  C6  UNL     1     -68.026  25.394 -53.367  1.00  0.00     0.087 C 
ENDROOT
BRANCH   1   2
HETATM    2  C5  UNL     1     -66.693  26.094 -53.201  1.00  0.00    -0.005 C 
HETATM    3  C4  UNL     1     -66.805  27.428 -53.904  1.00  0.00     0.005 C 
HETATM    4  C3  UNL     1     -65.496  27.965 -54.361  1.00  0.00     0.000 C 
HETATM    5  C2  UNL     1     -64.324  27.494 -53.560  1.00  0.00     0.000 C 
HETATM    6  C1  UNL     1     -64.375  27.783 -52.117  1.00  0.00     0.000 C 
HETATM    7  C11 UNL     1     -65.668  27.557 -51.432  1.00  0.00     0.000 C 
HETATM    8  C10 UNL     1     -66.349  26.269 -51.765  1.00  0.00     0.005 C 
ENDBRANCH   1   2
BRANCH   1   9
HETATM    9  S1  UNL     1     -69.343  26.505 -53.850  1.00  0.00    -0.094 SA
BRANCH   9  10
HETATM   10  C7  UNL     1     -70.160  27.100 -52.379  1.00  0.00     0.136 C 
HETATM   11  N1  UNL     1     -71.244  26.625 -51.879  1.00  0.00    -0.369 N 
HETATM   12  C8  UNL     1     -71.645  27.329 -50.684  1.00  0.00     0.141 C 
ATOM     13  H1  UNL     1     -71.761  25.841 -52.279  1.00  0.00     0.161 HD
HETATM   14  C9  UNL     1     -70.391  28.064 -50.293  1.00  0.00     0.141 C 
HETATM   15  N2  UNL     1     -69.707  28.198 -51.554  1.00  0.00    -0.369 N 
ATOM     16  H2  UNL     1     -69.038  28.922 -51.814  1.00  0.00     0.161 HD
ENDBRANCH   9  10
ENDBRANCH   1   9
TORSDOF 3
ENDMDL
MODEL 5
REMARK VINA RESULT: -4.401138762     11.021     11.994
REMARK  3 active torsions:
REMARK  status: ('A' for Active; 'I' for Inactive)
REMARK    1  A    between atoms: C5_5  and  C6_6 
REMARK    2  A    between atoms: C6_6  and  S1_7 
REMARK    3  A    between atoms: S1_7  and  C7_8 
ROOT
HETATM    1  C6  UNL     1     -66.893  36.432 -42.830  1.00  0.00     0.087 C 
ENDROOT
BRANCH   1   2
HETATM    2  C5  UNL     1     -65.420  36.109 -42.972  1.00  0.00    -0.005 C 
HETATM    3  C4  UNL     1     -65.171  35.818 -44.434  1.00  0.00     0.005 C 
HETATM    4  C3  UNL     1     -63.999  34.932 -44.667  1.00  0.00     0.000 C 
HETATM    5  C2  UNL     1     -62.955  34.999 -43.598  1.00  0.00     0.000 C 
HETATM    6  C1  UNL     1     -62.385  36.331 -43.341  1.00  0.00     0.000 C 
HETATM    7  C11 UNL     1     -63.331  37.469 -43.293  1.00  0.00     0.000 C 
HETATM    8  C10 UNL     1     -64.572  37.233 -42.495  1.00  0.00     0.005 C 
ENDBRANCH   1   2
BRANCH   1   9
HETATM    9  S1  UNL     1     -67.946  35.300 -43.731  1.00  0.00    -0.094 SA
BRANCH   9  10
HETATM   10  C7  UNL     1     -69.158  34.624 -42.609  1.00  0.00     0.136 C 
HETATM   11  N1  UNL     1     -70.125  35.275 -42.069  1.00  0.00    -0.369 N 
HETATM   12  C8  UNL     1     -70.928  34.439 -41.209  1.00  0.00     0.141 C 
ATOM     13  H1  UNL     1     -70.305  36.266 -42.230  1.00  0.00     0.161 HD
HETATM   14  C9  UNL     1     -70.536  33.049 -41.633  1.00  0.00     0.141 C 
HETATM   15  N2  UNL     1     -69.210  33.251 -42.159  1.00  0.00    -0.369 N 
ATOM     16  H2  UNL     1     -68.458  32.563 -42.205  1.00  0.00     0.161 HD
ENDBRANCH   9  10
ENDBRANCH   1   9
TORSDOF 3
ENDMDL
