MODEL 1
REMARK VINA RESULT: -6.979602171      0.000      0.000
REMARK  10 active torsions:
REMARK  status: ('A' for Active; 'I' for Inactive)
REMARK    1  A    between atoms: O1_2  and  C2_3 
REMARK    2  A    between atoms: C2_3  and  C3_4 
REMARK    3  A    between atoms: N1_9  and  C8_10 
REMARK    4  A    between atoms: C9_13  and  N3_14 
REMARK    5  A    between atoms: N3_14  and  N4_15 
REMARK       I    between atoms: N4_15  and  C10_16 
REMARK    6  A    between atoms: C10_16  and  C11_18 
REMARK    7  A    between atoms: C11_18  and  N5_19 
REMARK    8  A    between atoms: C13_26  and  N9_27 
REMARK    9  A    between atoms: C14_32  and  N11_33 
REMARK   10  A    between atoms: N13_39  and  O3_40 
ROOT
HETATM    1  C8  UNL     1      27.009  -5.101  12.689  1.00  0.00     0.711 A 
HETATM    2  N2  UNL     1      27.193  -6.160  11.883  1.00  0.00    -0.158 N 
ATOM      3  H2  UNL     1      26.811  -6.130  10.938  1.00  0.00     0.187 HD
HETATM    4  C9  UNL     1      27.889  -7.303  12.293  1.00  0.00     0.251 A 
HETATM    5  C12 UNL     1      28.379  -7.280  13.589  1.00  0.00     0.117 A 
HETATM    6  C13 UNL     1      29.066  -8.369  14.107  1.00  0.00     0.134 A 
HETATM    7  N10 UNL     1      29.511  -8.306  15.382  1.00  0.00    -0.176 N 
ATOM      8  H10 UNL     1      30.017  -9.103  15.767  1.00  0.00     0.186 HD
HETATM    9  C14 UNL     1      29.309  -7.234  16.156  1.00  0.00     0.679 A 
HETATM   10  N12 UNL     1      28.642  -6.151  15.689  1.00  0.00    -0.173 N 
ATOM     11  H12 UNL     1      28.486  -5.332  16.277  1.00  0.00     0.186 HD
HETATM   12  C15 UNL     1      28.194  -6.194  14.423  1.00  0.00     0.185 A 
HETATM   13  N13 UNL     1      27.494  -5.116  13.920  1.00  0.00    -0.034 N 
ENDROOT
BRANCH   4  14
HETATM   14  N3  UNL     1      28.000  -8.188  11.513  1.00  0.00    -0.225 NA
BRANCH  14  15
HETATM   15  N4  UNL     1      28.105  -9.085  10.642  1.00  0.00    -0.206 NA
HETATM   16  C10 UNL     1      28.218 -10.061   9.693  1.00  0.00     0.348 C 
HETATM   17  O2  UNL     1      28.525  -9.862   8.474  1.00  0.00    -0.252 OA
BRANCH  16  18
HETATM   18  C11 UNL     1      27.995 -11.534   9.964  1.00  0.00     0.291 C 
BRANCH  18  19
HETATM   19  N5  UNL     1      28.422 -12.251   8.767  1.00  0.00    -0.191 N 
HETATM   20  N6  UNL     1      27.826 -12.953   7.819  1.00  0.00     0.015 NA
HETATM   21  N7  UNL     1      29.025 -13.117   7.255  1.00  0.00    -0.209 N 
HETATM   22  N8  UNL     1      29.626 -12.417   8.198  1.00  0.00    -0.214 N 
ATOM     23  H7  UNL     1      29.351 -13.599   6.417  1.00  0.00     0.207 HD
ATOM     24  H8  UNL     1      30.582 -12.129   8.404  1.00  0.00     0.211 HD
ENDBRANCH  18  19
ENDBRANCH  16  18
ENDBRANCH  14  15
ENDBRANCH   4  14
BRANCH   1  25
HETATM   25  N1  UNL     1      26.285  -3.960  12.154  1.00  0.00    -0.215 N 
HETATM   26  C7  UNL     1      27.017  -2.920  11.513  1.00  0.00     0.141 C 
HETATM   27  C6  UNL     1      26.375  -1.574  11.436  1.00  0.00     0.020 C 
HETATM   28  C5  UNL     1      24.934  -1.479  11.754  1.00  0.00     0.002 C 
HETATM   29  C4  UNL     1      24.185  -2.342  10.755  1.00  0.00     0.008 C 
HETATM   30  C3  UNL     1      23.932  -3.709  11.341  1.00  0.00     0.028 C 
HETATM   31  C16 UNL     1      24.865  -4.124  12.398  1.00  0.00     0.148 C 
BRANCH  30  32
HETATM   32  C2  UNL     1      23.659  -4.682  10.245  1.00  0.00     0.173 C 
BRANCH  32  33
HETATM   33  O1  UNL     1      24.655  -5.689  10.348  1.00  0.00    -0.396 OA
HETATM   34  C1  UNL     1      24.092  -6.930  10.082  1.00  0.00     0.201 C 
ENDBRANCH  32  33
ENDBRANCH  30  32
ENDBRANCH   1  25
BRANCH   6  35
HETATM   35  N9  UNL     1      29.267  -9.389  13.387  1.00  0.00    -0.384 N 
ATOM     36  H92 UNL     1      28.707  -9.572  12.554  1.00  0.00     0.157 HD
ATOM     37  H91 UNL     1      30.000 -10.053  13.637  1.00  0.00     0.157 HD
ENDBRANCH   6  35
BRANCH  13  38
HETATM   38  O3  UNL     1      27.382  -4.071  14.789  1.00  0.00    -0.268 OA
ATOM     39  H3  UNL     1      26.599  -3.542  14.879  1.00  0.00     0.246 HD
ENDBRANCH  13  38
BRANCH   9  40
HETATM   40  N11 UNL     1      29.734  -7.203  17.364  1.00  0.00    -0.234 N 
ATOM     41 2H11 UNL     1      29.071  -6.948  18.097  1.00  0.00     0.174 HD
ATOM     42 1H11 UNL     1      30.702  -7.431  17.587  1.00  0.00     0.174 HD
ENDBRANCH   9  40
TORSDOF 10
ENDMDL
MODEL 2
REMARK VINA RESULT: -6.835680595      0.945      1.097
REMARK  10 active torsions:
REMARK  status: ('A' for Active; 'I' for Inactive)
REMARK    1  A    between atoms: O1_2  and  C2_3 
REMARK    2  A    between atoms: C2_3  and  C3_4 
REMARK    3  A    between atoms: N1_9  and  C8_10 
REMARK    4  A    between atoms: C9_13  and  N3_14 
REMARK    5  A    between atoms: N3_14  and  N4_15 
REMARK       I    between atoms: N4_15  and  C10_16 
REMARK    6  A    between atoms: C10_16  and  C11_18 
REMARK    7  A    between atoms: C11_18  and  N5_19 
REMARK    8  A    between atoms: C13_26  and  N9_27 
REMARK    9  A    between atoms: C14_32  and  N11_33 
REMARK   10  A    between atoms: N13_39  and  O3_40 
ROOT
HETATM    1  C8  UNL     1      27.050  -5.344  12.411  1.00  0.00     0.711 A 
HETATM    2  N2  UNL     1      27.220  -6.396  11.593  1.00  0.00    -0.158 N 
ATOM      3  H2  UNL     1      26.829  -6.355  10.652  1.00  0.00     0.187 HD
HETATM    4  C9  UNL     1      27.914  -7.546  11.985  1.00  0.00     0.251 A 
HETATM    5  C12 UNL     1      28.416  -7.538  13.277  1.00  0.00     0.117 A 
HETATM    6  C13 UNL     1      29.103  -8.636  13.777  1.00  0.00     0.134 A 
HETATM    7  N10 UNL     1      29.559  -8.587  15.049  1.00  0.00    -0.176 N 
ATOM      8  H10 UNL     1      30.065  -9.392  15.421  1.00  0.00     0.186 HD
HETATM    9  C14 UNL     1      29.371  -7.523  15.834  1.00  0.00     0.679 A 
HETATM   10  N12 UNL     1      28.705  -6.431  15.384  1.00  0.00    -0.173 N 
ATOM     11  H12 UNL     1      28.559  -5.618  15.982  1.00  0.00     0.186 HD
HETATM   12  C15 UNL     1      28.245  -6.460  14.123  1.00  0.00     0.185 A 
HETATM   13  N13 UNL     1      27.546  -5.373  13.636  1.00  0.00    -0.034 N 
ENDROOT
BRANCH   4  14
HETATM   14  N3  UNL     1      28.012  -8.424  11.195  1.00  0.00    -0.225 NA
BRANCH  14  15
HETATM   15  N4  UNL     1      28.122  -9.393  10.405  1.00  0.00    -0.206 NA
HETATM   16  C10 UNL     1      28.239 -10.448   9.545  1.00  0.00     0.348 C 
HETATM   17  O2  UNL     1      28.560 -10.355   8.317  1.00  0.00    -0.252 OA
BRANCH  16  18
HETATM   18  C11 UNL     1      28.004 -11.890   9.938  1.00  0.00     0.291 C 
BRANCH  18  19
HETATM   19  N5  UNL     1      29.315 -12.471  10.210  1.00  0.00    -0.191 N 
HETATM   20  N6  UNL     1      29.833 -13.687  10.208  1.00  0.00     0.015 NA
HETATM   21  N7  UNL     1      31.002 -13.137  10.542  1.00  0.00    -0.209 N 
HETATM   22  N8  UNL     1      30.492 -11.920  10.546  1.00  0.00    -0.214 N 
ATOM     23  H7  UNL     1      31.933 -13.513  10.725  1.00  0.00     0.207 HD
ATOM     24  H8  UNL     1      30.838 -10.978  10.726  1.00  0.00     0.211 HD
ENDBRANCH  18  19
ENDBRANCH  16  18
ENDBRANCH  14  15
ENDBRANCH   4  14
BRANCH   1  25
HETATM   25  N1  UNL     1      26.327  -4.194  11.893  1.00  0.00    -0.215 N 
HETATM   26  C7  UNL     1      27.038  -3.215  11.141  1.00  0.00     0.141 C 
HETATM   27  C6  UNL     1      26.448  -1.846  11.063  1.00  0.00     0.020 C 
HETATM   28  C5  UNL     1      25.049  -1.671  11.508  1.00  0.00     0.002 C 
HETATM   29  C4  UNL     1      24.174  -2.540  10.623  1.00  0.00     0.008 C 
HETATM   30  C3  UNL     1      23.920  -3.869  11.291  1.00  0.00     0.028 C 
HETATM   31  C16 UNL     1      24.930  -4.282  12.275  1.00  0.00     0.148 C 
BRANCH  30  32
HETATM   32  C2  UNL     1      23.504  -4.872  10.270  1.00  0.00     0.173 C 
BRANCH  32  33
HETATM   33  O1  UNL     1      24.525  -5.859  10.243  1.00  0.00    -0.396 OA
HETATM   34  C1  UNL     1      23.976  -7.086   9.896  1.00  0.00     0.201 C 
ENDBRANCH  32  33
ENDBRANCH  30  32
ENDBRANCH   1  25
BRANCH   6  35
HETATM   35  N9  UNL     1      29.290  -9.650  13.045  1.00  0.00    -0.384 N 
ATOM     36  H92 UNL     1      30.211  -9.870  12.664  1.00  0.00     0.157 HD
ATOM     37  H91 UNL     1      28.510 -10.269  12.823  1.00  0.00     0.157 HD
ENDBRANCH   6  35
BRANCH  13  38
HETATM   38  O3  UNL     1      27.449  -4.336  14.517  1.00  0.00    -0.268 OA
ATOM     39  H3  UNL     1      28.091  -4.157  15.193  1.00  0.00     0.246 HD
ENDBRANCH  13  38
BRANCH   9  40
HETATM   40  N11 UNL     1      29.807  -7.505  17.039  1.00  0.00    -0.234 N 
ATOM     41 2H11 UNL     1      30.770  -7.206  17.193  1.00  0.00     0.174 HD
ATOM     42 1H11 UNL     1      29.208  -7.775  17.819  1.00  0.00     0.174 HD
ENDBRANCH   9  40
TORSDOF 10
ENDMDL
MODEL 3
REMARK VINA RESULT: -6.710421490      2.247      3.135
REMARK  10 active torsions:
REMARK  status: ('A' for Active; 'I' for Inactive)
REMARK    1  A    between atoms: O1_2  and  C2_3 
REMARK    2  A    between atoms: C2_3  and  C3_4 
REMARK    3  A    between atoms: N1_9  and  C8_10 
REMARK    4  A    between atoms: C9_13  and  N3_14 
REMARK    5  A    between atoms: N3_14  and  N4_15 
REMARK       I    between atoms: N4_15  and  C10_16 
REMARK    6  A    between atoms: C10_16  and  C11_18 
REMARK    7  A    between atoms: C11_18  and  N5_19 
REMARK    8  A    between atoms: C13_26  and  N9_27 
REMARK    9  A    between atoms: C14_32  and  N11_33 
REMARK   10  A    between atoms: N13_39  and  O3_40 
ROOT
HETATM    1  C8  UNL     1      26.268  -6.906  10.952  1.00  0.00     0.711 A 
HETATM    2  N2  UNL     1      26.581  -8.028  10.282  1.00  0.00    -0.158 N 
ATOM      3  H2  UNL     1      25.930  -8.380   9.580  1.00  0.00     0.187 HD
HETATM    4  C9  UNL     1      27.769  -8.731  10.511  1.00  0.00     0.251 A 
HETATM    5  C12 UNL     1      28.608  -8.201  11.479  1.00  0.00     0.117 A 
HETATM    6  C13 UNL     1      29.803  -8.829  11.803  1.00  0.00     0.134 A 
HETATM    7  N10 UNL     1      30.580  -8.283  12.765  1.00  0.00    -0.176 N 
ATOM      8  H10 UNL     1      31.459  -8.741  13.006  1.00  0.00     0.186 HD
HETATM    9  C14 UNL     1      30.235  -7.165  13.411  1.00  0.00     0.679 A 
HETATM   10  N12 UNL     1      29.077  -6.522  13.126  1.00  0.00    -0.173 N 
ATOM     11  H12 UNL     1      28.811  -5.669  13.618  1.00  0.00     0.186 HD
HETATM   12  C15 UNL     1      28.292  -7.048  12.171  1.00  0.00     0.185 A 
HETATM   13  N13 UNL     1      27.096  -6.430  11.867  1.00  0.00    -0.034 N 
ENDROOT
BRANCH   4  14
HETATM   14  N3  UNL     1      27.960  -9.711   9.872  1.00  0.00    -0.225 NA
BRANCH  14  15
HETATM   15  N4  UNL     1      28.206 -10.763   9.235  1.00  0.00    -0.206 NA
HETATM   16  C10 UNL     1      28.474 -11.910   8.542  1.00  0.00     0.348 C 
HETATM   17  O2  UNL     1      27.595 -12.717   8.098  1.00  0.00    -0.252 OA
BRANCH  16  18
HETATM   18  C11 UNL     1      29.870 -12.384   8.199  1.00  0.00     0.291 C 
BRANCH  18  19
HETATM   19  N5  UNL     1      30.402 -13.027   9.397  1.00  0.00    -0.191 N 
HETATM   20  N6  UNL     1      31.597 -13.393   9.825  1.00  0.00     0.015 NA
HETATM   21  N7  UNL     1      31.012 -13.818  10.946  1.00  0.00    -0.209 N 
HETATM   22  N8  UNL     1      29.815 -13.455  10.525  1.00  0.00    -0.214 N 
ATOM     23  H7  UNL     1      31.356 -14.257  11.801  1.00  0.00     0.207 HD
ATOM     24  H8  UNL     1      28.865 -13.485  10.894  1.00  0.00     0.211 HD
ENDBRANCH  18  19
ENDBRANCH  16  18
ENDBRANCH  14  15
ENDBRANCH   4  14
BRANCH   1  25
HETATM   25  N1  UNL     1      25.015  -6.247  10.620  1.00  0.00    -0.215 N 
HETATM   26  C7  UNL     1      25.029  -4.857  10.312  1.00  0.00     0.141 C 
HETATM   27  C6  UNL     1      23.751  -4.102  10.479  1.00  0.00     0.020 C 
HETATM   28  C5  UNL     1      22.509  -4.883  10.663  1.00  0.00     0.002 C 
HETATM   29  C4  UNL     1      22.315  -5.736   9.422  1.00  0.00     0.008 C 
HETATM   30  C3  UNL     1      22.878  -7.117   9.651  1.00  0.00     0.028 C 
HETATM   31  C16 UNL     1      23.929  -7.207  10.675  1.00  0.00     0.148 C 
BRANCH  30  32
HETATM   32  C2  UNL     1      23.138  -7.777   8.340  1.00  0.00     0.173 C 
BRANCH  32  33
HETATM   33  O1  UNL     1      22.002  -7.517   7.531  1.00  0.00    -0.396 OA
HETATM   34  C1  UNL     1      21.206  -8.654   7.466  1.00  0.00     0.201 C 
ENDBRANCH  32  33
ENDBRANCH  30  32
ENDBRANCH   1  25
BRANCH   6  35
HETATM   35  N9  UNL     1      30.144  -9.887  11.199  1.00  0.00    -0.384 N 
ATOM     36  H92 UNL     1      29.594 -10.743  11.272  1.00  0.00     0.157 HD
ATOM     37  H91 UNL     1      30.987  -9.897  10.625  1.00  0.00     0.157 HD
ENDBRANCH   6  35
BRANCH  13  38
HETATM   38  O3  UNL     1      26.870  -5.282  12.566  1.00  0.00    -0.268 OA
ATOM     39  H3  UNL     1      26.082  -5.119  13.071  1.00  0.00     0.246 HD
ENDBRANCH  13  38
BRANCH   9  40
HETATM   40  N11 UNL     1      30.985  -6.673  14.325  1.00  0.00    -0.234 N 
ATOM     41 2H11 UNL     1      31.308  -7.296  15.066  1.00  0.00     0.174 HD
ATOM     42 1H11 UNL     1      31.257  -5.689  14.309  1.00  0.00     0.174 HD
ENDBRANCH   9  40
TORSDOF 10
ENDMDL
MODEL 4
REMARK VINA RESULT: -6.632987107      2.991      5.306
REMARK  10 active torsions:
REMARK  status: ('A' for Active; 'I' for Inactive)
REMARK    1  A    between atoms: O1_2  and  C2_3 
REMARK    2  A    between atoms: C2_3  and  C3_4 
REMARK    3  A    between atoms: N1_9  and  C8_10 
REMARK    4  A    between atoms: C9_13  and  N3_14 
REMARK    5  A    between atoms: N3_14  and  N4_15 
REMARK       I    between atoms: N4_15  and  C10_16 
REMARK    6  A    between atoms: C10_16  and  C11_18 
REMARK    7  A    between atoms: C11_18  and  N5_19 
REMARK    8  A    between atoms: C13_26  and  N9_27 
REMARK    9  A    between atoms: C14_32  and  N11_33 
REMARK   10  A    between atoms: N13_39  and  O3_40 
ROOT
HETATM    1  C8  UNL     1      26.203  -3.035  11.419  1.00  0.00     0.711 A 
HETATM    2  N2  UNL     1      26.854  -4.211  11.398  1.00  0.00    -0.158 N 
ATOM      3  H2  UNL     1      27.831  -4.237  11.688  1.00  0.00     0.187 HD
HETATM    4  C9  UNL     1      26.239  -5.400  10.990  1.00  0.00     0.251 A 
HETATM    5  C12 UNL     1      24.912  -5.294  10.605  1.00  0.00     0.117 A 
HETATM    6  C13 UNL     1      24.210  -6.407  10.163  1.00  0.00     0.134 A 
HETATM    7  N10 UNL     1      22.923  -6.250   9.783  1.00  0.00    -0.176 N 
ATOM      8  H10 UNL     1      22.403  -7.066   9.457  1.00  0.00     0.186 HD
HETATM    9  C14 UNL     1      22.308  -5.064   9.818  1.00  0.00     0.679 A 
HETATM   10  N12 UNL     1      22.957  -3.953  10.242  1.00  0.00    -0.173 N 
ATOM     11  H12 UNL     1      22.491  -3.046  10.269  1.00  0.00     0.186 HD
HETATM   12  C15 UNL     1      24.237  -4.088  10.626  1.00  0.00     0.185 A 
HETATM   13  N13 UNL     1      24.936  -2.975  11.046  1.00  0.00    -0.034 N 
ENDROOT
BRANCH   4  14
HETATM   14  N3  UNL     1      26.893  -6.388  11.004  1.00  0.00    -0.225 NA
BRANCH  14  15
HETATM   15  N4  UNL     1      27.607  -7.419  10.963  1.00  0.00    -0.206 NA
HETATM   16  C10 UNL     1      28.386  -8.540  10.919  1.00  0.00     0.348 C 
HETATM   17  O2  UNL     1      28.693  -9.256  11.926  1.00  0.00    -0.252 OA
BRANCH  16  18
HETATM   18  C11 UNL     1      28.998  -9.096   9.651  1.00  0.00     0.291 C 
BRANCH  18  19
HETATM   19  N5  UNL     1      28.371 -10.393   9.414  1.00  0.00    -0.191 N 
HETATM   20  N6  UNL     1      28.367 -11.279   8.434  1.00  0.00     0.015 NA
HETATM   21  N7  UNL     1      27.569 -12.037   9.189  1.00  0.00    -0.209 N 
HETATM   22  N8  UNL     1      27.569 -11.156  10.171  1.00  0.00    -0.214 N 
ATOM     23  H7  UNL     1      27.128 -12.948   9.057  1.00  0.00     0.207 HD
ATOM     24  H8  UNL     1      27.146 -11.086  11.096  1.00  0.00     0.211 HD
ENDBRANCH  18  19
ENDBRANCH  16  18
ENDBRANCH  14  15
ENDBRANCH   4  14
BRANCH   1  25
HETATM   25  N1  UNL     1      26.935  -1.865  11.877  1.00  0.00    -0.215 N 
HETATM   26  C7  UNL     1      27.571  -1.031  10.914  1.00  0.00     0.141 C 
HETATM   27  C6  UNL     1      28.702  -0.176  11.383  1.00  0.00     0.020 C 
HETATM   28  C5  UNL     1      28.893  -0.028  12.841  1.00  0.00     0.002 C 
HETATM   29  C4  UNL     1      27.639   0.615  13.406  1.00  0.00     0.008 C 
HETATM   30  C3  UNL     1      26.703  -0.448  13.926  1.00  0.00     0.028 C 
HETATM   31  C16 UNL     1      26.863  -1.779  13.323  1.00  0.00     0.148 C 
BRANCH  30  32
HETATM   32  C2  UNL     1      25.320   0.102  14.018  1.00  0.00     0.173 C 
BRANCH  32  33
HETATM   33  O1  UNL     1      24.989   0.568  12.719  1.00  0.00    -0.396 OA
HETATM   34  C1  UNL     1      23.867   1.383  12.789  1.00  0.00     0.201 C 
ENDBRANCH  32  33
ENDBRANCH  30  32
ENDBRANCH   1  25
BRANCH   6  35
HETATM   35  N9  UNL     1      24.778  -7.537  10.126  1.00  0.00    -0.384 N 
ATOM     36  H92 UNL     1      25.121  -7.990  10.973  1.00  0.00     0.157 HD
ATOM     37  H91 UNL     1      24.904  -8.014   9.233  1.00  0.00     0.157 HD
ENDBRANCH   6  35
BRANCH  13  38
HETATM   38  O3  UNL     1      24.194  -1.831  11.072  1.00  0.00    -0.268 OA
ATOM     39  H3  UNL     1      23.248  -1.815  10.988  1.00  0.00     0.246 HD
ENDBRANCH  13  38
BRANCH   9  40
HETATM   40  N11 UNL     1      21.089  -4.941   9.444  1.00  0.00    -0.234 N 
ATOM     41 2H11 UNL     1      20.896  -4.922   8.443  1.00  0.00     0.174 HD
ATOM     42 1H11 UNL     1      20.334  -4.870  10.127  1.00  0.00     0.174 HD
ENDBRANCH   9  40
TORSDOF 10
ENDMDL
MODEL 5
REMARK VINA RESULT: -6.589346402      3.386      8.854
REMARK  10 active torsions:
REMARK  status: ('A' for Active; 'I' for Inactive)
REMARK    1  A    between atoms: O1_2  and  C2_3 
REMARK    2  A    between atoms: C2_3  and  C3_4 
REMARK    3  A    between atoms: N1_9  and  C8_10 
REMARK    4  A    between atoms: C9_13  and  N3_14 
REMARK    5  A    between atoms: N3_14  and  N4_15 
REMARK       I    between atoms: N4_15  and  C10_16 
REMARK    6  A    between atoms: C10_16  and  C11_18 
REMARK    7  A    between atoms: C11_18  and  N5_19 
REMARK    8  A    between atoms: C13_26  and  N9_27 
REMARK    9  A    between atoms: C14_32  and  N11_33 
REMARK   10  A    between atoms: N13_39  and  O3_40 
ROOT
HETATM    1  C8  UNL     1      26.981  -5.877  11.398  1.00  0.00     0.711 A 
HETATM    2  N2  UNL     1      27.231  -4.585  11.672  1.00  0.00    -0.158 N 
ATOM      3  H2  UNL     1      28.145  -4.330  12.047  1.00  0.00     0.187 HD
HETATM    4  C9  UNL     1      26.283  -3.577  11.463  1.00  0.00     0.251 A 
HETATM    5  C12 UNL     1      25.061  -3.992  10.956  1.00  0.00     0.117 A 
HETATM    6  C13 UNL     1      24.041  -3.078  10.729  1.00  0.00     0.134 A 
HETATM    7  N10 UNL     1      22.862  -3.533  10.250  1.00  0.00    -0.176 N 
ATOM      8  H10 UNL     1      22.109  -2.866  10.081  1.00  0.00     0.186 HD
HETATM    9  C14 UNL     1      22.648  -4.827   9.989  1.00  0.00     0.679 A 
HETATM   10  N12 UNL     1      23.618  -5.750  10.197  1.00  0.00    -0.173 N 
ATOM     11  H12 UNL     1      23.458  -6.738   9.999  1.00  0.00     0.186 HD
HETATM   12  C15 UNL     1      24.798  -5.318  10.672  1.00  0.00     0.185 A 
HETATM   13  N13 UNL     1      25.803  -6.233  10.913  1.00  0.00    -0.034 N 
ENDROOT
BRANCH   4  14
HETATM   14  N3  UNL     1      26.593  -2.466  11.735  1.00  0.00    -0.225 NA
BRANCH  14  15
HETATM   15  N4  UNL     1      26.908  -1.273  11.965  1.00  0.00    -0.206 NA
HETATM   16  C10 UNL     1      27.249   0.025  12.215  1.00  0.00     0.348 C 
HETATM   17  O2  UNL     1      26.466   0.907  12.694  1.00  0.00    -0.252 OA
BRANCH  16  18
HETATM   18  C11 UNL     1      28.624   0.603  11.957  1.00  0.00     0.291 C 
BRANCH  18  19
HETATM   19  N5  UNL     1      28.451   1.691  10.999  1.00  0.00    -0.191 N 
HETATM   20  N6  UNL     1      28.571   1.830   9.691  1.00  0.00     0.015 NA
HETATM   21  N7  UNL     1      28.189   3.101   9.840  1.00  0.00    -0.209 N 
HETATM   22  N8  UNL     1      28.068   2.968  11.147  1.00  0.00    -0.214 N 
ATOM     23  H7  UNL     1      28.047   3.876   9.193  1.00  0.00     0.207 HD
ATOM     24  H8  UNL     1      27.800   3.570  11.926  1.00  0.00     0.211 HD
ENDBRANCH  18  19
ENDBRANCH  16  18
ENDBRANCH  14  15
ENDBRANCH   4  14
BRANCH   1  25
HETATM   25  N1  UNL     1      28.044  -6.838  11.639  1.00  0.00    -0.215 N 
HETATM   26  C7  UNL     1      28.093  -7.511  12.892  1.00  0.00     0.141 C 
HETATM   27  C6  UNL     1      29.409  -8.073  13.321  1.00  0.00     0.020 C 
HETATM   28  C5  UNL     1      30.485  -8.155  12.311  1.00  0.00     0.002 C 
HETATM   29  C4  UNL     1      30.000  -9.066  11.197  1.00  0.00     0.008 C 
HETATM   30  C3  UNL     1      29.404  -8.245  10.080  1.00  0.00     0.028 C 
HETATM   31  C16 UNL     1      28.900  -6.921  10.471  1.00  0.00     0.148 C 
BRANCH  30  32
HETATM   32  C2  UNL     1      28.512  -9.102   9.248  1.00  0.00     0.173 C 
BRANCH  32  33
HETATM   33  O1  UNL     1      27.655  -9.782  10.152  1.00  0.00    -0.396 OA
HETATM   34  C1  UNL     1      27.525 -11.108   9.762  1.00  0.00     0.201 C 
ENDBRANCH  32  33
ENDBRANCH  30  32
ENDBRANCH   1  25
BRANCH   6  35
HETATM   35  N9  UNL     1      24.228  -1.850  10.970  1.00  0.00    -0.384 N 
ATOM     36  H92 UNL     1      23.466  -1.246  11.277  1.00  0.00     0.157 HD
ATOM     37  H91 UNL     1      25.156  -1.445  10.855  1.00  0.00     0.157 HD
ENDBRANCH   6  35
BRANCH  13  38
HETATM   38  O3  UNL     1      25.480  -7.514  10.577  1.00  0.00    -0.268 OA
ATOM     39  H3  UNL     1      25.152  -7.767   9.722  1.00  0.00     0.246 HD
ENDBRANCH  13  38
BRANCH   9  40
HETATM   40  N11 UNL     1      21.519  -5.233   9.542  1.00  0.00    -0.234 N 
ATOM     41 2H11 UNL     1      20.674  -4.904  10.010  1.00  0.00     0.174 HD
ATOM     42 1H11 UNL     1      21.466  -5.860   8.739  1.00  0.00     0.174 HD
ENDBRANCH   9  40
TORSDOF 10
ENDMDL
