MODEL 1
REMARK VINA RESULT: -7.561927246      0.000      0.000
REMARK  9 active torsions:
REMARK  status: ('A' for Active; 'I' for Inactive)
REMARK    1  A    between atoms: N2_5  and  C3_6 
REMARK    2  A    between atoms: C3_6  and  C4_7 
REMARK    3  A    between atoms: C7_10  and  N3_11 
REMARK    4  A    between atoms: C9_13  and  C10_14 
REMARK    5  A    between atoms: C10_14  and  O1_15 
REMARK    6  A    between atoms: O1_15  and  C11_16 
REMARK    7  A    between atoms: C12_17  and  N4_18 
REMARK    8  A    between atoms: N4_18  and  N5_20 
REMARK    9  A    between atoms: C13_25  and  N7_26 
ROOT
HETATM    1  N3  UNL     1      30.380  -3.890   8.268  1.00  0.00    -0.251 N 
HETATM    2  C8  UNL     1      30.375  -3.307   7.056  1.00  0.00     0.146 A 
HETATM    3  C9  UNL     1      31.640  -3.416   6.475  1.00  0.00     0.069 A 
HETATM    4  N10 UNL     1      32.368  -4.079   7.393  1.00  0.00    -0.286 N 
ATOM      5  H10 UNL     1      33.351  -4.333   7.296  1.00  0.00     0.188 HD
HETATM    6  N11 UNL     1      31.600  -4.353   8.454  1.00  0.00    -0.236 N 
ATOM      7  H11 UNL     1      31.914  -4.848   9.288  1.00  0.00     0.209 HD
ENDROOT
BRANCH   3   8
HETATM    8  C10 UNL     1      32.052  -2.909   5.155  1.00  0.00     0.236 C 
BRANCH   8   9
HETATM    9  O1  UNL     1      31.183  -3.105   4.094  1.00  0.00    -0.338 OA
BRANCH   9  10
HETATM   10  C11 UNL     1      31.155  -4.265   3.346  1.00  0.00     0.159 A 
HETATM   11  C12 UNL     1      30.071  -5.152   3.468  1.00  0.00     0.172 A 
HETATM   12  N6  UNL     1      30.035  -6.281   2.746  1.00  0.00    -0.173 N 
HETATM   13  C13 UNL     1      31.002  -6.628   1.884  1.00  0.00     0.679 A 
ATOM     14  H6  UNL     1      29.235  -6.905   2.857  1.00  0.00     0.186 HD
HETATM   15  N8  UNL     1      32.038  -5.797   1.755  1.00  0.00    -0.174 N 
HETATM   16  C14 UNL     1      32.138  -4.625   2.463  1.00  0.00     0.152 A 
ATOM     17  H8  UNL     1      32.785  -6.043   1.105  1.00  0.00     0.186 HD
HETATM   18  N9  UNL     1      33.139  -3.868   2.231  1.00  0.00    -0.383 N 
ATOM     19  H92 UNL     1      33.213  -2.997   2.757  1.00  0.00     0.157 HD
ATOM     20  H91 UNL     1      33.871  -4.137   1.573  1.00  0.00     0.157 HD
BRANCH  11  21
HETATM   21  N4  UNL     1      29.057  -4.780   4.376  1.00  0.00    -0.289 N 
ATOM     22  H4  UNL     1      28.808  -5.401   5.146  1.00  0.00     0.188 HD
BRANCH  21  23
HETATM   23  N5  UNL     1      28.395  -3.560   4.219  1.00  0.00    -0.344 N 
ATOM     24  H52 UNL     1      28.070  -3.062   5.049  1.00  0.00     0.176 HD
ATOM     25  H51 UNL     1      28.242  -3.179   3.285  1.00  0.00     0.176 HD
ENDBRANCH  21  23
ENDBRANCH  11  21
BRANCH  13  26
HETATM   26  N7  UNL     1      30.956  -7.718   1.194  1.00  0.00    -0.234 N 
ATOM     27  H72 UNL     1      31.745  -8.365   1.205  1.00  0.00     0.174 HD
ATOM     28  H71 UNL     1      30.149  -7.972   0.625  1.00  0.00     0.174 HD
ENDBRANCH  13  26
ENDBRANCH   9  10
ENDBRANCH   8   9
ENDBRANCH   3   8
BRANCH   1  29
HETATM   29  C7  UNL     1      29.256  -3.971   9.155  1.00  0.00     0.057 A 
HETATM   30  C6  UNL     1      28.303  -2.993   9.212  1.00  0.00     0.032 A 
HETATM   31  C5  UNL     1      27.205  -3.072  10.079  1.00  0.00     0.011 A 
HETATM   32  C4  UNL     1      27.077  -4.159  10.897  1.00  0.00    -0.038 A 
HETATM   33  C16 UNL     1      28.054  -5.163  10.840  1.00  0.00     0.011 A 
HETATM   34  C15 UNL     1      29.127  -5.074   9.984  1.00  0.00     0.032 A 
BRANCH  32  35
HETATM   35  C3  UNL     1      25.926  -4.285  11.823  1.00  0.00     0.192 C 
BRANCH  35  36
HETATM   36  N2  UNL     1      24.690  -4.650  11.144  1.00  0.00    -0.238 N 
HETATM   37  N1  UNL     1      24.559  -5.893  10.643  1.00  0.00    -0.293 N 
HETATM   38  C2  UNL     1      23.441  -6.270  10.003  1.00  0.00     0.090 A 
ATOM     39  H1  UNL     1      25.324  -6.560  10.751  1.00  0.00     0.187 HD
HETATM   40  C1  UNL     1      23.258  -7.638   9.434  1.00  0.00     0.076 C 
HETATM   41  C18 UNL     1      22.443  -5.321   9.889  1.00  0.00     0.273 A 
HETATM   42  N12 UNL     1      22.575  -4.079  10.390  1.00  0.00    -0.273 N 
HETATM   43  O3  UNL     1      21.390  -5.658   9.293  1.00  0.00    -0.266 OA
HETATM   44  C17 UNL     1      23.730  -3.735  11.034  1.00  0.00     0.344 A 
ATOM     45  H12 UNL     1      21.820  -3.401  10.289  1.00  0.00     0.173 HD
HETATM   46  O2  UNL     1      23.849  -2.577  11.502  1.00  0.00    -0.245 OA
ENDBRANCH  35  36
ENDBRANCH  32  35
ENDBRANCH   1  29
TORSDOF 9
ENDMDL
MODEL 2
REMARK VINA RESULT: -7.422547871      6.262     10.394
REMARK  9 active torsions:
REMARK  status: ('A' for Active; 'I' for Inactive)
REMARK    1  A    between atoms: N2_5  and  C3_6 
REMARK    2  A    between atoms: C3_6  and  C4_7 
REMARK    3  A    between atoms: C7_10  and  N3_11 
REMARK    4  A    between atoms: C9_13  and  C10_14 
REMARK    5  A    between atoms: C10_14  and  O1_15 
REMARK    6  A    between atoms: O1_15  and  C11_16 
REMARK    7  A    between atoms: C12_17  and  N4_18 
REMARK    8  A    between atoms: N4_18  and  N5_20 
REMARK    9  A    between atoms: C13_25  and  N7_26 
ROOT
HETATM    1  N3  UNL     1      28.978  -8.520  12.121  1.00  0.00    -0.251 N 
HETATM    2  C8  UNL     1      27.944  -7.799  11.654  1.00  0.00     0.146 A 
HETATM    3  C9  UNL     1      27.823  -6.616  12.386  1.00  0.00     0.069 A 
HETATM    4  N10 UNL     1      28.822  -6.685  13.287  1.00  0.00    -0.286 N 
ATOM      5  H10 UNL     1      29.029  -5.978  13.992  1.00  0.00     0.188 HD
HETATM    6  N11 UNL     1      29.498  -7.826  13.114  1.00  0.00    -0.236 N 
ATOM      7  H11 UNL     1      30.301  -8.117  13.671  1.00  0.00     0.209 HD
ENDROOT
BRANCH   3   8
HETATM    8  C10 UNL     1      26.820  -5.556  12.192  1.00  0.00     0.236 C 
BRANCH   8   9
HETATM    9  O1  UNL     1      26.385  -5.316  10.899  1.00  0.00    -0.338 OA
BRANCH   9  10
HETATM   10  C11 UNL     1      25.050  -5.238  10.554  1.00  0.00     0.159 A 
HETATM   11  C12 UNL     1      24.420  -3.983  10.472  1.00  0.00     0.172 A 
HETATM   12  N6  UNL     1      23.125  -3.896  10.138  1.00  0.00    -0.173 N 
HETATM   13  C13 UNL     1      22.366  -4.970   9.867  1.00  0.00     0.679 A 
ATOM     14  H6  UNL     1      22.696  -2.972  10.087  1.00  0.00     0.186 HD
HETATM   15  N8  UNL     1      22.949  -6.167   9.940  1.00  0.00    -0.174 N 
HETATM   16  C14 UNL     1      24.270  -6.328  10.275  1.00  0.00     0.152 A 
ATOM     17  H8  UNL     1      22.389  -6.997   9.739  1.00  0.00     0.186 HD
HETATM   18  N9  UNL     1      24.752  -7.509  10.264  1.00  0.00    -0.383 N 
ATOM     19  H92 UNL     1      25.734  -7.629  10.513  1.00  0.00     0.157 HD
ATOM     20  H91 UNL     1      24.171  -8.322  10.056  1.00  0.00     0.157 HD
BRANCH  11  21
HETATM   21  N4  UNL     1      25.224  -2.859  10.757  1.00  0.00    -0.289 N 
ATOM     22  H4  UNL     1      26.237  -2.915  10.649  1.00  0.00     0.188 HD
BRANCH  21  23
HETATM   23  N5  UNL     1      24.631  -1.669  11.186  1.00  0.00    -0.344 N 
ATOM     24  H52 UNL     1      23.802  -1.714  11.778  1.00  0.00     0.176 HD
ATOM     25  H51 UNL     1      25.030  -0.772  10.907  1.00  0.00     0.176 HD
ENDBRANCH  21  23
ENDBRANCH  11  21
BRANCH  13  26
HETATM   26  N7  UNL     1      21.119  -4.873   9.547  1.00  0.00    -0.234 N 
ATOM     27  H72 UNL     1      20.785  -4.060   9.030  1.00  0.00     0.174 HD
ATOM     28  H71 UNL     1      20.435  -5.588   9.793  1.00  0.00     0.174 HD
ENDBRANCH  13  26
ENDBRANCH   9  10
ENDBRANCH   8   9
ENDBRANCH   3   8
BRANCH   1  29
HETATM   29  C7  UNL     1      29.401  -9.792  11.612  1.00  0.00     0.057 A 
HETATM   30  C6  UNL     1      30.577 -10.374  11.995  1.00  0.00     0.032 A 
HETATM   31  C5  UNL     1      30.991 -11.617  11.498  1.00  0.00     0.011 A 
HETATM   32  C4  UNL     1      30.198 -12.274  10.600  1.00  0.00    -0.038 A 
HETATM   33  C16 UNL     1      28.991 -11.679  10.206  1.00  0.00     0.011 A 
HETATM   34  C15 UNL     1      28.596 -10.458  10.702  1.00  0.00     0.032 A 
BRANCH  32  35
HETATM   35  C3  UNL     1      30.596 -13.594  10.056  1.00  0.00     0.192 C 
BRANCH  35  36
HETATM   36  N2  UNL     1      31.654 -13.500   9.060  1.00  0.00    -0.238 N 
HETATM   37  N1  UNL     1      32.936 -13.449   9.468  1.00  0.00    -0.293 N 
HETATM   38  C2  UNL     1      33.943 -13.354   8.585  1.00  0.00     0.090 A 
ATOM     39  H1  UNL     1      33.147 -13.482  10.465  1.00  0.00     0.187 HD
HETATM   40  C1  UNL     1      35.377 -13.295   8.998  1.00  0.00     0.076 C 
HETATM   41  C18 UNL     1      33.594 -13.313   7.249  1.00  0.00     0.273 A 
HETATM   42  N12 UNL     1      32.311 -13.364   6.842  1.00  0.00    -0.273 N 
HETATM   43  O3  UNL     1      34.524 -13.224   6.409  1.00  0.00    -0.266 OA
HETATM   44  C17 UNL     1      31.316 -13.460   7.773  1.00  0.00     0.344 A 
ATOM     45  H12 UNL     1      32.085 -13.330   5.849  1.00  0.00     0.173 HD
HETATM   46  O2  UNL     1      30.122 -13.509   7.391  1.00  0.00    -0.245 OA
ENDBRANCH  35  36
ENDBRANCH  32  35
ENDBRANCH   1  29
TORSDOF 9
ENDMDL
MODEL 3
REMARK VINA RESULT: -7.421915431      5.783      6.699
REMARK  9 active torsions:
REMARK  status: ('A' for Active; 'I' for Inactive)
REMARK    1  A    between atoms: N2_5  and  C3_6 
REMARK    2  A    between atoms: C3_6  and  C4_7 
REMARK    3  A    between atoms: C7_10  and  N3_11 
REMARK    4  A    between atoms: C9_13  and  C10_14 
REMARK    5  A    between atoms: C10_14  and  O1_15 
REMARK    6  A    between atoms: O1_15  and  C11_16 
REMARK    7  A    between atoms: C12_17  and  N4_18 
REMARK    8  A    between atoms: N4_18  and  N5_20 
REMARK    9  A    between atoms: C13_25  and  N7_26 
ROOT
HETATM    1  N3  UNL     1      29.569  -8.831  11.962  1.00  0.00    -0.251 N 
HETATM    2  C8  UNL     1      30.007  -9.588  10.941  1.00  0.00     0.146 A 
HETATM    3  C9  UNL     1      30.781 -10.642  11.432  1.00  0.00     0.069 A 
HETATM    4  N10 UNL     1      30.772 -10.462  12.767  1.00  0.00    -0.286 N 
ATOM      5  H10 UNL     1      31.246 -11.058  13.445  1.00  0.00     0.188 HD
HETATM    6  N11 UNL     1      30.046  -9.378  13.063  1.00  0.00    -0.236 N 
ATOM      7  H11 UNL     1      29.884  -9.026  14.006  1.00  0.00     0.209 HD
ENDROOT
BRANCH   3   8
HETATM    8  C10 UNL     1      31.444 -11.694  10.642  1.00  0.00     0.236 C 
BRANCH   8   9
HETATM    9  O1  UNL     1      31.565 -11.489   9.278  1.00  0.00    -0.338 OA
BRANCH   9  10
HETATM   10  C11 UNL     1      31.535 -12.515   8.355  1.00  0.00     0.159 A 
HETATM   11  C12 UNL     1      30.338 -12.817   7.681  1.00  0.00     0.172 A 
HETATM   12  N6  UNL     1      30.300 -13.812   6.783  1.00  0.00    -0.173 N 
HETATM   13  C13 UNL     1      31.370 -14.562   6.476  1.00  0.00     0.679 A 
ATOM     14  H6  UNL     1      29.417 -14.008   6.311  1.00  0.00     0.186 HD
HETATM   15  N8  UNL     1      32.513 -14.288   7.106  1.00  0.00    -0.174 N 
HETATM   16  C14 UNL     1      32.623 -13.283   8.035  1.00  0.00     0.152 A 
ATOM     17  H8  UNL     1      33.339 -14.846   6.888  1.00  0.00     0.186 HD
HETATM   18  N9  UNL     1      33.772 -13.060   8.544  1.00  0.00    -0.383 N 
ATOM     19  H92 UNL     1      33.853 -12.313   9.234  1.00  0.00     0.157 HD
ATOM     20  H91 UNL     1      34.582 -13.632   8.306  1.00  0.00     0.157 HD
BRANCH  11  21
HETATM   21  N4  UNL     1      29.219 -12.024   8.008  1.00  0.00    -0.289 N 
ATOM     22  H4  UNL     1      29.040 -11.158   7.499  1.00  0.00     0.188 HD
BRANCH  21  23
HETATM   23  N5  UNL     1      28.353 -12.427   9.028  1.00  0.00    -0.344 N 
ATOM     24  H52 UNL     1      27.352 -12.474   8.839  1.00  0.00     0.176 HD
ATOM     25  H51 UNL     1      28.726 -12.668   9.946  1.00  0.00     0.176 HD
ENDBRANCH  21  23
ENDBRANCH  11  21
BRANCH  13  26
HETATM   26  N7  UNL     1      31.320 -15.518   5.610  1.00  0.00    -0.234 N 
ATOM     27  H72 UNL     1      30.423 -15.932   5.355  1.00  0.00     0.174 HD
ATOM     28  H71 UNL     1      32.154 -15.888   5.156  1.00  0.00     0.174 HD
ENDBRANCH  13  26
ENDBRANCH   9  10
ENDBRANCH   8   9
ENDBRANCH   3   8
BRANCH   1  29
HETATM   29  C7  UNL     1      28.747  -7.663  11.838  1.00  0.00     0.057 A 
HETATM   30  C6  UNL     1      27.958  -7.217  12.860  1.00  0.00     0.032 A 
HETATM   31  C5  UNL     1      27.154  -6.076  12.739  1.00  0.00     0.011 A 
HETATM   32  C4  UNL     1      27.155  -5.381  11.562  1.00  0.00    -0.038 A 
HETATM   33  C16 UNL     1      27.964  -5.837  10.511  1.00  0.00     0.011 A 
HETATM   34  C15 UNL     1      28.749  -6.960  10.644  1.00  0.00     0.032 A 
BRANCH  32  35
HETATM   35  C3  UNL     1      26.324  -4.165  11.395  1.00  0.00     0.192 C 
BRANCH  35  36
HETATM   36  N2  UNL     1      24.968  -4.461  10.952  1.00  0.00    -0.238 N 
HETATM   37  N1  UNL     1      24.671  -5.707  10.539  1.00  0.00    -0.293 N 
HETATM   38  C2  UNL     1      23.436  -6.023  10.115  1.00  0.00     0.090 A 
ATOM     39  H1  UNL     1      25.396  -6.425  10.546  1.00  0.00     0.187 HD
HETATM   40  C1  UNL     1      23.068  -7.393   9.649  1.00  0.00     0.076 C 
HETATM   41  C18 UNL     1      22.499  -5.008  10.128  1.00  0.00     0.273 A 
HETATM   42  N12 UNL     1      22.798  -3.763  10.541  1.00  0.00    -0.273 N 
HETATM   43  O3  UNL     1      21.339  -5.287   9.734  1.00  0.00    -0.266 OA
HETATM   44  C17 UNL     1      24.066  -3.483  10.964  1.00  0.00     0.344 A 
ATOM     45  H12 UNL     1      22.084  -3.035  10.538  1.00  0.00     0.173 HD
HETATM   46  O2  UNL     1      24.341  -2.321  11.351  1.00  0.00    -0.245 OA
ENDBRANCH  35  36
ENDBRANCH  32  35
ENDBRANCH   1  29
TORSDOF 9
ENDMDL
MODEL 4
REMARK VINA RESULT: -7.268410607      5.923      7.028
REMARK  9 active torsions:
REMARK  status: ('A' for Active; 'I' for Inactive)
REMARK    1  A    between atoms: N2_5  and  C3_6 
REMARK    2  A    between atoms: C3_6  and  C4_7 
REMARK    3  A    between atoms: C7_10  and  N3_11 
REMARK    4  A    between atoms: C9_13  and  C10_14 
REMARK    5  A    between atoms: C10_14  and  O1_15 
REMARK    6  A    between atoms: O1_15  and  C11_16 
REMARK    7  A    between atoms: C12_17  and  N4_18 
REMARK    8  A    between atoms: N4_18  and  N5_20 
REMARK    9  A    between atoms: C13_25  and  N7_26 
ROOT
HETATM    1  N3  UNL     1      29.633  -8.932  12.088  1.00  0.00    -0.251 N 
HETATM    2  C8  UNL     1      29.995  -9.764  11.096  1.00  0.00     0.146 A 
HETATM    3  C9  UNL     1      30.801 -10.785  11.606  1.00  0.00     0.069 A 
HETATM    4  N10 UNL     1      30.888 -10.508  12.921  1.00  0.00    -0.286 N 
ATOM      5  H10 UNL     1      31.408 -11.057  13.606  1.00  0.00     0.188 HD
HETATM    6  N11 UNL     1      30.187  -9.402  13.189  1.00  0.00    -0.236 N 
ATOM      7  H11 UNL     1      30.094  -8.980  14.113  1.00  0.00     0.209 HD
ENDROOT
BRANCH   3   8
HETATM    8  C10 UNL     1      31.403 -11.896  10.849  1.00  0.00     0.236 C 
BRANCH   8   9
HETATM    9  O1  UNL     1      31.837 -11.632   9.561  1.00  0.00    -0.338 OA
BRANCH   9  10
HETATM   10  C11 UNL     1      31.728 -12.540   8.527  1.00  0.00     0.159 A 
HETATM   11  C12 UNL     1      32.857 -13.272   8.116  1.00  0.00     0.172 A 
HETATM   12  N6  UNL     1      32.761 -14.156   7.113  1.00  0.00    -0.173 N 
HETATM   13  C13 UNL     1      31.617 -14.394   6.454  1.00  0.00     0.679 A 
ATOM     14  H6  UNL     1      33.597 -14.672   6.837  1.00  0.00     0.186 HD
HETATM   15  N8  UNL     1      30.537 -13.708   6.832  1.00  0.00    -0.174 N 
HETATM   16  C14 UNL     1      30.564 -12.790   7.851  1.00  0.00     0.152 A 
ATOM     17  H8  UNL     1      29.656 -13.873   6.343  1.00  0.00     0.186 HD
HETATM   18  N9  UNL     1      29.468 -12.223   8.178  1.00  0.00    -0.383 N 
ATOM     19  H92 UNL     1      29.487 -11.541   8.935  1.00  0.00     0.157 HD
ATOM     20  H91 UNL     1      28.600 -12.409   7.674  1.00  0.00     0.157 HD
BRANCH  11  21
HETATM   21  N4  UNL     1      34.056 -13.018   8.813  1.00  0.00    -0.289 N 
ATOM     22  H4  UNL     1      34.722 -12.335   8.452  1.00  0.00     0.188 HD
BRANCH  21  23
HETATM   23  N5  UNL     1      34.330 -13.701  10.001  1.00  0.00    -0.344 N 
ATOM     24  H52 UNL     1      35.097 -13.379  10.592  1.00  0.00     0.176 HD
ATOM     25  H51 UNL     1      33.767 -14.509  10.265  1.00  0.00     0.176 HD
ENDBRANCH  21  23
ENDBRANCH  11  21
BRANCH  13  26
HETATM   26  N7  UNL     1      31.538 -15.247   5.489  1.00  0.00    -0.234 N 
ATOM     27  H72 UNL     1      30.637 -15.448   5.054  1.00  0.00     0.174 HD
ATOM     28  H71 UNL     1      32.353 -15.744   5.130  1.00  0.00     0.174 HD
ENDBRANCH  13  26
ENDBRANCH   9  10
ENDBRANCH   8   9
ENDBRANCH   3   8
BRANCH   1  29
HETATM   29  C7  UNL     1      28.806  -7.771  11.938  1.00  0.00     0.057 A 
HETATM   30  C6  UNL     1      27.984  -7.329  12.936  1.00  0.00     0.032 A 
HETATM   31  C5  UNL     1      27.175  -6.194  12.790  1.00  0.00     0.011 A 
HETATM   32  C4  UNL     1      27.205  -5.502  11.612  1.00  0.00    -0.038 A 
HETATM   33  C16 UNL     1      28.047  -5.953  10.586  1.00  0.00     0.011 A 
HETATM   34  C15 UNL     1      28.836  -7.069  10.743  1.00  0.00     0.032 A 
BRANCH  32  35
HETATM   35  C3  UNL     1      26.370  -4.292  11.419  1.00  0.00     0.192 C 
BRANCH  35  36
HETATM   36  N2  UNL     1      25.025  -4.600  10.950  1.00  0.00    -0.238 N 
HETATM   37  N1  UNL     1      24.752  -5.845  10.515  1.00  0.00    -0.293 N 
HETATM   38  C2  UNL     1      23.529  -6.171  10.067  1.00  0.00     0.090 A 
ATOM     39  H1  UNL     1      25.487  -6.552  10.525  1.00  0.00     0.187 HD
HETATM   40  C1  UNL     1      23.187  -7.539   9.577  1.00  0.00     0.076 C 
HETATM   41  C18 UNL     1      22.578  -5.169  10.078  1.00  0.00     0.273 A 
HETATM   42  N12 UNL     1      22.853  -3.925  10.513  1.00  0.00    -0.273 N 
HETATM   43  O3  UNL     1      21.428  -5.458   9.662  1.00  0.00    -0.266 OA
HETATM   44  C17 UNL     1      24.110  -3.634  10.961  1.00  0.00     0.344 A 
ATOM     45  H12 UNL     1      22.129  -3.207  10.508  1.00  0.00     0.173 HD
HETATM   46  O2  UNL     1      24.363  -2.474  11.367  1.00  0.00    -0.245 OA
ENDBRANCH  35  36
ENDBRANCH  32  35
ENDBRANCH   1  29
TORSDOF 9
ENDMDL
MODEL 5
REMARK VINA RESULT: -7.162780381      6.049      7.429
REMARK  9 active torsions:
REMARK  status: ('A' for Active; 'I' for Inactive)
REMARK    1  A    between atoms: N2_5  and  C3_6 
REMARK    2  A    between atoms: C3_6  and  C4_7 
REMARK    3  A    between atoms: C7_10  and  N3_11 
REMARK    4  A    between atoms: C9_13  and  C10_14 
REMARK    5  A    between atoms: C10_14  and  O1_15 
REMARK    6  A    between atoms: O1_15  and  C11_16 
REMARK    7  A    between atoms: C12_17  and  N4_18 
REMARK    8  A    between atoms: N4_18  and  N5_20 
REMARK    9  A    between atoms: C13_25  and  N7_26 
ROOT
HETATM    1  N3  UNL     1      29.548  -8.364  12.780  1.00  0.00    -0.251 N 
HETATM    2  C8  UNL     1      30.319  -9.081  11.944  1.00  0.00     0.146 A 
HETATM    3  C9  UNL     1      30.963 -10.099  12.651  1.00  0.00     0.069 A 
HETATM    4  N10 UNL     1      30.536  -9.940  13.918  1.00  0.00    -0.286 N 
ATOM      5  H10 UNL     1      30.811 -10.521  14.711  1.00  0.00     0.188 HD
HETATM    6  N11 UNL     1      29.694  -8.902  13.976  1.00  0.00    -0.236 N 
ATOM      7  H11 UNL     1      29.232  -8.573  14.823  1.00  0.00     0.209 HD
ENDROOT
BRANCH   3   8
HETATM    8  C10 UNL     1      31.893 -11.102  12.105  1.00  0.00     0.236 C 
BRANCH   8   9
HETATM    9  O1  UNL     1      31.360 -12.313  11.695  1.00  0.00    -0.338 OA
BRANCH   9  10
HETATM   10  C11 UNL     1      31.337 -12.720  10.376  1.00  0.00     0.159 A 
HETATM   11  C12 UNL     1      32.414 -13.455   9.851  1.00  0.00     0.172 A 
HETATM   12  N6  UNL     1      32.400 -13.855   8.571  1.00  0.00    -0.173 N 
HETATM   13  C13 UNL     1      31.387 -13.589   7.733  1.00  0.00     0.679 A 
ATOM     14  H6  UNL     1      33.196 -14.387   8.218  1.00  0.00     0.186 HD
HETATM   15  N8  UNL     1      30.357 -12.893   8.216  1.00  0.00    -0.174 N 
HETATM   16  C14 UNL     1      30.306 -12.454   9.515  1.00  0.00     0.152 A 
ATOM     17  H8  UNL     1      29.576 -12.678   7.595  1.00  0.00     0.186 HD
HETATM   18  N9  UNL     1      29.254 -11.843   9.901  1.00  0.00    -0.383 N 
ATOM     19  H92 UNL     1      29.216 -11.517  10.867  1.00  0.00     0.157 HD
ATOM     20  H91 UNL     1      28.485 -11.644   9.260  1.00  0.00     0.157 HD
BRANCH  11  21
HETATM   21  N4  UNL     1      33.475 -13.733  10.738  1.00  0.00    -0.289 N 
ATOM     22  H4  UNL     1      34.414 -13.392  10.533  1.00  0.00     0.188 HD
BRANCH  21  23
HETATM   23  N5  UNL     1      33.237 -14.474  11.898  1.00  0.00    -0.344 N 
ATOM     24  H52 UNL     1      33.100 -13.981  12.781  1.00  0.00     0.176 HD
ATOM     25  H51 UNL     1      33.202 -15.492  11.854  1.00  0.00     0.176 HD
ENDBRANCH  21  23
ENDBRANCH  11  21
BRANCH  13  26
HETATM   26  N7  UNL     1      31.386 -13.979   6.502  1.00  0.00    -0.234 N 
ATOM     27  H72 UNL     1      32.256 -14.001   5.971  1.00  0.00     0.174 HD
ATOM     28  H71 UNL     1      30.535 -14.274   6.023  1.00  0.00     0.174 HD
ENDBRANCH  13  26
ENDBRANCH   9  10
ENDBRANCH   8   9
ENDBRANCH   3   8
BRANCH   1  29
HETATM   29  C7  UNL     1      28.740  -7.240  12.407  1.00  0.00     0.057 A 
HETATM   30  C6  UNL     1      27.975  -6.562  13.314  1.00  0.00     0.032 A 
HETATM   31  C5  UNL     1      27.185  -5.463  12.950  1.00  0.00     0.011 A 
HETATM   32  C4  UNL     1      27.175  -5.052  11.646  1.00  0.00    -0.038 A 
HETATM   33  C16 UNL     1      27.959  -5.747  10.714  1.00  0.00     0.011 A 
HETATM   34  C15 UNL     1      28.730  -6.824  11.086  1.00  0.00     0.032 A 
BRANCH  32  35
HETATM   35  C3  UNL     1      26.358  -3.890  11.221  1.00  0.00     0.192 C 
BRANCH  35  36
HETATM   36  N2  UNL     1      25.005  -4.262  10.828  1.00  0.00    -0.238 N 
HETATM   37  N1  UNL     1      24.743  -5.545  10.513  1.00  0.00    -0.293 N 
HETATM   38  C2  UNL     1      23.513  -5.930  10.138  1.00  0.00     0.090 A 
ATOM     39  H1  UNL     1      25.492  -6.235  10.559  1.00  0.00     0.187 HD
HETATM   40  C1  UNL     1      23.183  -7.342   9.781  1.00  0.00     0.076 C 
HETATM   41  C18 UNL     1      22.543  -4.948  10.095  1.00  0.00     0.273 A 
HETATM   42  N12 UNL     1      22.806  -3.666  10.410  1.00  0.00    -0.273 N 
HETATM   43  O3  UNL     1      21.386  -5.292   9.746  1.00  0.00    -0.266 OA
HETATM   44  C17 UNL     1      24.071  -3.315  10.787  1.00  0.00     0.344 A 
ATOM     45  H12 UNL     1      22.068  -2.964  10.367  1.00  0.00     0.173 HD
HETATM   46  O2  UNL     1      24.314  -2.120  11.081  1.00  0.00    -0.245 OA
ENDBRANCH  35  36
ENDBRANCH  32  35
ENDBRANCH   1  29
TORSDOF 9
ENDMDL
