MODEL 1
REMARK VINA RESULT: -7.454886100      0.000      0.000
REMARK  8 active torsions:
REMARK  status: ('A' for Active; 'I' for Inactive)
REMARK    1  A    between atoms: N1_1  and  C1_4 
REMARK    2  A    between atoms: C2_7  and  N3_8 
REMARK    3  A    between atoms: N3_8  and  C3_10 
REMARK    4  A    between atoms: C6_13  and  C7_14 
REMARK    5  A    between atoms: C10_22  and  N6_23 
REMARK    6  A    between atoms: C13_32  and  C14_33 
REMARK    7  A    between atoms: C14_33  and  N8_34 
REMARK    8  A    between atoms: C14_33  and  C15_38 
ROOT
HETATM    1  C3  UNL     1      29.425 -11.702  10.108  1.00  0.00     0.102 A 
HETATM    2  C4  UNL     1      29.993 -10.702  10.873  1.00  0.00     0.038 A 
HETATM    3  C5  UNL     1      29.325  -9.510  11.086  1.00  0.00     0.034 A 
HETATM    4  C6  UNL     1      28.085  -9.345  10.522  1.00  0.00     0.060 A 
HETATM    5  N7  UNL     1      27.523 -10.302   9.784  1.00  0.00    -0.320 N 
ATOM      6  H7  UNL     1      26.599 -10.147   9.381  1.00  0.00     0.169 HD
HETATM    7  C12 UNL     1      28.146 -11.458   9.563  1.00  0.00     0.272 A 
HETATM    8  O5  UNL     1      27.597 -12.375   8.850  1.00  0.00    -0.266 OA
ENDROOT
BRANCH   1   9
HETATM    9  N3  UNL     1      29.960 -12.984   9.892  1.00  0.00    -0.337 N 
ATOM     10  H3  UNL     1      29.320 -13.670   9.493  1.00  0.00     0.167 HD
BRANCH   9  11
HETATM   11  C2  UNL     1      31.266 -13.442  10.156  1.00  0.00     0.136 A 
HETATM   12  N2  UNL     1      31.663 -13.901  11.342  1.00  0.00    -0.176 N 
HETATM   13  C1  UNL     1      32.949 -14.249  11.649  1.00  0.00     0.680 A 
ATOM     14  H2  UNL     1      30.958 -14.000  12.072  1.00  0.00     0.186 HD
HETATM   15  N10 UNL     1      33.898 -14.128  10.716  1.00  0.00    -0.156 N 
HETATM   16  C16 UNL     1      33.552 -13.666   9.494  1.00  0.00     0.272 A 
ATOM     17  H10 UNL     1      34.864 -14.381  10.922  1.00  0.00     0.187 HD
HETATM   18  C13 UNL     1      32.252 -13.316   9.181  1.00  0.00     0.094 A 
HETATM   19  O7  UNL     1      34.476 -13.558   8.614  1.00  0.00    -0.267 OA
BRANCH  13  20
HETATM   20  N1  UNL     1      33.240 -14.684  12.818  1.00  0.00    -0.234 N 
ATOM     21  H12 UNL     1      33.560 -14.042  13.543  1.00  0.00     0.174 HD
ATOM     22  H11 UNL     1      33.155 -15.677  13.035  1.00  0.00     0.174 HD
ENDBRANCH  13  20
BRANCH  18  23
HETATM   23  C14 UNL     1      31.917 -12.852   7.817  1.00  0.00     0.314 C 
BRANCH  23  24
HETATM   24  N8  UNL     1      33.100 -12.248   7.239  1.00  0.00    -0.062 N 
ATOM     25  H83 UNL     1      33.937 -12.408   7.800  1.00  0.00     0.275 HD
ATOM     26  H82 UNL     1      33.409 -12.723   6.391  1.00  0.00     0.275 HD
ATOM     27  H81 UNL     1      32.911 -11.257   7.088  1.00  0.00     0.275 HD
ENDBRANCH  23  24
BRANCH  23  28
HETATM   28  C15 UNL     1      31.540 -14.037   6.947  1.00  0.00     0.266 C 
HETATM   29  N9  UNL     1      30.176 -14.367   6.759  1.00  0.00    -0.060 NA
HETATM   30  O6  UNL     1      32.412 -14.739   6.384  1.00  0.00    -0.274 OA
ENDBRANCH  23  28
ENDBRANCH  18  23
ENDBRANCH   9  11
ENDBRANCH   1   9
BRANCH   4  31
HETATM   31  C7  UNL     1      27.354  -8.098  10.728  1.00  0.00     0.066 C 
HETATM   32  N4  UNL     1      26.278  -7.749  10.141  1.00  0.00    -0.263 N 
HETATM   33  O1  UNL     1      25.841  -6.501  10.564  1.00  0.00    -0.218 OA
ATOM     34  H4  UNL     1      25.796  -8.318   9.446  1.00  0.00     0.194 HD
HETATM   35  C8  UNL     1      26.947  -5.841  11.150  1.00  0.00     0.278 C 
HETATM   36  C9  UNL     1      27.740  -7.019  11.663  1.00  0.00     0.157 C 
HETATM   37  N5  UNL     1      26.602  -4.995  12.252  1.00  0.00    -0.316 N 
HETATM   38  O4  UNL     1      27.656  -5.056  10.247  1.00  0.00    -0.329 OA
HETATM   39  C10 UNL     1      26.700  -3.763  11.886  1.00  0.00     0.174 C 
ATOM     40  H5  UNL     1      26.324  -5.316  13.180  1.00  0.00     0.166 HD
HETATM   41  C11 UNL     1      27.127  -3.787  10.467  1.00  0.00     0.256 C 
BRANCH  39  42
HETATM   42  N6  UNL     1      26.440  -2.611  12.704  1.00  0.00    -0.100 N 
HETATM   43  O2  UNL     1      27.126  -2.468  13.729  1.00  0.00    -0.531 OA
HETATM   44  O3  UNL     1      25.487  -1.685  12.400  1.00  0.00    -0.531 OA
ENDBRANCH  39  42
ENDBRANCH   4  31
TORSDOF 8
ENDMDL
MODEL 2
REMARK VINA RESULT: -7.153855735      2.388     10.657
REMARK  8 active torsions:
REMARK  status: ('A' for Active; 'I' for Inactive)
REMARK    1  A    between atoms: N1_1  and  C1_4 
REMARK    2  A    between atoms: C2_7  and  N3_8 
REMARK    3  A    between atoms: N3_8  and  C3_10 
REMARK    4  A    between atoms: C6_13  and  C7_14 
REMARK    5  A    between atoms: C10_22  and  N6_23 
REMARK    6  A    between atoms: C13_32  and  C14_33 
REMARK    7  A    between atoms: C14_33  and  N8_34 
REMARK    8  A    between atoms: C14_33  and  C15_38 
ROOT
HETATM    1  C3  UNL     1      27.833  -7.577  10.872  1.00  0.00     0.102 A 
HETATM    2  C4  UNL     1      27.834  -7.855   9.518  1.00  0.00     0.038 A 
HETATM    3  C5  UNL     1      28.344  -9.049   9.042  1.00  0.00     0.034 A 
HETATM    4  C6  UNL     1      28.848  -9.951   9.945  1.00  0.00     0.060 A 
HETATM    5  N7  UNL     1      28.850  -9.698  11.254  1.00  0.00    -0.320 N 
ATOM      6  H7  UNL     1      29.231 -10.393  11.897  1.00  0.00     0.169 HD
HETATM    7  C12 UNL     1      28.366  -8.556  11.737  1.00  0.00     0.272 A 
HETATM    8  O5  UNL     1      28.374  -8.321  13.000  1.00  0.00    -0.266 OA
ENDROOT
BRANCH   1   9
HETATM    9  N3  UNL     1      27.266  -6.447  11.484  1.00  0.00    -0.337 N 
ATOM     10  H3  UNL     1      27.780  -6.068  12.280  1.00  0.00     0.167 HD
BRANCH   9  11
HETATM   11  C2  UNL     1      26.079  -5.769  11.142  1.00  0.00     0.136 A 
HETATM   12  N2  UNL     1      24.993  -6.374  10.665  1.00  0.00    -0.176 N 
HETATM   13  C1  UNL     1      23.872  -5.727  10.226  1.00  0.00     0.680 A 
ATOM     14  H2  UNL     1      24.998  -7.394  10.625  1.00  0.00     0.186 HD
HETATM   15  N10 UNL     1      23.834  -4.391  10.262  1.00  0.00    -0.156 N 
HETATM   16  C16 UNL     1      24.910  -3.724  10.735  1.00  0.00     0.272 A 
ATOM     17  H10 UNL     1      23.009  -3.886   9.939  1.00  0.00     0.187 HD
HETATM   18  C13 UNL     1      26.042  -4.377  11.181  1.00  0.00     0.094 A 
HETATM   19  O7  UNL     1      24.853  -2.445  10.761  1.00  0.00    -0.267 OA
BRANCH  13  20
HETATM   20  N1  UNL     1      22.871  -6.392   9.785  1.00  0.00    -0.234 N 
ATOM     21  H12 UNL     1      22.326  -6.982  10.413  1.00  0.00     0.174 HD
ATOM     22  H11 UNL     1      22.608  -6.337   8.801  1.00  0.00     0.174 HD
ENDBRANCH  13  20
BRANCH  18  23
HETATM   23  C14 UNL     1      27.180  -3.603  11.727  1.00  0.00     0.314 C 
BRANCH  23  24
HETATM   24  N8  UNL     1      27.524  -2.569  10.772  1.00  0.00    -0.062 N 
ATOM     25  H83 UNL     1      27.215  -2.790   9.825  1.00  0.00     0.275 HD
ATOM     26  H82 UNL     1      26.978  -1.717  10.901  1.00  0.00     0.275 HD
ATOM     27  H81 UNL     1      28.529  -2.404  10.829  1.00  0.00     0.275 HD
ENDBRANCH  23  24
BRANCH  23  28
HETATM   28  C15 UNL     1      26.764  -2.913  13.013  1.00  0.00     0.266 C 
HETATM   29  N9  UNL     1      26.217  -3.674  14.075  1.00  0.00    -0.060 NA
HETATM   30  O6  UNL     1      26.892  -1.675  13.163  1.00  0.00    -0.274 OA
ENDBRANCH  23  28
ENDBRANCH  18  23
ENDBRANCH   9  11
ENDBRANCH   1   9
BRANCH   4  31
HETATM   31  C7  UNL     1      29.394 -11.220   9.475  1.00  0.00     0.066 C 
HETATM   32  N4  UNL     1      29.970 -12.105  10.189  1.00  0.00    -0.263 N 
HETATM   33  O1  UNL     1      30.374 -13.196   9.433  1.00  0.00    -0.218 OA
ATOM     34  H4  UNL     1      30.116 -12.021  11.195  1.00  0.00     0.194 HD
HETATM   35  C8  UNL     1      30.427 -12.780   8.082  1.00  0.00     0.278 C 
HETATM   36  C9  UNL     1      29.369 -11.703   8.076  1.00  0.00     0.157 C 
HETATM   37  N5  UNL     1      30.061 -13.798   7.144  1.00  0.00    -0.316 N 
HETATM   38  O4  UNL     1      31.682 -12.314   7.702  1.00  0.00    -0.329 OA
HETATM   39  C10 UNL     1      31.119 -14.211   6.535  1.00  0.00     0.174 C 
ATOM     40  H5  UNL     1      29.114 -14.141   6.984  1.00  0.00     0.166 HD
HETATM   41  C11 UNL     1      32.248 -13.433   7.096  1.00  0.00     0.256 C 
BRANCH  39  42
HETATM   42  N6  UNL     1      31.172 -15.226   5.519  1.00  0.00    -0.100 N 
HETATM   43  O2  UNL     1      31.186 -16.410   5.892  1.00  0.00    -0.531 OA
HETATM   44  O3  UNL     1      31.205 -14.941   4.187  1.00  0.00    -0.531 OA
ENDBRANCH  39  42
ENDBRANCH   4  31
TORSDOF 8
ENDMDL
MODEL 3
REMARK VINA RESULT: -7.152352898      1.260      1.472
REMARK  8 active torsions:
REMARK  status: ('A' for Active; 'I' for Inactive)
REMARK    1  A    between atoms: N1_1  and  C1_4 
REMARK    2  A    between atoms: C2_7  and  N3_8 
REMARK    3  A    between atoms: N3_8  and  C3_10 
REMARK    4  A    between atoms: C6_13  and  C7_14 
REMARK    5  A    between atoms: C10_22  and  N6_23 
REMARK    6  A    between atoms: C13_32  and  C14_33 
REMARK    7  A    between atoms: C14_33  and  N8_34 
REMARK    8  A    between atoms: C14_33  and  C15_38 
ROOT
HETATM    1  C3  UNL     1      29.743 -11.332  10.016  1.00  0.00     0.102 A 
HETATM    2  C4  UNL     1      29.929 -10.592  11.167  1.00  0.00     0.038 A 
HETATM    3  C5  UNL     1      29.445  -9.300  11.263  1.00  0.00     0.034 A 
HETATM    4  C6  UNL     1      28.775  -8.771  10.189  1.00  0.00     0.060 A 
HETATM    5  N7  UNL     1      28.585  -9.474   9.072  1.00  0.00    -0.320 N 
ATOM      6  H7  UNL     1      28.081  -9.050   8.293  1.00  0.00     0.169 HD
HETATM    7  C12 UNL     1      29.042 -10.719   8.954  1.00  0.00     0.272 A 
HETATM    8  O5  UNL     1      28.856 -11.388   7.874  1.00  0.00    -0.266 OA
ENDROOT
BRANCH   1   9
HETATM    9  N3  UNL     1      30.106 -12.676   9.827  1.00  0.00    -0.337 N 
ATOM     10  H3  UNL     1      29.380 -13.283   9.448  1.00  0.00     0.167 HD
BRANCH   9  11
HETATM   11  C2  UNL     1      31.345 -13.293  10.095  1.00  0.00     0.136 A 
HETATM   12  N2  UNL     1      31.701 -13.746  11.295  1.00  0.00    -0.176 N 
HETATM   13  C1  UNL     1      32.935 -14.249  11.601  1.00  0.00     0.680 A 
ATOM     14  H2  UNL     1      31.004 -13.716  12.039  1.00  0.00     0.186 HD
HETATM   15  N10 UNL     1      33.873 -14.299  10.650  1.00  0.00    -0.156 N 
HETATM   16  C16 UNL     1      33.567 -13.850   9.412  1.00  0.00     0.272 A 
ATOM     17  H10 UNL     1      34.801 -14.669  10.854  1.00  0.00     0.187 HD
HETATM   18  C13 UNL     1      32.319 -13.344   9.101  1.00  0.00     0.094 A 
HETATM   19  O7  UNL     1      34.479 -13.907   8.515  1.00  0.00    -0.267 OA
BRANCH  13  20
HETATM   20  N1  UNL     1      33.190 -14.665  12.784  1.00  0.00    -0.234 N 
ATOM     21  H12 UNL     1      32.863 -14.143  13.597  1.00  0.00     0.174 HD
ATOM     22  H11 UNL     1      33.721 -15.524  12.926  1.00  0.00     0.174 HD
ENDBRANCH  13  20
BRANCH  18  23
HETATM   23  C14 UNL     1      32.021 -12.902   7.721  1.00  0.00     0.314 C 
BRANCH  23  24
HETATM   24  N8  UNL     1      33.247 -12.409   7.127  1.00  0.00    -0.062 N 
ATOM     25  H83 UNL     1      33.581 -13.002   6.366  1.00  0.00     0.275 HD
ATOM     26  H82 UNL     1      33.106 -11.556   6.586  1.00  0.00     0.275 HD
ATOM     27  H81 UNL     1      33.938 -12.295   7.868  1.00  0.00     0.275 HD
ENDBRANCH  23  24
BRANCH  23  28
HETATM   28  C15 UNL     1      31.557 -14.083   6.890  1.00  0.00     0.266 C 
HETATM   29  N9  UNL     1      30.171 -14.336   6.737  1.00  0.00    -0.060 NA
HETATM   30  O6  UNL     1      32.374 -14.850   6.328  1.00  0.00    -0.274 OA
ENDBRANCH  23  28
ENDBRANCH  18  23
ENDBRANCH   9  11
ENDBRANCH   1   9
BRANCH   4  31
HETATM   31  C7  UNL     1      28.252  -7.410  10.259  1.00  0.00     0.066 C 
HETATM   32  N4  UNL     1      28.897  -6.340  10.006  1.00  0.00    -0.263 N 
HETATM   33  O1  UNL     1      28.108  -5.210  10.168  1.00  0.00    -0.218 OA
ATOM     34  H4  UNL     1      29.876  -6.317   9.719  1.00  0.00     0.194 HD
HETATM   35  C8  UNL     1      27.010  -5.574  10.983  1.00  0.00     0.278 C 
HETATM   36  C9  UNL     1      26.871  -7.036  10.635  1.00  0.00     0.157 C 
HETATM   37  N5  UNL     1      25.792  -4.898  10.654  1.00  0.00    -0.316 N 
HETATM   38  O4  UNL     1      27.239  -5.355  12.338  1.00  0.00    -0.329 OA
HETATM   39  C10 UNL     1      25.534  -4.023  11.565  1.00  0.00     0.174 C 
ATOM     40  H5  UNL     1      25.219  -5.080   9.830  1.00  0.00     0.166 HD
HETATM   41  C11 UNL     1      26.638  -4.117  12.550  1.00  0.00     0.256 C 
BRANCH  39  42
HETATM   42  N6  UNL     1      24.401  -3.142  11.599  1.00  0.00    -0.100 N 
HETATM   43  O2  UNL     1      23.292  -3.621  11.309  1.00  0.00    -0.531 OA
HETATM   44  O3  UNL     1      24.495  -1.825  11.935  1.00  0.00    -0.531 OA
ENDBRANCH  39  42
ENDBRANCH   4  31
TORSDOF 8
ENDMDL
MODEL 4
REMARK VINA RESULT: -7.018591620      2.421     10.391
REMARK  8 active torsions:
REMARK  status: ('A' for Active; 'I' for Inactive)
REMARK    1  A    between atoms: N1_1  and  C1_4 
REMARK    2  A    between atoms: C2_7  and  N3_8 
REMARK    3  A    between atoms: N3_8  and  C3_10 
REMARK    4  A    between atoms: C6_13  and  C7_14 
REMARK    5  A    between atoms: C10_22  and  N6_23 
REMARK    6  A    between atoms: C13_32  and  C14_33 
REMARK    7  A    between atoms: C14_33  and  N8_34 
REMARK    8  A    between atoms: C14_33  and  C15_38 
ROOT
HETATM    1  C3  UNL     1      28.022  -7.483  10.902  1.00  0.00     0.102 A 
HETATM    2  C4  UNL     1      27.971  -7.778   9.553  1.00  0.00     0.038 A 
HETATM    3  C5  UNL     1      28.443  -8.987   9.076  1.00  0.00     0.034 A 
HETATM    4  C6  UNL     1      28.962  -9.887   9.973  1.00  0.00     0.060 A 
HETATM    5  N7  UNL     1      29.015  -9.618  11.277  1.00  0.00    -0.320 N 
ATOM      6  H7  UNL     1      29.405 -10.311  11.916  1.00  0.00     0.169 HD
HETATM    7  C12 UNL     1      28.568  -8.461  11.762  1.00  0.00     0.272 A 
HETATM    8  O5  UNL     1      28.625  -8.209  13.020  1.00  0.00    -0.266 OA
ENDROOT
BRANCH   1   9
HETATM    9  N3  UNL     1      27.498  -6.335  11.519  1.00  0.00    -0.337 N 
ATOM     10  H3  UNL     1      27.035  -6.484  12.414  1.00  0.00     0.167 HD
BRANCH   9  11
HETATM   11  C2  UNL     1      27.531  -5.003  11.059  1.00  0.00     0.136 A 
HETATM   12  N2  UNL     1      28.620  -4.419  10.562  1.00  0.00    -0.176 N 
HETATM   13  C1  UNL     1      28.702  -3.100  10.211  1.00  0.00     0.680 A 
ATOM     14  H2  UNL     1      29.451  -4.996  10.436  1.00  0.00     0.186 HD
HETATM   15  N10 UNL     1      27.632  -2.315  10.368  1.00  0.00    -0.156 N 
HETATM   16  C16 UNL     1      26.499  -2.855  10.870  1.00  0.00     0.272 A 
ATOM     17  H10 UNL     1      27.669  -1.328  10.114  1.00  0.00     0.187 HD
HETATM   18  C13 UNL     1      26.414  -4.188  11.222  1.00  0.00     0.094 A 
HETATM   19  O7  UNL     1      25.485  -2.086  11.012  1.00  0.00    -0.267 OA
BRANCH  13  20
HETATM   20  N1  UNL     1      29.793  -2.622   9.739  1.00  0.00    -0.234 N 
ATOM     21  H12 UNL     1      30.688  -3.053   9.971  1.00  0.00     0.174 HD
ATOM     22  H11 UNL     1      29.776  -1.808   9.125  1.00  0.00     0.174 HD
ENDBRANCH  13  20
BRANCH  18  23
HETATM   23  C14 UNL     1      25.139  -4.741  11.731  1.00  0.00     0.314 C 
BRANCH  23  24
HETATM   24  N8  UNL     1      24.416  -3.678  12.398  1.00  0.00    -0.062 N 
ATOM     25  H83 UNL     1      23.408  -3.838  12.415  1.00  0.00     0.275 HD
ATOM     26  H82 UNL     1      24.572  -3.668  13.406  1.00  0.00     0.275 HD
ATOM     27  H81 UNL     1      24.666  -2.794  11.953  1.00  0.00     0.275 HD
ENDBRANCH  23  24
BRANCH  23  28
HETATM   28  C15 UNL     1      24.282  -5.213  10.570  1.00  0.00     0.266 C 
HETATM   29  N9  UNL     1      24.538  -6.471   9.972  1.00  0.00    -0.060 NA
HETATM   30  O6  UNL     1      23.345  -4.513  10.121  1.00  0.00    -0.274 OA
ENDBRANCH  23  28
ENDBRANCH  18  23
ENDBRANCH   9  11
ENDBRANCH   1   9
BRANCH   4  31
HETATM   31  C7  UNL     1      29.468 -11.172   9.501  1.00  0.00     0.066 C 
HETATM   32  N4  UNL     1      30.007 -12.079  10.216  1.00  0.00    -0.263 N 
HETATM   33  O1  UNL     1      30.380 -13.181   9.458  1.00  0.00    -0.218 OA
ATOM     34  H4  UNL     1      30.147 -12.006  11.223  1.00  0.00     0.194 HD
HETATM   35  C8  UNL     1      30.460 -12.759   8.110  1.00  0.00     0.278 C 
HETATM   36  C9  UNL     1      29.440 -11.647   8.100  1.00  0.00     0.157 C 
HETATM   37  N5  UNL     1      30.068 -13.760   7.163  1.00  0.00    -0.316 N 
HETATM   38  O4  UNL     1      31.734 -12.336   7.743  1.00  0.00    -0.329 OA
HETATM   39  C10 UNL     1      31.117 -14.206   6.561  1.00  0.00     0.174 C 
ATOM     40  H5  UNL     1      29.111 -14.070   6.992  1.00  0.00     0.166 HD
HETATM   41  C11 UNL     1      32.267 -13.470   7.137  1.00  0.00     0.256 C 
BRANCH  39  42
HETATM   42  N6  UNL     1      31.145 -15.217   5.541  1.00  0.00    -0.100 N 
HETATM   43  O2  UNL     1      31.139 -16.403   5.908  1.00  0.00    -0.531 OA
HETATM   44  O3  UNL     1      31.174 -14.927   4.210  1.00  0.00    -0.531 OA
ENDBRANCH  39  42
ENDBRANCH   4  31
TORSDOF 8
ENDMDL
MODEL 5
REMARK VINA RESULT: -7.005979892      2.321     10.945
REMARK  8 active torsions:
REMARK  status: ('A' for Active; 'I' for Inactive)
REMARK    1  A    between atoms: N1_1  and  C1_4 
REMARK    2  A    between atoms: C2_7  and  N3_8 
REMARK    3  A    between atoms: N3_8  and  C3_10 
REMARK    4  A    between atoms: C6_13  and  C7_14 
REMARK    5  A    between atoms: C10_22  and  N6_23 
REMARK    6  A    between atoms: C13_32  and  C14_33 
REMARK    7  A    between atoms: C14_33  and  N8_34 
REMARK    8  A    between atoms: C14_33  and  C15_38 
ROOT
HETATM    1  C3  UNL     1      26.855  -6.815  11.152  1.00  0.00     0.102 A 
HETATM    2  C4  UNL     1      26.073  -7.538  10.272  1.00  0.00     0.038 A 
HETATM    3  C5  UNL     1      26.497  -8.763   9.791  1.00  0.00     0.034 A 
HETATM    4  C6  UNL     1      27.713  -9.245  10.209  1.00  0.00     0.060 A 
HETATM    5  N7  UNL     1      28.477  -8.560  11.060  1.00  0.00    -0.320 N 
ATOM      6  H7  UNL     1      29.375  -8.948  11.351  1.00  0.00     0.169 HD
HETATM    7  C12 UNL     1      28.092  -7.378  11.536  1.00  0.00     0.272 A 
HETATM    8  O5  UNL     1      28.836  -6.724  12.355  1.00  0.00    -0.266 OA
ENDROOT
BRANCH   1   9
HETATM    9  N3  UNL     1      26.500  -5.609  11.778  1.00  0.00    -0.337 N 
ATOM     10  H3  UNL     1      27.086  -5.326  12.563  1.00  0.00     0.167 HD
BRANCH   9  11
HETATM   11  C2  UNL     1      25.437  -4.739  11.459  1.00  0.00     0.136 A 
HETATM   12  N2  UNL     1      24.336  -5.122  10.816  1.00  0.00    -0.176 N 
HETATM   13  C1  UNL     1      23.344  -4.276  10.403  1.00  0.00     0.680 A 
ATOM     14  H2  UNL     1      24.225  -6.116  10.616  1.00  0.00     0.186 HD
HETATM   15  N10 UNL     1      23.460  -2.967  10.646  1.00  0.00    -0.156 N 
HETATM   16  C16 UNL     1      24.559  -2.522  11.295  1.00  0.00     0.272 A 
ATOM     17  H10 UNL     1      22.734  -2.317  10.347  1.00  0.00     0.187 HD
HETATM   18  C13 UNL     1      25.561  -3.376  11.715  1.00  0.00     0.094 A 
HETATM   19  O7  UNL     1      24.651  -1.264  11.517  1.00  0.00    -0.267 OA
BRANCH  13  20
HETATM   20  N1  UNL     1      22.316  -4.733   9.791  1.00  0.00    -0.234 N 
ATOM     21  H12 UNL     1      21.813  -5.540  10.159  1.00  0.00     0.174 HD
ATOM     22  H11 UNL     1      21.992  -4.294   8.929  1.00  0.00     0.174 HD
ENDBRANCH  13  20
BRANCH  18  23
HETATM   23  C14 UNL     1      26.726  -2.844  12.456  1.00  0.00     0.314 C 
BRANCH  23  24
HETATM   24  N8  UNL     1      27.264  -1.723  11.714  1.00  0.00    -0.062 N 
ATOM     25  H83 UNL     1      28.040  -1.990  11.107  1.00  0.00     0.275 HD
ATOM     26  H82 UNL     1      26.629  -1.391  10.988  1.00  0.00     0.275 HD
ATOM     27  H81 UNL     1      27.518  -0.992  12.379  1.00  0.00     0.275 HD
ENDBRANCH  23  24
BRANCH  23  28
HETATM   28  C15 UNL     1      26.280  -2.321  13.809  1.00  0.00     0.266 C 
HETATM   29  N9  UNL     1      25.515  -3.149  14.668  1.00  0.00    -0.060 NA
HETATM   30  O6  UNL     1      26.574  -1.165  14.194  1.00  0.00    -0.274 OA
ENDBRANCH  23  28
ENDBRANCH  18  23
ENDBRANCH   9  11
ENDBRANCH   1   9
BRANCH   4  31
HETATM   31  C7  UNL     1      28.189 -10.534   9.719  1.00  0.00     0.066 C 
HETATM   32  N4  UNL     1      27.845 -11.681  10.156  1.00  0.00    -0.263 N 
HETATM   33  O1  UNL     1      28.483 -12.707   9.473  1.00  0.00    -0.218 OA
ATOM     34  H4  UNL     1      27.180 -11.827  10.915  1.00  0.00     0.194 HD
HETATM   35  C8  UNL     1      29.622 -12.153   8.844  1.00  0.00     0.278 C 
HETATM   36  C9  UNL     1      29.160 -10.733   8.621  1.00  0.00     0.157 C 
HETATM   37  N5  UNL     1      29.936 -12.746   7.579  1.00  0.00    -0.316 N 
HETATM   38  O4  UNL     1      30.772 -12.236   9.624  1.00  0.00    -0.329 OA
HETATM   39  C10 UNL     1      30.985 -13.484   7.707  1.00  0.00     0.174 C 
ATOM     40  H5  UNL     1      29.412 -12.607   6.715  1.00  0.00     0.166 HD
HETATM   41  C11 UNL     1      31.391 -13.381   9.129  1.00  0.00     0.256 C 
BRANCH  39  42
HETATM   42  N6  UNL     1      31.618 -14.247   6.667  1.00  0.00    -0.100 N 
HETATM   43  O2  UNL     1      32.859 -14.246   6.629  1.00  0.00    -0.531 OA
HETATM   44  O3  UNL     1      30.919 -14.959   5.740  1.00  0.00    -0.531 OA
ENDBRANCH  39  42
ENDBRANCH   4  31
TORSDOF 8
ENDMDL
