MODEL 1
REMARK VINA RESULT: -9.842930033      0.000      0.000
REMARK  15 active torsions:
REMARK  status: ('A' for Active; 'I' for Inactive)
REMARK    1  A    between atoms: C2_2  and  C3_3 
REMARK    2  A    between atoms: C3_3  and  C4_4 
REMARK    3  A    between atoms: C4_4  and  C5_5 
REMARK       I    between atoms: C5_5  and  N1_7 
REMARK    4  A    between atoms: N1_7  and  C6_9 
REMARK    5  A    between atoms: C9_12  and  C10_13 
REMARK    6  A    between atoms: C10_13  and  N2_14 
REMARK    7  A    between atoms: N2_14  and  C11_16 
REMARK    8  A    between atoms: C11_16  and  C12_17 
REMARK    9  A    between atoms: C12_17  and  C14_21 
REMARK   10  A    between atoms: C14_21  and  C15_23 
REMARK   11  A    between atoms: C15_23  and  N4_25 
REMARK       I    between atoms: N4_25  and  C17_27 
REMARK   12  A    between atoms: C17_27  and  C18_29 
REMARK   13  A    between atoms: C22_34  and  C23_35 
REMARK   14  A    between atoms: C23_35  and  C24_36 
REMARK   15  A    between atoms: N5_44  and  C31_45 
ROOT
HETATM    1  C12 UNL     1      18.738  30.383  13.389  1.00  0.00     0.267 C 
HETATM    2  F1  UNL     1      19.014  29.624  14.584  1.00  0.00    -0.216 F 
HETATM    3  C13 UNL     1      18.135  29.666  12.378  1.00  0.00     0.113 C 
HETATM    4  N3  UNL     1      17.666  29.055  11.515  1.00  0.00    -0.193 NA
ENDROOT
BRANCH   1   5
HETATM    5  C11 UNL     1      17.949  31.552  14.027  1.00  0.00     0.181 C 
BRANCH   5   6
HETATM    6  N2  UNL     1      18.784  32.343  14.801  1.00  0.00    -0.416 N 
ATOM      7  H2  UNL     1      19.572  31.883  15.256  1.00  0.00     0.153 HD
BRANCH   6   8
HETATM    8  C10 UNL     1      18.638  33.709  15.009  1.00  0.00     0.120 C 
BRANCH   8   9
HETATM    9  C9  UNL     1      17.222  33.983  15.584  1.00  0.00     0.026 C 
HETATM   10  C6  UNL     1      17.249  34.846  16.852  1.00  0.00     0.090 C 
HETATM   11  C7  UNL     1      16.225  35.756  16.217  1.00  0.00     0.026 C 
HETATM   12  C8  UNL     1      16.560  35.141  14.867  1.00  0.00     0.010 C 
BRANCH  10  13
HETATM   13  N1  UNL     1      18.507  35.457  17.037  1.00  0.00    -0.356 N 
HETATM   14  C5  UNL     1      19.313  35.422  18.267  1.00  0.00     0.218 C 
HETATM   15  O1  UNL     1      18.812  34.849  19.225  1.00  0.00    -0.274 OA
ATOM     16  H1  UNL     1      18.894  35.971  16.245  1.00  0.00     0.162 HD
BRANCH  14  17
HETATM   17  C4  UNL     1      20.628  36.068  18.265  1.00  0.00     0.106 C 
BRANCH  17  18
HETATM   18  C3  UNL     1      21.813  35.174  18.553  1.00  0.00     0.035 C 
BRANCH  18  19
HETATM   19  C2  UNL     1      22.099  34.326  17.358  1.00  0.00    -0.036 C 
HETATM   20  C1  UNL     1      23.254  34.215  16.765  1.00  0.00     0.007 C 
ENDBRANCH  18  19
ENDBRANCH  17  18
ENDBRANCH  14  17
ENDBRANCH  10  13
ENDBRANCH   8   9
ENDBRANCH   6   8
ENDBRANCH   5   6
ENDBRANCH   1   5
BRANCH   1  21
HETATM   21  C14 UNL     1      20.115  30.921  12.990  1.00  0.00     0.204 C 
HETATM   22  O2  UNL     1      20.075  31.922  12.240  1.00  0.00    -0.291 OA
BRANCH  21  23
HETATM   23  C15 UNL     1      21.282  30.323  13.434  1.00  0.00     0.155 C 
HETATM   24  C16 UNL     1      22.505  31.171  13.670  1.00  0.00     0.040 C 
BRANCH  23  25
HETATM   25  N4  UNL     1      21.940  29.558  12.037  1.00  0.00    -0.346 N 
HETATM   26  C17 UNL     1      21.872  28.161  12.587  1.00  0.00     0.252 C 
HETATM   27  O3  UNL     1      21.364  27.920  13.675  1.00  0.00    -0.268 OA
ATOM     28  H4  UNL     1      22.265  29.928  11.143  1.00  0.00     0.163 HD
BRANCH  26  29
HETATM   29  C18 UNL     1      22.439  27.044  11.807  1.00  0.00     0.035 A 
HETATM   30  C19 UNL     1      23.830  26.862  11.807  1.00  0.00     0.059 A 
HETATM   31  C20 UNL     1      24.324  25.798  11.051  1.00  0.00     0.117 A 
HETATM   32  F2  UNL     1      25.730  25.773  11.069  1.00  0.00    -0.206 F 
HETATM   33  C21 UNL     1      23.594  24.932  10.334  1.00  0.00     0.049 A 
HETATM   34  C22 UNL     1      22.194  25.153  10.354  1.00  0.00    -0.052 A 
HETATM   35  C34 UNL     1      21.665  26.172  11.071  1.00  0.00     0.024 A 
BRANCH  34  36
HETATM   36  C23 UNL     1      21.227  24.256   9.646  1.00  0.00     0.074 C 
BRANCH  36  37
HETATM   37  C24 UNL     1      19.851  24.913   9.556  1.00  0.00     0.230 C 
HETATM   38  C25 UNL     1      19.762  25.526   8.176  1.00  0.00     0.067 C 
HETATM   39  C26 UNL     1      19.892  24.675   6.991  1.00  0.00     0.120 C 
HETATM   40  C27 UNL     1      20.376  25.530   5.793  1.00  0.00     0.039 C 
HETATM   41  O4  UNL     1      18.672  24.094   6.527  1.00  0.00    -0.380 OA
HETATM   42  C28 UNL     1      18.357  23.159   7.522  1.00  0.00     0.146 C 
HETATM   43  C29 UNL     1      17.365  22.110   7.067  1.00  0.00     0.041 C 
HETATM   44  C30 UNL     1      17.837  23.951   8.692  1.00  0.00     0.304 C 
HETATM   45  N5  UNL     1      18.802  23.959   9.751  1.00  0.00     0.099 N 
BRANCH  45  46
HETATM   46  C31 UNL     1      18.094  24.060  10.986  1.00  0.00     0.215 C 
HETATM   47  C32 UNL     1      18.614  23.211  12.106  1.00  0.00     0.042 C 
HETATM   48  C33 UNL     1      18.027  25.550  11.356  1.00  0.00     0.042 C 
ENDBRANCH  45  46
ENDBRANCH  36  37
ENDBRANCH  34  36
ENDBRANCH  26  29
ENDBRANCH  23  25
ENDBRANCH  21  23
ENDBRANCH   1  21
TORSDOF 15
ENDMDL
MODEL 2
REMARK VINA RESULT: -9.766496989      0.982      2.441
REMARK  15 active torsions:
REMARK  status: ('A' for Active; 'I' for Inactive)
REMARK    1  A    between atoms: C2_2  and  C3_3 
REMARK    2  A    between atoms: C3_3  and  C4_4 
REMARK    3  A    between atoms: C4_4  and  C5_5 
REMARK       I    between atoms: C5_5  and  N1_7 
REMARK    4  A    between atoms: N1_7  and  C6_9 
REMARK    5  A    between atoms: C9_12  and  C10_13 
REMARK    6  A    between atoms: C10_13  and  N2_14 
REMARK    7  A    between atoms: N2_14  and  C11_16 
REMARK    8  A    between atoms: C11_16  and  C12_17 
REMARK    9  A    between atoms: C12_17  and  C14_21 
REMARK   10  A    between atoms: C14_21  and  C15_23 
REMARK   11  A    between atoms: C15_23  and  N4_25 
REMARK       I    between atoms: N4_25  and  C17_27 
REMARK   12  A    between atoms: C17_27  and  C18_29 
REMARK   13  A    between atoms: C22_34  and  C23_35 
REMARK   14  A    between atoms: C23_35  and  C24_36 
REMARK   15  A    between atoms: N5_44  and  C31_45 
ROOT
HETATM    1  C12 UNL     1      18.869  30.500  13.491  1.00  0.00     0.267 C 
HETATM    2  F1  UNL     1      19.172  29.783  14.705  1.00  0.00    -0.216 F 
HETATM    3  C13 UNL     1      18.319  29.730  12.490  1.00  0.00     0.113 C 
HETATM    4  N3  UNL     1      17.896  29.075  11.634  1.00  0.00    -0.193 NA
ENDROOT
BRANCH   1   5
HETATM    5  C11 UNL     1      18.006  31.635  14.097  1.00  0.00     0.181 C 
BRANCH   5   6
HETATM    6  N2  UNL     1      18.703  32.303  15.091  1.00  0.00    -0.416 N 
ATOM      7  H2  UNL     1      19.224  31.734  15.758  1.00  0.00     0.153 HD
BRANCH   6   8
HETATM    8  C10 UNL     1      18.751  33.682  15.257  1.00  0.00     0.120 C 
BRANCH   8   9
HETATM    9  C9  UNL     1      20.192  34.090  15.667  1.00  0.00     0.026 C 
HETATM   10  C6  UNL     1      20.229  34.968  16.924  1.00  0.00     0.090 C 
HETATM   11  C7  UNL     1      21.255  34.028  17.512  1.00  0.00     0.026 C 
HETATM   12  C8  UNL     1      20.860  32.994  16.469  1.00  0.00     0.010 C 
BRANCH  10  13
HETATM   13  N1  UNL     1      18.994  34.951  17.606  1.00  0.00    -0.356 N 
HETATM   14  C5  UNL     1      18.153  36.121  17.901  1.00  0.00     0.218 C 
HETATM   15  O1  UNL     1      18.601  37.208  17.564  1.00  0.00    -0.274 OA
ATOM     16  H1  UNL     1      18.652  34.043  17.922  1.00  0.00     0.162 HD
BRANCH  14  17
HETATM   17  C4  UNL     1      16.868  35.912  18.572  1.00  0.00     0.106 C 
BRANCH  17  18
HETATM   18  C3  UNL     1      15.630  36.165  17.742  1.00  0.00     0.035 C 
BRANCH  18  19
HETATM   19  C2  UNL     1      14.890  34.883  17.549  1.00  0.00    -0.036 C 
HETATM   20  C1  UNL     1      15.422  33.746  17.196  1.00  0.00     0.007 C 
ENDBRANCH  18  19
ENDBRANCH  17  18
ENDBRANCH  14  17
ENDBRANCH  10  13
ENDBRANCH   8   9
ENDBRANCH   6   8
ENDBRANCH   5   6
ENDBRANCH   1   5
BRANCH   1  21
HETATM   21  C14 UNL     1      20.218  31.108  13.098  1.00  0.00     0.204 C 
HETATM   22  O2  UNL     1      20.127  32.135  12.387  1.00  0.00    -0.291 OA
BRANCH  21  23
HETATM   23  C15 UNL     1      21.413  30.540  13.502  1.00  0.00     0.155 C 
HETATM   24  C16 UNL     1      22.624  31.417  13.687  1.00  0.00     0.040 C 
BRANCH  23  25
HETATM   25  N4  UNL     1      22.037  29.779  12.088  1.00  0.00    -0.346 N 
HETATM   26  C17 UNL     1      21.997  28.381  12.642  1.00  0.00     0.252 C 
HETATM   27  O3  UNL     1      21.523  28.138  13.745  1.00  0.00    -0.268 OA
ATOM     28  H4  UNL     1      22.332  30.149  11.184  1.00  0.00     0.163 HD
BRANCH  26  29
HETATM   29  C18 UNL     1      22.551  27.269  11.848  1.00  0.00     0.035 A 
HETATM   30  C19 UNL     1      23.942  27.088  11.822  1.00  0.00     0.059 A 
HETATM   31  C20 UNL     1      24.423  26.026  11.053  1.00  0.00     0.117 A 
HETATM   32  F2  UNL     1      25.830  26.003  11.046  1.00  0.00    -0.206 F 
HETATM   33  C21 UNL     1      23.681  25.164  10.346  1.00  0.00     0.049 A 
HETATM   34  C22 UNL     1      22.281  25.384  10.391  1.00  0.00    -0.052 A 
HETATM   35  C34 UNL     1      21.765  26.399  11.121  1.00  0.00     0.024 A 
BRANCH  34  36
HETATM   36  C23 UNL     1      21.302  24.489   9.696  1.00  0.00     0.074 C 
BRANCH  36  37
HETATM   37  C24 UNL     1      19.891  25.065   9.785  1.00  0.00     0.230 C 
HETATM   38  C25 UNL     1      19.619  25.732   8.455  1.00  0.00     0.067 C 
HETATM   39  C26 UNL     1      19.666  24.943   7.221  1.00  0.00     0.120 C 
HETATM   40  C27 UNL     1      19.969  25.879   6.023  1.00  0.00     0.039 C 
HETATM   41  O4  UNL     1      18.438  24.311   6.860  1.00  0.00    -0.380 OA
HETATM   42  C28 UNL     1      18.284  23.315   7.834  1.00  0.00     0.146 C 
HETATM   43  C29 UNL     1      17.309  22.229   7.435  1.00  0.00     0.041 C 
HETATM   44  C30 UNL     1      17.852  24.022   9.091  1.00  0.00     0.304 C 
HETATM   45  N5  UNL     1      18.924  24.041  10.041  1.00  0.00     0.099 N 
BRANCH  45  46
HETATM   46  C31 UNL     1      18.350  24.045  11.348  1.00  0.00     0.215 C 
HETATM   47  C32 UNL     1      17.915  25.382  11.864  1.00  0.00     0.042 C 
HETATM   48  C33 UNL     1      17.213  23.011  11.353  1.00  0.00     0.042 C 
ENDBRANCH  45  46
ENDBRANCH  36  37
ENDBRANCH  34  36
ENDBRANCH  26  29
ENDBRANCH  23  25
ENDBRANCH  21  23
ENDBRANCH   1  21
TORSDOF 15
ENDMDL
MODEL 3
REMARK VINA RESULT: -9.659460245      2.070      3.285
REMARK  15 active torsions:
REMARK  status: ('A' for Active; 'I' for Inactive)
REMARK    1  A    between atoms: C2_2  and  C3_3 
REMARK    2  A    between atoms: C3_3  and  C4_4 
REMARK    3  A    between atoms: C4_4  and  C5_5 
REMARK       I    between atoms: C5_5  and  N1_7 
REMARK    4  A    between atoms: N1_7  and  C6_9 
REMARK    5  A    between atoms: C9_12  and  C10_13 
REMARK    6  A    between atoms: C10_13  and  N2_14 
REMARK    7  A    between atoms: N2_14  and  C11_16 
REMARK    8  A    between atoms: C11_16  and  C12_17 
REMARK    9  A    between atoms: C12_17  and  C14_21 
REMARK   10  A    between atoms: C14_21  and  C15_23 
REMARK   11  A    between atoms: C15_23  and  N4_25 
REMARK       I    between atoms: N4_25  and  C17_27 
REMARK   12  A    between atoms: C17_27  and  C18_29 
REMARK   13  A    between atoms: C22_34  and  C23_35 
REMARK   14  A    between atoms: C23_35  and  C24_36 
REMARK   15  A    between atoms: N5_44  and  C31_45 
ROOT
HETATM    1  C12 UNL     1      21.832  32.777  14.734  1.00  0.00     0.267 C 
HETATM    2  F1  UNL     1      20.963  32.728  13.584  1.00  0.00    -0.216 F 
HETATM    3  C13 UNL     1      23.176  32.833  14.437  1.00  0.00     0.113 C 
HETATM    4  N3  UNL     1      24.307  32.838  14.189  1.00  0.00    -0.193 NA
ENDROOT
BRANCH   1   5
HETATM    5  C11 UNL     1      21.194  33.986  15.462  1.00  0.00     0.181 C 
BRANCH   5   6
HETATM    6  N2  UNL     1      19.833  34.050  15.205  1.00  0.00    -0.416 N 
ATOM      7  H2  UNL     1      19.542  34.038  14.228  1.00  0.00     0.153 HD
BRANCH   6   8
HETATM    8  C10 UNL     1      18.833  34.129  16.166  1.00  0.00     0.120 C 
BRANCH   8   9
HETATM    9  C9  UNL     1      18.052  32.787  16.192  1.00  0.00     0.026 C 
HETATM   10  C6  UNL     1      16.609  32.945  16.689  1.00  0.00     0.090 C 
HETATM   11  C7  UNL     1      16.138  32.201  15.462  1.00  0.00     0.026 C 
HETATM   12  C8  UNL     1      17.495  32.456  14.823  1.00  0.00     0.010 C 
BRANCH  10  13
HETATM   13  N1  UNL     1      16.214  34.299  16.711  1.00  0.00    -0.356 N 
HETATM   14  C5  UNL     1      15.653  35.016  17.866  1.00  0.00     0.218 C 
HETATM   15  O1  UNL     1      15.471  34.354  18.878  1.00  0.00    -0.274 OA
ATOM     16  H1  UNL     1      16.328  34.830  15.847  1.00  0.00     0.162 HD
BRANCH  14  17
HETATM   17  C4  UNL     1      15.348  36.443  17.728  1.00  0.00     0.106 C 
BRANCH  17  18
HETATM   18  C3  UNL     1      15.829  37.342  18.844  1.00  0.00     0.035 C 
BRANCH  18  19
HETATM   19  C2  UNL     1      16.869  38.275  18.318  1.00  0.00    -0.036 C 
HETATM   20  C1  UNL     1      17.337  38.282  17.101  1.00  0.00     0.007 C 
ENDBRANCH  18  19
ENDBRANCH  17  18
ENDBRANCH  14  17
ENDBRANCH  10  13
ENDBRANCH   8   9
ENDBRANCH   6   8
ENDBRANCH   5   6
ENDBRANCH   1   5
BRANCH   1  21
HETATM   21  C14 UNL     1      21.451  31.516  15.515  1.00  0.00     0.204 C 
HETATM   22  O2  UNL     1      21.867  31.502  16.695  1.00  0.00    -0.291 OA
BRANCH  21  23
HETATM   23  C15 UNL     1      20.717  30.498  14.931  1.00  0.00     0.155 C 
HETATM   24  C16 UNL     1      19.844  29.626  15.796  1.00  0.00     0.040 C 
BRANCH  23  25
HETATM   25  N4  UNL     1      21.864  29.249  14.628  1.00  0.00    -0.346 N 
HETATM   26  C17 UNL     1      21.471  29.032  13.193  1.00  0.00     0.252 C 
HETATM   27  O3  UNL     1      20.635  29.737  12.639  1.00  0.00    -0.268 OA
ATOM     28  H4  UNL     1      22.569  28.808  15.219  1.00  0.00     0.163 HD
BRANCH  26  29
HETATM   29  C18 UNL     1      22.094  27.937  12.426  1.00  0.00     0.035 A 
HETATM   30  C19 UNL     1      23.493  27.832  12.420  1.00  0.00     0.059 A 
HETATM   31  C20 UNL     1      24.041  26.785  11.677  1.00  0.00     0.117 A 
HETATM   32  F2  UNL     1      25.447  26.838  11.686  1.00  0.00    -0.206 F 
HETATM   33  C21 UNL     1      23.356  25.870  10.977  1.00  0.00     0.049 A 
HETATM   34  C22 UNL     1      21.946  26.014  11.002  1.00  0.00    -0.052 A 
HETATM   35  C34 UNL     1      21.366  27.013  11.707  1.00  0.00     0.024 A 
BRANCH  34  36
HETATM   36  C23 UNL     1      21.026  25.054  10.313  1.00  0.00     0.074 C 
BRANCH  36  37
HETATM   37  C24 UNL     1      19.949  25.807   9.535  1.00  0.00     0.230 C 
HETATM   38  C25 UNL     1      20.267  25.610   8.070  1.00  0.00     0.067 C 
HETATM   39  C26 UNL     1      20.311  24.257   7.509  1.00  0.00     0.120 C 
HETATM   40  C27 UNL     1      21.213  24.250   6.250  1.00  0.00     0.039 C 
HETATM   41  O4  UNL     1      19.060  23.756   7.038  1.00  0.00    -0.380 OA
HETATM   42  C28 UNL     1      18.323  23.558   8.214  1.00  0.00     0.146 C 
HETATM   43  C29 UNL     1      17.141  22.631   8.033  1.00  0.00     0.041 C 
HETATM   44  C30 UNL     1      17.896  24.926   8.676  1.00  0.00     0.304 C 
HETATM   45  N5  UNL     1      18.641  25.310   9.838  1.00  0.00     0.099 N 
BRANCH  45  46
HETATM   46  C31 UNL     1      17.816  26.172  10.621  1.00  0.00     0.215 C 
HETATM   47  C32 UNL     1      17.963  26.042  12.106  1.00  0.00     0.042 C 
HETATM   48  C33 UNL     1      18.053  27.608  10.127  1.00  0.00     0.042 C 
ENDBRANCH  45  46
ENDBRANCH  36  37
ENDBRANCH  34  36
ENDBRANCH  26  29
ENDBRANCH  23  25
ENDBRANCH  21  23
ENDBRANCH   1  21
TORSDOF 15
ENDMDL
MODEL 4
REMARK VINA RESULT: -9.594695093      1.284      1.494
REMARK  15 active torsions:
REMARK  status: ('A' for Active; 'I' for Inactive)
REMARK    1  A    between atoms: C2_2  and  C3_3 
REMARK    2  A    between atoms: C3_3  and  C4_4 
REMARK    3  A    between atoms: C4_4  and  C5_5 
REMARK       I    between atoms: C5_5  and  N1_7 
REMARK    4  A    between atoms: N1_7  and  C6_9 
REMARK    5  A    between atoms: C9_12  and  C10_13 
REMARK    6  A    between atoms: C10_13  and  N2_14 
REMARK    7  A    between atoms: N2_14  and  C11_16 
REMARK    8  A    between atoms: C11_16  and  C12_17 
REMARK    9  A    between atoms: C12_17  and  C14_21 
REMARK   10  A    between atoms: C14_21  and  C15_23 
REMARK   11  A    between atoms: C15_23  and  N4_25 
REMARK       I    between atoms: N4_25  and  C17_27 
REMARK   12  A    between atoms: C17_27  and  C18_29 
REMARK   13  A    between atoms: C22_34  and  C23_35 
REMARK   14  A    between atoms: C23_35  and  C24_36 
REMARK   15  A    between atoms: N5_44  and  C31_45 
ROOT
HETATM    1  C12 UNL     1      19.330  31.856  14.449  1.00  0.00     0.267 C 
HETATM    2  F1  UNL     1      20.019  32.154  15.681  1.00  0.00    -0.216 F 
HETATM    3  C13 UNL     1      18.512  30.749  14.501  1.00  0.00     0.113 C 
HETATM    4  N3  UNL     1      17.856  29.795  14.533  1.00  0.00    -0.193 NA
ENDROOT
BRANCH   1   5
HETATM    5  C11 UNL     1      18.676  33.238  14.203  1.00  0.00     0.181 C 
BRANCH   5   6
HETATM    6  N2  UNL     1      17.395  33.274  14.731  1.00  0.00    -0.416 N 
ATOM      7  H2  UNL     1      16.909  32.384  14.839  1.00  0.00     0.153 HD
BRANCH   6   8
HETATM    8  C10 UNL     1      16.716  34.421  15.125  1.00  0.00     0.120 C 
BRANCH   8   9
HETATM    9  C9  UNL     1      15.966  34.130  16.453  1.00  0.00     0.026 C 
HETATM   10  C6  UNL     1      16.879  34.207  17.684  1.00  0.00     0.090 C 
HETATM   11  C7  UNL     1      15.880  35.138  18.329  1.00  0.00     0.026 C 
HETATM   12  C8  UNL     1      15.258  35.370  16.959  1.00  0.00     0.010 C 
BRANCH  10  13
HETATM   13  N1  UNL     1      18.109  34.825  17.379  1.00  0.00    -0.356 N 
HETATM   14  C5  UNL     1      19.213  35.065  18.322  1.00  0.00     0.218 C 
HETATM   15  O1  UNL     1      19.013  34.738  19.483  1.00  0.00    -0.274 OA
ATOM     16  H1  UNL     1      18.247  35.134  16.417  1.00  0.00     0.162 HD
BRANCH  14  17
HETATM   17  C4  UNL     1      20.447  35.673  17.819  1.00  0.00     0.106 C 
BRANCH  17  18
HETATM   18  C3  UNL     1      20.940  35.178  16.477  1.00  0.00     0.035 C 
BRANCH  18  19
HETATM   19  C2  UNL     1      22.368  34.759  16.595  1.00  0.00    -0.036 C 
HETATM   20  C1  UNL     1      22.930  34.271  17.666  1.00  0.00     0.007 C 
ENDBRANCH  18  19
ENDBRANCH  17  18
ENDBRANCH  14  17
ENDBRANCH  10  13
ENDBRANCH   8   9
ENDBRANCH   6   8
ENDBRANCH   5   6
ENDBRANCH   1   5
BRANCH   1  21
HETATM   21  C14 UNL     1      20.471  31.701  13.439  1.00  0.00     0.204 C 
HETATM   22  O2  UNL     1      20.209  32.149  12.301  1.00  0.00    -0.291 OA
BRANCH  21  23
HETATM   23  C15 UNL     1      21.670  31.103  13.788  1.00  0.00     0.155 C 
HETATM   24  C16 UNL     1      22.924  31.937  13.843  1.00  0.00     0.040 C 
BRANCH  23  25
HETATM   25  N4  UNL     1      22.161  30.249  12.374  1.00  0.00    -0.346 N 
HETATM   26  C17 UNL     1      22.111  28.884  13.002  1.00  0.00     0.252 C 
HETATM   27  O3  UNL     1      21.710  28.714  14.147  1.00  0.00    -0.268 OA
ATOM     28  H4  UNL     1      22.403  30.563  11.434  1.00  0.00     0.163 HD
BRANCH  26  29
HETATM   29  C18 UNL     1      22.565  27.712  12.229  1.00  0.00     0.035 A 
HETATM   30  C19 UNL     1      23.944  27.489  12.092  1.00  0.00     0.059 A 
HETATM   31  C20 UNL     1      24.329  26.373  11.349  1.00  0.00     0.117 A 
HETATM   32  F2  UNL     1      25.728  26.308  11.220  1.00  0.00    -0.206 F 
HETATM   33  C21 UNL     1      23.507  25.494  10.761  1.00  0.00     0.049 A 
HETATM   34  C22 UNL     1      22.122  25.757  10.915  1.00  0.00    -0.052 A 
HETATM   35  C34 UNL     1      21.697  26.826  11.627  1.00  0.00     0.024 A 
BRANCH  34  36
HETATM   36  C23 UNL     1      21.064  24.853  10.363  1.00  0.00     0.074 C 
BRANCH  36  37
HETATM   37  C24 UNL     1      20.029  25.654   9.576  1.00  0.00     0.230 C 
HETATM   38  C25 UNL     1      20.313  25.396   8.114  1.00  0.00     0.067 C 
HETATM   39  C26 UNL     1      20.259  24.028   7.591  1.00  0.00     0.120 C 
HETATM   40  C27 UNL     1      21.142  23.927   6.322  1.00  0.00     0.039 C 
HETATM   41  O4  UNL     1      18.971  23.600   7.149  1.00  0.00    -0.380 OA
HETATM   42  C28 UNL     1      18.239  23.484   8.338  1.00  0.00     0.146 C 
HETATM   43  C29 UNL     1      16.995  22.633   8.198  1.00  0.00     0.041 C 
HETATM   44  C30 UNL     1      17.911  24.889   8.766  1.00  0.00     0.304 C 
HETATM   45  N5  UNL     1      18.695  25.254   9.909  1.00  0.00     0.099 N 
BRANCH  45  46
HETATM   46  C31 UNL     1      17.940  26.191  10.676  1.00  0.00     0.215 C 
HETATM   47  C32 UNL     1      18.049  26.051  12.164  1.00  0.00     0.042 C 
HETATM   48  C33 UNL     1      18.318  27.597  10.185  1.00  0.00     0.042 C 
ENDBRANCH  45  46
ENDBRANCH  36  37
ENDBRANCH  34  36
ENDBRANCH  26  29
ENDBRANCH  23  25
ENDBRANCH  21  23
ENDBRANCH   1  21
TORSDOF 15
ENDMDL
MODEL 5
REMARK VINA RESULT: -9.531868938      1.203      1.620
REMARK  15 active torsions:
REMARK  status: ('A' for Active; 'I' for Inactive)
REMARK    1  A    between atoms: C2_2  and  C3_3 
REMARK    2  A    between atoms: C3_3  and  C4_4 
REMARK    3  A    between atoms: C4_4  and  C5_5 
REMARK       I    between atoms: C5_5  and  N1_7 
REMARK    4  A    between atoms: N1_7  and  C6_9 
REMARK    5  A    between atoms: C9_12  and  C10_13 
REMARK    6  A    between atoms: C10_13  and  N2_14 
REMARK    7  A    between atoms: N2_14  and  C11_16 
REMARK    8  A    between atoms: C11_16  and  C12_17 
REMARK    9  A    between atoms: C12_17  and  C14_21 
REMARK   10  A    between atoms: C14_21  and  C15_23 
REMARK   11  A    between atoms: C15_23  and  N4_25 
REMARK       I    between atoms: N4_25  and  C17_27 
REMARK   12  A    between atoms: C17_27  and  C18_29 
REMARK   13  A    between atoms: C22_34  and  C23_35 
REMARK   14  A    between atoms: C23_35  and  C24_36 
REMARK   15  A    between atoms: N5_44  and  C31_45 
ROOT
HETATM    1  C12 UNL     1      18.815  30.261  13.733  1.00  0.00     0.267 C 
HETATM    2  F1  UNL     1      19.343  29.249  14.615  1.00  0.00    -0.216 F 
HETATM    3  C13 UNL     1      17.965  29.787  12.758  1.00  0.00     0.113 C 
HETATM    4  N3  UNL     1      17.283  29.384  11.914  1.00  0.00    -0.193 NA
ENDROOT
BRANCH   1   5
HETATM    5  C11 UNL     1      18.239  31.227  14.798  1.00  0.00     0.181 C 
BRANCH   5   6
HETATM    6  N2  UNL     1      17.718  32.362  14.199  1.00  0.00    -0.416 N 
ATOM      7  H2  UNL     1      17.077  32.225  13.417  1.00  0.00     0.153 HD
BRANCH   6   8
HETATM    8  C10 UNL     1      17.993  33.672  14.572  1.00  0.00     0.120 C 
BRANCH   8   9
HETATM    9  C9  UNL     1      17.028  34.083  15.717  1.00  0.00     0.026 C 
HETATM   10  C6  UNL     1      17.742  34.792  16.875  1.00  0.00     0.090 C 
HETATM   11  C7  UNL     1      16.722  35.903  16.782  1.00  0.00     0.026 C 
HETATM   12  C8  UNL     1      16.338  35.393  15.402  1.00  0.00     0.010 C 
BRANCH  10  13
HETATM   13  N1  UNL     1      19.045  35.194  16.512  1.00  0.00    -0.356 N 
HETATM   14  C5  UNL     1      20.196  35.314  17.419  1.00  0.00     0.218 C 
HETATM   15  O1  UNL     1      19.979  35.091  18.602  1.00  0.00    -0.274 OA
ATOM     16  H1  UNL     1      19.203  35.421  15.530  1.00  0.00     0.162 HD
BRANCH  14  17
HETATM   17  C4  UNL     1      21.496  35.693  16.859  1.00  0.00     0.106 C 
BRANCH  17  18
HETATM   18  C3  UNL     1      22.201  34.642  16.030  1.00  0.00     0.035 C 
BRANCH  18  19
HETATM   19  C2  UNL     1      22.811  33.623  16.933  1.00  0.00    -0.036 C 
HETATM   20  C1  UNL     1      22.331  32.434  17.171  1.00  0.00     0.007 C 
ENDBRANCH  18  19
ENDBRANCH  17  18
ENDBRANCH  14  17
ENDBRANCH  10  13
ENDBRANCH   8   9
ENDBRANCH   6   8
ENDBRANCH   5   6
ENDBRANCH   1   5
BRANCH   1  21
HETATM   21  C14 UNL     1      20.074  30.912  13.154  1.00  0.00     0.204 C 
HETATM   22  O2  UNL     1      19.843  31.834  12.340  1.00  0.00    -0.291 OA
BRANCH  21  23
HETATM   23  C15 UNL     1      21.341  30.486  13.516  1.00  0.00     0.155 C 
HETATM   24  C16 UNL     1      22.462  31.489  13.601  1.00  0.00     0.040 C 
BRANCH  23  25
HETATM   25  N4  UNL     1      21.969  29.729  12.102  1.00  0.00    -0.346 N 
HETATM   26  C17 UNL     1      22.104  28.362  12.713  1.00  0.00     0.252 C 
HETATM   27  O3  UNL     1      21.713  28.122  13.849  1.00  0.00    -0.268 OA
ATOM     28  H4  UNL     1      22.178  30.087  11.169  1.00  0.00     0.163 HD
BRANCH  26  29
HETATM   29  C18 UNL     1      22.731  27.277  11.935  1.00  0.00     0.035 A 
HETATM   30  C19 UNL     1      24.127  27.148  11.966  1.00  0.00     0.059 A 
HETATM   31  C20 UNL     1      24.679  26.111  11.211  1.00  0.00     0.117 A 
HETATM   32  F2  UNL     1      26.084  26.140  11.261  1.00  0.00    -0.206 F 
HETATM   33  C21 UNL     1      23.999  25.227  10.467  1.00  0.00     0.049 A 
HETATM   34  C22 UNL     1      22.591  25.395  10.456  1.00  0.00    -0.052 A 
HETATM   35  C34 UNL     1      22.008  26.385  11.171  1.00  0.00     0.024 A 
BRANCH  34  36
HETATM   36  C23 UNL     1      21.676  24.470   9.716  1.00  0.00     0.074 C 
BRANCH  36  37
HETATM   37  C24 UNL     1      21.115  25.152   8.470  1.00  0.00     0.230 C 
HETATM   38  C25 UNL     1      21.550  24.309   7.292  1.00  0.00     0.067 C 
HETATM   39  C26 UNL     1      21.142  22.904   7.211  1.00  0.00     0.120 C 
HETATM   40  C27 UNL     1      22.150  22.125   6.329  1.00  0.00     0.039 C 
HETATM   41  O4  UNL     1      19.883  22.675   6.579  1.00  0.00    -0.380 OA
HETATM   42  C28 UNL     1      18.957  23.192   7.495  1.00  0.00     0.146 C 
HETATM   43  C29 UNL     1      17.548  22.686   7.277  1.00  0.00     0.041 C 
HETATM   44  C30 UNL     1      19.039  24.690   7.372  1.00  0.00     0.304 C 
HETATM   45  N5  UNL     1      19.688  25.247   8.522  1.00  0.00     0.099 N 
BRANCH  45  46
HETATM   46  C31 UNL     1      19.161  26.556   8.731  1.00  0.00     0.215 C 
HETATM   47  C32 UNL     1      18.444  27.163   7.564  1.00  0.00     0.042 C 
HETATM   48  C33 UNL     1      18.291  26.504   9.997  1.00  0.00     0.042 C 
ENDBRANCH  45  46
ENDBRANCH  36  37
ENDBRANCH  34  36
ENDBRANCH  26  29
ENDBRANCH  23  25
ENDBRANCH  21  23
ENDBRANCH   1  21
TORSDOF 15
ENDMDL
