MODEL 1
REMARK VINA RESULT: -8.336022147      0.000      0.000
REMARK  15 active torsions:
REMARK  status: ('A' for Active; 'I' for Inactive)
REMARK    1  A    between atoms: C2_2  and  N1_3 
REMARK    2  A    between atoms: N1_3  and  C3_6 
REMARK    3  A    between atoms: C3_6  and  C4_7 
REMARK    4  A    between atoms: C4_7  and  C5_8 
REMARK    5  A    between atoms: C5_8  and  C6_9 
REMARK    6  A    between atoms: C6_9  and  C7_10 
REMARK    7  A    between atoms: C7_10  and  C8_11 
REMARK    8  A    between atoms: C7_10  and  O6_29 
REMARK    9  A    between atoms: C8_11  and  N2_12 
REMARK   10  A    between atoms: O6_29  and  C20_30 
REMARK   11  A    between atoms: C20_30  and  C21_31 
REMARK   12  A    between atoms: C22_32  and  C23_33 
REMARK   13  A    between atoms: C23_33  and  C24_34 
REMARK   14  A    between atoms: C24_34  and  C25_35 
REMARK       I    between atoms: C25_35  and  N3_37 
REMARK   15  A    between atoms: N3_37  and  C26_39 
ROOT
HETATM    1  C7  UNL     1      20.315  32.080  16.196  1.00  0.00     0.137 C 
ENDROOT
BRANCH   1   2
HETATM    2  C6  UNL     1      21.793  32.206  16.155  1.00  0.00     0.033 C 
BRANCH   2   3
HETATM    3  C5  UNL     1      22.505  33.155  17.020  1.00  0.00     0.004 C 
BRANCH   3   4
HETATM    4  C4  UNL     1      22.369  34.600  16.667  1.00  0.00     0.027 C 
BRANCH   4   5
HETATM    5  C3  UNL     1      21.970  35.434  17.884  1.00  0.00     0.232 C 
BRANCH   5   6
HETATM    6  N1  UNL     1      21.323  34.681  18.908  1.00  0.00    -0.075 N 
ATOM      7  H12 UNL     1      21.616  33.704  18.876  1.00  0.00     0.277 HD
ATOM      8  H11 UNL     1      20.331  34.569  18.700  1.00  0.00     0.277 HD
BRANCH   6   9
HETATM    9  C2  UNL     1      21.508  35.226  20.240  1.00  0.00     0.228 C 
HETATM   10  C1  UNL     1      22.824  35.934  20.380  1.00  0.00     0.034 C 
ENDBRANCH   6   9
ENDBRANCH   5   6
ENDBRANCH   4   5
ENDBRANCH   3   4
ENDBRANCH   2   3
ENDBRANCH   1   2
BRANCH   1  11
HETATM   11  C8  UNL     1      20.075  30.529  16.023  1.00  0.00     0.152 C 
BRANCH  11  12
HETATM   12  N2  UNL     1      19.888  30.232  14.615  1.00  0.00    -0.193 NA
HETATM   13  C9  UNL     1      18.718  29.379  14.539  1.00  0.00     0.147 C 
HETATM   14  C10 UNL     1      17.566  30.031  13.800  1.00  0.00     0.184 C 
HETATM   15  O1  UNL     1      17.726  29.963  12.420  1.00  0.00    -0.388 OA
HETATM   16  C11 UNL     1      16.728  29.152  11.833  1.00  0.00     0.193 C 
HETATM   17  C12 UNL     1      17.160  28.655  10.472  1.00  0.00     0.193 C 
HETATM   18  O2  UNL     1      17.503  27.298  10.544  1.00  0.00    -0.387 OA
HETATM   19  C13 UNL     1      17.804  26.764   9.316  1.00  0.00     0.193 C 
HETATM   20  C14 UNL     1      19.258  26.429   9.120  1.00  0.00     0.193 C 
HETATM   21  O3  UNL     1      19.666  25.271   9.729  1.00  0.00    -0.387 OA
HETATM   22  C15 UNL     1      19.930  25.356  11.073  1.00  0.00     0.193 C 
HETATM   23  C16 UNL     1      21.390  25.274  11.423  1.00  0.00     0.193 C 
HETATM   24  O4  UNL     1      22.031  26.511  11.384  1.00  0.00    -0.389 OA
HETATM   25  C17 UNL     1      21.703  27.321  12.450  1.00  0.00     0.169 C 
HETATM   26  C18 UNL     1      21.157  28.611  11.897  1.00  0.00     0.054 C 
HETATM   27  C19 UNL     1      21.299  29.755  12.866  1.00  0.00     0.196 C 
HETATM   28  O5  UNL     1      20.924  29.464  14.154  1.00  0.00    -0.303 OA
ENDBRANCH  11  12
ENDBRANCH   1  11
BRANCH   1  29
HETATM   29  O6  UNL     1      19.681  32.618  15.141  1.00  0.00    -0.381 OA
BRANCH  29  30
HETATM   30  C20 UNL     1      18.915  33.772  15.395  1.00  0.00     0.195 C 
BRANCH  30  31
HETATM   31  C21 UNL     1      17.582  33.746  14.810  1.00  0.00    -0.005 C 
HETATM   32  C22 UNL     1      16.503  32.919  15.307  1.00  0.00    -0.028 C 
BRANCH  32  33
HETATM   33  C23 UNL     1      15.930  32.987  16.645  1.00  0.00     0.036 C 
BRANCH  33  34
HETATM   34  C24 UNL     1      14.985  34.105  16.951  1.00  0.00     0.106 C 
BRANCH  34  35
HETATM   35  C25 UNL     1      15.708  35.158  17.766  1.00  0.00     0.218 C 
HETATM   36  O7  UNL     1      15.683  35.029  19.005  1.00  0.00    -0.274 OA
HETATM   37  N3  UNL     1      16.370  36.223  17.135  1.00  0.00    -0.356 N 
ATOM     38  H3  UNL     1      16.362  36.286  16.117  1.00  0.00     0.162 HD
BRANCH  37  39
HETATM   39  C26 UNL     1      17.057  37.223  17.895  1.00  0.00     0.084 C 
HETATM   40  C27 UNL     1      18.531  36.851  18.079  1.00  0.00     0.025 C 
HETATM   41  C28 UNL     1      19.097  38.211  18.513  1.00  0.00     0.002 C 
HETATM   42  C29 UNL     1      18.427  39.195  17.557  1.00  0.00     0.002 C 
HETATM   43  C30 UNL     1      17.151  38.525  17.141  1.00  0.00     0.025 C 
ENDBRANCH  37  39
ENDBRANCH  34  35
ENDBRANCH  33  34
ENDBRANCH  32  33
ENDBRANCH  30  31
ENDBRANCH  29  30
ENDBRANCH   1  29
TORSDOF 15
ENDMDL
MODEL 2
REMARK VINA RESULT: -8.237689833      0.742      1.107
REMARK  15 active torsions:
REMARK  status: ('A' for Active; 'I' for Inactive)
REMARK    1  A    between atoms: C2_2  and  N1_3 
REMARK    2  A    between atoms: N1_3  and  C3_6 
REMARK    3  A    between atoms: C3_6  and  C4_7 
REMARK    4  A    between atoms: C4_7  and  C5_8 
REMARK    5  A    between atoms: C5_8  and  C6_9 
REMARK    6  A    between atoms: C6_9  and  C7_10 
REMARK    7  A    between atoms: C7_10  and  C8_11 
REMARK    8  A    between atoms: C7_10  and  O6_29 
REMARK    9  A    between atoms: C8_11  and  N2_12 
REMARK   10  A    between atoms: O6_29  and  C20_30 
REMARK   11  A    between atoms: C20_30  and  C21_31 
REMARK   12  A    between atoms: C22_32  and  C23_33 
REMARK   13  A    between atoms: C23_33  and  C24_34 
REMARK   14  A    between atoms: C24_34  and  C25_35 
REMARK       I    between atoms: C25_35  and  N3_37 
REMARK   15  A    between atoms: N3_37  and  C26_39 
ROOT
HETATM    1  C7  UNL     1      20.294  32.130  16.173  1.00  0.00     0.137 C 
ENDROOT
BRANCH   1   2
HETATM    2  C6  UNL     1      21.769  32.280  16.154  1.00  0.00     0.033 C 
BRANCH   2   3
HETATM    3  C5  UNL     1      22.458  33.197  17.072  1.00  0.00     0.004 C 
BRANCH   3   4
HETATM    4  C4  UNL     1      22.295  34.655  16.793  1.00  0.00     0.027 C 
BRANCH   4   5
HETATM    5  C3  UNL     1      22.154  35.456  18.087  1.00  0.00     0.232 C 
BRANCH   5   6
HETATM    6  N1  UNL     1      21.417  34.778  19.103  1.00  0.00    -0.075 N 
ATOM      7  H12 UNL     1      22.032  34.494  19.865  1.00  0.00     0.277 HD
ATOM      8  H11 UNL     1      21.113  33.861  18.776  1.00  0.00     0.277 HD
BRANCH   6   9
HETATM    9  C2  UNL     1      20.290  35.538  19.612  1.00  0.00     0.228 C 
HETATM   10  C1  UNL     1      19.028  35.250  18.852  1.00  0.00     0.034 C 
ENDBRANCH   6   9
ENDBRANCH   5   6
ENDBRANCH   4   5
ENDBRANCH   3   4
ENDBRANCH   2   3
ENDBRANCH   1   2
BRANCH   1  11
HETATM   11  C8  UNL     1      20.082  30.574  16.007  1.00  0.00     0.152 C 
BRANCH  11  12
HETATM   12  N2  UNL     1      19.898  30.268  14.601  1.00  0.00    -0.193 NA
HETATM   13  C9  UNL     1      18.732  29.408  14.529  1.00  0.00     0.147 C 
HETATM   14  C10 UNL     1      17.578  30.048  13.785  1.00  0.00     0.184 C 
HETATM   15  O1  UNL     1      17.739  29.973  12.406  1.00  0.00    -0.388 OA
HETATM   16  C11 UNL     1      16.746  29.152  11.823  1.00  0.00     0.193 C 
HETATM   17  C12 UNL     1      17.182  28.649  10.465  1.00  0.00     0.193 C 
HETATM   18  O2  UNL     1      17.533  27.295  10.546  1.00  0.00    -0.387 OA
HETATM   19  C13 UNL     1      17.838  26.755   9.322  1.00  0.00     0.193 C 
HETATM   20  C14 UNL     1      19.294  26.427   9.129  1.00  0.00     0.193 C 
HETATM   21  O3  UNL     1      19.708  25.275   9.746  1.00  0.00    -0.387 OA
HETATM   22  C15 UNL     1      19.971  25.370  11.089  1.00  0.00     0.193 C 
HETATM   23  C16 UNL     1      21.431  25.299  11.441  1.00  0.00     0.193 C 
HETATM   24  O4  UNL     1      22.064  26.539  11.395  1.00  0.00    -0.389 OA
HETATM   25  C17 UNL     1      21.731  27.354  12.456  1.00  0.00     0.169 C 
HETATM   26  C18 UNL     1      21.178  28.638  11.895  1.00  0.00     0.054 C 
HETATM   27  C19 UNL     1      21.313  29.788  12.856  1.00  0.00     0.196 C 
HETATM   28  O5  UNL     1      20.939  29.503  14.145  1.00  0.00    -0.303 OA
ENDBRANCH  11  12
ENDBRANCH   1  11
BRANCH   1  29
HETATM   29  O6  UNL     1      19.667  32.650  15.104  1.00  0.00    -0.381 OA
BRANCH  29  30
HETATM   30  C20 UNL     1      18.937  33.834  15.324  1.00  0.00     0.195 C 
BRANCH  30  31
HETATM   31  C21 UNL     1      17.580  33.807  14.795  1.00  0.00    -0.005 C 
HETATM   32  C22 UNL     1      16.536  32.945  15.306  1.00  0.00    -0.028 C 
BRANCH  32  33
HETATM   33  C23 UNL     1      16.019  32.956  16.669  1.00  0.00     0.036 C 
BRANCH  33  34
HETATM   34  C24 UNL     1      14.889  33.882  16.986  1.00  0.00     0.106 C 
BRANCH  34  35
HETATM   35  C25 UNL     1      15.409  35.028  17.831  1.00  0.00     0.218 C 
HETATM   36  O7  UNL     1      15.538  34.816  19.052  1.00  0.00    -0.274 OA
HETATM   37  N3  UNL     1      15.724  36.265  17.245  1.00  0.00    -0.356 N 
ATOM     38  H3  UNL     1      15.600  36.389  16.241  1.00  0.00     0.162 HD
BRANCH  37  39
HETATM   39  C26 UNL     1      16.216  37.353  18.033  1.00  0.00     0.084 C 
HETATM   40  C27 UNL     1      16.951  38.372  17.158  1.00  0.00     0.025 C 
HETATM   41  C28 UNL     1      16.985  39.571  18.116  1.00  0.00     0.002 C 
HETATM   42  C29 UNL     1      15.578  39.593  18.707  1.00  0.00     0.002 C 
HETATM   43  C30 UNL     1      15.090  38.179  18.603  1.00  0.00     0.025 C 
ENDBRANCH  37  39
ENDBRANCH  34  35
ENDBRANCH  33  34
ENDBRANCH  32  33
ENDBRANCH  30  31
ENDBRANCH  29  30
ENDBRANCH   1  29
TORSDOF 15
ENDMDL
MODEL 3
REMARK VINA RESULT: -8.076333091      2.326     11.036
REMARK  15 active torsions:
REMARK  status: ('A' for Active; 'I' for Inactive)
REMARK    1  A    between atoms: C2_2  and  N1_3 
REMARK    2  A    between atoms: N1_3  and  C3_6 
REMARK    3  A    between atoms: C3_6  and  C4_7 
REMARK    4  A    between atoms: C4_7  and  C5_8 
REMARK    5  A    between atoms: C5_8  and  C6_9 
REMARK    6  A    between atoms: C6_9  and  C7_10 
REMARK    7  A    between atoms: C7_10  and  C8_11 
REMARK    8  A    between atoms: C7_10  and  O6_29 
REMARK    9  A    between atoms: C8_11  and  N2_12 
REMARK   10  A    between atoms: O6_29  and  C20_30 
REMARK   11  A    between atoms: C20_30  and  C21_31 
REMARK   12  A    between atoms: C22_32  and  C23_33 
REMARK   13  A    between atoms: C23_33  and  C24_34 
REMARK   14  A    between atoms: C24_34  and  C25_35 
REMARK       I    between atoms: C25_35  and  N3_37 
REMARK   15  A    between atoms: N3_37  and  C26_39 
ROOT
HETATM    1  C7  UNL     1      18.542  30.434  13.579  1.00  0.00     0.137 C 
ENDROOT
BRANCH   1   2
HETATM    2  C6  UNL     1      17.234  30.110  12.959  1.00  0.00     0.033 C 
BRANCH   2   3
HETATM    3  C5  UNL     1      17.148  29.363  11.698  1.00  0.00     0.004 C 
BRANCH   3   4
HETATM    4  C4  UNL     1      18.148  28.269  11.510  1.00  0.00     0.027 C 
BRANCH   4   5
HETATM    5  C3  UNL     1      18.182  27.790  10.059  1.00  0.00     0.232 C 
BRANCH   5   6
HETATM    6  N1  UNL     1      19.359  27.058   9.725  1.00  0.00    -0.075 N 
ATOM      7  H12 UNL     1      19.992  27.010  10.523  1.00  0.00     0.277 HD
ATOM      8  H11 UNL     1      19.941  27.588   9.076  1.00  0.00     0.277 HD
BRANCH   6   9
HETATM    9  C2  UNL     1      19.093  25.730   9.204  1.00  0.00     0.228 C 
HETATM   10  C1  UNL     1      17.626  25.415   9.187  1.00  0.00     0.034 C 
ENDBRANCH   6   9
ENDBRANCH   5   6
ENDBRANCH   4   5
ENDBRANCH   3   4
ENDBRANCH   2   3
ENDBRANCH   1   2
BRANCH   1  11
HETATM   11  C8  UNL     1      18.161  30.808  15.065  1.00  0.00     0.152 C 
BRANCH  11  12
HETATM   12  N2  UNL     1      18.268  32.245  15.235  1.00  0.00    -0.193 NA
HETATM   13  C9  UNL     1      18.890  32.448  16.529  1.00  0.00     0.147 C 
HETATM   14  C10 UNL     1      20.255  33.097  16.427  1.00  0.00     0.184 C 
HETATM   15  O1  UNL     1      20.167  34.472  16.235  1.00  0.00    -0.388 OA
HETATM   16  C11 UNL     1      20.688  35.174  17.346  1.00  0.00     0.193 C 
HETATM   17  C12 UNL     1      20.155  36.588  17.397  1.00  0.00     0.193 C 
HETATM   18  O2  UNL     1      19.201  36.703  18.417  1.00  0.00    -0.387 OA
HETATM   19  C13 UNL     1      18.756  37.991  18.581  1.00  0.00     0.193 C 
HETATM   20  C14 UNL     1      17.334  38.221  18.145  1.00  0.00     0.193 C 
HETATM   21  O3  UNL     1      16.386  37.776  19.029  1.00  0.00    -0.387 OA
HETATM   22  C15 UNL     1      16.113  36.432  18.997  1.00  0.00     0.193 C 
HETATM   23  C16 UNL     1      14.774  36.085  18.408  1.00  0.00     0.193 C 
HETATM   24  O4  UNL     1      14.806  35.947  17.022  1.00  0.00    -0.389 OA
HETATM   25  C17 UNL     1      15.417  34.781  16.611  1.00  0.00     0.169 C 
HETATM   26  C18 UNL     1      16.546  35.152  15.687  1.00  0.00     0.054 C 
HETATM   27  C19 UNL     1      16.910  34.033  14.749  1.00  0.00     0.196 C 
HETATM   28  O5  UNL     1      17.021  32.801  15.343  1.00  0.00    -0.303 OA
ENDBRANCH  11  12
ENDBRANCH   1  11
BRANCH   1  29
HETATM   29  O6  UNL     1      19.118  31.554  13.109  1.00  0.00    -0.381 OA
BRANCH  29  30
HETATM   30  C20 UNL     1      20.404  31.409  12.556  1.00  0.00     0.195 C 
BRANCH  30  31
HETATM   31  C21 UNL     1      21.490  31.593  13.509  1.00  0.00    -0.005 C 
HETATM   32  C22 UNL     1      21.941  30.565  14.422  1.00  0.00    -0.028 C 
BRANCH  32  33
HETATM   33  C23 UNL     1      22.481  29.267  14.038  1.00  0.00     0.036 C 
BRANCH  33  34
HETATM   34  C24 UNL     1      21.533  28.240  13.507  1.00  0.00     0.106 C 
BRANCH  34  35
HETATM   35  C25 UNL     1      21.942  27.869  12.096  1.00  0.00     0.218 C 
HETATM   36  O7  UNL     1      21.530  28.602  11.177  1.00  0.00    -0.274 OA
HETATM   37  N3  UNL     1      22.748  26.745  11.855  1.00  0.00    -0.356 N 
ATOM     38  H3  UNL     1      23.060  26.174  12.642  1.00  0.00     0.162 HD
BRANCH  37  39
HETATM   39  C26 UNL     1      23.141  26.385  10.527  1.00  0.00     0.084 C 
HETATM   40  C27 UNL     1      24.663  26.260  10.423  1.00  0.00     0.025 C 
HETATM   41  C28 UNL     1      24.778  25.484   9.103  1.00  0.00     0.002 C 
HETATM   42  C29 UNL     1      23.694  24.417   9.225  1.00  0.00     0.002 C 
HETATM   43  C30 UNL     1      22.684  24.993  10.172  1.00  0.00     0.025 C 
ENDBRANCH  37  39
ENDBRANCH  34  35
ENDBRANCH  33  34
ENDBRANCH  32  33
ENDBRANCH  30  31
ENDBRANCH  29  30
ENDBRANCH   1  29
TORSDOF 15
ENDMDL
MODEL 4
REMARK VINA RESULT: -8.060651057      1.448      3.647
REMARK  15 active torsions:
REMARK  status: ('A' for Active; 'I' for Inactive)
REMARK    1  A    between atoms: C2_2  and  N1_3 
REMARK    2  A    between atoms: N1_3  and  C3_6 
REMARK    3  A    between atoms: C3_6  and  C4_7 
REMARK    4  A    between atoms: C4_7  and  C5_8 
REMARK    5  A    between atoms: C5_8  and  C6_9 
REMARK    6  A    between atoms: C6_9  and  C7_10 
REMARK    7  A    between atoms: C7_10  and  C8_11 
REMARK    8  A    between atoms: C7_10  and  O6_29 
REMARK    9  A    between atoms: C8_11  and  N2_12 
REMARK   10  A    between atoms: O6_29  and  C20_30 
REMARK   11  A    between atoms: C20_30  and  C21_31 
REMARK   12  A    between atoms: C22_32  and  C23_33 
REMARK   13  A    between atoms: C23_33  and  C24_34 
REMARK   14  A    between atoms: C24_34  and  C25_35 
REMARK       I    between atoms: C25_35  and  N3_37 
REMARK   15  A    between atoms: N3_37  and  C26_39 
ROOT
HETATM    1  C7  UNL     1      20.338  32.430  15.711  1.00  0.00     0.137 C 
ENDROOT
BRANCH   1   2
HETATM    2  C6  UNL     1      18.985  33.024  15.594  1.00  0.00     0.033 C 
BRANCH   2   3
HETATM    3  C5  UNL     1      18.001  32.910  16.678  1.00  0.00     0.004 C 
BRANCH   3   4
HETATM    4  C4  UNL     1      16.665  32.360  16.302  1.00  0.00     0.027 C 
BRANCH   4   5
HETATM    5  C3  UNL     1      15.567  33.411  16.461  1.00  0.00     0.232 C 
BRANCH   5   6
HETATM    6  N1  UNL     1      15.168  33.623  17.814  1.00  0.00    -0.075 N 
ATOM      7  H12 UNL     1      15.601  32.934  18.429  1.00  0.00     0.277 HD
ATOM      8  H11 UNL     1      14.187  33.375  17.943  1.00  0.00     0.277 HD
BRANCH   6   9
HETATM    9  C2  UNL     1      15.423  34.968  18.295  1.00  0.00     0.228 C 
HETATM   10  C1  UNL     1      14.370  35.937  17.840  1.00  0.00     0.034 C 
ENDBRANCH   6   9
ENDBRANCH   5   6
ENDBRANCH   4   5
ENDBRANCH   3   4
ENDBRANCH   2   3
ENDBRANCH   1   2
BRANCH   1  11
HETATM   11  C8  UNL     1      20.061  30.876  15.666  1.00  0.00     0.152 C 
BRANCH  11  12
HETATM   12  N2  UNL     1      19.879  30.466  14.286  1.00  0.00    -0.193 NA
HETATM   13  C9  UNL     1      18.700  29.623  14.272  1.00  0.00     0.147 C 
HETATM   14  C10 UNL     1      17.561  30.224  13.474  1.00  0.00     0.184 C 
HETATM   15  O1  UNL     1      17.728  30.041  12.105  1.00  0.00    -0.388 OA
HETATM   16  C11 UNL     1      16.725  29.195  11.580  1.00  0.00     0.193 C 
HETATM   17  C12 UNL     1      17.159  28.582  10.268  1.00  0.00     0.193 C 
HETATM   18  O2  UNL     1      17.486  27.231  10.454  1.00  0.00    -0.387 OA
HETATM   19  C13 UNL     1      17.788  26.595   9.277  1.00  0.00     0.193 C 
HETATM   20  C14 UNL     1      19.240  26.228   9.120  1.00  0.00     0.193 C 
HETATM   21  O3  UNL     1      19.630  25.120   9.826  1.00  0.00    -0.387 OA
HETATM   22  C15 UNL     1      19.886  25.313  11.160  1.00  0.00     0.193 C 
HETATM   23  C16 UNL     1      21.343  25.244  11.527  1.00  0.00     0.193 C 
HETATM   24  O4  UNL     1      21.999  26.466  11.390  1.00  0.00    -0.389 OA
HETATM   25  C17 UNL     1      21.674  27.365  12.383  1.00  0.00     0.169 C 
HETATM   26  C18 UNL     1      21.146  28.612  11.722  1.00  0.00     0.054 C 
HETATM   27  C19 UNL     1      21.295  29.829  12.593  1.00  0.00     0.196 C 
HETATM   28  O5  UNL     1      20.909  29.651  13.898  1.00  0.00    -0.303 OA
ENDBRANCH  11  12
ENDBRANCH   1  11
BRANCH   1  29
HETATM   29  O6  UNL     1      20.925  32.612  16.906  1.00  0.00    -0.381 OA
BRANCH  29  30
HETATM   30  C20 UNL     1      22.313  32.843  16.891  1.00  0.00     0.195 C 
BRANCH  30  31
HETATM   31  C21 UNL     1      22.686  34.232  16.660  1.00  0.00    -0.005 C 
HETATM   32  C22 UNL     1      21.920  35.361  17.142  1.00  0.00    -0.028 C 
BRANCH  32  33
HETATM   33  C23 UNL     1      21.634  35.657  18.540  1.00  0.00     0.036 C 
BRANCH  33  34
HETATM   34  C24 UNL     1      20.211  35.607  18.994  1.00  0.00     0.106 C 
BRANCH  34  35
HETATM   35  C25 UNL     1      19.612  36.996  18.902  1.00  0.00     0.218 C 
HETATM   36  O7  UNL     1      20.364  37.954  19.164  1.00  0.00    -0.274 OA
HETATM   37  N3  UNL     1      18.268  37.175  18.537  1.00  0.00    -0.356 N 
ATOM     38  H3  UNL     1      17.691  36.359  18.333  1.00  0.00     0.162 HD
BRANCH  37  39
HETATM   39  C26 UNL     1      17.693  38.482  18.447  1.00  0.00     0.084 C 
HETATM   40  C27 UNL     1      17.209  38.769  17.023  1.00  0.00     0.025 C 
HETATM   41  C28 UNL     1      16.296  39.974  17.287  1.00  0.00     0.002 C 
HETATM   42  C29 UNL     1      15.526  39.566  18.541  1.00  0.00     0.002 C 
HETATM   43  C30 UNL     1      16.414  38.582  19.240  1.00  0.00     0.025 C 
ENDBRANCH  37  39
ENDBRANCH  34  35
ENDBRANCH  33  34
ENDBRANCH  32  33
ENDBRANCH  30  31
ENDBRANCH  29  30
ENDBRANCH   1  29
TORSDOF 15
ENDMDL
MODEL 5
REMARK VINA RESULT: -8.014487631      2.820     11.537
REMARK  15 active torsions:
REMARK  status: ('A' for Active; 'I' for Inactive)
REMARK    1  A    between atoms: C2_2  and  N1_3 
REMARK    2  A    between atoms: N1_3  and  C3_6 
REMARK    3  A    between atoms: C3_6  and  C4_7 
REMARK    4  A    between atoms: C4_7  and  C5_8 
REMARK    5  A    between atoms: C5_8  and  C6_9 
REMARK    6  A    between atoms: C6_9  and  C7_10 
REMARK    7  A    between atoms: C7_10  and  C8_11 
REMARK    8  A    between atoms: C7_10  and  O6_29 
REMARK    9  A    between atoms: C8_11  and  N2_12 
REMARK   10  A    between atoms: O6_29  and  C20_30 
REMARK   11  A    between atoms: C20_30  and  C21_31 
REMARK   12  A    between atoms: C22_32  and  C23_33 
REMARK   13  A    between atoms: C23_33  and  C24_34 
REMARK   14  A    between atoms: C24_34  and  C25_35 
REMARK       I    between atoms: C25_35  and  N3_37 
REMARK   15  A    between atoms: N3_37  and  C26_39 
ROOT
HETATM    1  C7  UNL     1      19.550  29.124  13.380  1.00  0.00     0.137 C 
ENDROOT
BRANCH   1   2
HETATM    2  C6  UNL     1      18.719  29.719  12.306  1.00  0.00     0.033 C 
BRANCH   2   3
HETATM    3  C5  UNL     1      17.298  29.377  12.158  1.00  0.00     0.004 C 
BRANCH   3   4
HETATM    4  C4  UNL     1      16.871  28.895  10.811  1.00  0.00     0.027 C 
BRANCH   4   5
HETATM    5  C3  UNL     1      17.895  27.929  10.216  1.00  0.00     0.232 C 
BRANCH   5   6
HETATM    6  N1  UNL     1      17.317  26.737   9.685  1.00  0.00    -0.075 N 
ATOM      7  H12 UNL     1      17.330  26.755   8.666  1.00  0.00     0.277 HD
ATOM      8  H11 UNL     1      16.309  26.725   9.843  1.00  0.00     0.277 HD
BRANCH   6   9
HETATM    9  C2  UNL     1      17.928  25.519  10.184  1.00  0.00     0.228 C 
HETATM   10  C1  UNL     1      18.043  25.519  11.680  1.00  0.00     0.034 C 
ENDBRANCH   6   9
ENDBRANCH   5   6
ENDBRANCH   4   5
ENDBRANCH   3   4
ENDBRANCH   2   3
ENDBRANCH   1   2
BRANCH   1  11
HETATM   11  C8  UNL     1      18.792  29.539  14.702  1.00  0.00     0.152 C 
BRANCH  11  12
HETATM   12  N2  UNL     1      18.918  30.972  14.891  1.00  0.00    -0.193 NA
HETATM   13  C9  UNL     1      19.458  31.153  16.224  1.00  0.00     0.147 C 
HETATM   14  C10 UNL     1      20.840  31.773  16.218  1.00  0.00     0.184 C 
HETATM   15  O1  UNL     1      20.793  33.151  16.032  1.00  0.00    -0.388 OA
HETATM   16  C11 UNL     1      21.255  33.834  17.180  1.00  0.00     0.193 C 
HETATM   17  C12 UNL     1      20.750  35.258  17.208  1.00  0.00     0.193 C 
HETATM   18  O2  UNL     1      19.733  35.387  18.165  1.00  0.00    -0.387 OA
HETATM   19  C13 UNL     1      19.306  36.683  18.309  1.00  0.00     0.193 C 
HETATM   20  C14 UNL     1      17.921  36.947  17.783  1.00  0.00     0.193 C 
HETATM   21  O3  UNL     1      16.907  36.516  18.599  1.00  0.00    -0.387 OA
HETATM   22  C15 UNL     1      16.609  35.178  18.538  1.00  0.00     0.193 C 
HETATM   23  C16 UNL     1      15.304  34.865  17.859  1.00  0.00     0.193 C 
HETATM   24  O4  UNL     1      15.425  34.735  16.477  1.00  0.00    -0.389 OA
HETATM   25  C17 UNL     1      16.036  33.559  16.098  1.00  0.00     0.169 C 
HETATM   26  C18 UNL     1      17.232  33.913  15.252  1.00  0.00     0.054 C 
HETATM   27  C19 UNL     1      17.633  32.792  14.331  1.00  0.00     0.196 C 
HETATM   28  O5  UNL     1      17.679  31.554  14.921  1.00  0.00    -0.303 OA
ENDBRANCH  11  12
ENDBRANCH   1  11
BRANCH   1  29
HETATM   29  O6  UNL     1      20.763  29.685  13.522  1.00  0.00    -0.381 OA
BRANCH  29  30
HETATM   30  C20 UNL     1      21.844  28.800  13.696  1.00  0.00     0.195 C 
BRANCH  30  31
HETATM   31  C21 UNL     1      21.943  27.768  12.673  1.00  0.00    -0.005 C 
HETATM   32  C22 UNL     1      23.067  27.635  11.772  1.00  0.00    -0.028 C 
BRANCH  32  33
HETATM   33  C23 UNL     1      24.448  27.393  12.170  1.00  0.00     0.036 C 
BRANCH  33  34
HETATM   34  C24 UNL     1      25.407  26.913  11.128  1.00  0.00     0.106 C 
BRANCH  34  35
HETATM   35  C25 UNL     1      24.788  25.747  10.384  1.00  0.00     0.218 C 
HETATM   36  O7  UNL     1      24.681  24.673  11.006  1.00  0.00    -0.274 OA
HETATM   37  N3  UNL     1      24.362  25.890   9.054  1.00  0.00    -0.356 N 
ATOM     38  H3  UNL     1      24.472  26.790   8.587  1.00  0.00     0.162 HD
BRANCH  37  39
HETATM   39  C26 UNL     1      23.776  24.796   8.342  1.00  0.00     0.084 C 
HETATM   40  C27 UNL     1      22.260  24.759   8.550  1.00  0.00     0.025 C 
HETATM   41  C28 UNL     1      21.855  23.826   7.400  1.00  0.00     0.002 C 
HETATM   42  C29 UNL     1      22.690  24.329   6.225  1.00  0.00     0.002 C 
HETATM   43  C30 UNL     1      23.886  24.983   6.850  1.00  0.00     0.025 C 
ENDBRANCH  37  39
ENDBRANCH  34  35
ENDBRANCH  33  34
ENDBRANCH  32  33
ENDBRANCH  30  31
ENDBRANCH  29  30
ENDBRANCH   1  29
TORSDOF 15
ENDMDL
