MODEL 1
REMARK VINA RESULT: -8.451502645      0.000      0.000
REMARK  16 active torsions:
REMARK  status: ('A' for Active; 'I' for Inactive)
REMARK    1  A    between atoms: N1_2  and  C2_3 
REMARK    2  A    between atoms: N1_2  and  C24_36 
REMARK    3  A    between atoms: C5_7  and  N2_8 
REMARK    4  A    between atoms: N2_8  and  C6_11 
REMARK    5  A    between atoms: C6_11  and  C7_12 
REMARK    6  A    between atoms: C7_12  and  C8_13 
REMARK    7  A    between atoms: C8_13  and  C9_14 
REMARK    8  A    between atoms: C9_14  and  C10_15 
REMARK    9  A    between atoms: C10_15  and  C11_16 
REMARK   10  A    between atoms: C11_16  and  C12_17 
REMARK   11  A    between atoms: C12_17  and  C13_18 
REMARK   12  A    between atoms: C13_18  and  C14_19 
REMARK   13  A    between atoms: C14_19  and  C15_20 
REMARK   14  A    between atoms: C15_20  and  C16_21 
REMARK   15  A    between atoms: C16_21  and  C17_22 
REMARK   16  A    between atoms: C17_22  and  S1_23 
ROOT
HETATM    1  C2  UNL     1      21.651  27.087  12.534  1.00  0.00     0.119 C 
HETATM    2  C3  UNL     1      20.587  27.772  12.927  1.00  0.00     0.074 C 
HETATM    3  O1  UNL     1      20.601  28.462  14.150  1.00  0.00    -0.345 OA
HETATM    4  C4  UNL     1      19.733  29.570  14.362  1.00  0.00     0.178 C 
HETATM    5  C5  UNL     1      20.173  30.823  13.694  1.00  0.00     0.314 C 
HETATM    6  C18 UNL     1      19.850  30.948  12.270  1.00  0.00     0.295 C 
HETATM    7  O5  UNL     1      20.509  31.770  11.570  1.00  0.00    -0.263 OA
HETATM    8  O6  UNL     1      18.827  30.178  11.665  1.00  0.00    -0.280 OA
HETATM    9  C19 UNL     1      18.514  29.024  12.334  1.00  0.00     0.191 C 
HETATM   10  O7  UNL     1      17.469  28.219  11.988  1.00  0.00    -0.347 OA
HETATM   11  C20 UNL     1      18.183  27.194  12.679  1.00  0.00     0.141 C 
HETATM   12  C21 UNL     1      18.154  27.646  14.113  1.00  0.00     0.045 C 
HETATM   13  C22 UNL     1      18.388  29.155  13.842  1.00  0.00     0.084 C 
HETATM   14  C23 UNL     1      19.398  27.818  12.101  1.00  0.00     0.136 C 
ENDROOT
BRANCH   5  15
HETATM   15  N2  UNL     1      21.595  31.064  13.879  1.00  0.00    -0.059 N 
ATOM     16  H22 UNL     1      22.135  30.200  13.818  1.00  0.00     0.278 HD
ATOM     17  H21 UNL     1      22.002  31.555  13.083  1.00  0.00     0.278 HD
BRANCH  15  18
HETATM   18  C6  UNL     1      21.842  31.765  15.128  1.00  0.00     0.233 C 
BRANCH  18  19
HETATM   19  C7  UNL     1      22.265  33.193  14.887  1.00  0.00     0.027 C 
BRANCH  19  20
HETATM   20  C8  UNL     1      22.609  33.878  16.201  1.00  0.00     0.002 C 
BRANCH  20  21
HETATM   21  C9  UNL     1      21.414  33.736  17.110  1.00  0.00     0.000 C 
BRANCH  21  22
HETATM   22  C10 UNL     1      20.307  34.718  16.699  1.00  0.00     0.000 C 
BRANCH  22  23
HETATM   23  C11 UNL     1      19.066  34.001  16.300  1.00  0.00     0.000 C 
BRANCH  23  24
HETATM   24  C12 UNL     1      18.901  32.657  16.868  1.00  0.00     0.000 C 
BRANCH  24  25
HETATM   25  C13 UNL     1      17.814  31.766  16.472  1.00  0.00     0.000 C 
BRANCH  25  26
HETATM   26  C14 UNL     1      16.857  32.129  15.418  1.00  0.00     0.000 C 
BRANCH  26  27
HETATM   27  C15 UNL     1      15.484  32.510  15.792  1.00  0.00     0.001 C 
BRANCH  27  28
HETATM   28  C16 UNL     1      15.381  33.964  16.245  1.00  0.00     0.018 C 
BRANCH  28  29
HETATM   29  C17 UNL     1      15.226  34.034  17.745  1.00  0.00     0.165 C 
BRANCH  29  30
HETATM   30  S1  UNL     1      16.019  35.523  18.303  1.00  0.00     0.101 S 
HETATM   31  O2  UNL     1      17.297  35.117  18.990  1.00  0.00    -0.595 OA
HETATM   32  O3  UNL     1      15.141  36.284  19.221  1.00  0.00    -0.595 OA
HETATM   33  O4  UNL     1      16.438  36.472  16.984  1.00  0.00    -0.595 OA
ENDBRANCH  29  30
ENDBRANCH  28  29
ENDBRANCH  27  28
ENDBRANCH  26  27
ENDBRANCH  25  26
ENDBRANCH  24  25
ENDBRANCH  23  24
ENDBRANCH  22  23
ENDBRANCH  21  22
ENDBRANCH  20  21
ENDBRANCH  19  20
ENDBRANCH  18  19
ENDBRANCH  15  18
ENDBRANCH   5  15
BRANCH   1  34
HETATM   34  N1  UNL     1      21.766  26.357  11.336  1.00  0.00    -0.380 N 
HETATM   35  C1  UNL     1      20.751  25.379  11.019  1.00  0.00     0.150 C 
BRANCH  34  36
HETATM   36  C24 UNL     1      22.858  26.583  10.454  1.00  0.00     0.153 C 
HETATM   37  C25 UNL     1      22.714  25.833   9.140  1.00  0.00     0.033 C 
HETATM   38  C26 UNL     1      24.126  25.810   8.582  1.00  0.00     0.010 C 
HETATM   39  C27 UNL     1      25.057  26.077   9.744  1.00  0.00     0.080 C 
HETATM   40  C28 UNL     1      24.163  26.081  10.919  1.00  0.00     0.149 C 
HETATM   41  O8  UNL     1      24.459  25.737  12.029  1.00  0.00    -0.296 OA
ENDBRANCH  34  36
ENDBRANCH   1  34
TORSDOF 16
ENDMDL
MODEL 2
REMARK VINA RESULT: -8.348417131      3.217      9.787
REMARK  16 active torsions:
REMARK  status: ('A' for Active; 'I' for Inactive)
REMARK    1  A    between atoms: N1_2  and  C2_3 
REMARK    2  A    between atoms: N1_2  and  C24_36 
REMARK    3  A    between atoms: C5_7  and  N2_8 
REMARK    4  A    between atoms: N2_8  and  C6_11 
REMARK    5  A    between atoms: C6_11  and  C7_12 
REMARK    6  A    between atoms: C7_12  and  C8_13 
REMARK    7  A    between atoms: C8_13  and  C9_14 
REMARK    8  A    between atoms: C9_14  and  C10_15 
REMARK    9  A    between atoms: C10_15  and  C11_16 
REMARK   10  A    between atoms: C11_16  and  C12_17 
REMARK   11  A    between atoms: C12_17  and  C13_18 
REMARK   12  A    between atoms: C13_18  and  C14_19 
REMARK   13  A    between atoms: C14_19  and  C15_20 
REMARK   14  A    between atoms: C15_20  and  C16_21 
REMARK   15  A    between atoms: C16_21  and  C17_22 
REMARK   16  A    between atoms: C17_22  and  S1_23 
ROOT
HETATM    1  C2  UNL     1      18.282  32.743  16.763  1.00  0.00     0.119 C 
HETATM    2  C3  UNL     1      19.590  32.928  16.648  1.00  0.00     0.074 C 
HETATM    3  O1  UNL     1      20.484  31.911  17.019  1.00  0.00    -0.345 OA
HETATM    4  C4  UNL     1      21.793  31.864  16.461  1.00  0.00     0.178 C 
HETATM    5  C5  UNL     1      21.840  31.345  15.068  1.00  0.00     0.314 C 
HETATM    6  C18 UNL     1      21.512  32.300  14.007  1.00  0.00     0.295 C 
HETATM    7  O5  UNL     1      21.159  31.853  12.878  1.00  0.00    -0.263 OA
HETATM    8  O6  UNL     1      21.580  33.700  14.214  1.00  0.00    -0.280 OA
HETATM    9  C19 UNL     1      21.492  34.085  15.526  1.00  0.00     0.191 C 
HETATM   10  O7  UNL     1      21.672  35.371  15.942  1.00  0.00    -0.347 OA
HETATM   11  C20 UNL     1      20.917  34.981  17.089  1.00  0.00     0.141 C 
HETATM   12  C21 UNL     1      21.811  33.988  17.780  1.00  0.00     0.045 C 
HETATM   13  C22 UNL     1      22.319  33.268  16.505  1.00  0.00     0.084 C 
HETATM   14  C23 UNL     1      20.111  34.179  16.137  1.00  0.00     0.136 C 
ENDROOT
BRANCH   5  15
HETATM   15  N2  UNL     1      21.019  30.156  14.906  1.00  0.00    -0.059 N 
ATOM     16  H22 UNL     1      20.558  29.895  15.778  1.00  0.00     0.278 HD
ATOM     17  H21 UNL     1      20.189  30.345  14.344  1.00  0.00     0.278 HD
BRANCH  15  18
HETATM   18  C6  UNL     1      21.799  29.058  14.360  1.00  0.00     0.233 C 
BRANCH  18  19
HETATM   19  C7  UNL     1      21.076  28.372  13.228  1.00  0.00     0.027 C 
BRANCH  19  20
HETATM   20  C8  UNL     1      19.580  28.638  13.310  1.00  0.00     0.002 C 
BRANCH  20  21
HETATM   21  C9  UNL     1      19.150  29.203  11.979  1.00  0.00     0.000 C 
BRANCH  21  22
HETATM   22  C10 UNL     1      17.649  29.530  11.995  1.00  0.00     0.000 C 
BRANCH  22  23
HETATM   23  C11 UNL     1      16.875  28.570  11.164  1.00  0.00     0.000 C 
BRANCH  23  24
HETATM   24  C12 UNL     1      17.498  28.188   9.892  1.00  0.00     0.000 C 
BRANCH  24  25
HETATM   25  C13 UNL     1      17.905  26.817   9.598  1.00  0.00     0.000 C 
BRANCH  25  26
HETATM   26  C14 UNL     1      17.803  25.745  10.597  1.00  0.00     0.000 C 
BRANCH  26  27
HETATM   27  C15 UNL     1      18.982  25.410  11.416  1.00  0.00     0.001 C 
BRANCH  27  28
HETATM   28  C16 UNL     1      20.297  25.705  10.701  1.00  0.00     0.018 C 
BRANCH  28  29
HETATM   29  C17 UNL     1      21.435  24.984  11.382  1.00  0.00     0.165 C 
BRANCH  29  30
HETATM   30  S1  UNL     1      22.949  25.523  10.624  1.00  0.00     0.101 S 
HETATM   31  O2  UNL     1      22.818  27.002  10.369  1.00  0.00    -0.595 OA
HETATM   32  O3  UNL     1      23.206  24.787   9.364  1.00  0.00    -0.595 OA
HETATM   33  O4  UNL     1      24.227  25.309  11.690  1.00  0.00    -0.595 OA
ENDBRANCH  29  30
ENDBRANCH  28  29
ENDBRANCH  27  28
ENDBRANCH  26  27
ENDBRANCH  25  26
ENDBRANCH  24  25
ENDBRANCH  23  24
ENDBRANCH  22  23
ENDBRANCH  21  22
ENDBRANCH  20  21
ENDBRANCH  19  20
ENDBRANCH  18  19
ENDBRANCH  15  18
ENDBRANCH   5  15
BRANCH   1  34
HETATM   34  N1  UNL     1      17.285  33.676  16.426  1.00  0.00    -0.380 N 
HETATM   35  C1  UNL     1      17.098  34.021  15.036  1.00  0.00     0.150 C 
BRANCH  34  36
HETATM   36  C24 UNL     1      16.476  34.266  17.436  1.00  0.00     0.153 C 
HETATM   37  C25 UNL     1      15.017  34.379  17.026  1.00  0.00     0.033 C 
HETATM   38  C26 UNL     1      14.455  35.421  17.977  1.00  0.00     0.010 C 
HETATM   39  C27 UNL     1      15.636  36.191  18.525  1.00  0.00     0.080 C 
HETATM   40  C28 UNL     1      16.784  35.672  17.755  1.00  0.00     0.149 C 
HETATM   41  O8  UNL     1      17.768  36.289  17.456  1.00  0.00    -0.296 OA
ENDBRANCH  34  36
ENDBRANCH   1  34
TORSDOF 16
ENDMDL
MODEL 3
REMARK VINA RESULT: -8.315265203      1.532      2.118
REMARK  16 active torsions:
REMARK  status: ('A' for Active; 'I' for Inactive)
REMARK    1  A    between atoms: N1_2  and  C2_3 
REMARK    2  A    between atoms: N1_2  and  C24_36 
REMARK    3  A    between atoms: C5_7  and  N2_8 
REMARK    4  A    between atoms: N2_8  and  C6_11 
REMARK    5  A    between atoms: C6_11  and  C7_12 
REMARK    6  A    between atoms: C7_12  and  C8_13 
REMARK    7  A    between atoms: C8_13  and  C9_14 
REMARK    8  A    between atoms: C9_14  and  C10_15 
REMARK    9  A    between atoms: C10_15  and  C11_16 
REMARK   10  A    between atoms: C11_16  and  C12_17 
REMARK   11  A    between atoms: C12_17  and  C13_18 
REMARK   12  A    between atoms: C13_18  and  C14_19 
REMARK   13  A    between atoms: C14_19  and  C15_20 
REMARK   14  A    between atoms: C15_20  and  C16_21 
REMARK   15  A    between atoms: C16_21  and  C17_22 
REMARK   16  A    between atoms: C17_22  and  S1_23 
ROOT
HETATM    1  C2  UNL     1      21.237  27.559  13.282  1.00  0.00     0.119 C 
HETATM    2  C3  UNL     1      20.232  28.418  13.382  1.00  0.00     0.074 C 
HETATM    3  O1  UNL     1      19.810  28.870  14.642  1.00  0.00    -0.345 OA
HETATM    4  C4  UNL     1      19.126  30.112  14.769  1.00  0.00     0.178 C 
HETATM    5  C5  UNL     1      20.009  31.305  14.678  1.00  0.00     0.314 C 
HETATM    6  C18 UNL     1      20.376  31.740  13.328  1.00  0.00     0.295 C 
HETATM    7  O5  UNL     1      21.397  32.471  13.184  1.00  0.00    -0.263 OA
HETATM    8  O6  UNL     1      19.620  31.364  12.190  1.00  0.00    -0.280 OA
HETATM    9  C19 UNL     1      18.865  30.233  12.358  1.00  0.00     0.191 C 
HETATM   10  O7  UNL     1      17.969  29.788  11.431  1.00  0.00    -0.347 OA
HETATM   11  C20 UNL     1      18.131  28.517  12.060  1.00  0.00     0.141 C 
HETATM   12  C21 UNL     1      17.540  28.719  13.427  1.00  0.00     0.045 C 
HETATM   13  C22 UNL     1      18.105  30.142  13.670  1.00  0.00     0.084 C 
HETATM   14  C23 UNL     1      19.557  28.899  12.193  1.00  0.00     0.136 C 
ENDROOT
BRANCH   5  15
HETATM   15  N2  UNL     1      21.218  31.144  15.468  1.00  0.00    -0.059 N 
ATOM     16  H22 UNL     1      21.412  30.161  15.665  1.00  0.00     0.278 HD
ATOM     17  H21 UNL     1      22.055  31.359  14.926  1.00  0.00     0.278 HD
BRANCH  15  18
HETATM   18  C6  UNL     1      21.150  31.933  16.687  1.00  0.00     0.233 C 
BRANCH  18  19
HETATM   19  C7  UNL     1      22.256  32.956  16.748  1.00  0.00     0.027 C 
BRANCH  19  20
HETATM   20  C8  UNL     1      21.810  34.266  16.115  1.00  0.00     0.002 C 
BRANCH  20  21
HETATM   21  C9  UNL     1      22.240  35.380  17.037  1.00  0.00     0.000 C 
BRANCH  21  22
HETATM   22  C10 UNL     1      22.164  34.924  18.502  1.00  0.00     0.000 C 
BRANCH  22  23
HETATM   23  C11 UNL     1      21.320  35.842  19.313  1.00  0.00     0.000 C 
BRANCH  23  24
HETATM   24  C12 UNL     1      19.991  36.132  18.762  1.00  0.00     0.000 C 
BRANCH  24  25
HETATM   25  C13 UNL     1      18.847  35.248  18.966  1.00  0.00     0.000 C 
BRANCH  25  26
HETATM   26  C14 UNL     1      18.519  34.172  18.021  1.00  0.00     0.000 C 
BRANCH  26  27
HETATM   27  C15 UNL     1      18.169  34.515  16.632  1.00  0.00     0.001 C 
BRANCH  27  28
HETATM   28  C16 UNL     1      16.664  34.481  16.379  1.00  0.00     0.018 C 
BRANCH  28  29
HETATM   29  C17 UNL     1      16.070  35.855  16.577  1.00  0.00     0.165 C 
BRANCH  29  30
HETATM   30  S1  UNL     1      15.160  35.836  18.104  1.00  0.00     0.101 S 
HETATM   31  O2  UNL     1      13.722  36.136  17.770  1.00  0.00    -0.595 OA
HETATM   32  O3  UNL     1      15.701  36.831  19.059  1.00  0.00    -0.595 OA
HETATM   33  O4  UNL     1      15.210  34.300  18.777  1.00  0.00    -0.595 OA
ENDBRANCH  29  30
ENDBRANCH  28  29
ENDBRANCH  27  28
ENDBRANCH  26  27
ENDBRANCH  25  26
ENDBRANCH  24  25
ENDBRANCH  23  24
ENDBRANCH  22  23
ENDBRANCH  21  22
ENDBRANCH  20  21
ENDBRANCH  19  20
ENDBRANCH  18  19
ENDBRANCH  15  18
ENDBRANCH   5  15
BRANCH   1  34
HETATM   34  N1  UNL     1      21.754  27.032  12.084  1.00  0.00    -0.380 N 
HETATM   35  C1  UNL     1      21.029  25.974  11.420  1.00  0.00     0.150 C 
BRANCH  34  36
HETATM   36  C24 UNL     1      22.968  27.534  11.537  1.00  0.00     0.153 C 
HETATM   37  C25 UNL     1      22.807  28.025  10.108  1.00  0.00     0.033 C 
HETATM   38  C26 UNL     1      24.229  28.052   9.575  1.00  0.00     0.010 C 
HETATM   39  C27 UNL     1      25.049  27.157  10.477  1.00  0.00     0.080 C 
HETATM   40  C28 UNL     1      24.046  26.543  11.371  1.00  0.00     0.149 C 
HETATM   41  O8  UNL     1      24.113  25.449  11.857  1.00  0.00    -0.296 OA
ENDBRANCH  34  36
ENDBRANCH   1  34
TORSDOF 16
ENDMDL
MODEL 4
REMARK VINA RESULT: -8.291016937      2.480      9.012
REMARK  16 active torsions:
REMARK  status: ('A' for Active; 'I' for Inactive)
REMARK    1  A    between atoms: N1_2  and  C2_3 
REMARK    2  A    between atoms: N1_2  and  C24_36 
REMARK    3  A    between atoms: C5_7  and  N2_8 
REMARK    4  A    between atoms: N2_8  and  C6_11 
REMARK    5  A    between atoms: C6_11  and  C7_12 
REMARK    6  A    between atoms: C7_12  and  C8_13 
REMARK    7  A    between atoms: C8_13  and  C9_14 
REMARK    8  A    between atoms: C9_14  and  C10_15 
REMARK    9  A    between atoms: C10_15  and  C11_16 
REMARK   10  A    between atoms: C11_16  and  C12_17 
REMARK   11  A    between atoms: C12_17  and  C13_18 
REMARK   12  A    between atoms: C13_18  and  C14_19 
REMARK   13  A    between atoms: C14_19  and  C15_20 
REMARK   14  A    between atoms: C15_20  and  C16_21 
REMARK   15  A    between atoms: C16_21  and  C17_22 
REMARK   16  A    between atoms: C17_22  and  S1_23 
ROOT
HETATM    1  C2  UNL     1      18.062  32.691  16.563  1.00  0.00     0.119 C 
HETATM    2  C3  UNL     1      19.382  32.723  16.452  1.00  0.00     0.074 C 
HETATM    3  O1  UNL     1      20.143  31.571  16.705  1.00  0.00    -0.345 OA
HETATM    4  C4  UNL     1      21.436  31.420  16.129  1.00  0.00     0.178 C 
HETATM    5  C5  UNL     1      21.420  31.048  14.690  1.00  0.00     0.314 C 
HETATM    6  C18 UNL     1      21.214  32.142  13.737  1.00  0.00     0.295 C 
HETATM    7  O5  UNL     1      20.810  31.863  12.573  1.00  0.00    -0.263 OA
HETATM    8  O6  UNL     1      21.456  33.493  14.089  1.00  0.00    -0.280 OA
HETATM    9  C19 UNL     1      21.415  33.747  15.434  1.00  0.00     0.191 C 
HETATM   10  O7  UNL     1      21.753  34.950  15.979  1.00  0.00    -0.347 OA
HETATM   11  C20 UNL     1      20.954  34.539  17.088  1.00  0.00     0.141 C 
HETATM   12  C21 UNL     1      21.716  33.376  17.662  1.00  0.00     0.045 C 
HETATM   13  C22 UNL     1      22.132  32.736  16.313  1.00  0.00     0.084 C 
HETATM   14  C23 UNL     1      20.056  33.947  16.068  1.00  0.00     0.136 C 
ENDROOT
BRANCH   5  15
HETATM   15  N2  UNL     1      20.457  29.994  14.414  1.00  0.00    -0.059 N 
ATOM     16  H22 UNL     1      19.657  30.039  15.046  1.00  0.00     0.278 HD
ATOM     17  H21 UNL     1      19.966  30.152  13.534  1.00  0.00     0.278 HD
BRANCH  15  18
HETATM   18  C6  UNL     1      21.095  28.688  14.448  1.00  0.00     0.233 C 
BRANCH  18  19
HETATM   19  C7  UNL     1      22.340  28.658  13.597  1.00  0.00     0.027 C 
BRANCH  19  20
HETATM   20  C8  UNL     1      22.041  28.057  12.232  1.00  0.00     0.002 C 
BRANCH  20  21
HETATM   21  C9  UNL     1      23.274  27.308  11.790  1.00  0.00     0.000 C 
BRANCH  21  22
HETATM   22  C10 UNL     1      22.925  25.851  11.450  1.00  0.00     0.000 C 
BRANCH  22  23
HETATM   23  C11 UNL     1      22.596  25.695  10.008  1.00  0.00     0.000 C 
BRANCH  23  24
HETATM   24  C12 UNL     1      21.200  25.349   9.711  1.00  0.00     0.000 C 
BRANCH  24  25
HETATM   25  C13 UNL     1      20.154  25.371  10.730  1.00  0.00     0.000 C 
BRANCH  25  26
HETATM   26  C14 UNL     1      18.764  25.723  10.408  1.00  0.00     0.000 C 
BRANCH  26  27
HETATM   27  C15 UNL     1      17.843  26.088  11.499  1.00  0.00     0.001 C 
BRANCH  27  28
HETATM   28  C16 UNL     1      18.513  26.940  12.573  1.00  0.00     0.018 C 
BRANCH  28  29
HETATM   29  C17 UNL     1      17.508  27.877  13.199  1.00  0.00     0.165 C 
BRANCH  29  30
HETATM   30  S1  UNL     1      17.593  29.422  12.326  1.00  0.00     0.101 S 
HETATM   31  O2  UNL     1      16.379  29.500  11.437  1.00  0.00    -0.595 OA
HETATM   32  O3  UNL     1      18.839  29.518  11.531  1.00  0.00    -0.595 OA
HETATM   33  O4  UNL     1      17.501  30.697  13.414  1.00  0.00    -0.595 OA
ENDBRANCH  29  30
ENDBRANCH  28  29
ENDBRANCH  27  28
ENDBRANCH  26  27
ENDBRANCH  25  26
ENDBRANCH  24  25
ENDBRANCH  23  24
ENDBRANCH  22  23
ENDBRANCH  21  22
ENDBRANCH  20  21
ENDBRANCH  19  20
ENDBRANCH  18  19
ENDBRANCH  15  18
ENDBRANCH   5  15
BRANCH   1  34
HETATM   34  N1  UNL     1      17.189  33.771  16.337  1.00  0.00    -0.380 N 
HETATM   35  C1  UNL     1      16.987  34.229  14.981  1.00  0.00     0.150 C 
BRANCH  34  36
HETATM   36  C24 UNL     1      16.516  34.397  17.422  1.00  0.00     0.153 C 
HETATM   37  C25 UNL     1      15.052  34.673  17.124  1.00  0.00     0.033 C 
HETATM   38  C26 UNL     1      14.667  35.726  18.148  1.00  0.00     0.010 C 
HETATM   39  C27 UNL     1      15.956  36.350  18.634  1.00  0.00     0.080 C 
HETATM   40  C28 UNL     1      16.989  35.750  17.766  1.00  0.00     0.149 C 
HETATM   41  O8  UNL     1      18.008  36.277  17.417  1.00  0.00    -0.296 OA
ENDBRANCH  34  36
ENDBRANCH   1  34
TORSDOF 16
ENDMDL
MODEL 5
REMARK VINA RESULT: -8.255357140      1.606      2.460
REMARK  16 active torsions:
REMARK  status: ('A' for Active; 'I' for Inactive)
REMARK    1  A    between atoms: N1_2  and  C2_3 
REMARK    2  A    between atoms: N1_2  and  C24_36 
REMARK    3  A    between atoms: C5_7  and  N2_8 
REMARK    4  A    between atoms: N2_8  and  C6_11 
REMARK    5  A    between atoms: C6_11  and  C7_12 
REMARK    6  A    between atoms: C7_12  and  C8_13 
REMARK    7  A    between atoms: C8_13  and  C9_14 
REMARK    8  A    between atoms: C9_14  and  C10_15 
REMARK    9  A    between atoms: C10_15  and  C11_16 
REMARK   10  A    between atoms: C11_16  and  C12_17 
REMARK   11  A    between atoms: C12_17  and  C13_18 
REMARK   12  A    between atoms: C13_18  and  C14_19 
REMARK   13  A    between atoms: C14_19  and  C15_20 
REMARK   14  A    between atoms: C15_20  and  C16_21 
REMARK   15  A    between atoms: C16_21  and  C17_22 
REMARK   16  A    between atoms: C17_22  and  S1_23 
ROOT
HETATM    1  C2  UNL     1      21.575  27.675  13.280  1.00  0.00     0.119 C 
HETATM    2  C3  UNL     1      20.368  28.210  13.397  1.00  0.00     0.074 C 
HETATM    3  O1  UNL     1      20.017  28.921  14.555  1.00  0.00    -0.345 OA
HETATM    4  C4  UNL     1      18.983  29.899  14.515  1.00  0.00     0.178 C 
HETATM    5  C5  UNL     1      19.390  31.187  13.894  1.00  0.00     0.314 C 
HETATM    6  C18 UNL     1      19.378  31.235  12.429  1.00  0.00     0.295 C 
HETATM    7  O5  UNL     1      20.060  32.126  11.847  1.00  0.00    -0.263 OA
HETATM    8  O6  UNL     1      18.627  30.314  11.658  1.00  0.00    -0.280 OA
HETATM    9  C19 UNL     1      18.330  29.142  12.302  1.00  0.00     0.191 C 
HETATM   10  O7  UNL     1      17.506  28.189  11.781  1.00  0.00    -0.347 OA
HETATM   11  C20 UNL     1      18.179  27.292  12.663  1.00  0.00     0.141 C 
HETATM   12  C21 UNL     1      17.771  27.766  14.031  1.00  0.00     0.045 C 
HETATM   13  C22 UNL     1      17.856  29.286  13.738  1.00  0.00     0.084 C 
HETATM   14  C23 UNL     1      19.397  28.069  12.330  1.00  0.00     0.136 C 
ENDROOT
BRANCH   5  15
HETATM   15  N2  UNL     1      20.689  31.631  14.371  1.00  0.00    -0.059 N 
ATOM     16  H22 UNL     1      21.137  30.926  14.957  1.00  0.00     0.278 HD
ATOM     17  H21 UNL     1      21.377  31.664  13.618  1.00  0.00     0.278 HD
BRANCH  15  18
HETATM   18  C6  UNL     1      20.580  32.909  15.055  1.00  0.00     0.233 C 
BRANCH  18  19
HETATM   19  C7  UNL     1      20.180  32.732  16.499  1.00  0.00     0.027 C 
BRANCH  19  20
HETATM   20  C8  UNL     1      18.726  33.127  16.704  1.00  0.00     0.002 C 
BRANCH  20  21
HETATM   21  C9  UNL     1      18.338  34.029  15.558  1.00  0.00     0.000 C 
BRANCH  21  22
HETATM   22  C10 UNL     1      16.901  33.732  15.103  1.00  0.00     0.000 C 
BRANCH  22  23
HETATM   23  C11 UNL     1      16.323  32.581  15.848  1.00  0.00     0.000 C 
BRANCH  23  24
HETATM   24  C12 UNL     1      15.185  32.899  16.718  1.00  0.00     0.000 C 
BRANCH  24  25
HETATM   25  C13 UNL     1      15.292  33.825  17.842  1.00  0.00     0.000 C 
BRANCH  25  26
HETATM   26  C14 UNL     1      14.668  35.154  17.816  1.00  0.00     0.000 C 
BRANCH  26  27
HETATM   27  C15 UNL     1      15.514  36.351  17.967  1.00  0.00     0.001 C 
BRANCH  27  28
HETATM   28  C16 UNL     1      16.927  36.016  18.433  1.00  0.00     0.018 C 
BRANCH  28  29
HETATM   29  C17 UNL     1      17.920  36.976  17.822  1.00  0.00     0.165 C 
BRANCH  29  30
HETATM   30  S1  UNL     1      19.524  36.587  18.480  1.00  0.00     0.101 S 
HETATM   31  O2  UNL     1      19.374  35.344  19.318  1.00  0.00    -0.595 OA
HETATM   32  O3  UNL     1      20.056  37.710  19.287  1.00  0.00    -0.595 OA
HETATM   33  O4  UNL     1      20.580  36.224  17.228  1.00  0.00    -0.595 OA
ENDBRANCH  29  30
ENDBRANCH  28  29
ENDBRANCH  27  28
ENDBRANCH  26  27
ENDBRANCH  25  26
ENDBRANCH  24  25
ENDBRANCH  23  24
ENDBRANCH  22  23
ENDBRANCH  21  22
ENDBRANCH  20  21
ENDBRANCH  19  20
ENDBRANCH  18  19
ENDBRANCH  15  18
ENDBRANCH   5  15
BRANCH   1  34
HETATM   34  N1  UNL     1      22.049  26.944  12.176  1.00  0.00    -0.380 N 
HETATM   35  C1  UNL     1      21.382  25.713  11.820  1.00  0.00     0.150 C 
BRANCH  34  36
HETATM   36  C24 UNL     1      23.162  27.410  11.423  1.00  0.00     0.153 C 
HETATM   37  C25 UNL     1      22.893  27.426   9.928  1.00  0.00     0.033 C 
HETATM   38  C26 UNL     1      24.281  27.475   9.313  1.00  0.00     0.010 C 
HETATM   39  C27 UNL     1      25.245  27.003  10.379  1.00  0.00     0.080 C 
HETATM   40  C28 UNL     1      24.366  26.562  11.480  1.00  0.00     0.149 C 
HETATM   41  O8  UNL     1      24.602  25.682  12.260  1.00  0.00    -0.296 OA
ENDBRANCH  34  36
ENDBRANCH   1  34
TORSDOF 16
ENDMDL
