MODEL 1
REMARK VINA RESULT: -7.454018302      0.000      0.000
REMARK  18 active torsions:
REMARK  status: ('A' for Active; 'I' for Inactive)
REMARK    1  A    between atoms: C2_2  and  C3_3 
REMARK    2  A    between atoms: C3_3  and  N1_4 
REMARK    3  A    between atoms: C14_15  and  O1_16 
REMARK    4  A    between atoms: C18_21  and  C19_22 
REMARK    5  A    between atoms: C19_22  and  O3_23 
REMARK    6  A    between atoms: O3_23  and  C20_24 
REMARK    7  A    between atoms: C20_24  and  C21_26 
REMARK    8  A    between atoms: C21_26  and  C22_27 
REMARK    9  A    between atoms: C22_27  and  C23_28 
REMARK   10  A    between atoms: C23_28  and  C24_29 
REMARK   11  A    between atoms: C24_29  and  C25_30 
REMARK   12  A    between atoms: C25_30  and  C26_31 
REMARK   13  A    between atoms: C26_31  and  C27_32 
REMARK   14  A    between atoms: C27_32  and  C28_33 
REMARK   15  A    between atoms: C28_33  and  N2_34 
REMARK   16  A    between atoms: C29_38  and  O5_39 
REMARK   17  A    between atoms: C30_41  and  O6_42 
REMARK   18  A    between atoms: O6_42  and  C31_43 
ROOT
HETATM    1  N1  UNL     1      18.924  27.336  11.528  1.00  0.00    -0.343 N 
HETATM    2  C4  UNL     1      20.188  27.722  11.098  1.00  0.00     0.067 C 
HETATM    3  C5  UNL     1      20.541  29.159  11.187  1.00  0.00     0.058 C 
HETATM    4  C6  UNL     1      20.343  29.784  12.559  1.00  0.00     0.009 C 
HETATM    5  C7  UNL     1      21.592  30.345  13.051  1.00  0.00     0.030 C 
HETATM    6  C8  UNL     1      22.443  29.174  13.582  1.00  0.00     0.009 C 
HETATM    7  C9  UNL     1      21.796  28.813  14.920  1.00  0.00     0.013 C 
HETATM    8  C10 UNL     1      20.294  29.200  14.887  1.00  0.00    -0.005 C 
HETATM    9  C11 UNL     1      19.690  28.464  16.040  1.00  0.00     0.019 C 
HETATM   10  C12 UNL     1      19.837  28.741  13.558  1.00  0.00     0.020 C 
HETATM   11  C13 UNL     1      18.478  29.189  13.083  1.00  0.00     0.079 C 
HETATM   12  C14 UNL     1      18.000  28.321  11.952  1.00  0.00     0.233 C 
HETATM   13  C16 UNL     1      19.079  30.409  12.640  1.00  0.00     0.105 A 
HETATM   14  O2  UNL     1      19.014  31.636  12.305  1.00  0.00    -0.367 OA
HETATM   15  C17 UNL     1      18.512  31.414  13.488  1.00  0.00     0.167 A 
HETATM   16  C18 UNL     1      18.972  31.325  14.854  1.00  0.00     0.080 C 
HETATM   17  C29 UNL     1      20.337  30.714  15.074  1.00  0.00     0.100 C 
HETATM   18  C30 UNL     1      21.441  31.258  14.261  1.00  0.00     0.162 C 
ENDROOT
BRANCH  16  19
HETATM   19  C19 UNL     1      18.620  32.381  15.845  1.00  0.00     0.189 C 
BRANCH  19  20
HETATM   20  O3  UNL     1      18.058  33.556  15.470  1.00  0.00    -0.321 OA
BRANCH  20  21
HETATM   21  C20 UNL     1      16.780  33.973  15.461  1.00  0.00     0.258 C 
HETATM   22  O4  UNL     1      16.487  35.030  14.854  1.00  0.00    -0.265 OA
BRANCH  21  23
HETATM   23  C21 UNL     1      15.638  33.257  16.136  1.00  0.00     0.111 C 
BRANCH  23  24
HETATM   24  C22 UNL     1      15.546  33.793  17.560  1.00  0.00     0.010 C 
BRANCH  24  25
HETATM   25  C23 UNL     1      14.424  34.782  17.744  1.00  0.00     0.000 C 
BRANCH  25  26
HETATM   26  C24 UNL     1      14.980  36.172  17.928  1.00  0.00     0.000 C 
BRANCH  26  27
HETATM   27  C25 UNL     1      16.322  36.231  18.569  1.00  0.00     0.000 C 
BRANCH  27  28
HETATM   28  C26 UNL     1      17.344  36.961  17.731  1.00  0.00     0.002 C 
BRANCH  28  29
HETATM   29  C27 UNL     1      18.725  36.365  17.892  1.00  0.00     0.027 C 
BRANCH  29  30
HETATM   30  C28 UNL     1      18.704  35.109  18.727  1.00  0.00     0.229 C 
BRANCH  30  31
HETATM   31  N2  UNL     1      19.637  35.169  19.834  1.00  0.00    -0.079 N 
ATOM     32  H23 UNL     1      20.526  34.733  19.589  1.00  0.00     0.274 HD
ATOM     33  H22 UNL     1      19.960  36.123  19.992  1.00  0.00     0.274 HD
ATOM     34  H21 UNL     1      19.252  34.764  20.688  1.00  0.00     0.274 HD
ENDBRANCH  30  31
ENDBRANCH  29  30
ENDBRANCH  28  29
ENDBRANCH  27  28
ENDBRANCH  26  27
ENDBRANCH  25  26
ENDBRANCH  24  25
ENDBRANCH  23  24
ENDBRANCH  21  23
ENDBRANCH  20  21
ENDBRANCH  19  20
ENDBRANCH  16  19
BRANCH  17  35
HETATM   35  O5  UNL     1      20.627  30.921  16.437  1.00  0.00    -0.386 OA
ATOM     36  H5  UNL     1      21.206  31.674  16.465  1.00  0.00     0.210 HD
ENDBRANCH  17  35
BRANCH  18  37
HETATM   37  O6  UNL     1      21.365  32.550  13.856  1.00  0.00    -0.383 OA
BRANCH  37  38
HETATM   38  C31 UNL     1      22.259  33.415  14.486  1.00  0.00     0.164 C 
HETATM   39  C32 UNL     1      21.658  34.189  15.619  1.00  0.00     0.033 C 
ENDBRANCH  37  38
ENDBRANCH  18  37
BRANCH  12  40
HETATM   40  O1  UNL     1      17.632  29.168  10.904  1.00  0.00    -0.371 OA
HETATM   41  C15 UNL     1      16.271  29.196  10.671  1.00  0.00     0.204 C 
ENDBRANCH  12  40
BRANCH   1  42
HETATM   42  C3  UNL     1      18.707  26.000  11.905  1.00  0.00     0.092 C 
BRANCH  42  43
HETATM   43  C2  UNL     1      17.732  25.292  11.028  1.00  0.00     0.007 C 
HETATM   44  C1  UNL     1      17.765  25.452   9.704  1.00  0.00     0.012 C 
ENDBRANCH  42  43
ENDBRANCH   1  42
TORSDOF 18
ENDMDL
MODEL 2
REMARK VINA RESULT: -7.186225328      0.882      1.114
REMARK  18 active torsions:
REMARK  status: ('A' for Active; 'I' for Inactive)
REMARK    1  A    between atoms: C2_2  and  C3_3 
REMARK    2  A    between atoms: C3_3  and  N1_4 
REMARK    3  A    between atoms: C14_15  and  O1_16 
REMARK    4  A    between atoms: C18_21  and  C19_22 
REMARK    5  A    between atoms: C19_22  and  O3_23 
REMARK    6  A    between atoms: O3_23  and  C20_24 
REMARK    7  A    between atoms: C20_24  and  C21_26 
REMARK    8  A    between atoms: C21_26  and  C22_27 
REMARK    9  A    between atoms: C22_27  and  C23_28 
REMARK   10  A    between atoms: C23_28  and  C24_29 
REMARK   11  A    between atoms: C24_29  and  C25_30 
REMARK   12  A    between atoms: C25_30  and  C26_31 
REMARK   13  A    between atoms: C26_31  and  C27_32 
REMARK   14  A    between atoms: C27_32  and  C28_33 
REMARK   15  A    between atoms: C28_33  and  N2_34 
REMARK   16  A    between atoms: C29_38  and  O5_39 
REMARK   17  A    between atoms: C30_41  and  O6_42 
REMARK   18  A    between atoms: O6_42  and  C31_43 
ROOT
HETATM    1  N1  UNL     1      18.577  27.502  11.676  1.00  0.00    -0.343 N 
HETATM    2  C4  UNL     1      19.842  27.783  11.171  1.00  0.00     0.067 C 
HETATM    3  C5  UNL     1      20.313  29.188  11.225  1.00  0.00     0.058 C 
HETATM    4  C6  UNL     1      20.245  29.833  12.601  1.00  0.00     0.009 C 
HETATM    5  C7  UNL     1      21.561  30.295  13.015  1.00  0.00     0.030 C 
HETATM    6  C8  UNL     1      22.346  29.062  13.507  1.00  0.00     0.009 C 
HETATM    7  C9  UNL     1      21.751  28.761  14.884  1.00  0.00     0.013 C 
HETATM    8  C10 UNL     1      20.284  29.268  14.933  1.00  0.00    -0.005 C 
HETATM    9  C11 UNL     1      19.691  28.588  16.126  1.00  0.00     0.019 C 
HETATM   10  C12 UNL     1      19.716  28.839  13.637  1.00  0.00     0.020 C 
HETATM   11  C13 UNL     1      18.372  29.393  13.236  1.00  0.00     0.079 C 
HETATM   12  C14 UNL     1      17.761  28.560  12.143  1.00  0.00     0.233 C 
HETATM   13  C16 UNL     1      19.042  30.558  12.747  1.00  0.00     0.105 A 
HETATM   14  O2  UNL     1      19.055  31.785  12.405  1.00  0.00    -0.367 OA
HETATM   15  C17 UNL     1      18.607  31.610  13.617  1.00  0.00     0.167 A 
HETATM   16  C18 UNL     1      19.136  31.492  14.955  1.00  0.00     0.080 C 
HETATM   17  C29 UNL     1      20.459  30.774  15.103  1.00  0.00     0.100 C 
HETATM   18  C30 UNL     1      21.554  31.224  14.222  1.00  0.00     0.162 C 
ENDROOT
BRANCH  16  19
HETATM   19  C19 UNL     1      18.928  32.578  15.954  1.00  0.00     0.189 C 
BRANCH  19  20
HETATM   20  O3  UNL     1      17.733  32.768  16.564  1.00  0.00    -0.321 OA
BRANCH  20  21
HETATM   21  C20 UNL     1      16.491  32.922  16.070  1.00  0.00     0.258 C 
HETATM   22  O4  UNL     1      15.639  32.026  16.273  1.00  0.00    -0.265 OA
BRANCH  21  23
HETATM   23  C21 UNL     1      16.026  34.112  15.271  1.00  0.00     0.111 C 
BRANCH  23  24
HETATM   24  C22 UNL     1      16.356  35.359  16.083  1.00  0.00     0.010 C 
BRANCH  24  25
HETATM   25  C23 UNL     1      15.468  35.528  17.289  1.00  0.00     0.000 C 
BRANCH  25  26
HETATM   26  C24 UNL     1      16.305  35.739  18.525  1.00  0.00     0.000 C 
BRANCH  26  27
HETATM   27  C25 UNL     1      17.722  36.113  18.268  1.00  0.00     0.000 C 
BRANCH  27  28
HETATM   28  C26 UNL     1      18.708  35.182  18.932  1.00  0.00     0.002 C 
BRANCH  28  29
HETATM   29  C27 UNL     1      20.137  35.562  18.610  1.00  0.00     0.027 C 
BRANCH  29  30
HETATM   30  C28 UNL     1      20.970  35.728  19.857  1.00  0.00     0.229 C 
BRANCH  30  31
HETATM   31  N2  UNL     1      20.702  34.698  20.840  1.00  0.00    -0.079 N 
ATOM     32  H23 UNL     1      20.333  35.100  21.702  1.00  0.00     0.274 HD
ATOM     33  H22 UNL     1      19.901  34.129  20.568  1.00  0.00     0.274 HD
ATOM     34  H21 UNL     1      21.519  34.117  21.026  1.00  0.00     0.274 HD
ENDBRANCH  30  31
ENDBRANCH  29  30
ENDBRANCH  28  29
ENDBRANCH  27  28
ENDBRANCH  26  27
ENDBRANCH  25  26
ENDBRANCH  24  25
ENDBRANCH  23  24
ENDBRANCH  21  23
ENDBRANCH  20  21
ENDBRANCH  19  20
ENDBRANCH  16  19
BRANCH  17  35
HETATM   35  O5  UNL     1      20.843  30.964  16.444  1.00  0.00    -0.386 OA
ATOM     36  H5  UNL     1      20.508  31.819  16.689  1.00  0.00     0.210 HD
ENDBRANCH  17  35
BRANCH  18  37
HETATM   37  O6  UNL     1      21.558  32.515  13.809  1.00  0.00    -0.383 OA
BRANCH  37  38
HETATM   38  C31 UNL     1      22.593  33.293  14.327  1.00  0.00     0.164 C 
HETATM   39  C32 UNL     1      22.290  33.892  15.667  1.00  0.00     0.033 C 
ENDBRANCH  37  38
ENDBRANCH  18  37
BRANCH  12  40
HETATM   40  O1  UNL     1      17.402  29.428  11.109  1.00  0.00    -0.371 OA
HETATM   41  C15 UNL     1      16.135  29.196  10.610  1.00  0.00     0.204 C 
ENDBRANCH  12  40
BRANCH   1  42
HETATM   42  C3  UNL     1      18.277  26.190  12.079  1.00  0.00     0.092 C 
BRANCH  42  43
HETATM   43  C2  UNL     1      17.894  25.301  10.945  1.00  0.00     0.007 C 
HETATM   44  C1  UNL     1      17.558  25.812   9.761  1.00  0.00     0.012 C 
ENDBRANCH  42  43
ENDBRANCH   1  42
TORSDOF 18
ENDMDL
MODEL 3
REMARK VINA RESULT: -7.036849181      0.978      1.194
REMARK  18 active torsions:
REMARK  status: ('A' for Active; 'I' for Inactive)
REMARK    1  A    between atoms: C2_2  and  C3_3 
REMARK    2  A    between atoms: C3_3  and  N1_4 
REMARK    3  A    between atoms: C14_15  and  O1_16 
REMARK    4  A    between atoms: C18_21  and  C19_22 
REMARK    5  A    between atoms: C19_22  and  O3_23 
REMARK    6  A    between atoms: O3_23  and  C20_24 
REMARK    7  A    between atoms: C20_24  and  C21_26 
REMARK    8  A    between atoms: C21_26  and  C22_27 
REMARK    9  A    between atoms: C22_27  and  C23_28 
REMARK   10  A    between atoms: C23_28  and  C24_29 
REMARK   11  A    between atoms: C24_29  and  C25_30 
REMARK   12  A    between atoms: C25_30  and  C26_31 
REMARK   13  A    between atoms: C26_31  and  C27_32 
REMARK   14  A    between atoms: C27_32  and  C28_33 
REMARK   15  A    between atoms: C28_33  and  N2_34 
REMARK   16  A    between atoms: C29_38  and  O5_39 
REMARK   17  A    between atoms: C30_41  and  O6_42 
REMARK   18  A    between atoms: O6_42  and  C31_43 
ROOT
HETATM    1  N1  UNL     1      19.357  27.987  11.498  1.00  0.00    -0.343 N 
HETATM    2  C4  UNL     1      20.484  28.722  11.145  1.00  0.00     0.067 C 
HETATM    3  C5  UNL     1      20.508  30.163  11.494  1.00  0.00     0.058 C 
HETATM    4  C6  UNL     1      20.232  30.472  12.957  1.00  0.00     0.009 C 
HETATM    5  C7  UNL     1      21.341  31.208  13.543  1.00  0.00     0.030 C 
HETATM    6  C8  UNL     1      22.456  30.188  13.852  1.00  0.00     0.009 C 
HETATM    7  C9  UNL     1      21.963  29.458  15.102  1.00  0.00     0.013 C 
HETATM    8  C10 UNL     1      20.411  29.491  15.140  1.00  0.00    -0.005 C 
HETATM    9  C11 UNL     1      20.036  28.444  16.140  1.00  0.00     0.019 C 
HETATM   10  C12 UNL     1      20.015  29.181  13.750  1.00  0.00     0.020 C 
HETATM   11  C13 UNL     1      18.572  29.384  13.364  1.00  0.00     0.079 C 
HETATM   12  C14 UNL     1      18.254  28.644  12.094  1.00  0.00     0.233 C 
HETATM   13  C16 UNL     1      18.864  30.768  13.150  1.00  0.00     0.105 A 
HETATM   14  O2  UNL     1      18.510  31.987  13.044  1.00  0.00    -0.367 OA
HETATM   15  C17 UNL     1      18.121  31.450  14.167  1.00  0.00     0.167 A 
HETATM   16  C18 UNL     1      18.645  31.229  15.493  1.00  0.00     0.080 C 
HETATM   17  C29 UNL     1      20.121  30.917  15.600  1.00  0.00     0.100 C 
HETATM   18  C30 UNL     1      21.039  31.834  14.898  1.00  0.00     0.162 C 
ENDROOT
BRANCH  16  19
HETATM   19  C19 UNL     1      18.106  31.984  16.660  1.00  0.00     0.189 C 
BRANCH  19  20
HETATM   20  O3  UNL     1      17.290  33.055  16.504  1.00  0.00    -0.321 OA
BRANCH  20  21
HETATM   21  C20 UNL     1      15.950  33.169  16.529  1.00  0.00     0.258 C 
HETATM   22  O4  UNL     1      15.248  32.138  16.408  1.00  0.00    -0.265 OA
BRANCH  21  23
HETATM   23  C21 UNL     1      15.201  34.466  16.695  1.00  0.00     0.111 C 
BRANCH  23  24
HETATM   24  C22 UNL     1      15.051  34.714  18.192  1.00  0.00     0.010 C 
BRANCH  24  25
HETATM   25  C23 UNL     1      15.136  36.173  18.557  1.00  0.00     0.000 C 
BRANCH  25  26
HETATM   26  C24 UNL     1      16.104  36.883  17.645  1.00  0.00     0.000 C 
BRANCH  26  27
HETATM   27  C25 UNL     1      17.443  37.151  18.236  1.00  0.00     0.000 C 
BRANCH  27  28
HETATM   28  C26 UNL     1      18.497  36.174  17.776  1.00  0.00     0.002 C 
BRANCH  28  29
HETATM   29  C27 UNL     1      18.938  35.259  18.898  1.00  0.00     0.027 C 
BRANCH  29  30
HETATM   30  C28 UNL     1      20.271  35.672  19.471  1.00  0.00     0.229 C 
BRANCH  30  31
HETATM   31  N2  UNL     1      20.647  34.873  20.620  1.00  0.00    -0.079 N 
ATOM     32  H23 UNL     1      20.353  33.904  20.507  1.00  0.00     0.274 HD
ATOM     33  H22 UNL     1      21.657  34.735  20.656  1.00  0.00     0.274 HD
ATOM     34  H21 UNL     1      20.298  35.264  21.495  1.00  0.00     0.274 HD
ENDBRANCH  30  31
ENDBRANCH  29  30
ENDBRANCH  28  29
ENDBRANCH  27  28
ENDBRANCH  26  27
ENDBRANCH  25  26
ENDBRANCH  24  25
ENDBRANCH  23  24
ENDBRANCH  21  23
ENDBRANCH  20  21
ENDBRANCH  19  20
ENDBRANCH  16  19
BRANCH  17  35
HETATM   35  O5  UNL     1      20.413  30.941  16.977  1.00  0.00    -0.386 OA
ATOM     36  H5  UNL     1      19.575  30.870  17.419  1.00  0.00     0.210 HD
ENDBRANCH  17  35
BRANCH  18  37
HETATM   37  O6  UNL     1      20.658  33.125  14.735  1.00  0.00    -0.383 OA
BRANCH  37  38
HETATM   38  C31 UNL     1      21.175  34.012  15.678  1.00  0.00     0.164 C 
HETATM   39  C32 UNL     1      22.558  33.668  16.141  1.00  0.00     0.033 C 
ENDBRANCH  37  38
ENDBRANCH  18  37
BRANCH  12  40
HETATM   40  O1  UNL     1      17.662  29.556  11.217  1.00  0.00    -0.371 OA
HETATM   41  C15 UNL     1      16.395  29.185  10.810  1.00  0.00     0.204 C 
ENDBRANCH  12  40
BRANCH   1  42
HETATM   42  C3  UNL     1      19.462  26.592  11.626  1.00  0.00     0.092 C 
BRANCH  42  43
HETATM   43  C2  UNL     1      18.155  25.890  11.493  1.00  0.00     0.007 C 
HETATM   44  C1  UNL     1      17.739  25.439  10.309  1.00  0.00     0.012 C 
ENDBRANCH  42  43
ENDBRANCH   1  42
TORSDOF 18
ENDMDL
MODEL 4
REMARK VINA RESULT: -6.976154066      1.270      2.092
REMARK  18 active torsions:
REMARK  status: ('A' for Active; 'I' for Inactive)
REMARK    1  A    between atoms: C2_2  and  C3_3 
REMARK    2  A    between atoms: C3_3  and  N1_4 
REMARK    3  A    between atoms: C14_15  and  O1_16 
REMARK    4  A    between atoms: C18_21  and  C19_22 
REMARK    5  A    between atoms: C19_22  and  O3_23 
REMARK    6  A    between atoms: O3_23  and  C20_24 
REMARK    7  A    between atoms: C20_24  and  C21_26 
REMARK    8  A    between atoms: C21_26  and  C22_27 
REMARK    9  A    between atoms: C22_27  and  C23_28 
REMARK   10  A    between atoms: C23_28  and  C24_29 
REMARK   11  A    between atoms: C24_29  and  C25_30 
REMARK   12  A    between atoms: C25_30  and  C26_31 
REMARK   13  A    between atoms: C26_31  and  C27_32 
REMARK   14  A    between atoms: C27_32  and  C28_33 
REMARK   15  A    between atoms: C28_33  and  N2_34 
REMARK   16  A    between atoms: C29_38  and  O5_39 
REMARK   17  A    between atoms: C30_41  and  O6_42 
REMARK   18  A    between atoms: O6_42  and  C31_43 
ROOT
HETATM    1  N1  UNL     1      18.453  27.690  11.770  1.00  0.00    -0.343 N 
HETATM    2  C4  UNL     1      19.679  28.061  11.229  1.00  0.00     0.067 C 
HETATM    3  C5  UNL     1      20.103  29.474  11.379  1.00  0.00     0.058 C 
HETATM    4  C6  UNL     1      20.083  30.000  12.806  1.00  0.00     0.009 C 
HETATM    5  C7  UNL     1      21.402  30.478  13.193  1.00  0.00     0.030 C 
HETATM    6  C8  UNL     1      22.254  29.241  13.540  1.00  0.00     0.009 C 
HETATM    7  C9  UNL     1      21.742  28.803  14.914  1.00  0.00     0.013 C 
HETATM    8  C10 UNL     1      20.263  29.246  15.077  1.00  0.00    -0.005 C 
HETATM    9  C11 UNL     1      19.758  28.447  16.236  1.00  0.00     0.019 C 
HETATM   10  C12 UNL     1      19.644  28.904  13.779  1.00  0.00     0.020 C 
HETATM   11  C13 UNL     1      18.263  29.435  13.493  1.00  0.00     0.079 C 
HETATM   12  C14 UNL     1      17.626  28.672  12.364  1.00  0.00     0.233 C 
HETATM   13  C16 UNL     1      18.865  30.663  13.072  1.00  0.00     0.105 A 
HETATM   14  O2  UNL     1      18.817  31.913  12.834  1.00  0.00    -0.367 OA
HETATM   15  C17 UNL     1      18.439  31.621  14.048  1.00  0.00     0.167 A 
HETATM   16  C18 UNL     1      19.041  31.414  15.343  1.00  0.00     0.080 C 
HETATM   17  C29 UNL     1      20.394  30.739  15.365  1.00  0.00     0.100 C 
HETATM   18  C30 UNL     1      21.425  31.303  14.473  1.00  0.00     0.162 C 
ENDROOT
BRANCH  16  19
HETATM   19  C19 UNL     1      18.846  32.404  16.440  1.00  0.00     0.189 C 
BRANCH  19  20
HETATM   20  O3  UNL     1      19.283  33.683  16.334  1.00  0.00    -0.321 OA
BRANCH  20  21
HETATM   21  C20 UNL     1      19.315  34.692  17.222  1.00  0.00     0.258 C 
HETATM   22  O4  UNL     1      20.179  35.591  17.093  1.00  0.00    -0.265 OA
BRANCH  21  23
HETATM   23  C21 UNL     1      18.373  34.839  18.390  1.00  0.00     0.111 C 
BRANCH  23  24
HETATM   24  C22 UNL     1      18.111  36.329  18.576  1.00  0.00     0.010 C 
BRANCH  24  25
HETATM   25  C23 UNL     1      16.732  36.743  18.129  1.00  0.00     0.000 C 
BRANCH  25  26
HETATM   26  C24 UNL     1      15.698  35.803  18.693  1.00  0.00     0.000 C 
BRANCH  26  27
HETATM   27  C25 UNL     1      14.808  35.169  17.682  1.00  0.00     0.000 C 
BRANCH  27  28
HETATM   28  C26 UNL     1      15.185  33.738  17.379  1.00  0.00     0.002 C 
BRANCH  28  29
HETATM   29  C27 UNL     1      15.579  33.561  15.929  1.00  0.00     0.027 C 
BRANCH  29  30
HETATM   30  C28 UNL     1      15.983  34.867  15.290  1.00  0.00     0.229 C 
BRANCH  30  31
HETATM   31  N2  UNL     1      17.107  34.715  14.389  1.00  0.00    -0.079 N 
ATOM     32  H23 UNL     1      17.708  33.944  14.678  1.00  0.00     0.274 HD
ATOM     33  H22 UNL     1      16.806  34.358  13.483  1.00  0.00     0.274 HD
ATOM     34  H21 UNL     1      17.640  35.579  14.286  1.00  0.00     0.274 HD
ENDBRANCH  30  31
ENDBRANCH  29  30
ENDBRANCH  28  29
ENDBRANCH  27  28
ENDBRANCH  26  27
ENDBRANCH  25  26
ENDBRANCH  24  25
ENDBRANCH  23  24
ENDBRANCH  21  23
ENDBRANCH  20  21
ENDBRANCH  19  20
ENDBRANCH  16  19
BRANCH  17  35
HETATM   35  O5  UNL     1      20.840  30.833  16.697  1.00  0.00    -0.386 OA
ATOM     36  H5  UNL     1      21.307  31.658  16.754  1.00  0.00     0.210 HD
ENDBRANCH  17  35
BRANCH  18  37
HETATM   37  O6  UNL     1      21.362  32.623  14.171  1.00  0.00    -0.383 OA
BRANCH  37  38
HETATM   38  C31 UNL     1      22.520  33.345  14.456  1.00  0.00     0.164 C 
HETATM   39  C32 UNL     1      22.727  33.610  15.916  1.00  0.00     0.033 C 
ENDBRANCH  37  38
ENDBRANCH  18  37
BRANCH  12  40
HETATM   40  O1  UNL     1      17.183  29.608  11.426  1.00  0.00    -0.371 OA
HETATM   41  C15 UNL     1      16.089  29.182  10.698  1.00  0.00     0.204 C 
ENDBRANCH  12  40
BRANCH   1  42
HETATM   42  C3  UNL     1      18.221  26.337  12.074  1.00  0.00     0.092 C 
BRANCH  42  43
HETATM   43  C2  UNL     1      18.249  25.453  10.875  1.00  0.00     0.007 C 
HETATM   44  C1  UNL     1      17.518  25.740   9.797  1.00  0.00     0.012 C 
ENDBRANCH  42  43
ENDBRANCH   1  42
TORSDOF 18
ENDMDL
MODEL 5
REMARK VINA RESULT: -6.906352435      1.161      1.513
REMARK  18 active torsions:
REMARK  status: ('A' for Active; 'I' for Inactive)
REMARK    1  A    between atoms: C2_2  and  C3_3 
REMARK    2  A    between atoms: C3_3  and  N1_4 
REMARK    3  A    between atoms: C14_15  and  O1_16 
REMARK    4  A    between atoms: C18_21  and  C19_22 
REMARK    5  A    between atoms: C19_22  and  O3_23 
REMARK    6  A    between atoms: O3_23  and  C20_24 
REMARK    7  A    between atoms: C20_24  and  C21_26 
REMARK    8  A    between atoms: C21_26  and  C22_27 
REMARK    9  A    between atoms: C22_27  and  C23_28 
REMARK   10  A    between atoms: C23_28  and  C24_29 
REMARK   11  A    between atoms: C24_29  and  C25_30 
REMARK   12  A    between atoms: C25_30  and  C26_31 
REMARK   13  A    between atoms: C26_31  and  C27_32 
REMARK   14  A    between atoms: C27_32  and  C28_33 
REMARK   15  A    between atoms: C28_33  and  N2_34 
REMARK   16  A    between atoms: C29_38  and  O5_39 
REMARK   17  A    between atoms: C30_41  and  O6_42 
REMARK   18  A    between atoms: O6_42  and  C31_43 
ROOT
HETATM    1  N1  UNL     1      18.366  27.697  12.468  1.00  0.00    -0.343 N 
HETATM    2  C4  UNL     1      19.754  27.709  12.529  1.00  0.00     0.067 C 
HETATM    3  C5  UNL     1      20.443  29.013  12.375  1.00  0.00     0.058 C 
HETATM    4  C6  UNL     1      19.961  30.106  13.316  1.00  0.00     0.009 C 
HETATM    5  C7  UNL     1      21.062  30.610  14.122  1.00  0.00     0.030 C 
HETATM    6  C8  UNL     1      21.306  29.590  15.252  1.00  0.00     0.009 C 
HETATM    7  C9  UNL     1      20.158  29.830  16.233  1.00  0.00     0.013 C 
HETATM    8  C10 UNL     1      18.936  30.403  15.466  1.00  0.00    -0.005 C 
HETATM    9  C11 UNL     1      17.785  30.225  16.404  1.00  0.00     0.019 C 
HETATM   10  C12 UNL     1      18.865  29.576  14.242  1.00  0.00     0.020 C 
HETATM   11  C13 UNL     1      17.944  30.026  13.137  1.00  0.00     0.079 C 
HETATM   12  C14 UNL     1      17.669  28.896  12.184  1.00  0.00     0.233 C 
HETATM   13  C16 UNL     1      18.980  30.903  12.685  1.00  0.00     0.105 A 
HETATM   14  O2  UNL     1      19.384  31.926  12.043  1.00  0.00    -0.367 OA
HETATM   15  C17 UNL     1      18.458  32.217  12.914  1.00  0.00     0.167 A 
HETATM   16  C18 UNL     1      18.365  32.551  14.315  1.00  0.00     0.080 C 
HETATM   17  C29 UNL     1      19.335  31.860  15.246  1.00  0.00     0.100 C 
HETATM   18  C30 UNL     1      20.760  31.905  14.865  1.00  0.00     0.162 C 
ENDROOT
BRANCH  16  19
HETATM   19  C19 UNL     1      18.001  33.930  14.746  1.00  0.00     0.189 C 
BRANCH  19  20
HETATM   20  O3  UNL     1      16.773  34.224  15.241  1.00  0.00    -0.321 OA
BRANCH  20  21
HETATM   21  C20 UNL     1      15.948  33.536  16.049  1.00  0.00     0.258 C 
HETATM   22  O4  UNL     1      15.297  32.573  15.580  1.00  0.00    -0.265 OA
BRANCH  21  23
HETATM   23  C21 UNL     1      15.732  33.832  17.511  1.00  0.00     0.111 C 
BRANCH  23  24
HETATM   24  C22 UNL     1      14.805  35.039  17.597  1.00  0.00     0.010 C 
BRANCH  24  25
HETATM   25  C23 UNL     1      15.362  36.148  18.452  1.00  0.00     0.000 C 
BRANCH  25  26
HETATM   26  C24 UNL     1      16.247  37.047  17.626  1.00  0.00     0.000 C 
BRANCH  26  27
HETATM   27  C25 UNL     1      17.618  37.249  18.169  1.00  0.00     0.000 C 
BRANCH  27  28
HETATM   28  C26 UNL     1      18.590  36.181  17.728  1.00  0.00     0.002 C 
BRANCH  28  29
HETATM   29  C27 UNL     1      18.996  35.287  18.879  1.00  0.00     0.027 C 
BRANCH  29  30
HETATM   30  C28 UNL     1      20.266  35.760  19.541  1.00  0.00     0.229 C 
BRANCH  30  31
HETATM   31  N2  UNL     1      20.687  34.885  20.616  1.00  0.00    -0.079 N 
ATOM     32  H23 UNL     1      21.467  35.288  21.134  1.00  0.00     0.274 HD
ATOM     33  H22 UNL     1      19.991  34.857  21.361  1.00  0.00     0.274 HD
ATOM     34  H21 UNL     1      20.911  33.946  20.286  1.00  0.00     0.274 HD
ENDBRANCH  30  31
ENDBRANCH  29  30
ENDBRANCH  28  29
ENDBRANCH  27  28
ENDBRANCH  26  27
ENDBRANCH  25  26
ENDBRANCH  24  25
ENDBRANCH  23  24
ENDBRANCH  21  23
ENDBRANCH  20  21
ENDBRANCH  19  20
ENDBRANCH  16  19
BRANCH  17  35
HETATM   35  O5  UNL     1      19.175  32.491  16.495  1.00  0.00    -0.386 OA
ATOM     36  H5  UNL     1      18.238  32.541  16.639  1.00  0.00     0.210 HD
ENDBRANCH  17  35
BRANCH  18  37
HETATM   37  O6  UNL     1      21.198  32.964  14.140  1.00  0.00    -0.383 OA
BRANCH  37  38
HETATM   38  C31 UNL     1      22.370  33.552  14.612  1.00  0.00     0.164 C 
HETATM   39  C32 UNL     1      22.566  33.416  16.091  1.00  0.00     0.033 C 
ENDBRANCH  37  38
ENDBRANCH  18  37
BRANCH  12  40
HETATM   40  O1  UNL     1      17.947  29.360  10.896  1.00  0.00    -0.371 OA
HETATM   41  C15 UNL     1      17.345  28.614   9.901  1.00  0.00     0.204 C 
ENDBRANCH  12  40
BRANCH   1  42
HETATM   42  C3  UNL     1      17.663  26.631  13.056  1.00  0.00     0.092 C 
BRANCH  42  43
HETATM   43  C2  UNL     1      17.885  25.329  12.366  1.00  0.00     0.007 C 
HETATM   44  C1  UNL     1      17.852  25.248  11.036  1.00  0.00     0.012 C 
ENDBRANCH  42  43
ENDBRANCH   1  42
TORSDOF 18
ENDMDL
