MODEL 1
REMARK VINA RESULT: -9.031269783      0.000      0.000
REMARK  17 active torsions:
REMARK  status: ('A' for Active; 'I' for Inactive)
REMARK    1  A    between atoms: C3_5  and  C4_6 
REMARK    2  A    between atoms: C4_6  and  O1_7 
REMARK    3  A    between atoms: C4_6  and  C5_9 
REMARK    4  A    between atoms: C5_9  and  C6_10 
REMARK    5  A    between atoms: C5_9  and  C16_27 
REMARK    6  A    between atoms: C6_10  and  C7_11 
REMARK    7  A    between atoms: C7_11  and  C8_12 
REMARK    8  A    between atoms: C11_15  and  N2_16 
REMARK       I    between atoms: N2_16  and  C12_18 
REMARK    9  A    between atoms: C12_18  and  C13_20 
REMARK   10  A    between atoms: C13_20  and  C14_21 
REMARK   11  A    between atoms: C14_21  and  C15_22 
REMARK   12  A    between atoms: C15_22  and  N3_23 
REMARK   13  A    between atoms: C16_27  and  N4_28 
REMARK   14  A    between atoms: N4_28  and  C18_30 
REMARK   15  A    between atoms: C18_30  and  C19_31 
REMARK   16  A    between atoms: C19_31  and  C20_32 
REMARK   17  A    between atoms: C20_32  and  N5_33 
ROOT
HETATM    1  C5  UNL     1      18.072  31.138  14.749  1.00  0.00    -0.015 C 
ENDROOT
BRANCH   1   2
HETATM    2  C4  UNL     1      18.829  31.217  15.985  1.00  0.00     0.115 C 
BRANCH   2   3
HETATM    3  C3  UNL     1      20.030  31.870  16.378  1.00  0.00     0.161 A 
HETATM    4  N1  UNL     1      20.416  33.158  16.059  1.00  0.00    -0.321 N 
HETATM    5  C2  UNL     1      21.591  33.370  16.667  1.00  0.00     0.144 A 
ATOM      6  H1  UNL     1      19.904  33.820  15.475  1.00  0.00     0.169 HD
HETATM    7  C1  UNL     1      22.397  34.621  16.612  1.00  0.00     0.100 C 
HETATM    8  O4  UNL     1      21.943  32.315  17.324  1.00  0.00    -0.223 OA
HETATM    9  N6  UNL     1      21.024  31.449  17.146  1.00  0.00    -0.241 N 
ATOM     10  H6  UNL     1      21.051  30.516  17.559  1.00  0.00     0.196 HD
ENDBRANCH   2   3
BRANCH   2  11
HETATM   11  O1  UNL     1      18.265  30.527  16.955  1.00  0.00    -0.357 OA
ATOM     12  H1  UNL     1      17.409  30.855  17.204  1.00  0.00     0.218 HD
ENDBRANCH   2  11
ENDBRANCH   1   2
BRANCH   1  13
HETATM   13  C6  UNL     1      17.012  32.119  14.437  1.00  0.00     0.039 C 
BRANCH  13  14
HETATM   14  C7  UNL     1      17.163  33.548  14.869  1.00  0.00     0.011 C 
BRANCH  14  15
HETATM   15  C8  UNL     1      15.946  33.940  15.671  1.00  0.00     0.009 C 
HETATM   16  C9  UNL     1      15.400  32.791  16.529  1.00  0.00     0.009 C 
HETATM   17  C10 UNL     1      15.035  33.853  17.543  1.00  0.00     0.026 C 
HETATM   18  C11 UNL     1      16.217  34.663  16.972  1.00  0.00     0.088 C 
BRANCH  18  19
HETATM   19  N2  UNL     1      17.398  34.263  17.700  1.00  0.00    -0.356 N 
HETATM   20  C12 UNL     1      18.142  35.198  18.458  1.00  0.00     0.217 C 
HETATM   21  O2  UNL     1      17.730  36.399  18.471  1.00  0.00    -0.274 OA
ATOM     22  H2  UNL     1      17.702  33.290  17.667  1.00  0.00     0.162 HD
BRANCH  20  23
HETATM   23  C13 UNL     1      19.347  34.896  19.232  1.00  0.00     0.104 C 
BRANCH  23  24
HETATM   24  C14 UNL     1      20.287  36.087  19.309  1.00  0.00     0.036 C 
BRANCH  24  25
HETATM   25  C15 UNL     1      21.503  35.774  20.144  1.00  0.00     0.230 C 
BRANCH  25  26
HETATM   26  N3  UNL     1      21.136  34.701  21.050  1.00  0.00    -0.079 N 
ATOM     27  H33 UNL     1      21.506  34.829  21.992  1.00  0.00     0.274 HD
ATOM     28  H32 UNL     1      20.146  34.705  21.295  1.00  0.00     0.274 HD
ATOM     29  H31 UNL     1      21.436  33.827  20.618  1.00  0.00     0.274 HD
ENDBRANCH  25  26
ENDBRANCH  24  25
ENDBRANCH  23  24
ENDBRANCH  20  23
ENDBRANCH  18  19
ENDBRANCH  14  15
ENDBRANCH  13  14
ENDBRANCH   1  13
BRANCH   1  30
HETATM   30  C16 UNL     1      17.968  29.776  14.165  1.00  0.00     0.309 C 
BRANCH  30  31
HETATM   31  N4  UNL     1      18.414  29.526  12.812  1.00  0.00     0.088 N 
HETATM   32  C17 UNL     1      17.123  29.261  12.121  1.00  0.00     0.310 C 
BRANCH  31  33
HETATM   33  C18 UNL     1      19.268  28.420  12.751  1.00  0.00     0.283 C 
BRANCH  33  34
HETATM   34  C19 UNL     1      20.660  28.502  12.208  1.00  0.00     0.002 C 
HETATM   35  C26 UNL     1      21.539  27.959  13.348  1.00  0.00     0.013 C 
HETATM   36  C27 UNL     1      21.588  28.872  14.549  1.00  0.00     0.001 C 
HETATM   37  C28 UNL     1      22.252  30.145  14.054  1.00  0.00     0.000 C 
HETATM   38  C29 UNL     1      21.289  30.771  13.082  1.00  0.00     0.001 C 
HETATM   39  C30 UNL     1      21.063  29.906  11.864  1.00  0.00     0.013 C 
BRANCH  34  40
HETATM   40  C20 UNL     1      20.869  27.591  11.059  1.00  0.00     0.137 C 
BRANCH  40  41
HETATM   41  N5  UNL     1      22.176  27.024  10.862  1.00  0.00    -0.351 N 
HETATM   42  C21 UNL     1      23.367  27.793  10.467  1.00  0.00     0.126 C 
HETATM   43  C22 UNL     1      24.480  27.236  11.353  1.00  0.00     0.020 C 
HETATM   44  C23 UNL     1      24.885  25.899  10.803  1.00  0.00     0.011 C 
HETATM   45  C24 UNL     1      23.682  25.049  10.519  1.00  0.00     0.103 C 
HETATM   46  C25 UNL     1      22.441  25.642  11.067  1.00  0.00     0.219 C 
HETATM   47  O3  UNL     1      21.652  24.917  11.699  1.00  0.00    -0.273 OA
ENDBRANCH  40  41
ENDBRANCH  34  40
ENDBRANCH  33  34
ENDBRANCH  31  33
ENDBRANCH  30  31
ENDBRANCH   1  30
TORSDOF 17
ENDMDL
MODEL 2
REMARK VINA RESULT: -8.774609368      1.621      2.266
REMARK  17 active torsions:
REMARK  status: ('A' for Active; 'I' for Inactive)
REMARK    1  A    between atoms: C3_5  and  C4_6 
REMARK    2  A    between atoms: C4_6  and  O1_7 
REMARK    3  A    between atoms: C4_6  and  C5_9 
REMARK    4  A    between atoms: C5_9  and  C6_10 
REMARK    5  A    between atoms: C5_9  and  C16_27 
REMARK    6  A    between atoms: C6_10  and  C7_11 
REMARK    7  A    between atoms: C7_11  and  C8_12 
REMARK    8  A    between atoms: C11_15  and  N2_16 
REMARK       I    between atoms: N2_16  and  C12_18 
REMARK    9  A    between atoms: C12_18  and  C13_20 
REMARK   10  A    between atoms: C13_20  and  C14_21 
REMARK   11  A    between atoms: C14_21  and  C15_22 
REMARK   12  A    between atoms: C15_22  and  N3_23 
REMARK   13  A    between atoms: C16_27  and  N4_28 
REMARK   14  A    between atoms: N4_28  and  C18_30 
REMARK   15  A    between atoms: C18_30  and  C19_31 
REMARK   16  A    between atoms: C19_31  and  C20_32 
REMARK   17  A    between atoms: C20_32  and  N5_33 
ROOT
HETATM    1  C5  UNL     1      18.003  31.225  15.506  1.00  0.00    -0.015 C 
ENDROOT
BRANCH   1   2
HETATM    2  C4  UNL     1      19.084  31.212  16.475  1.00  0.00     0.115 C 
BRANCH   2   3
HETATM    3  C3  UNL     1      20.233  32.021  16.697  1.00  0.00     0.161 A 
HETATM    4  N1  UNL     1      20.404  33.339  16.319  1.00  0.00    -0.321 N 
HETATM    5  C2  UNL     1      21.613  33.712  16.761  1.00  0.00     0.144 A 
ATOM      6  H1  UNL     1      19.738  33.916  15.804  1.00  0.00     0.169 HD
HETATM    7  C1  UNL     1      22.237  35.054  16.588  1.00  0.00     0.100 C 
HETATM    8  O4  UNL     1      22.182  32.727  17.372  1.00  0.00    -0.223 OA
HETATM    9  N6  UNL     1      21.366  31.748  17.327  1.00  0.00    -0.241 N 
ATOM     10  H6  UNL     1      21.567  30.836  17.739  1.00  0.00     0.196 HD
ENDBRANCH   2   3
BRANCH   2  11
HETATM   11  O1  UNL     1      18.960  30.228  17.340  1.00  0.00    -0.357 OA
ATOM     12  H1  UNL     1      18.321  30.401  18.022  1.00  0.00     0.218 HD
ENDBRANCH   2  11
ENDBRANCH   1   2
BRANCH   1  13
HETATM   13  C6  UNL     1      16.787  32.036  15.726  1.00  0.00     0.039 C 
BRANCH  13  14
HETATM   14  C7  UNL     1      16.806  33.509  15.440  1.00  0.00     0.011 C 
BRANCH  14  15
HETATM   15  C8  UNL     1      15.593  34.139  16.079  1.00  0.00     0.009 C 
HETATM   16  C9  UNL     1      15.201  33.472  17.405  1.00  0.00     0.009 C 
HETATM   17  C10 UNL     1      14.779  34.853  17.859  1.00  0.00     0.026 C 
HETATM   18  C11 UNL     1      15.848  35.391  16.889  1.00  0.00     0.088 C 
BRANCH  18  19
HETATM   19  N2  UNL     1      17.095  35.448  17.617  1.00  0.00    -0.356 N 
HETATM   20  C12 UNL     1      17.835  36.650  17.707  1.00  0.00     0.217 C 
HETATM   21  O2  UNL     1      17.362  37.673  17.122  1.00  0.00    -0.274 OA
ATOM     22  H2  UNL     1      17.447  34.607  18.074  1.00  0.00     0.162 HD
BRANCH  20  23
HETATM   23  C13 UNL     1      19.103  36.814  18.420  1.00  0.00     0.104 C 
BRANCH  23  24
HETATM   24  C14 UNL     1      19.535  35.533  19.112  1.00  0.00     0.036 C 
BRANCH  24  25
HETATM   25  C15 UNL     1      20.747  35.760  19.981  1.00  0.00     0.230 C 
BRANCH  25  26
HETATM   26  N3  UNL     1      20.798  34.669  20.938  1.00  0.00    -0.079 N 
ATOM     27  H33 UNL     1      20.662  33.754  20.509  1.00  0.00     0.274 HD
ATOM     28  H32 UNL     1      21.734  34.504  21.306  1.00  0.00     0.274 HD
ATOM     29  H31 UNL     1      20.113  34.875  21.666  1.00  0.00     0.274 HD
ENDBRANCH  25  26
ENDBRANCH  24  25
ENDBRANCH  23  24
ENDBRANCH  20  23
ENDBRANCH  18  19
ENDBRANCH  14  15
ENDBRANCH  13  14
ENDBRANCH   1  13
BRANCH   1  30
HETATM   30  C16 UNL     1      17.894  29.999  14.675  1.00  0.00     0.309 C 
BRANCH  30  31
HETATM   31  N4  UNL     1      18.347  30.005  13.302  1.00  0.00     0.088 N 
HETATM   32  C17 UNL     1      17.054  29.947  12.565  1.00  0.00     0.310 C 
BRANCH  31  33
HETATM   33  C18 UNL     1      19.149  28.894  13.023  1.00  0.00     0.283 C 
BRANCH  33  34
HETATM   34  C19 UNL     1      20.488  29.007  12.363  1.00  0.00     0.002 C 
HETATM   35  C26 UNL     1      21.449  28.315  13.345  1.00  0.00     0.013 C 
HETATM   36  C27 UNL     1      21.638  29.081  14.632  1.00  0.00     0.001 C 
HETATM   37  C28 UNL     1      22.296  30.388  14.225  1.00  0.00     0.000 C 
HETATM   38  C29 UNL     1      21.269  31.144  13.427  1.00  0.00     0.001 C 
HETATM   39  C30 UNL     1      20.904  30.433  12.145  1.00  0.00     0.013 C 
BRANCH  34  40
HETATM   40  C20 UNL     1      20.560  28.232  11.103  1.00  0.00     0.137 C 
BRANCH  40  41
HETATM   41  N5  UNL     1      19.460  27.369  10.764  1.00  0.00    -0.351 N 
HETATM   42  C21 UNL     1      18.284  27.786   9.983  1.00  0.00     0.126 C 
HETATM   43  C22 UNL     1      18.042  26.621   9.025  1.00  0.00     0.020 C 
HETATM   44  C23 UNL     1      17.408  25.504   9.804  1.00  0.00     0.011 C 
HETATM   45  C24 UNL     1      18.149  25.256  11.085  1.00  0.00     0.103 C 
HETATM   46  C25 UNL     1      19.429  25.998  11.139  1.00  0.00     0.219 C 
HETATM   47  O3  UNL     1      20.457  25.405  11.512  1.00  0.00    -0.273 OA
ENDBRANCH  40  41
ENDBRANCH  34  40
ENDBRANCH  33  34
ENDBRANCH  31  33
ENDBRANCH  30  31
ENDBRANCH   1  30
TORSDOF 17
ENDMDL
MODEL 3
REMARK VINA RESULT: -8.472128706      1.700      2.425
REMARK  17 active torsions:
REMARK  status: ('A' for Active; 'I' for Inactive)
REMARK    1  A    between atoms: C3_5  and  C4_6 
REMARK    2  A    between atoms: C4_6  and  O1_7 
REMARK    3  A    between atoms: C4_6  and  C5_9 
REMARK    4  A    between atoms: C5_9  and  C6_10 
REMARK    5  A    between atoms: C5_9  and  C16_27 
REMARK    6  A    between atoms: C6_10  and  C7_11 
REMARK    7  A    between atoms: C7_11  and  C8_12 
REMARK    8  A    between atoms: C11_15  and  N2_16 
REMARK       I    between atoms: N2_16  and  C12_18 
REMARK    9  A    between atoms: C12_18  and  C13_20 
REMARK   10  A    between atoms: C13_20  and  C14_21 
REMARK   11  A    between atoms: C14_21  and  C15_22 
REMARK   12  A    between atoms: C15_22  and  N3_23 
REMARK   13  A    between atoms: C16_27  and  N4_28 
REMARK   14  A    between atoms: N4_28  and  C18_30 
REMARK   15  A    between atoms: C18_30  and  C19_31 
REMARK   16  A    between atoms: C19_31  and  C20_32 
REMARK   17  A    between atoms: C20_32  and  N5_33 
ROOT
HETATM    1  C5  UNL     1      17.963  31.167  14.804  1.00  0.00    -0.015 C 
ENDROOT
BRANCH   1   2
HETATM    2  C4  UNL     1      18.771  31.222  16.009  1.00  0.00     0.115 C 
BRANCH   2   3
HETATM    3  C3  UNL     1      19.985  31.870  16.367  1.00  0.00     0.161 A 
HETATM    4  N1  UNL     1      20.369  33.155  16.029  1.00  0.00    -0.321 N 
HETATM    5  C2  UNL     1      21.561  33.363  16.605  1.00  0.00     0.144 A 
ATOM      6  H1  UNL     1      19.846  33.815  15.454  1.00  0.00     0.169 HD
HETATM    7  C1  UNL     1      22.372  34.610  16.521  1.00  0.00     0.100 C 
HETATM    8  O4  UNL     1      21.924  32.311  17.260  1.00  0.00    -0.223 OA
HETATM    9  N6  UNL     1      20.996  31.449  17.111  1.00  0.00    -0.241 N 
ATOM     10  H6  UNL     1      21.029  30.519  17.529  1.00  0.00     0.196 HD
ENDBRANCH   2   3
BRANCH   2  11
HETATM   11  O1  UNL     1      18.249  30.510  16.986  1.00  0.00    -0.357 OA
ATOM     12  H1  UNL     1      18.749  30.549  17.793  1.00  0.00     0.218 HD
ENDBRANCH   2  11
ENDBRANCH   1   2
BRANCH   1  13
HETATM   13  C6  UNL     1      16.896  32.158  14.552  1.00  0.00     0.039 C 
BRANCH  13  14
HETATM   14  C7  UNL     1      17.073  33.579  14.998  1.00  0.00     0.011 C 
BRANCH  14  15
HETATM   15  C8  UNL     1      15.867  33.983  15.810  1.00  0.00     0.009 C 
HETATM   16  C9  UNL     1      15.517  32.966  16.905  1.00  0.00     0.009 C 
HETATM   17  C10 UNL     1      15.087  34.157  17.734  1.00  0.00     0.026 C 
HETATM   18  C11 UNL     1      16.125  34.966  16.932  1.00  0.00     0.088 C 
BRANCH  18  19
HETATM   19  N2  UNL     1      17.388  34.842  17.622  1.00  0.00    -0.356 N 
HETATM   20  C12 UNL     1      18.190  35.977  17.888  1.00  0.00     0.217 C 
HETATM   21  O2  UNL     1      17.758  37.103  17.494  1.00  0.00    -0.274 OA
ATOM     22  H2  UNL     1      17.706  33.921  17.923  1.00  0.00     0.162 HD
BRANCH  20  23
HETATM   23  C13 UNL     1      19.479  35.960  18.581  1.00  0.00     0.104 C 
BRANCH  23  24
HETATM   24  C14 UNL     1      19.987  37.362  18.870  1.00  0.00     0.036 C 
BRANCH  24  25
HETATM   25  C15 UNL     1      21.148  37.722  17.976  1.00  0.00     0.230 C 
BRANCH  25  26
HETATM   26  N3  UNL     1      20.592  38.163  16.710  1.00  0.00    -0.079 N 
ATOM     27  H33 UNL     1      21.290  38.236  15.970  1.00  0.00     0.274 HD
ATOM     28  H32 UNL     1      20.002  37.460  16.265  1.00  0.00     0.274 HD
ATOM     29  H31 UNL     1      20.103  39.041  16.885  1.00  0.00     0.274 HD
ENDBRANCH  25  26
ENDBRANCH  24  25
ENDBRANCH  23  24
ENDBRANCH  20  23
ENDBRANCH  18  19
ENDBRANCH  14  15
ENDBRANCH  13  14
ENDBRANCH   1  13
BRANCH   1  30
HETATM   30  C16 UNL     1      17.830  29.816  14.202  1.00  0.00     0.309 C 
BRANCH  30  31
HETATM   31  N4  UNL     1      18.260  29.577  12.842  1.00  0.00     0.088 N 
HETATM   32  C17 UNL     1      16.961  29.300  12.168  1.00  0.00     0.310 C 
BRANCH  31  33
HETATM   33  C18 UNL     1      19.124  28.480  12.764  1.00  0.00     0.283 C 
BRANCH  33  34
HETATM   34  C19 UNL     1      20.494  28.571  12.167  1.00  0.00     0.002 C 
HETATM   35  C26 UNL     1      21.413  27.976  13.248  1.00  0.00     0.013 C 
HETATM   36  C27 UNL     1      21.521  28.841  14.481  1.00  0.00     0.001 C 
HETATM   37  C28 UNL     1      22.177  30.127  14.008  1.00  0.00     0.000 C 
HETATM   38  C29 UNL     1      21.182  30.799  13.102  1.00  0.00     0.001 C 
HETATM   39  C30 UNL     1      20.897  29.984  11.862  1.00  0.00     0.013 C 
BRANCH  34  40
HETATM   40  C20 UNL     1      20.646  27.704  10.976  1.00  0.00     0.137 C 
BRANCH  40  41
HETATM   41  N5  UNL     1      19.478  27.049  10.451  1.00  0.00    -0.351 N 
HETATM   42  C21 UNL     1      18.554  27.650   9.475  1.00  0.00     0.126 C 
HETATM   43  C22 UNL     1      18.265  26.518   8.491  1.00  0.00     0.020 C 
HETATM   44  C23 UNL     1      17.307  25.566   9.148  1.00  0.00     0.011 C 
HETATM   45  C24 UNL     1      17.756  25.229  10.539  1.00  0.00     0.103 C 
HETATM   46  C25 UNL     1      19.124  25.721  10.816  1.00  0.00     0.219 C 
HETATM   47  O3  UNL     1      19.942  24.961  11.365  1.00  0.00    -0.273 OA
ENDBRANCH  40  41
ENDBRANCH  34  40
ENDBRANCH  33  34
ENDBRANCH  31  33
ENDBRANCH  30  31
ENDBRANCH   1  30
TORSDOF 17
ENDMDL
MODEL 4
REMARK VINA RESULT: -8.356428117      2.289      9.747
REMARK  17 active torsions:
REMARK  status: ('A' for Active; 'I' for Inactive)
REMARK    1  A    between atoms: C3_5  and  C4_6 
REMARK    2  A    between atoms: C4_6  and  O1_7 
REMARK    3  A    between atoms: C4_6  and  C5_9 
REMARK    4  A    between atoms: C5_9  and  C6_10 
REMARK    5  A    between atoms: C5_9  and  C16_27 
REMARK    6  A    between atoms: C6_10  and  C7_11 
REMARK    7  A    between atoms: C7_11  and  C8_12 
REMARK    8  A    between atoms: C11_15  and  N2_16 
REMARK       I    between atoms: N2_16  and  C12_18 
REMARK    9  A    between atoms: C12_18  and  C13_20 
REMARK   10  A    between atoms: C13_20  and  C14_21 
REMARK   11  A    between atoms: C14_21  and  C15_22 
REMARK   12  A    between atoms: C15_22  and  N3_23 
REMARK   13  A    between atoms: C16_27  and  N4_28 
REMARK   14  A    between atoms: N4_28  and  C18_30 
REMARK   15  A    between atoms: C18_30  and  C19_31 
REMARK   16  A    between atoms: C19_31  and  C20_32 
REMARK   17  A    between atoms: C20_32  and  N5_33 
ROOT
HETATM    1  C5  UNL     1      21.145  29.820  13.596  1.00  0.00    -0.015 C 
ENDROOT
BRANCH   1   2
HETATM    2  C4  UNL     1      22.252  28.882  13.530  1.00  0.00     0.115 C 
BRANCH   2   3
HETATM    3  C3  UNL     1      22.580  27.786  12.685  1.00  0.00     0.161 A 
HETATM    4  N1  UNL     1      23.822  27.492  12.153  1.00  0.00    -0.321 N 
HETATM    5  C2  UNL     1      23.682  26.358  11.454  1.00  0.00     0.144 A 
ATOM      6  H1  UNL     1      24.679  28.034  12.271  1.00  0.00     0.169 HD
HETATM    7  C1  UNL     1      24.755  25.652  10.699  1.00  0.00     0.100 C 
HETATM    8  O4  UNL     1      22.460  25.947  11.521  1.00  0.00    -0.223 OA
HETATM    9  N6  UNL     1      21.830  26.789  12.242  1.00  0.00    -0.241 N 
ATOM     10  H6  UNL     1      20.836  26.703  12.458  1.00  0.00     0.196 HD
ENDBRANCH   2   3
BRANCH   2  11
HETATM   11  O1  UNL     1      23.150  29.111  14.465  1.00  0.00    -0.357 OA
ATOM     12  H1  UNL     1      23.285  28.373  15.049  1.00  0.00     0.218 HD
ENDBRANCH   2  11
ENDBRANCH   1   2
BRANCH   1  13
HETATM   13  C6  UNL     1      20.472  30.297  12.370  1.00  0.00     0.039 C 
BRANCH  13  14
HETATM   14  C7  UNL     1      19.293  29.547  11.823  1.00  0.00     0.011 C 
BRANCH  14  15
HETATM   15  C8  UNL     1      18.764  28.630  12.898  1.00  0.00     0.009 C 
HETATM   16  C9  UNL     1      17.237  28.690  13.037  1.00  0.00     0.009 C 
HETATM   17  C10 UNL     1      17.308  27.215  13.370  1.00  0.00     0.026 C 
HETATM   18  C11 UNL     1      18.580  27.182  12.498  1.00  0.00     0.088 C 
BRANCH  18  19
HETATM   19  N2  UNL     1      18.158  26.934  11.139  1.00  0.00    -0.356 N 
HETATM   20  C12 UNL     1      18.632  25.812  10.419  1.00  0.00     0.217 C 
HETATM   21  O2  UNL     1      19.441  25.036  11.014  1.00  0.00    -0.274 OA
ATOM     22  H2  UNL     1      17.508  27.580  10.691  1.00  0.00     0.162 HD
BRANCH  20  23
HETATM   23  C13 UNL     1      18.265  25.471   9.044  1.00  0.00     0.104 C 
BRANCH  23  24
HETATM   24  C14 UNL     1      17.785  26.683   8.265  1.00  0.00     0.036 C 
BRANCH  24  25
HETATM   25  C15 UNL     1      18.200  26.607   6.818  1.00  0.00     0.230 C 
BRANCH  25  26
HETATM   26  N3  UNL     1      18.286  27.970   6.325  1.00  0.00    -0.079 N 
ATOM     27  H33 UNL     1      19.201  28.394   6.478  1.00  0.00     0.274 HD
ATOM     28  H32 UNL     1      18.284  28.027   5.306  1.00  0.00     0.274 HD
ATOM     29  H31 UNL     1      17.524  28.494   6.755  1.00  0.00     0.274 HD
ENDBRANCH  25  26
ENDBRANCH  24  25
ENDBRANCH  23  24
ENDBRANCH  20  23
ENDBRANCH  18  19
ENDBRANCH  14  15
ENDBRANCH  13  14
ENDBRANCH   1  13
BRANCH   1  30
HETATM   30  C16 UNL     1      21.144  30.702  14.791  1.00  0.00     0.309 C 
BRANCH  30  31
HETATM   31  N4  UNL     1      20.740  32.085  14.677  1.00  0.00     0.088 N 
HETATM   32  C17 UNL     1      22.049  32.756  14.448  1.00  0.00     0.310 C 
BRANCH  31  33
HETATM   33  C18 UNL     1      20.128  32.538  15.850  1.00  0.00     0.283 C 
BRANCH  33  34
HETATM   34  C19 UNL     1      18.824  33.273  15.851  1.00  0.00     0.002 C 
HETATM   35  C26 UNL     1      17.907  32.407  16.732  1.00  0.00     0.013 C 
HETATM   36  C27 UNL     1      17.551  31.083  16.101  1.00  0.00     0.001 C 
HETATM   37  C28 UNL     1      16.755  31.436  14.856  1.00  0.00     0.000 C 
HETATM   38  C29 UNL     1      17.718  32.110  13.918  1.00  0.00     0.001 C 
HETATM   39  C30 UNL     1      18.241  33.414  14.475  1.00  0.00     0.013 C 
BRANCH  34  40
HETATM   40  C20 UNL     1      18.921  34.588  16.525  1.00  0.00     0.137 C 
BRANCH  40  41
HETATM   41  N5  UNL     1      17.713  35.202  17.008  1.00  0.00    -0.351 N 
HETATM   42  C21 UNL     1      16.574  35.581  16.157  1.00  0.00     0.126 C 
HETATM   43  C22 UNL     1      15.349  35.141  16.957  1.00  0.00     0.020 C 
HETATM   44  C23 UNL     1      15.139  36.133  18.066  1.00  0.00     0.011 C 
HETATM   45  C24 UNL     1      16.424  36.409  18.788  1.00  0.00     0.103 C 
HETATM   46  C25 UNL     1      17.499  35.473  18.387  1.00  0.00     0.219 C 
HETATM   47  O3  UNL     1      18.197  34.940  19.269  1.00  0.00    -0.273 OA
ENDBRANCH  40  41
ENDBRANCH  34  40
ENDBRANCH  33  34
ENDBRANCH  31  33
ENDBRANCH  30  31
ENDBRANCH   1  30
TORSDOF 17
ENDMDL
MODEL 5
REMARK VINA RESULT: -8.345453469      1.834      8.599
REMARK  17 active torsions:
REMARK  status: ('A' for Active; 'I' for Inactive)
REMARK    1  A    between atoms: C3_5  and  C4_6 
REMARK    2  A    between atoms: C4_6  and  O1_7 
REMARK    3  A    between atoms: C4_6  and  C5_9 
REMARK    4  A    between atoms: C5_9  and  C6_10 
REMARK    5  A    between atoms: C5_9  and  C16_27 
REMARK    6  A    between atoms: C6_10  and  C7_11 
REMARK    7  A    between atoms: C7_11  and  C8_12 
REMARK    8  A    between atoms: C11_15  and  N2_16 
REMARK       I    between atoms: N2_16  and  C12_18 
REMARK    9  A    between atoms: C12_18  and  C13_20 
REMARK   10  A    between atoms: C13_20  and  C14_21 
REMARK   11  A    between atoms: C14_21  and  C15_22 
REMARK   12  A    between atoms: C15_22  and  N3_23 
REMARK   13  A    between atoms: C16_27  and  N4_28 
REMARK   14  A    between atoms: N4_28  and  C18_30 
REMARK   15  A    between atoms: C18_30  and  C19_31 
REMARK   16  A    between atoms: C19_31  and  C20_32 
REMARK   17  A    between atoms: C20_32  and  N5_33 
ROOT
HETATM    1  C5  UNL     1      17.369  32.026  15.156  1.00  0.00    -0.015 C 
ENDROOT
BRANCH   1   2
HETATM    2  C4  UNL     1      18.516  31.528  15.894  1.00  0.00     0.115 C 
BRANCH   2   3
HETATM    3  C3  UNL     1      19.907  31.827  15.894  1.00  0.00     0.161 A 
HETATM    4  N1  UNL     1      20.627  32.420  14.874  1.00  0.00    -0.321 N 
HETATM    5  C2  UNL     1      21.887  32.543  15.315  1.00  0.00     0.144 A 
ATOM      6  H1  UNL     1      20.269  32.708  13.964  1.00  0.00     0.169 HD
HETATM    7  C1  UNL     1      23.029  33.129  14.559  1.00  0.00     0.100 C 
HETATM    8  O4  UNL     1      21.982  32.074  16.514  1.00  0.00    -0.223 OA
HETATM    9  N6  UNL     1      20.820  31.660  16.838  1.00  0.00    -0.241 N 
ATOM     10  H6  UNL     1      20.613  31.237  17.744  1.00  0.00     0.196 HD
ENDBRANCH   2   3
BRANCH   2  11
HETATM   11  O1  UNL     1      18.180  30.593  16.758  1.00  0.00    -0.357 OA
ATOM     12  H1  UNL     1      18.554  29.742  16.560  1.00  0.00     0.218 HD
ENDBRANCH   2  11
ENDBRANCH   1   2
BRANCH   1  13
HETATM   13  C6  UNL     1      16.979  31.436  13.858  1.00  0.00     0.039 C 
BRANCH  13  14
HETATM   14  C7  UNL     1      17.906  30.485  13.159  1.00  0.00     0.011 C 
BRANCH  14  15
HETATM   15  C8  UNL     1      17.386  29.081  13.345  1.00  0.00     0.009 C 
HETATM   16  C9  UNL     1      17.355  28.277  12.037  1.00  0.00     0.009 C 
HETATM   17  C10 UNL     1      17.696  27.072  12.887  1.00  0.00     0.026 C 
HETATM   18  C11 UNL     1      18.392  28.064  13.840  1.00  0.00     0.088 C 
BRANCH  18  19
HETATM   19  N2  UNL     1      19.751  28.220  13.376  1.00  0.00    -0.356 N 
HETATM   20  C12 UNL     1      20.791  28.579  14.265  1.00  0.00     0.217 C 
HETATM   21  O2  UNL     1      20.482  28.760  15.482  1.00  0.00    -0.274 OA
ATOM     22  H2  UNL     1      19.964  28.068  12.390  1.00  0.00     0.162 HD
BRANCH  20  23
HETATM   23  C13 UNL     1      22.196  28.758  13.898  1.00  0.00     0.104 C 
BRANCH  23  24
HETATM   24  C14 UNL     1      22.423  28.574  12.407  1.00  0.00     0.036 C 
BRANCH  24  25
HETATM   25  C15 UNL     1      23.202  27.314  12.121  1.00  0.00     0.230 C 
BRANCH  25  26
HETATM   26  N3  UNL     1      22.243  26.300  11.720  1.00  0.00    -0.079 N 
ATOM     27  H33 UNL     1      21.704  25.927  12.502  1.00  0.00     0.274 HD
ATOM     28  H32 UNL     1      21.459  26.679  11.189  1.00  0.00     0.274 HD
ATOM     29  H31 UNL     1      22.759  25.582  11.212  1.00  0.00     0.274 HD
ENDBRANCH  25  26
ENDBRANCH  24  25
ENDBRANCH  23  24
ENDBRANCH  20  23
ENDBRANCH  18  19
ENDBRANCH  14  15
ENDBRANCH  13  14
ENDBRANCH   1  13
BRANCH   1  30
HETATM   30  C16 UNL     1      17.027  33.448  15.417  1.00  0.00     0.309 C 
BRANCH  30  31
HETATM   31  N4  UNL     1      16.852  33.919  16.773  1.00  0.00     0.088 N 
HETATM   32  C17 UNL     1      15.512  33.361  17.106  1.00  0.00     0.310 C 
BRANCH  31  33
HETATM   33  C18 UNL     1      16.857  35.316  16.833  1.00  0.00     0.283 C 
BRANCH  33  34
HETATM   34  C19 UNL     1      17.360  36.072  18.024  1.00  0.00     0.002 C 
HETATM   35  C26 UNL     1      16.135  36.169  18.949  1.00  0.00     0.013 C 
HETATM   36  C27 UNL     1      15.048  37.067  18.408  1.00  0.00     0.001 C 
HETATM   37  C28 UNL     1      15.667  38.453  18.356  1.00  0.00     0.000 C 
HETATM   38  C29 UNL     1      16.738  38.396  17.301  1.00  0.00     0.001 C 
HETATM   39  C30 UNL     1      17.853  37.445  17.668  1.00  0.00     0.013 C 
BRANCH  34  40
HETATM   40  C20 UNL     1      18.386  35.316  18.777  1.00  0.00     0.137 C 
BRANCH  40  41
HETATM   41  N5  UNL     1      19.753  35.389  18.337  1.00  0.00    -0.351 N 
HETATM   42  C21 UNL     1      20.190  35.205  16.943  1.00  0.00     0.126 C 
HETATM   43  C22 UNL     1      21.230  36.304  16.732  1.00  0.00     0.020 C 
HETATM   44  C23 UNL     1      22.497  35.882  17.421  1.00  0.00     0.011 C 
HETATM   45  C24 UNL     1      22.215  35.400  18.813  1.00  0.00     0.103 C 
HETATM   46  C25 UNL     1      20.822  35.683  19.227  1.00  0.00     0.219 C 
HETATM   47  O3  UNL     1      20.612  36.174  20.351  1.00  0.00    -0.273 OA
ENDBRANCH  40  41
ENDBRANCH  34  40
ENDBRANCH  33  34
ENDBRANCH  31  33
ENDBRANCH  30  31
ENDBRANCH   1  30
TORSDOF 17
ENDMDL
