MODEL 1
REMARK VINA RESULT: -8.918484182      0.000      0.000
REMARK  15 active torsions:
REMARK  status: ('A' for Active; 'I' for Inactive)
REMARK    1  A    between atoms: O1_2  and  C2_3 
REMARK    2  A    between atoms: C2_3  and  C5_6 
REMARK       I    between atoms: C5_6  and  N1_8 
REMARK    3  A    between atoms: N1_8  and  C6_10 
REMARK    4  A    between atoms: C6_10  and  C7_11 
REMARK    5  A    between atoms: C6_10  and  C14_19 
REMARK    6  A    between atoms: C7_11  and  O3_12 
REMARK    7  A    between atoms: O3_12  and  C8_13 
REMARK       I    between atoms: C14_19  and  N2_21 
REMARK    8  A    between atoms: N2_21  and  C15_23 
REMARK    9  A    between atoms: C15_23  and  C16_24 
REMARK   10  A    between atoms: C15_23  and  C28_42 
REMARK       I    between atoms: C16_24  and  N3_26 
REMARK   11  A    between atoms: C20_30  and  C21_31 
REMARK       I    between atoms: C21_31  and  N4_33 
REMARK   12  A    between atoms: N4_33  and  C22_35 
REMARK   13  A    between atoms: C22_35  and  C23_36 
REMARK   14  A    between atoms: C22_35  and  C24_38 
REMARK   15  A    between atoms: C24_38  and  C25_39 
ROOT
HETATM    1  C14 UNL     1      -4.091  -0.176 -13.056  1.00  0.00     0.243 C 
HETATM    2  O4  UNL     1      -4.491   0.564 -14.006  1.00  0.00    -0.271 OA
HETATM    3  N2  UNL     1      -3.892  -1.516 -13.336  1.00  0.00    -0.346 N 
ATOM      4  H2  UNL     1      -3.575  -2.131 -12.587  1.00  0.00     0.163 HD
ENDROOT
BRANCH   3   5
HETATM    5  C15 UNL     1      -4.122  -2.092 -14.683  1.00  0.00     0.180 C 
BRANCH   5   6
HETATM    6  C16 UNL     1      -5.194  -3.084 -14.478  1.00  0.00     0.243 C 
HETATM    7  O5  UNL     1      -5.076  -3.930 -13.556  1.00  0.00    -0.271 OA
HETATM    8  N3  UNL     1      -6.368  -3.133 -15.271  1.00  0.00    -0.337 N 
HETATM    9  C17 UNL     1      -6.804  -2.311 -16.390  1.00  0.00     0.127 C 
HETATM   10  C20 UNL     1      -7.463  -4.082 -15.100  1.00  0.00     0.179 C 
HETATM   11  C18 UNL     1      -8.295  -2.183 -16.245  1.00  0.00     0.022 C 
HETATM   12  C19 UNL     1      -8.681  -3.242 -15.242  1.00  0.00     0.037 C 
BRANCH  10  13
HETATM   13  C21 UNL     1      -7.382  -5.213 -16.079  1.00  0.00     0.241 C 
HETATM   14  O6  UNL     1      -6.247  -5.552 -16.444  1.00  0.00    -0.271 OA
HETATM   15  N4  UNL     1      -8.536  -5.854 -16.555  1.00  0.00    -0.348 N 
ATOM     16  H4  UNL     1      -9.421  -5.506 -16.188  1.00  0.00     0.163 HD
BRANCH  15  17
HETATM   17  C22 UNL     1      -8.627  -6.921 -17.479  1.00  0.00     0.146 C 
BRANCH  17  18
HETATM   18  C23 UNL     1      -9.710  -6.709 -18.472  1.00  0.00     0.256 C 
HETATM   19  O7  UNL     1      -9.994  -5.559 -18.760  1.00  0.00    -0.305 OA
ENDBRANCH  17  18
BRANCH  17  20
HETATM   20  C24 UNL     1      -8.652  -8.320 -16.883  1.00  0.00     0.036 C 
BRANCH  20  21
HETATM   21  C25 UNL     1      -7.896  -9.293 -17.745  1.00  0.00    -0.020 C 
HETATM   22  C26 UNL     1      -6.483  -8.757 -17.988  1.00  0.00     0.009 C 
HETATM   23  C27 UNL     1      -7.782 -10.638 -17.013  1.00  0.00     0.009 C 
ENDBRANCH  20  21
ENDBRANCH  17  20
ENDBRANCH  15  17
ENDBRANCH  10  13
ENDBRANCH   5   6
BRANCH   5  24
HETATM   24  C28 UNL     1      -2.841  -2.621 -15.216  1.00  0.00     0.009 C 
HETATM   25  C29 UNL     1      -3.129  -3.468 -16.471  1.00  0.00     0.012 C 
HETATM   26  C30 UNL     1      -2.034  -3.501 -14.317  1.00  0.00     0.012 C 
ENDBRANCH   5  24
ENDBRANCH   3   5
BRANCH   1  27
HETATM   27  C6  UNL     1      -3.889   0.492 -11.759  1.00  0.00     0.200 C 
BRANCH  27  28
HETATM   28  N1  UNL     1      -2.840   1.529 -11.894  1.00  0.00    -0.343 N 
HETATM   29  C5  UNL     1      -1.870   1.652 -10.896  1.00  0.00     0.252 C 
HETATM   30  O2  UNL     1      -1.877   0.888  -9.908  1.00  0.00    -0.270 OA
ATOM     31  H1  UNL     1      -2.826   2.145 -12.706  1.00  0.00     0.163 HD
BRANCH  29  32
HETATM   32  C2  UNL     1      -0.791   2.686 -10.962  1.00  0.00     0.133 C 
HETATM   33  C3  UNL     1       0.064   2.202 -12.166  1.00  0.00     0.056 C 
HETATM   34  C4  UNL     1       0.086   2.641  -9.747  1.00  0.00     0.056 C 
BRANCH  32  35
HETATM   35  O1  UNL     1      -1.312   3.927 -11.240  1.00  0.00    -0.376 OA
HETATM   36  C1  UNL     1      -2.063   4.426 -10.209  1.00  0.00     0.203 C 
ENDBRANCH  32  35
ENDBRANCH  29  32
ENDBRANCH  27  28
BRANCH  27  37
HETATM   37  C7  UNL     1      -5.082   1.200 -11.223  1.00  0.00     0.202 C 
BRANCH  37  38
HETATM   38  O3  UNL     1      -6.135   0.422 -10.836  1.00  0.00    -0.383 OA
BRANCH  38  39
HETATM   39  C8  UNL     1      -7.376   1.001 -11.083  1.00  0.00     0.121 C 
HETATM   40  C9  UNL     1      -7.274   2.042 -12.148  1.00  0.00     0.032 C 
HETATM   41  C10 UNL     1      -7.805   1.657 -13.481  1.00  0.00     0.002 C 
HETATM   42  C11 UNL     1      -7.870   0.233 -13.836  1.00  0.00     0.000 C 
HETATM   43  C12 UNL     1      -7.615  -0.744 -12.716  1.00  0.00     0.002 C 
HETATM   44  C13 UNL     1      -8.289  -0.151 -11.495  1.00  0.00     0.032 C 
ENDBRANCH  38  39
ENDBRANCH  37  38
ENDBRANCH  27  37
ENDBRANCH   1  27
TORSDOF 15
ENDMDL
MODEL 2
REMARK VINA RESULT: -8.588062184      1.516      1.995
REMARK  15 active torsions:
REMARK  status: ('A' for Active; 'I' for Inactive)
REMARK    1  A    between atoms: O1_2  and  C2_3 
REMARK    2  A    between atoms: C2_3  and  C5_6 
REMARK       I    between atoms: C5_6  and  N1_8 
REMARK    3  A    between atoms: N1_8  and  C6_10 
REMARK    4  A    between atoms: C6_10  and  C7_11 
REMARK    5  A    between atoms: C6_10  and  C14_19 
REMARK    6  A    between atoms: C7_11  and  O3_12 
REMARK    7  A    between atoms: O3_12  and  C8_13 
REMARK       I    between atoms: C14_19  and  N2_21 
REMARK    8  A    between atoms: N2_21  and  C15_23 
REMARK    9  A    between atoms: C15_23  and  C16_24 
REMARK   10  A    between atoms: C15_23  and  C28_42 
REMARK       I    between atoms: C16_24  and  N3_26 
REMARK   11  A    between atoms: C20_30  and  C21_31 
REMARK       I    between atoms: C21_31  and  N4_33 
REMARK   12  A    between atoms: N4_33  and  C22_35 
REMARK   13  A    between atoms: C22_35  and  C23_36 
REMARK   14  A    between atoms: C22_35  and  C24_38 
REMARK   15  A    between atoms: C24_38  and  C25_39 
ROOT
HETATM    1  C14 UNL     1      -3.798  -0.616 -13.250  1.00  0.00     0.243 C 
HETATM    2  O4  UNL     1      -3.743   0.236 -14.189  1.00  0.00    -0.271 OA
HETATM    3  N2  UNL     1      -3.981  -1.939 -13.604  1.00  0.00    -0.346 N 
ATOM      4  H2  UNL     1      -4.033  -2.642 -12.866  1.00  0.00     0.163 HD
ENDROOT
BRANCH   3   5
HETATM    5  C15 UNL     1      -4.104  -2.378 -15.016  1.00  0.00     0.180 C 
BRANCH   5   6
HETATM    6  C16 UNL     1      -5.149  -3.418 -14.985  1.00  0.00     0.243 C 
HETATM    7  O5  UNL     1      -4.954  -4.463 -14.313  1.00  0.00    -0.271 OA
HETATM    8  N3  UNL     1      -6.381  -3.302 -15.677  1.00  0.00    -0.337 N 
HETATM    9  C17 UNL     1      -6.910  -2.242 -16.521  1.00  0.00     0.127 C 
HETATM   10  C20 UNL     1      -7.453  -4.292 -15.666  1.00  0.00     0.179 C 
HETATM   11  C18 UNL     1      -8.386  -2.193 -16.240  1.00  0.00     0.022 C 
HETATM   12  C19 UNL     1      -8.685  -3.477 -15.505  1.00  0.00     0.037 C 
BRANCH  10  13
HETATM   13  C21 UNL     1      -7.440  -5.144 -16.898  1.00  0.00     0.241 C 
HETATM   14  O6  UNL     1      -8.522  -5.288 -17.487  1.00  0.00    -0.271 OA
HETATM   15  N4  UNL     1      -6.260  -5.747 -17.360  1.00  0.00    -0.348 N 
ATOM     16  H4  UNL     1      -5.421  -5.562 -16.810  1.00  0.00     0.163 HD
BRANCH  15  17
HETATM   17  C22 UNL     1      -6.085  -6.579 -18.490  1.00  0.00     0.146 C 
BRANCH  17  18
HETATM   18  C23 UNL     1      -6.367  -8.004 -18.185  1.00  0.00     0.256 C 
HETATM   19  O7  UNL     1      -7.510  -8.399 -18.343  1.00  0.00    -0.305 OA
ENDBRANCH  17  18
BRANCH  17  20
HETATM   20  C24 UNL     1      -4.785  -6.397 -19.259  1.00  0.00     0.036 C 
BRANCH  20  21
HETATM   21  C25 UNL     1      -3.800  -7.485 -18.928  1.00  0.00    -0.020 C 
HETATM   22  C26 UNL     1      -2.801  -7.625 -20.079  1.00  0.00     0.009 C 
HETATM   23  C27 UNL     1      -3.025  -7.100 -17.661  1.00  0.00     0.009 C 
ENDBRANCH  20  21
ENDBRANCH  17  20
ENDBRANCH  15  17
ENDBRANCH  10  13
ENDBRANCH   5   6
BRANCH   5  24
HETATM   24  C28 UNL     1      -2.775  -2.809 -15.514  1.00  0.00     0.009 C 
HETATM   25  C29 UNL     1      -2.956  -3.565 -16.846  1.00  0.00     0.012 C 
HETATM   26  C30 UNL     1      -1.976  -3.723 -14.642  1.00  0.00     0.012 C 
ENDBRANCH   5  24
ENDBRANCH   3   5
BRANCH   1  27
HETATM   27  C6  UNL     1      -3.661  -0.080 -11.885  1.00  0.00     0.200 C 
BRANCH  27  28
HETATM   28  N1  UNL     1      -2.864   1.168 -11.920  1.00  0.00    -0.343 N 
HETATM   29  C5  UNL     1      -2.029   1.476 -10.843  1.00  0.00     0.252 C 
HETATM   30  O2  UNL     1      -1.943   0.700  -9.867  1.00  0.00    -0.270 OA
ATOM     31  H1  UNL     1      -2.924   1.796 -12.721  1.00  0.00     0.163 HD
BRANCH  29  32
HETATM   32  C2  UNL     1      -1.208   2.724 -10.807  1.00  0.00     0.133 C 
HETATM   33  C3  UNL     1      -0.091   2.422 -11.844  1.00  0.00     0.056 C 
HETATM   34  C4  UNL     1      -0.542   2.905  -9.476  1.00  0.00     0.056 C 
BRANCH  32  35
HETATM   35  O1  UNL     1      -1.940   3.810 -11.227  1.00  0.00    -0.376 OA
HETATM   36  C1  UNL     1      -2.709   4.345 -10.228  1.00  0.00     0.203 C 
ENDBRANCH  32  35
ENDBRANCH  29  32
ENDBRANCH  27  28
BRANCH  27  37
HETATM   37  C7  UNL     1      -4.940   0.283 -11.219  1.00  0.00     0.202 C 
BRANCH  37  38
HETATM   38  O3  UNL     1      -6.012  -0.527 -11.466  1.00  0.00    -0.383 OA
BRANCH  38  39
HETATM   39  C8  UNL     1      -7.239   0.096 -11.262  1.00  0.00     0.121 C 
HETATM   40  C9  UNL     1      -7.102   1.580 -11.346  1.00  0.00     0.032 C 
HETATM   41  C10 UNL     1      -7.614   2.206 -12.591  1.00  0.00     0.002 C 
HETATM   42  C11 UNL     1      -7.694   1.396 -13.814  1.00  0.00     0.000 C 
HETATM   43  C12 UNL     1      -7.473  -0.086 -13.645  1.00  0.00     0.002 C 
HETATM   44  C13 UNL     1      -8.162  -0.455 -12.346  1.00  0.00     0.032 C 
ENDBRANCH  38  39
ENDBRANCH  37  38
ENDBRANCH  27  37
ENDBRANCH   1  27
TORSDOF 15
ENDMDL
MODEL 3
REMARK VINA RESULT: -8.502523830      1.273      1.653
REMARK  15 active torsions:
REMARK  status: ('A' for Active; 'I' for Inactive)
REMARK    1  A    between atoms: O1_2  and  C2_3 
REMARK    2  A    between atoms: C2_3  and  C5_6 
REMARK       I    between atoms: C5_6  and  N1_8 
REMARK    3  A    between atoms: N1_8  and  C6_10 
REMARK    4  A    between atoms: C6_10  and  C7_11 
REMARK    5  A    between atoms: C6_10  and  C14_19 
REMARK    6  A    between atoms: C7_11  and  O3_12 
REMARK    7  A    between atoms: O3_12  and  C8_13 
REMARK       I    between atoms: C14_19  and  N2_21 
REMARK    8  A    between atoms: N2_21  and  C15_23 
REMARK    9  A    between atoms: C15_23  and  C16_24 
REMARK   10  A    between atoms: C15_23  and  C28_42 
REMARK       I    between atoms: C16_24  and  N3_26 
REMARK   11  A    between atoms: C20_30  and  C21_31 
REMARK       I    between atoms: C21_31  and  N4_33 
REMARK   12  A    between atoms: N4_33  and  C22_35 
REMARK   13  A    between atoms: C22_35  and  C23_36 
REMARK   14  A    between atoms: C22_35  and  C24_38 
REMARK   15  A    between atoms: C24_38  and  C25_39 
ROOT
HETATM    1  C14 UNL     1      -4.081  -0.472 -12.630  1.00  0.00     0.243 C 
HETATM    2  O4  UNL     1      -4.356   0.123 -13.717  1.00  0.00    -0.271 OA
HETATM    3  N2  UNL     1      -4.005  -1.852 -12.665  1.00  0.00    -0.346 N 
ATOM      4  H2  UNL     1      -3.790  -2.353 -11.802  1.00  0.00     0.163 HD
ENDROOT
BRANCH   3   5
HETATM    5  C15 UNL     1      -4.223  -2.634 -13.907  1.00  0.00     0.180 C 
BRANCH   5   6
HETATM    6  C16 UNL     1      -5.565  -3.221 -13.737  1.00  0.00     0.243 C 
HETATM    7  O5  UNL     1      -5.867  -3.753 -12.639  1.00  0.00    -0.271 OA
HETATM    8  N3  UNL     1      -6.550  -3.214 -14.758  1.00  0.00    -0.337 N 
HETATM    9  C17 UNL     1      -6.522  -2.684 -16.112  1.00  0.00     0.127 C 
HETATM   10  C20 UNL     1      -7.895  -3.766 -14.636  1.00  0.00     0.179 C 
HETATM   11  C18 UNL     1      -7.906  -2.154 -16.372  1.00  0.00     0.022 C 
HETATM   12  C19 UNL     1      -8.757  -2.733 -15.269  1.00  0.00     0.037 C 
BRANCH  10  13
HETATM   13  C21 UNL     1      -8.003  -5.121 -15.264  1.00  0.00     0.241 C 
HETATM   14  O6  UNL     1      -8.726  -5.946 -14.686  1.00  0.00    -0.271 OA
HETATM   15  N4  UNL     1      -7.318  -5.437 -16.447  1.00  0.00    -0.348 N 
ATOM     16  H4  UNL     1      -6.755  -4.688 -16.849  1.00  0.00     0.163 HD
BRANCH  15  17
HETATM   17  C22 UNL     1      -7.309  -6.663 -17.153  1.00  0.00     0.146 C 
BRANCH  17  18
HETATM   18  C23 UNL     1      -5.950  -7.021 -17.633  1.00  0.00     0.256 C 
HETATM   19  O7  UNL     1      -5.867  -7.622 -18.691  1.00  0.00    -0.305 OA
ENDBRANCH  17  18
BRANCH  17  20
HETATM   20  C24 UNL     1      -8.366  -6.817 -18.236  1.00  0.00     0.036 C 
BRANCH  20  21
HETATM   21  C25 UNL     1      -9.547  -7.603 -17.736  1.00  0.00    -0.020 C 
HETATM   22  C26 UNL     1     -10.762  -6.678 -17.641  1.00  0.00     0.009 C 
HETATM   23  C27 UNL     1      -9.871  -8.723 -18.735  1.00  0.00     0.009 C 
ENDBRANCH  20  21
ENDBRANCH  17  20
ENDBRANCH  15  17
ENDBRANCH  10  13
ENDBRANCH   5   6
BRANCH   5  24
HETATM   24  C28 UNL     1      -3.110  -3.599 -14.081  1.00  0.00     0.009 C 
HETATM   25  C29 UNL     1      -1.864  -2.844 -14.586  1.00  0.00     0.012 C 
HETATM   26  C30 UNL     1      -3.316  -4.720 -15.049  1.00  0.00     0.012 C 
ENDBRANCH   5  24
ENDBRANCH   3   5
BRANCH   1  27
HETATM   27  C6  UNL     1      -3.879   0.392 -11.456  1.00  0.00     0.200 C 
BRANCH  27  28
HETATM   28  N1  UNL     1      -2.799   1.366 -11.737  1.00  0.00    -0.343 N 
HETATM   29  C5  UNL     1      -1.844   1.631 -10.752  1.00  0.00     0.252 C 
HETATM   30  O2  UNL     1      -1.892   1.043  -9.651  1.00  0.00    -0.270 OA
ATOM     31  H1  UNL     1      -2.753   1.838 -12.640  1.00  0.00     0.163 HD
BRANCH  29  32
HETATM   32  C2  UNL     1      -0.736   2.612 -10.964  1.00  0.00     0.133 C 
HETATM   33  C3  UNL     1      -0.016   2.039 -12.216  1.00  0.00     0.056 C 
HETATM   34  C4  UNL     1       0.247   2.583  -9.833  1.00  0.00     0.056 C 
BRANCH  32  35
HETATM   35  O1  UNL     1      -1.231   3.862 -11.254  1.00  0.00    -0.376 OA
HETATM   36  C1  UNL     1      -1.954   4.395 -10.218  1.00  0.00     0.203 C 
ENDBRANCH  32  35
ENDBRANCH  29  32
ENDBRANCH  27  28
BRANCH  27  37
HETATM   37  C7  UNL     1      -5.058   1.208 -11.063  1.00  0.00     0.202 C 
BRANCH  37  38
HETATM   38  O3  UNL     1      -6.145   0.529 -10.591  1.00  0.00    -0.383 OA
BRANCH  38  39
HETATM   39  C8  UNL     1      -7.356   1.162 -10.856  1.00  0.00     0.121 C 
HETATM   40  C9  UNL     1      -7.209   2.144 -11.971  1.00  0.00     0.032 C 
HETATM   41  C10 UNL     1      -7.772   1.725 -13.280  1.00  0.00     0.002 C 
HETATM   42  C11 UNL     1      -7.917   0.291 -13.566  1.00  0.00     0.000 C 
HETATM   43  C12 UNL     1      -7.703  -0.643 -12.402  1.00  0.00     0.002 C 
HETATM   44  C13 UNL     1      -8.333   0.042 -11.206  1.00  0.00     0.032 C 
ENDBRANCH  38  39
ENDBRANCH  37  38
ENDBRANCH  27  37
ENDBRANCH   1  27
TORSDOF 15
ENDMDL
MODEL 4
REMARK VINA RESULT: -8.391404851      1.093      1.778
REMARK  15 active torsions:
REMARK  status: ('A' for Active; 'I' for Inactive)
REMARK    1  A    between atoms: O1_2  and  C2_3 
REMARK    2  A    between atoms: C2_3  and  C5_6 
REMARK       I    between atoms: C5_6  and  N1_8 
REMARK    3  A    between atoms: N1_8  and  C6_10 
REMARK    4  A    between atoms: C6_10  and  C7_11 
REMARK    5  A    between atoms: C6_10  and  C14_19 
REMARK    6  A    between atoms: C7_11  and  O3_12 
REMARK    7  A    between atoms: O3_12  and  C8_13 
REMARK       I    between atoms: C14_19  and  N2_21 
REMARK    8  A    between atoms: N2_21  and  C15_23 
REMARK    9  A    between atoms: C15_23  and  C16_24 
REMARK   10  A    between atoms: C15_23  and  C28_42 
REMARK       I    between atoms: C16_24  and  N3_26 
REMARK   11  A    between atoms: C20_30  and  C21_31 
REMARK       I    between atoms: C21_31  and  N4_33 
REMARK   12  A    between atoms: N4_33  and  C22_35 
REMARK   13  A    between atoms: C22_35  and  C23_36 
REMARK   14  A    between atoms: C22_35  and  C24_38 
REMARK   15  A    between atoms: C24_38  and  C25_39 
ROOT
HETATM    1  C14 UNL     1      -4.449  -0.409 -12.917  1.00  0.00     0.243 C 
HETATM    2  O4  UNL     1      -5.359   0.052 -13.673  1.00  0.00    -0.271 OA
HETATM    3  N2  UNL     1      -3.722  -1.488 -13.387  1.00  0.00    -0.346 N 
ATOM      4  H2  UNL     1      -2.989  -1.879 -12.795  1.00  0.00     0.163 HD
ENDROOT
BRANCH   3   5
HETATM    5  C15 UNL     1      -3.966  -2.097 -14.717  1.00  0.00     0.180 C 
BRANCH   5   6
HETATM    6  C16 UNL     1      -5.045  -3.074 -14.479  1.00  0.00     0.243 C 
HETATM    7  O5  UNL     1      -4.899  -3.941 -13.580  1.00  0.00    -0.271 OA
HETATM    8  N3  UNL     1      -6.257  -3.086 -15.215  1.00  0.00    -0.337 N 
HETATM    9  C17 UNL     1      -6.732  -2.235 -16.294  1.00  0.00     0.127 C 
HETATM   10  C20 UNL     1      -7.361  -4.019 -15.008  1.00  0.00     0.179 C 
HETATM   11  C18 UNL     1      -8.212  -2.083 -16.075  1.00  0.00     0.022 C 
HETATM   12  C19 UNL     1      -8.568  -3.155 -15.074  1.00  0.00     0.037 C 
BRANCH  10  13
HETATM   13  C21 UNL     1      -7.348  -5.131 -16.011  1.00  0.00     0.241 C 
HETATM   14  O6  UNL     1      -6.236  -5.508 -16.410  1.00  0.00    -0.271 OA
HETATM   15  N4  UNL     1      -8.537  -5.714 -16.474  1.00  0.00    -0.348 N 
ATOM     16  H4  UNL     1      -9.399  -5.339 -16.080  1.00  0.00     0.163 HD
BRANCH  15  17
HETATM   17  C22 UNL     1      -8.693  -6.757 -17.417  1.00  0.00     0.146 C 
BRANCH  17  18
HETATM   18  C23 UNL     1      -9.841  -6.520 -18.328  1.00  0.00     0.256 C 
HETATM   19  O7  UNL     1     -10.054  -5.372 -18.678  1.00  0.00    -0.305 OA
ENDBRANCH  17  18
BRANCH  17  20
HETATM   20  C24 UNL     1      -8.680  -8.171 -16.857  1.00  0.00     0.036 C 
BRANCH  20  21
HETATM   21  C25 UNL     1      -8.049  -9.134 -17.825  1.00  0.00    -0.020 C 
HETATM   22  C26 UNL     1      -6.578  -8.758 -18.022  1.00  0.00     0.009 C 
HETATM   23  C27 UNL     1      -8.109 -10.553 -17.242  1.00  0.00     0.009 C 
ENDBRANCH  20  21
ENDBRANCH  17  20
ENDBRANCH  15  17
ENDBRANCH  10  13
ENDBRANCH   5   6
BRANCH   5  24
HETATM   24  C28 UNL     1      -2.695  -2.651 -15.244  1.00  0.00     0.009 C 
HETATM   25  C29 UNL     1      -2.995  -3.500 -16.495  1.00  0.00     0.012 C 
HETATM   26  C30 UNL     1      -1.903  -3.539 -14.339  1.00  0.00     0.012 C 
ENDBRANCH   5  24
ENDBRANCH   3   5
BRANCH   1  27
HETATM   27  C6  UNL     1      -4.284   0.267 -11.620  1.00  0.00     0.200 C 
BRANCH  27  28
HETATM   28  N1  UNL     1      -3.326   1.387 -11.764  1.00  0.00    -0.343 N 
HETATM   29  C5  UNL     1      -2.260   1.494 -10.867  1.00  0.00     0.252 C 
HETATM   30  O2  UNL     1      -2.108   0.647  -9.962  1.00  0.00    -0.270 OA
ATOM     31  H1  UNL     1      -3.442   2.073 -12.510  1.00  0.00     0.163 HD
BRANCH  29  32
HETATM   32  C2  UNL     1      -1.264   2.607 -10.946  1.00  0.00     0.133 C 
HETATM   33  C3  UNL     1      -0.321   2.132 -12.086  1.00  0.00     0.056 C 
HETATM   34  C4  UNL     1      -0.442   2.697  -9.696  1.00  0.00     0.056 C 
BRANCH  32  35
HETATM   35  O1  UNL     1      -1.869   3.786 -11.314  1.00  0.00    -0.376 OA
HETATM   36  C1  UNL     1      -2.545   4.376 -10.279  1.00  0.00     0.203 C 
ENDBRANCH  32  35
ENDBRANCH  29  32
ENDBRANCH  27  28
BRANCH  27  37
HETATM   37  C7  UNL     1      -5.523   0.872 -11.062  1.00  0.00     0.202 C 
BRANCH  37  38
HETATM   38  O3  UNL     1      -5.788   2.164 -11.415  1.00  0.00    -0.383 OA
BRANCH  38  39
HETATM   39  C8  UNL     1      -7.138   2.493 -11.355  1.00  0.00     0.121 C 
HETATM   40  C9  UNL     1      -7.736   2.047 -10.061  1.00  0.00     0.032 C 
HETATM   41  C10 UNL     1      -7.996   3.119  -9.067  1.00  0.00     0.002 C 
HETATM   42  C11 UNL     1      -7.212   4.359  -9.136  1.00  0.00     0.000 C 
HETATM   43  C12 UNL     1      -6.365   4.542 -10.369  1.00  0.00     0.002 C 
HETATM   44  C13 UNL     1      -7.197   4.010 -11.519  1.00  0.00     0.032 C 
ENDBRANCH  38  39
ENDBRANCH  37  38
ENDBRANCH  27  37
ENDBRANCH   1  27
TORSDOF 15
ENDMDL
MODEL 5
REMARK VINA RESULT: -8.370969156      2.344      9.811
REMARK  15 active torsions:
REMARK  status: ('A' for Active; 'I' for Inactive)
REMARK    1  A    between atoms: O1_2  and  C2_3 
REMARK    2  A    between atoms: C2_3  and  C5_6 
REMARK       I    between atoms: C5_6  and  N1_8 
REMARK    3  A    between atoms: N1_8  and  C6_10 
REMARK    4  A    between atoms: C6_10  and  C7_11 
REMARK    5  A    between atoms: C6_10  and  C14_19 
REMARK    6  A    between atoms: C7_11  and  O3_12 
REMARK    7  A    between atoms: O3_12  and  C8_13 
REMARK       I    between atoms: C14_19  and  N2_21 
REMARK    8  A    between atoms: N2_21  and  C15_23 
REMARK    9  A    between atoms: C15_23  and  C16_24 
REMARK   10  A    between atoms: C15_23  and  C28_42 
REMARK       I    between atoms: C16_24  and  N3_26 
REMARK   11  A    between atoms: C20_30  and  C21_31 
REMARK       I    between atoms: C21_31  and  N4_33 
REMARK   12  A    between atoms: N4_33  and  C22_35 
REMARK   13  A    between atoms: C22_35  and  C23_36 
REMARK   14  A    between atoms: C22_35  and  C24_38 
REMARK   15  A    between atoms: C24_38  and  C25_39 
ROOT
HETATM    1  C14 UNL     1      -5.324  -5.587 -17.241  1.00  0.00     0.243 C 
HETATM    2  O4  UNL     1      -5.460  -6.192 -16.134  1.00  0.00    -0.271 OA
HETATM    3  N2  UNL     1      -4.675  -4.367 -17.221  1.00  0.00    -0.346 N 
ATOM      4  H2  UNL     1      -4.558  -3.859 -18.098  1.00  0.00     0.163 HD
ENDROOT
BRANCH   3   5
HETATM    5  C15 UNL     1      -4.141  -3.766 -15.973  1.00  0.00     0.180 C 
BRANCH   5   6
HETATM    6  C16 UNL     1      -4.816  -2.458 -15.880  1.00  0.00     0.243 C 
HETATM    7  O5  UNL     1      -4.932  -1.754 -16.915  1.00  0.00    -0.271 OA
HETATM    8  N3  UNL     1      -5.353  -1.947 -14.672  1.00  0.00    -0.337 N 
HETATM    9  C17 UNL     1      -5.389  -2.502 -13.328  1.00  0.00     0.127 C 
HETATM   10  C20 UNL     1      -6.042  -0.668 -14.529  1.00  0.00     0.179 C 
HETATM   11  C18 UNL     1      -6.709  -2.076 -12.746  1.00  0.00     0.022 C 
HETATM   12  C19 UNL     1      -7.210  -0.992 -13.668  1.00  0.00     0.037 C 
BRANCH  10  13
HETATM   13  C21 UNL     1      -5.145   0.392 -13.970  1.00  0.00     0.241 C 
HETATM   14  O6  UNL     1      -4.154   0.698 -14.650  1.00  0.00    -0.271 OA
HETATM   15  N4  UNL     1      -5.415   1.006 -12.738  1.00  0.00    -0.348 N 
ATOM     16  H4  UNL     1      -6.258   0.690 -12.259  1.00  0.00     0.163 HD
BRANCH  15  17
HETATM   17  C22 UNL     1      -4.668   2.008 -12.075  1.00  0.00     0.146 C 
BRANCH  17  18
HETATM   18  C23 UNL     1      -3.445   1.461 -11.435  1.00  0.00     0.256 C 
HETATM   19  O7  UNL     1      -2.378   1.671 -11.987  1.00  0.00    -0.305 OA
ENDBRANCH  17  18
BRANCH  17  20
HETATM   20  C24 UNL     1      -5.452   2.919 -11.144  1.00  0.00     0.036 C 
BRANCH  20  21
HETATM   21  C25 UNL     1      -6.934   2.768 -11.353  1.00  0.00    -0.020 C 
HETATM   22  C26 UNL     1      -7.553   2.114 -10.116  1.00  0.00     0.009 C 
HETATM   23  C27 UNL     1      -7.565   4.156 -11.532  1.00  0.00     0.009 C 
ENDBRANCH  20  21
ENDBRANCH  17  20
ENDBRANCH  15  17
ENDBRANCH  10  13
ENDBRANCH   5   6
BRANCH   5  24
HETATM   24  C28 UNL     1      -2.659  -3.729 -16.041  1.00  0.00     0.009 C 
HETATM   25  C29 UNL     1      -2.159  -4.969 -16.808  1.00  0.00     0.012 C 
HETATM   26  C30 UNL     1      -1.911  -3.732 -14.747  1.00  0.00     0.012 C 
ENDBRANCH   5  24
ENDBRANCH   3   5
BRANCH   1  27
HETATM   27  C6  UNL     1      -5.884  -6.268 -18.421  1.00  0.00     0.200 C 
BRANCH  27  28
HETATM   28  N1  UNL     1      -5.566  -7.713 -18.357  1.00  0.00    -0.343 N 
HETATM   29  C5  UNL     1      -4.330  -8.162 -18.828  1.00  0.00     0.252 C 
HETATM   30  O2  UNL     1      -3.495  -7.353 -19.285  1.00  0.00    -0.270 OA
ATOM     31  H1  UNL     1      -6.243  -8.372 -17.973  1.00  0.00     0.163 HD
BRANCH  29  32
HETATM   32  C2  UNL     1      -3.951  -9.608 -18.806  1.00  0.00     0.133 C 
HETATM   33  C3  UNL     1      -3.697  -9.865 -17.295  1.00  0.00     0.056 C 
HETATM   34  C4  UNL     1      -2.655  -9.846 -19.522  1.00  0.00     0.056 C 
BRANCH  32  35
HETATM   35  O1  UNL     1      -4.990 -10.399 -19.236  1.00  0.00    -0.376 OA
HETATM   36  C1  UNL     1      -5.285 -11.405 -18.354  1.00  0.00     0.203 C 
ENDBRANCH  32  35
ENDBRANCH  29  32
ENDBRANCH  27  28
BRANCH  27  37
HETATM   37  C7  UNL     1      -7.364  -6.190 -18.549  1.00  0.00     0.202 C 
BRANCH  37  38
HETATM   38  O3  UNL     1      -7.960  -5.047 -18.100  1.00  0.00    -0.383 OA
BRANCH  38  39
HETATM   39  C8  UNL     1      -9.156  -5.271 -17.425  1.00  0.00     0.121 C 
HETATM   40  C9  UNL     1      -9.043  -6.455 -16.522  1.00  0.00     0.032 C 
HETATM   41  C10 UNL     1      -8.920  -6.154 -15.073  1.00  0.00     0.002 C 
HETATM   42  C11 UNL     1      -8.382  -4.850 -14.661  1.00  0.00     0.000 C 
HETATM   43  C12 UNL     1      -8.222  -3.823 -15.753  1.00  0.00     0.002 C 
HETATM   44  C13 UNL     1      -9.433  -3.986 -16.649  1.00  0.00     0.032 C 
ENDBRANCH  38  39
ENDBRANCH  37  38
ENDBRANCH  27  37
ENDBRANCH   1  27
TORSDOF 15
ENDMDL
