MODEL 1
REMARK VINA RESULT: -8.613564207      0.000      0.000
REMARK  16 active torsions:
REMARK  status: ('A' for Active; 'I' for Inactive)
REMARK       I    between atoms: C2_2  and  N1_4 
REMARK    1  A    between atoms: N1_4  and  C3_6 
REMARK    2  A    between atoms: C3_6  and  C4_7 
REMARK    3  A    between atoms: C4_7  and  C5_8 
REMARK    4  A    between atoms: C5_8  and  C6_9 
REMARK    5  A    between atoms: C6_9  and  C7_10 
REMARK    6  A    between atoms: C7_10  and  N2_11 
REMARK    7  A    between atoms: C7_10  and  C9_17 
REMARK    8  A    between atoms: N2_11  and  S1_13 
REMARK       I    between atoms: C9_17  and  N3_19 
REMARK    9  A    between atoms: N3_19  and  C10_21 
REMARK   10  A    between atoms: N4_24  and  C13_25 
REMARK   11  A    between atoms: C13_25  and  C14_26 
REMARK   12  A    between atoms: C14_26  and  C15_27 
REMARK   13  A    between atoms: C21_33  and  O5_34 
REMARK   14  A    between atoms: O5_34  and  C22_35 
REMARK   15  A    between atoms: C22_35  and  C23_37 
REMARK   16  A    between atoms: C23_37  and  C24_38 
ROOT
HETATM    1  C10 UNL     1      -4.713  -0.252 -13.781  1.00  0.00     0.117 C 
HETATM    2  C11 UNL     1      -5.365  -0.175 -15.148  1.00  0.00     0.047 C 
HETATM    3  C12 UNL     1      -5.950  -1.582 -15.416  1.00  0.00     0.119 C 
HETATM    4  N4  UNL     1      -6.069  -2.275 -14.173  1.00  0.00    -0.410 N 
HETATM    5  C20 UNL     1      -4.812  -2.692 -13.657  1.00  0.00     0.151 C 
HETATM    6  C21 UNL     1      -3.857  -1.501 -13.663  1.00  0.00     0.172 C 
ENDROOT
BRANCH   1   7
HETATM    7  N3  UNL     1      -4.068   0.951 -13.394  1.00  0.00    -0.352 N 
HETATM    8  C9  UNL     1      -4.068   1.395 -12.047  1.00  0.00     0.241 C 
HETATM    9  O4  UNL     1      -4.660   0.683 -11.198  1.00  0.00    -0.271 OA
ATOM     10  H3  UNL     1      -3.594   1.511 -14.101  1.00  0.00     0.163 HD
BRANCH   8  11
HETATM   11  C7  UNL     1      -3.410   2.649 -11.570  1.00  0.00     0.184 C 
BRANCH  11  12
HETATM   12  C6  UNL     1      -4.373   3.813 -11.616  1.00  0.00     0.035 C 
BRANCH  12  13
HETATM   13  C5  UNL     1      -5.039   3.976 -10.272  1.00  0.00     0.004 C 
BRANCH  13  14
HETATM   14  C4  UNL     1      -6.534   4.193 -10.412  1.00  0.00     0.020 C 
BRANCH  14  15
HETATM   15  C3  UNL     1      -7.138   3.460 -11.580  1.00  0.00     0.122 C 
BRANCH  15  16
HETATM   16  N1  UNL     1      -7.421   2.074 -11.294  1.00  0.00    -0.361 N 
HETATM   17  C2  UNL     1      -7.808   1.105 -12.249  1.00  0.00     0.213 C 
HETATM   18  C1  UNL     1      -8.088  -0.311 -11.877  1.00  0.00     0.117 C 
HETATM   19  O1  UNL     1      -7.933   1.394 -13.454  1.00  0.00    -0.274 OA
ATOM     20  H1  UNL     1      -7.336   1.769 -10.325  1.00  0.00     0.162 HD
ENDBRANCH  15  16
ENDBRANCH  14  15
ENDBRANCH  13  14
ENDBRANCH  12  13
ENDBRANCH  11  12
BRANCH  11  21
HETATM   21  N2  UNL     1      -3.032   2.425 -10.205  1.00  0.00    -0.306 N 
ATOM     22  H2  UNL     1      -3.690   2.548  -9.435  1.00  0.00     0.173 HD
BRANCH  21  23
HETATM   23  S1  UNL     1      -1.430   1.945  -9.948  1.00  0.00     0.223 S 
HETATM   24  C8  UNL     1      -0.477   1.825 -11.432  1.00  0.00     0.185 C 
HETATM   25  O2  UNL     1      -1.455   0.576  -9.312  1.00  0.00    -0.206 OA
HETATM   26  O3  UNL     1      -0.696   2.845  -8.998  1.00  0.00    -0.206 OA
ENDBRANCH  21  23
ENDBRANCH  11  21
ENDBRANCH   8  11
ENDBRANCH   1   7
BRANCH   6  27
HETATM   27  O5  UNL     1      -2.886  -1.624 -14.653  1.00  0.00    -0.312 OA
BRANCH  27  28
HETATM   28  C22 UNL     1      -2.418  -2.903 -15.016  1.00  0.00     0.259 C 
HETATM   29  O6  UNL     1      -1.609  -3.450 -14.233  1.00  0.00    -0.265 OA
BRANCH  28  30
HETATM   30  C23 UNL     1      -2.839  -3.574 -16.238  1.00  0.00     0.115 C 
BRANCH  30  31
HETATM   31  C24 UNL     1      -2.734  -5.060 -16.288  1.00  0.00    -0.005 C 
HETATM   32  C25 UNL     1      -2.523  -5.427 -17.754  1.00  0.00     0.005 C 
HETATM   33  C26 UNL     1      -3.582  -6.344 -18.262  1.00  0.00     0.000 C 
HETATM   34  C27 UNL     1      -4.992  -5.940 -17.906  1.00  0.00     0.000 C 
HETATM   35  C28 UNL     1      -5.146  -5.427 -16.505  1.00  0.00     0.000 C 
HETATM   36  C29 UNL     1      -3.911  -5.798 -15.721  1.00  0.00     0.005 C 
ENDBRANCH  30  31
ENDBRANCH  28  30
ENDBRANCH  27  28
ENDBRANCH   6  27
BRANCH   4  37
HETATM   37  C13 UNL     1      -7.136  -3.200 -14.054  1.00  0.00     0.117 C 
BRANCH  37  38
HETATM   38  C14 UNL     1      -8.293  -2.993 -14.981  1.00  0.00     0.024 C 
BRANCH  38  39
HETATM   39  C15 UNL     1      -8.572  -4.194 -15.816  1.00  0.00    -0.013 C 
HETATM   40  C16 UNL     1      -9.870  -4.189 -16.542  1.00  0.00     0.005 C 
HETATM   41  C17 UNL     1     -10.006  -5.624 -17.021  1.00  0.00     0.000 C 
HETATM   42  C18 UNL     1      -9.206  -6.470 -16.064  1.00  0.00     0.000 C 
HETATM   43  C19 UNL     1      -8.613  -5.478 -15.052  1.00  0.00     0.005 C 
ENDBRANCH  38  39
ENDBRANCH  37  38
ENDBRANCH   4  37
TORSDOF 16
ENDMDL
MODEL 2
REMARK VINA RESULT: -8.411556411      2.075      3.695
REMARK  16 active torsions:
REMARK  status: ('A' for Active; 'I' for Inactive)
REMARK       I    between atoms: C2_2  and  N1_4 
REMARK    1  A    between atoms: N1_4  and  C3_6 
REMARK    2  A    between atoms: C3_6  and  C4_7 
REMARK    3  A    between atoms: C4_7  and  C5_8 
REMARK    4  A    between atoms: C5_8  and  C6_9 
REMARK    5  A    between atoms: C6_9  and  C7_10 
REMARK    6  A    between atoms: C7_10  and  N2_11 
REMARK    7  A    between atoms: C7_10  and  C9_17 
REMARK    8  A    between atoms: N2_11  and  S1_13 
REMARK       I    between atoms: C9_17  and  N3_19 
REMARK    9  A    between atoms: N3_19  and  C10_21 
REMARK   10  A    between atoms: N4_24  and  C13_25 
REMARK   11  A    between atoms: C13_25  and  C14_26 
REMARK   12  A    between atoms: C14_26  and  C15_27 
REMARK   13  A    between atoms: C21_33  and  O5_34 
REMARK   14  A    between atoms: O5_34  and  C22_35 
REMARK   15  A    between atoms: C22_35  and  C23_37 
REMARK   16  A    between atoms: C23_37  and  C24_38 
ROOT
HETATM    1  C10 UNL     1      -5.699  -1.889 -14.469  1.00  0.00     0.117 C 
HETATM    2  C11 UNL     1      -6.587  -1.587 -15.660  1.00  0.00     0.047 C 
HETATM    3  C12 UNL     1      -7.140  -2.953 -16.131  1.00  0.00     0.119 C 
HETATM    4  N4  UNL     1      -7.002  -3.897 -15.068  1.00  0.00    -0.410 N 
HETATM    5  C20 UNL     1      -5.654  -4.302 -14.869  1.00  0.00     0.151 C 
HETATM    6  C21 UNL     1      -4.775  -3.058 -14.770  1.00  0.00     0.172 C 
ENDROOT
BRANCH   1   7
HETATM    7  N3  UNL     1      -5.055  -0.742 -13.937  1.00  0.00    -0.352 N 
HETATM    8  C9  UNL     1      -5.065  -0.461 -12.547  1.00  0.00     0.241 C 
HETATM    9  O4  UNL     1      -5.665  -1.266 -11.793  1.00  0.00    -0.271 OA
ATOM     10  H3  UNL     1      -4.574  -0.104 -14.570  1.00  0.00     0.163 HD
BRANCH   8  11
HETATM   11  C7  UNL     1      -4.409   0.727 -11.921  1.00  0.00     0.184 C 
BRANCH  11  12
HETATM   12  C6  UNL     1      -2.960   0.826 -12.340  1.00  0.00     0.035 C 
BRANCH  12  13
HETATM   13  C5  UNL     1      -2.088   1.005 -11.122  1.00  0.00     0.004 C 
BRANCH  13  14
HETATM   14  C4  UNL     1      -0.810   1.751 -11.455  1.00  0.00     0.020 C 
BRANCH  14  15
HETATM   15  C3  UNL     1      -0.926   3.242 -11.287  1.00  0.00     0.122 C 
BRANCH  15  16
HETATM   16  N1  UNL     1      -1.871   3.626 -10.266  1.00  0.00    -0.361 N 
HETATM   17  C2  UNL     1      -3.141   4.204 -10.502  1.00  0.00     0.213 C 
HETATM   18  C1  UNL     1      -4.063   4.579  -9.393  1.00  0.00     0.117 C 
HETATM   19  O1  UNL     1      -3.546   4.429 -11.658  1.00  0.00    -0.274 OA
ATOM     20  H1  UNL     1      -1.602   3.468  -9.295  1.00  0.00     0.162 HD
ENDBRANCH  15  16
ENDBRANCH  14  15
ENDBRANCH  13  14
ENDBRANCH  12  13
ENDBRANCH  11  12
BRANCH  11  21
HETATM   21  N2  UNL     1      -5.102   1.886 -12.406  1.00  0.00    -0.306 N 
ATOM     22  H2  UNL     1      -4.746   2.443 -13.183  1.00  0.00     0.173 HD
BRANCH  21  23
HETATM   23  S1  UNL     1      -6.545   2.274 -11.613  1.00  0.00     0.223 S 
HETATM   24  C8  UNL     1      -6.612   1.703  -9.941  1.00  0.00     0.185 C 
HETATM   25  O2  UNL     1      -7.676   1.614 -12.363  1.00  0.00    -0.206 OA
HETATM   26  O3  UNL     1      -6.833   3.746 -11.611  1.00  0.00    -0.206 OA
ENDBRANCH  21  23
ENDBRANCH  11  21
ENDBRANCH   8  11
ENDBRANCH   1   7
BRANCH   6  27
HETATM   27  O5  UNL     1      -3.992  -2.888 -15.907  1.00  0.00    -0.312 OA
BRANCH  27  28
HETATM   28  C22 UNL     1      -3.069  -3.888 -16.275  1.00  0.00     0.259 C 
HETATM   29  O6  UNL     1      -2.190  -4.182 -15.433  1.00  0.00    -0.265 OA
BRANCH  28  30
HETATM   30  C23 UNL     1      -3.116  -4.561 -17.566  1.00  0.00     0.115 C 
BRANCH  30  31
HETATM   31  C24 UNL     1      -2.945  -6.041 -17.587  1.00  0.00    -0.005 C 
HETATM   32  C25 UNL     1      -2.738  -6.430 -19.048  1.00  0.00     0.005 C 
HETATM   33  C26 UNL     1      -3.762  -7.404 -19.521  1.00  0.00     0.000 C 
HETATM   34  C27 UNL     1      -5.183  -7.057 -19.151  1.00  0.00     0.000 C 
HETATM   35  C28 UNL     1      -5.340  -6.522 -17.759  1.00  0.00     0.000 C 
HETATM   36  C29 UNL     1      -4.078  -6.819 -16.987  1.00  0.00     0.005 C 
ENDBRANCH  30  31
ENDBRANCH  28  30
ENDBRANCH  27  28
ENDBRANCH   6  27
BRANCH   4  37
HETATM   37  C13 UNL     1      -7.984  -4.915 -14.983  1.00  0.00     0.117 C 
BRANCH  37  38
HETATM   38  C14 UNL     1      -9.268  -4.654 -15.706  1.00  0.00     0.024 C 
BRANCH  38  39
HETATM   39  C15 UNL     1      -9.723  -5.831 -16.496  1.00  0.00    -0.013 C 
HETATM   40  C16 UNL     1      -8.832  -7.021 -16.453  1.00  0.00     0.005 C 
HETATM   41  C17 UNL     1      -9.373  -7.900 -17.568  1.00  0.00     0.000 C 
HETATM   42  C18 UNL     1     -10.041  -6.976 -18.553  1.00  0.00     0.000 C 
HETATM   43  C19 UNL     1      -9.873  -5.569 -17.960  1.00  0.00     0.005 C 
ENDBRANCH  38  39
ENDBRANCH  37  38
ENDBRANCH   4  37
TORSDOF 16
ENDMDL
MODEL 3
REMARK VINA RESULT: -8.381376205      2.174      5.172
REMARK  16 active torsions:
REMARK  status: ('A' for Active; 'I' for Inactive)
REMARK       I    between atoms: C2_2  and  N1_4 
REMARK    1  A    between atoms: N1_4  and  C3_6 
REMARK    2  A    between atoms: C3_6  and  C4_7 
REMARK    3  A    between atoms: C4_7  and  C5_8 
REMARK    4  A    between atoms: C5_8  and  C6_9 
REMARK    5  A    between atoms: C6_9  and  C7_10 
REMARK    6  A    between atoms: C7_10  and  N2_11 
REMARK    7  A    between atoms: C7_10  and  C9_17 
REMARK    8  A    between atoms: N2_11  and  S1_13 
REMARK       I    between atoms: C9_17  and  N3_19 
REMARK    9  A    between atoms: N3_19  and  C10_21 
REMARK   10  A    between atoms: N4_24  and  C13_25 
REMARK   11  A    between atoms: C13_25  and  C14_26 
REMARK   12  A    between atoms: C14_26  and  C15_27 
REMARK   13  A    between atoms: C21_33  and  O5_34 
REMARK   14  A    between atoms: O5_34  and  C22_35 
REMARK   15  A    between atoms: C22_35  and  C23_37 
REMARK   16  A    between atoms: C23_37  and  C24_38 
ROOT
HETATM    1  C10 UNL     1      -3.820  -2.592 -14.167  1.00  0.00     0.117 C 
HETATM    2  C11 UNL     1      -3.135  -3.912 -13.870  1.00  0.00     0.047 C 
HETATM    3  C12 UNL     1      -3.239  -4.744 -15.169  1.00  0.00     0.119 C 
HETATM    4  N4  UNL     1      -3.512  -3.862 -16.260  1.00  0.00    -0.410 N 
HETATM    5  C20 UNL     1      -4.847  -3.373 -16.246  1.00  0.00     0.151 C 
HETATM    6  C21 UNL     1      -5.155  -2.823 -14.855  1.00  0.00     0.172 C 
ENDROOT
BRANCH   1   7
HETATM    7  N3  UNL     1      -3.867  -1.715 -13.053  1.00  0.00    -0.352 N 
HETATM    8  C9  UNL     1      -3.531  -0.343 -13.172  1.00  0.00     0.241 C 
HETATM    9  O4  UNL     1      -3.188   0.079 -14.304  1.00  0.00    -0.271 OA
ATOM     10  H3  UNL     1      -4.150  -2.081 -12.145  1.00  0.00     0.163 HD
BRANCH   8  11
HETATM   11  C7  UNL     1      -3.559   0.635 -12.042  1.00  0.00     0.184 C 
BRANCH  11  12
HETATM   12  C6  UNL     1      -2.236   1.354 -11.918  1.00  0.00     0.035 C 
BRANCH  12  13
HETATM   13  C5  UNL     1      -1.769   1.319 -10.484  1.00  0.00     0.004 C 
BRANCH  13  14
HETATM   14  C4  UNL     1      -0.837   2.474 -10.171  1.00  0.00     0.020 C 
BRANCH  14  15
HETATM   15  C3  UNL     1      -1.384   3.814 -10.586  1.00  0.00     0.122 C 
BRANCH  15  16
HETATM   16  N1  UNL     1      -2.595   4.173  -9.888  1.00  0.00    -0.361 N 
HETATM   17  C2  UNL     1      -3.827   4.497 -10.501  1.00  0.00     0.213 C 
HETATM   18  C1  UNL     1      -5.037   4.864  -9.711  1.00  0.00     0.117 C 
HETATM   19  O1  UNL     1      -3.957   4.492 -11.740  1.00  0.00    -0.274 OA
ATOM     20  H1  UNL     1      -2.558   4.195  -8.869  1.00  0.00     0.162 HD
ENDBRANCH  15  16
ENDBRANCH  14  15
ENDBRANCH  13  14
ENDBRANCH  12  13
ENDBRANCH  11  12
BRANCH  11  21
HETATM   21  N2  UNL     1      -4.574   1.600 -12.354  1.00  0.00    -0.306 N 
ATOM     22  H2  UNL     1      -4.344   2.546 -12.659  1.00  0.00     0.173 HD
BRANCH  21  23
HETATM   23  S1  UNL     1      -6.174   1.075 -12.189  1.00  0.00     0.223 S 
HETATM   24  C8  UNL     1      -7.017   0.868 -13.729  1.00  0.00     0.185 C 
HETATM   25  O2  UNL     1      -6.923   2.120 -11.398  1.00  0.00    -0.206 OA
HETATM   26  O3  UNL     1      -6.290  -0.209 -11.421  1.00  0.00    -0.206 OA
ENDBRANCH  21  23
ENDBRANCH  11  21
ENDBRANCH   8  11
ENDBRANCH   1   7
BRANCH   6  27
HETATM   27  O5  UNL     1      -6.023  -3.655 -14.154  1.00  0.00    -0.312 OA
BRANCH  27  28
HETATM   28  C22 UNL     1      -7.412  -3.554 -14.369  1.00  0.00     0.259 C 
HETATM   29  O6  UNL     1      -7.971  -2.508 -13.969  1.00  0.00    -0.265 OA
BRANCH  28  30
HETATM   30  C23 UNL     1      -8.182  -4.605 -15.022  1.00  0.00     0.115 C 
BRANCH  30  31
HETATM   31  C24 UNL     1      -8.356  -4.524 -16.499  1.00  0.00    -0.005 C 
HETATM   32  C25 UNL     1      -9.851  -4.353 -16.747  1.00  0.00     0.005 C 
HETATM   33  C26 UNL     1     -10.407  -5.438 -17.605  1.00  0.00     0.000 C 
HETATM   34  C27 UNL     1      -9.984  -6.833 -17.213  1.00  0.00     0.000 C 
HETATM   35  C28 UNL     1      -8.542  -6.946 -16.815  1.00  0.00     0.000 C 
HETATM   36  C29 UNL     1      -7.822  -5.698 -17.266  1.00  0.00     0.005 C 
ENDBRANCH  30  31
ENDBRANCH  28  30
ENDBRANCH  27  28
ENDBRANCH   6  27
BRANCH   4  37
HETATM   37  C13 UNL     1      -2.989  -4.227 -17.526  1.00  0.00     0.117 C 
BRANCH  37  38
HETATM   38  C14 UNL     1      -2.215  -5.507 -17.574  1.00  0.00     0.024 C 
BRANCH  38  39
HETATM   39  C15 UNL     1      -2.957  -6.592 -18.274  1.00  0.00    -0.013 C 
HETATM   40  C16 UNL     1      -4.229  -6.185 -18.930  1.00  0.00     0.005 C 
HETATM   41  C17 UNL     1      -4.889  -7.513 -19.261  1.00  0.00     0.000 C 
HETATM   42  C18 UNL     1      -4.353  -8.514 -18.270  1.00  0.00     0.000 C 
HETATM   43  C19 UNL     1      -3.374  -7.722 -17.390  1.00  0.00     0.005 C 
ENDBRANCH  38  39
ENDBRANCH  37  38
ENDBRANCH   4  37
TORSDOF 16
ENDMDL
MODEL 4
REMARK VINA RESULT: -8.358308552      2.057      4.434
REMARK  16 active torsions:
REMARK  status: ('A' for Active; 'I' for Inactive)
REMARK       I    between atoms: C2_2  and  N1_4 
REMARK    1  A    between atoms: N1_4  and  C3_6 
REMARK    2  A    between atoms: C3_6  and  C4_7 
REMARK    3  A    between atoms: C4_7  and  C5_8 
REMARK    4  A    between atoms: C5_8  and  C6_9 
REMARK    5  A    between atoms: C6_9  and  C7_10 
REMARK    6  A    between atoms: C7_10  and  N2_11 
REMARK    7  A    between atoms: C7_10  and  C9_17 
REMARK    8  A    between atoms: N2_11  and  S1_13 
REMARK       I    between atoms: C9_17  and  N3_19 
REMARK    9  A    between atoms: N3_19  and  C10_21 
REMARK   10  A    between atoms: N4_24  and  C13_25 
REMARK   11  A    between atoms: C13_25  and  C14_26 
REMARK   12  A    between atoms: C14_26  and  C15_27 
REMARK   13  A    between atoms: C21_33  and  O5_34 
REMARK   14  A    between atoms: O5_34  and  C22_35 
REMARK   15  A    between atoms: C22_35  and  C23_37 
REMARK   16  A    between atoms: C23_37  and  C24_38 
ROOT
HETATM    1  C10 UNL     1      -3.602  -2.087 -14.187  1.00  0.00     0.117 C 
HETATM    2  C11 UNL     1      -2.888  -3.359 -13.772  1.00  0.00     0.047 C 
HETATM    3  C12 UNL     1      -3.012  -4.324 -14.975  1.00  0.00     0.119 C 
HETATM    4  N4  UNL     1      -3.327  -3.565 -16.144  1.00  0.00    -0.410 N 
HETATM    5  C20 UNL     1      -4.668  -3.095 -16.144  1.00  0.00     0.151 C 
HETATM    6  C21 UNL     1      -4.950  -2.406 -14.811  1.00  0.00     0.172 C 
ENDROOT
BRANCH   1   7
HETATM    7  N3  UNL     1      -3.635  -1.099 -13.170  1.00  0.00    -0.352 N 
HETATM    8  C9  UNL     1      -3.841   0.272 -13.470  1.00  0.00     0.241 C 
HETATM    9  O4  UNL     1      -3.996   0.588 -14.675  1.00  0.00    -0.271 OA
ATOM     10  H3  UNL     1      -3.507  -1.381 -12.199  1.00  0.00     0.163 HD
BRANCH   8  11
HETATM   11  C7  UNL     1      -3.886   1.362 -12.449  1.00  0.00     0.184 C 
BRANCH  11  12
HETATM   12  C6  UNL     1      -4.806   0.994 -11.308  1.00  0.00     0.035 C 
BRANCH  12  13
HETATM   13  C5  UNL     1      -6.092   1.777 -11.417  1.00  0.00     0.004 C 
BRANCH  13  14
HETATM   14  C4  UNL     1      -6.514   2.348 -10.077  1.00  0.00     0.020 C 
BRANCH  14  15
HETATM   15  C3  UNL     1      -7.525   3.458 -10.192  1.00  0.00     0.122 C 
BRANCH  15  16
HETATM   16  N1  UNL     1      -7.380   4.235 -11.399  1.00  0.00    -0.361 N 
HETATM   17  C2  UNL     1      -6.563   5.381 -11.541  1.00  0.00     0.213 C 
HETATM   18  C1  UNL     1      -6.468   6.136 -12.822  1.00  0.00     0.117 C 
HETATM   19  O1  UNL     1      -5.883   5.814 -10.592  1.00  0.00    -0.274 OA
ATOM     20  H1  UNL     1      -7.910   3.933 -12.216  1.00  0.00     0.162 HD
ENDBRANCH  15  16
ENDBRANCH  14  15
ENDBRANCH  13  14
ENDBRANCH  12  13
ENDBRANCH  11  12
BRANCH  11  21
HETATM   21  N2  UNL     1      -2.555   1.501 -11.932  1.00  0.00    -0.306 N 
ATOM     22  H2  UNL     1      -1.878   0.740 -11.974  1.00  0.00     0.173 HD
BRANCH  21  23
HETATM   23  S1  UNL     1      -2.177   3.003 -11.250  1.00  0.00     0.223 S 
HETATM   24  C8  UNL     1      -2.060   2.973  -9.486  1.00  0.00     0.185 C 
HETATM   25  O2  UNL     1      -3.279   3.967 -11.615  1.00  0.00    -0.206 OA
HETATM   26  O3  UNL     1      -0.903   3.584 -11.788  1.00  0.00    -0.206 OA
ENDBRANCH  21  23
ENDBRANCH  11  21
ENDBRANCH   8  11
ENDBRANCH   1   7
BRANCH   6  27
HETATM   27  O5  UNL     1      -5.786  -3.171 -14.003  1.00  0.00    -0.312 OA
BRANCH  27  28
HETATM   28  C22 UNL     1      -7.183  -3.097 -14.176  1.00  0.00     0.259 C 
HETATM   29  O6  UNL     1      -7.754  -2.078 -13.726  1.00  0.00    -0.265 OA
BRANCH  28  30
HETATM   30  C23 UNL     1      -7.946  -4.143 -14.843  1.00  0.00     0.115 C 
BRANCH  30  31
HETATM   31  C24 UNL     1      -8.228  -3.980 -16.297  1.00  0.00    -0.005 C 
HETATM   32  C25 UNL     1      -9.747  -3.977 -16.443  1.00  0.00     0.005 C 
HETATM   33  C26 UNL     1     -10.227  -5.058 -17.349  1.00  0.00     0.000 C 
HETATM   34  C27 UNL     1      -9.616  -6.415 -17.094  1.00  0.00     0.000 C 
HETATM   35  C28 UNL     1      -8.148  -6.378 -16.791  1.00  0.00     0.000 C 
HETATM   36  C29 UNL     1      -7.613  -5.022 -17.184  1.00  0.00     0.005 C 
ENDBRANCH  30  31
ENDBRANCH  28  30
ENDBRANCH  27  28
ENDBRANCH   6  27
BRANCH   4  37
HETATM   37  C13 UNL     1      -2.831  -4.053 -17.378  1.00  0.00     0.117 C 
BRANCH  37  38
HETATM   38  C14 UNL     1      -2.186  -5.403 -17.340  1.00  0.00     0.024 C 
BRANCH  38  39
HETATM   39  C15 UNL     1      -3.038  -6.456 -17.958  1.00  0.00    -0.013 C 
HETATM   40  C16 UNL     1      -3.998  -5.986 -18.993  1.00  0.00     0.005 C 
HETATM   41  C17 UNL     1      -4.911  -7.184 -19.189  1.00  0.00     0.000 C 
HETATM   42  C18 UNL     1      -4.873  -7.965 -17.900  1.00  0.00     0.000 C 
HETATM   43  C19 UNL     1      -3.911  -7.187 -16.989  1.00  0.00     0.005 C 
ENDBRANCH  38  39
ENDBRANCH  37  38
ENDBRANCH   4  37
TORSDOF 16
ENDMDL
MODEL 5
REMARK VINA RESULT: -8.335740034      2.041      3.584
REMARK  16 active torsions:
REMARK  status: ('A' for Active; 'I' for Inactive)
REMARK       I    between atoms: C2_2  and  N1_4 
REMARK    1  A    between atoms: N1_4  and  C3_6 
REMARK    2  A    between atoms: C3_6  and  C4_7 
REMARK    3  A    between atoms: C4_7  and  C5_8 
REMARK    4  A    between atoms: C5_8  and  C6_9 
REMARK    5  A    between atoms: C6_9  and  C7_10 
REMARK    6  A    between atoms: C7_10  and  N2_11 
REMARK    7  A    between atoms: C7_10  and  C9_17 
REMARK    8  A    between atoms: N2_11  and  S1_13 
REMARK       I    between atoms: C9_17  and  N3_19 
REMARK    9  A    between atoms: N3_19  and  C10_21 
REMARK   10  A    between atoms: N4_24  and  C13_25 
REMARK   11  A    between atoms: C13_25  and  C14_26 
REMARK   12  A    between atoms: C14_26  and  C15_27 
REMARK   13  A    between atoms: C21_33  and  O5_34 
REMARK   14  A    between atoms: O5_34  and  C22_35 
REMARK   15  A    between atoms: C22_35  and  C23_37 
REMARK   16  A    between atoms: C23_37  and  C24_38 
ROOT
HETATM    1  C10 UNL     1      -4.792  -0.293 -13.572  1.00  0.00     0.117 C 
HETATM    2  C11 UNL     1      -5.466  -0.026 -14.904  1.00  0.00     0.047 C 
HETATM    3  C12 UNL     1      -6.142  -1.357 -15.309  1.00  0.00     0.119 C 
HETATM    4  N4  UNL     1      -6.278  -2.177 -14.147  1.00  0.00    -0.410 N 
HETATM    5  C20 UNL     1      -5.038  -2.722 -13.715  1.00  0.00     0.151 C 
HETATM    6  C21 UNL     1      -4.012  -1.596 -13.616  1.00  0.00     0.172 C 
ENDROOT
BRANCH   1   7
HETATM    7  N3  UNL     1      -4.067   0.820 -13.072  1.00  0.00    -0.352 N 
HETATM    8  C9  UNL     1      -4.299   1.335 -11.771  1.00  0.00     0.241 C 
HETATM    9  O4  UNL     1      -5.173   0.771 -11.067  1.00  0.00    -0.271 OA
ATOM     10  H3  UNL     1      -3.362   1.259 -13.662  1.00  0.00     0.163 HD
BRANCH   8  11
HETATM   11  C7  UNL     1      -3.573   2.501 -11.182  1.00  0.00     0.184 C 
BRANCH  11  12
HETATM   12  C6  UNL     1      -2.132   2.522 -11.634  1.00  0.00     0.035 C 
BRANCH  12  13
HETATM   13  C5  UNL     1      -1.296   3.290 -10.640  1.00  0.00     0.004 C 
BRANCH  13  14
HETATM   14  C4  UNL     1      -1.479   2.761  -9.230  1.00  0.00     0.020 C 
BRANCH  14  15
HETATM   15  C3  UNL     1      -1.657   3.846  -8.202  1.00  0.00     0.122 C 
BRANCH  15  16
HETATM   16  N1  UNL     1      -2.943   3.805  -7.551  1.00  0.00    -0.361 N 
HETATM   17  C2  UNL     1      -3.151   3.772  -6.152  1.00  0.00     0.213 C 
HETATM   18  C1  UNL     1      -4.514   3.727  -5.550  1.00  0.00     0.117 C 
HETATM   19  O1  UNL     1      -2.195   3.779  -5.353  1.00  0.00    -0.274 OA
ATOM     20  H1  UNL     1      -3.771   3.799  -8.147  1.00  0.00     0.162 HD
ENDBRANCH  15  16
ENDBRANCH  14  15
ENDBRANCH  13  14
ENDBRANCH  12  13
ENDBRANCH  11  12
BRANCH  11  21
HETATM   21  N2  UNL     1      -4.221   3.683 -11.675  1.00  0.00    -0.306 N 
ATOM     22  H2  UNL     1      -3.926   4.141 -12.537  1.00  0.00     0.173 HD
BRANCH  21  23
HETATM   23  S1  UNL     1      -5.502   4.271 -10.739  1.00  0.00     0.223 S 
HETATM   24  C8  UNL     1      -7.096   3.792 -11.335  1.00  0.00     0.185 C 
HETATM   25  O2  UNL     1      -5.441   5.779 -10.769  1.00  0.00    -0.206 OA
HETATM   26  O3  UNL     1      -5.406   3.866  -9.298  1.00  0.00    -0.206 OA
ENDBRANCH  21  23
ENDBRANCH  11  21
ENDBRANCH   8  11
ENDBRANCH   1   7
BRANCH   6  27
HETATM   27  O5  UNL     1      -3.072  -1.664 -14.639  1.00  0.00    -0.312 OA
BRANCH  27  28
HETATM   28  C22 UNL     1      -2.526  -2.911 -15.003  1.00  0.00     0.259 C 
HETATM   29  O6  UNL     1      -1.735  -3.440 -14.189  1.00  0.00    -0.265 OA
BRANCH  28  30
HETATM   30  C23 UNL     1      -2.851  -3.573 -16.260  1.00  0.00     0.115 C 
BRANCH  30  31
HETATM   31  C24 UNL     1      -2.759  -5.059 -16.308  1.00  0.00    -0.005 C 
HETATM   32  C25 UNL     1      -2.565  -5.430 -17.776  1.00  0.00     0.005 C 
HETATM   33  C26 UNL     1      -3.636  -6.339 -18.273  1.00  0.00     0.000 C 
HETATM   34  C27 UNL     1      -5.039  -5.923 -17.903  1.00  0.00     0.000 C 
HETATM   35  C28 UNL     1      -5.176  -5.407 -16.501  1.00  0.00     0.000 C 
HETATM   36  C29 UNL     1      -3.935  -5.787 -15.729  1.00  0.00     0.005 C 
ENDBRANCH  30  31
ENDBRANCH  28  30
ENDBRANCH  27  28
ENDBRANCH   6  27
BRANCH   4  37
HETATM   37  C13 UNL     1      -7.397  -3.045 -14.102  1.00  0.00     0.117 C 
BRANCH  37  38
HETATM   38  C14 UNL     1      -8.365  -2.931 -15.238  1.00  0.00     0.024 C 
BRANCH  38  39
HETATM   39  C15 UNL     1      -8.572  -4.228 -15.938  1.00  0.00    -0.013 C 
HETATM   40  C16 UNL     1      -9.859  -4.369 -16.670  1.00  0.00     0.005 C 
HETATM   41  C17 UNL     1      -9.916  -5.853 -16.991  1.00  0.00     0.000 C 
HETATM   42  C18 UNL     1      -9.088  -6.547 -15.941  1.00  0.00     0.000 C 
HETATM   43  C19 UNL     1      -8.558  -5.422 -15.039  1.00  0.00     0.005 C 
ENDBRANCH  38  39
ENDBRANCH  37  38
ENDBRANCH   4  37
TORSDOF 16
ENDMDL
