MODEL 1
REMARK VINA RESULT: -8.081333253      0.000      0.000
REMARK  16 active torsions:
REMARK  status: ('A' for Active; 'I' for Inactive)
REMARK    1  A    between atoms: C1_2  and  C2_4 
REMARK    2  A    between atoms: C2_4  and  N1_5 
REMARK    3  A    between atoms: N1_5  and  C3_6 
REMARK       I    between atoms: N1_5  and  C5_10 
REMARK    4  A    between atoms: C3_6  and  C4_7 
REMARK    5  A    between atoms: C5_10  and  C6_12 
REMARK    6  A    between atoms: C6_12  and  C7_13 
REMARK    7  A    between atoms: C7_13  and  C8_14 
REMARK    8  A    between atoms: C8_14  and  N2_15 
REMARK    9  A    between atoms: C8_14  and  C23_36 
REMARK       I    between atoms: N2_15  and  C9_17 
REMARK   10  A    between atoms: C9_17  and  C10_19 
REMARK   11  A    between atoms: C12_21  and  O7_22 
REMARK   12  A    between atoms: O7_22  and  C13_23 
REMARK   13  A    between atoms: C13_23  and  C14_24 
REMARK       I    between atoms: N3_28  and  C18_29 
REMARK   14  A    between atoms: C18_29  and  O9_31 
REMARK   15  A    between atoms: O9_31  and  C19_32 
REMARK   16  A    between atoms: C19_32  and  C20_33 
ROOT
HETATM    1  N2  UNL     1      -7.411  -2.346 -13.601  1.00  0.00    -0.354 N 
ATOM      2  H2  UNL     1      -7.415  -3.088 -12.901  1.00  0.00     0.162 HD
HETATM    3  C9  UNL     1      -7.839  -2.602 -14.923  1.00  0.00     0.241 C 
HETATM    4  O6  UNL     1      -7.823  -1.678 -15.766  1.00  0.00    -0.271 OA
ENDROOT
BRANCH   1   5
HETATM    5  C8  UNL     1      -6.966  -1.005 -13.258  1.00  0.00     0.089 C 
BRANCH   5   6
HETATM    6  C7  UNL     1      -7.421  -0.596 -11.901  1.00  0.00     0.034 C 
BRANCH   6   7
HETATM    7  C6  UNL     1      -7.672   0.896 -11.897  1.00  0.00     0.105 C 
BRANCH   7   8
HETATM    8  C5  UNL     1      -6.744   1.591 -10.950  1.00  0.00     0.220 C 
HETATM    9  N1  UNL     1      -6.470   2.977 -11.100  1.00  0.00    -0.332 N 
HETATM   10  O5  UNL     1      -6.232   0.896 -10.035  1.00  0.00    -0.273 OA
BRANCH   9  11
HETATM   11  C2  UNL     1      -7.063   3.762 -12.140  1.00  0.00     0.239 C 
BRANCH  11  12
HETATM   12  C1  UNL     1      -7.180   5.202 -11.757  1.00  0.00     0.191 C 
HETATM   13  O1  UNL     1      -8.021   5.578 -10.908  1.00  0.00    -0.647 OA
HETATM   14  O2  UNL     1      -6.363   6.164 -12.330  1.00  0.00    -0.647 OA
ENDBRANCH  11  12
ENDBRANCH   9  11
BRANCH   9  15
HETATM   15  C3  UNL     1      -5.555   3.586 -10.157  1.00  0.00     0.239 C 
BRANCH  15  16
HETATM   16  C4  UNL     1      -4.166   3.556 -10.615  1.00  0.00     0.191 C 
HETATM   17  O3  UNL     1      -3.354   2.740 -10.123  1.00  0.00    -0.647 OA
HETATM   18  O4  UNL     1      -3.726   4.425 -11.594  1.00  0.00    -0.647 OA
ENDBRANCH  15  16
ENDBRANCH   9  15
ENDBRANCH   7   8
ENDBRANCH   6   7
ENDBRANCH   5   6
BRANCH   5  19
HETATM   19  C23 UNL     1      -5.467  -1.005 -13.414  1.00  0.00     0.008 C 
HETATM   20  C24 UNL     1      -5.028   0.344 -13.935  1.00  0.00     0.007 C 
HETATM   21  C25 UNL     1      -3.509   0.338 -14.153  1.00  0.00     0.000 C 
HETATM   22  C26 UNL     1      -2.887   0.246 -12.796  1.00  0.00     0.000 C 
HETATM   23  C27 UNL     1      -3.707  -0.383 -11.738  1.00  0.00     0.000 C 
HETATM   24  C28 UNL     1      -4.714  -1.403 -12.178  1.00  0.00     0.007 C 
ENDBRANCH   5  19
ENDBRANCH   1   5
BRANCH   3  25
HETATM   25  C10 UNL     1      -8.294  -3.968 -15.268  1.00  0.00     0.184 C 
HETATM   26  C11 UNL     1      -9.735  -3.961 -15.713  1.00  0.00     0.068 C 
HETATM   27  C12 UNL     1      -9.770  -4.464 -17.126  1.00  0.00     0.142 C 
HETATM   28  C17 UNL     1      -8.339  -4.727 -17.530  1.00  0.00     0.161 C 
HETATM   29  N3  UNL     1      -7.529  -4.532 -16.358  1.00  0.00    -0.312 N 
HETATM   30  C18 UNL     1      -6.157  -4.854 -16.279  1.00  0.00     0.363 C 
HETATM   31  O8  UNL     1      -5.549  -5.335 -17.246  1.00  0.00    -0.238 OA
BRANCH  27  32
HETATM   32  O7  UNL     1     -10.558  -5.582 -17.171  1.00  0.00    -0.384 OA
BRANCH  32  33
HETATM   33  C13 UNL     1     -10.294  -6.368 -18.282  1.00  0.00     0.172 C 
BRANCH  33  34
HETATM   34  C14 UNL     1     -10.309  -7.838 -17.935  1.00  0.00     0.009 A 
HETATM   35  C15 UNL     1      -8.995  -8.522 -17.682  1.00  0.00     0.007 A 
HETATM   36  C16 UNL     1      -9.677  -8.785 -18.968  1.00  0.00     0.007 A 
ENDBRANCH  33  34
ENDBRANCH  32  33
ENDBRANCH  27  32
BRANCH  30  37
HETATM   37  O9  UNL     1      -5.476  -4.633 -15.114  1.00  0.00    -0.304 OA
BRANCH  37  38
HETATM   38  C19 UNL     1      -4.104  -4.877 -14.904  1.00  0.00     0.185 C 
BRANCH  38  39
HETATM   39  C20 UNL     1      -3.367  -3.633 -14.460  1.00  0.00     0.010 A 
HETATM   40  C21 UNL     1      -2.540  -2.993 -15.558  1.00  0.00     0.007 A 
HETATM   41  C22 UNL     1      -1.879  -3.626 -14.412  1.00  0.00     0.007 A 
ENDBRANCH  38  39
ENDBRANCH  37  38
ENDBRANCH  30  37
ENDBRANCH   3  25
TORSDOF 16
ENDMDL
MODEL 2
REMARK VINA RESULT: -8.028071807      0.981      1.770
REMARK  16 active torsions:
REMARK  status: ('A' for Active; 'I' for Inactive)
REMARK    1  A    between atoms: C1_2  and  C2_4 
REMARK    2  A    between atoms: C2_4  and  N1_5 
REMARK    3  A    between atoms: N1_5  and  C3_6 
REMARK       I    between atoms: N1_5  and  C5_10 
REMARK    4  A    between atoms: C3_6  and  C4_7 
REMARK    5  A    between atoms: C5_10  and  C6_12 
REMARK    6  A    between atoms: C6_12  and  C7_13 
REMARK    7  A    between atoms: C7_13  and  C8_14 
REMARK    8  A    between atoms: C8_14  and  N2_15 
REMARK    9  A    between atoms: C8_14  and  C23_36 
REMARK       I    between atoms: N2_15  and  C9_17 
REMARK   10  A    between atoms: C9_17  and  C10_19 
REMARK   11  A    between atoms: C12_21  and  O7_22 
REMARK   12  A    between atoms: O7_22  and  C13_23 
REMARK   13  A    between atoms: C13_23  and  C14_24 
REMARK       I    between atoms: N3_28  and  C18_29 
REMARK   14  A    between atoms: C18_29  and  O9_31 
REMARK   15  A    between atoms: O9_31  and  C19_32 
REMARK   16  A    between atoms: C19_32  and  C20_33 
ROOT
HETATM    1  N2  UNL     1      -7.298  -2.685 -13.864  1.00  0.00    -0.354 N 
ATOM      2  H2  UNL     1      -7.131  -3.443 -13.201  1.00  0.00     0.162 HD
HETATM    3  C9  UNL     1      -7.872  -2.948 -15.128  1.00  0.00     0.241 C 
HETATM    4  O6  UNL     1      -8.064  -2.004 -15.925  1.00  0.00    -0.271 OA
ENDROOT
BRANCH   1   5
HETATM    5  C8  UNL     1      -6.949  -1.314 -13.525  1.00  0.00     0.089 C 
BRANCH   5   6
HETATM    6  C7  UNL     1      -7.512  -0.905 -12.209  1.00  0.00     0.034 C 
BRANCH   6   7
HETATM    7  C6  UNL     1      -7.626   0.604 -12.173  1.00  0.00     0.105 C 
BRANCH   7   8
HETATM    8  C5  UNL     1      -7.446   1.119 -10.779  1.00  0.00     0.220 C 
HETATM    9  N1  UNL     1      -6.636   2.261 -10.535  1.00  0.00    -0.332 N 
HETATM   10  O5  UNL     1      -8.038   0.500  -9.859  1.00  0.00    -0.273 OA
BRANCH   9  11
HETATM   11  C2  UNL     1      -5.972   2.964 -11.590  1.00  0.00     0.239 C 
BRANCH  11  12
HETATM   12  C1  UNL     1      -4.583   3.363 -11.209  1.00  0.00     0.191 C 
HETATM   13  O1  UNL     1      -3.852   2.598 -10.538  1.00  0.00    -0.647 OA
HETATM   14  O2  UNL     1      -4.063   4.592 -11.584  1.00  0.00    -0.647 OA
ENDBRANCH  11  12
ENDBRANCH   9  11
BRANCH   9  15
HETATM   15  C3  UNL     1      -6.496   2.701  -9.162  1.00  0.00     0.239 C 
BRANCH  15  16
HETATM   16  C4  UNL     1      -7.454   3.746  -8.802  1.00  0.00     0.191 C 
HETATM   17  O3  UNL     1      -8.518   3.454  -8.210  1.00  0.00    -0.647 OA
HETATM   18  O4  UNL     1      -7.204   5.069  -9.108  1.00  0.00    -0.647 OA
ENDBRANCH  15  16
ENDBRANCH   9  15
ENDBRANCH   7   8
ENDBRANCH   6   7
ENDBRANCH   5   6
BRANCH   5  19
HETATM   19  C23 UNL     1      -5.446  -1.234 -13.587  1.00  0.00     0.008 C 
HETATM   20  C24 UNL     1      -5.048   0.150 -14.047  1.00  0.00     0.007 C 
HETATM   21  C25 UNL     1      -3.521   0.228 -14.171  1.00  0.00     0.000 C 
HETATM   22  C26 UNL     1      -2.978   0.131 -12.780  1.00  0.00     0.000 C 
HETATM   23  C27 UNL     1      -3.827  -0.568 -11.791  1.00  0.00     0.000 C 
HETATM   24  C28 UNL     1      -4.749  -1.626 -12.317  1.00  0.00     0.007 C 
ENDBRANCH   5  19
ENDBRANCH   1   5
BRANCH   3  25
HETATM   25  C10 UNL     1      -8.227  -4.344 -15.468  1.00  0.00     0.184 C 
HETATM   26  C11 UNL     1      -9.683  -4.454 -15.848  1.00  0.00     0.068 C 
HETATM   27  C12 UNL     1      -9.739  -4.947 -17.264  1.00  0.00     0.142 C 
HETATM   28  C17 UNL     1      -8.311  -5.087 -17.733  1.00  0.00     0.161 C 
HETATM   29  N3  UNL     1      -7.468  -4.835 -16.596  1.00  0.00    -0.312 N 
HETATM   30  C18 UNL     1      -6.072  -5.042 -16.582  1.00  0.00     0.363 C 
HETATM   31  O8  UNL     1      -5.470  -5.463 -17.581  1.00  0.00    -0.238 OA
BRANCH  27  32
HETATM   32  O7  UNL     1     -10.433  -6.127 -17.287  1.00  0.00    -0.384 OA
BRANCH  32  33
HETATM   33  C13 UNL     1     -10.111  -6.906 -18.386  1.00  0.00     0.172 C 
BRANCH  33  34
HETATM   34  C14 UNL     1      -9.823  -8.334 -17.987  1.00  0.00     0.009 A 
HETATM   35  C15 UNL     1      -8.724  -8.587 -16.993  1.00  0.00     0.007 A 
HETATM   36  C16 UNL     1      -8.458  -8.897 -18.415  1.00  0.00     0.007 A 
ENDBRANCH  33  34
ENDBRANCH  32  33
ENDBRANCH  27  32
BRANCH  30  37
HETATM   37  O9  UNL     1      -5.360  -4.774 -15.446  1.00  0.00    -0.304 OA
BRANCH  37  38
HETATM   38  C19 UNL     1      -3.992  -5.051 -15.247  1.00  0.00     0.185 C 
BRANCH  38  39
HETATM   39  C20 UNL     1      -3.295  -3.949 -14.480  1.00  0.00     0.010 A 
HETATM   40  C21 UNL     1      -2.523  -2.989 -15.365  1.00  0.00     0.007 A 
HETATM   41  C22 UNL     1      -1.808  -3.887 -14.452  1.00  0.00     0.007 A 
ENDBRANCH  38  39
ENDBRANCH  37  38
ENDBRANCH  30  37
ENDBRANCH   3  25
TORSDOF 16
ENDMDL
MODEL 3
REMARK VINA RESULT: -7.982540158      2.366      9.956
REMARK  16 active torsions:
REMARK  status: ('A' for Active; 'I' for Inactive)
REMARK    1  A    between atoms: C1_2  and  C2_4 
REMARK    2  A    between atoms: C2_4  and  N1_5 
REMARK    3  A    between atoms: N1_5  and  C3_6 
REMARK       I    between atoms: N1_5  and  C5_10 
REMARK    4  A    between atoms: C3_6  and  C4_7 
REMARK    5  A    between atoms: C5_10  and  C6_12 
REMARK    6  A    between atoms: C6_12  and  C7_13 
REMARK    7  A    between atoms: C7_13  and  C8_14 
REMARK    8  A    between atoms: C8_14  and  N2_15 
REMARK    9  A    between atoms: C8_14  and  C23_36 
REMARK       I    between atoms: N2_15  and  C9_17 
REMARK   10  A    between atoms: C9_17  and  C10_19 
REMARK   11  A    between atoms: C12_21  and  O7_22 
REMARK   12  A    between atoms: O7_22  and  C13_23 
REMARK   13  A    between atoms: C13_23  and  C14_24 
REMARK       I    between atoms: N3_28  and  C18_29 
REMARK   14  A    between atoms: C18_29  and  O9_31 
REMARK   15  A    between atoms: O9_31  and  C19_32 
REMARK   16  A    between atoms: C19_32  and  C20_33 
ROOT
HETATM    1  N2  UNL     1      -4.795  -2.736 -14.346  1.00  0.00    -0.354 N 
ATOM      2  H2  UNL     1      -4.335  -2.045 -14.939  1.00  0.00     0.162 HD
HETATM    3  C9  UNL     1      -5.139  -2.424 -13.012  1.00  0.00     0.241 C 
HETATM    4  O6  UNL     1      -5.699  -3.288 -12.301  1.00  0.00    -0.271 OA
ENDROOT
BRANCH   1   5
HETATM    5  C8  UNL     1      -5.107  -4.061 -14.857  1.00  0.00     0.089 C 
BRANCH   5   6
HETATM    6  C7  UNL     1      -5.907  -4.002 -16.111  1.00  0.00     0.034 C 
BRANCH   6   7
HETATM    7  C6  UNL     1      -7.123  -4.890 -15.959  1.00  0.00     0.105 C 
BRANCH   7   8
HETATM    8  C5  UNL     1      -7.057  -6.049 -16.903  1.00  0.00     0.220 C 
HETATM    9  N1  UNL     1      -8.220  -6.820 -17.175  1.00  0.00    -0.332 N 
HETATM   10  O5  UNL     1      -5.943  -6.299 -17.428  1.00  0.00    -0.273 OA
BRANCH   9  11
HETATM   11  C2  UNL     1      -9.487  -6.525 -16.578  1.00  0.00     0.239 C 
BRANCH  11  12
HETATM   12  C1  UNL     1     -10.486  -6.057 -17.586  1.00  0.00     0.191 C 
HETATM   13  O1  UNL     1     -11.659  -6.497 -17.585  1.00  0.00    -0.647 OA
HETATM   14  O2  UNL     1     -10.145  -5.125 -18.553  1.00  0.00    -0.647 OA
ENDBRANCH  11  12
ENDBRANCH   9  11
BRANCH   9  15
HETATM   15  C3  UNL     1      -8.086  -7.935 -18.090  1.00  0.00     0.239 C 
BRANCH  15  16
HETATM   16  C4  UNL     1      -8.596  -9.188 -17.534  1.00  0.00     0.191 C 
HETATM   17  O3  UNL     1      -9.580  -9.760 -18.057  1.00  0.00    -0.647 OA
HETATM   18  O4  UNL     1      -8.005  -9.760 -16.425  1.00  0.00    -0.647 OA
ENDBRANCH  15  16
ENDBRANCH   9  15
ENDBRANCH   7   8
ENDBRANCH   6   7
ENDBRANCH   5   6
BRANCH   5  19
HETATM   19  C23 UNL     1      -3.789  -4.772 -15.019  1.00  0.00     0.008 C 
HETATM   20  C24 UNL     1      -3.352  -4.674 -16.462  1.00  0.00     0.007 C 
HETATM   21  C25 UNL     1      -2.038  -5.444 -16.652  1.00  0.00     0.000 C 
HETATM   22  C26 UNL     1      -0.991  -4.688 -15.898  1.00  0.00     0.000 C 
HETATM   23  C27 UNL     1      -1.465  -3.862 -14.766  1.00  0.00     0.000 C 
HETATM   24  C28 UNL     1      -2.716  -4.314 -14.074  1.00  0.00     0.007 C 
ENDBRANCH   5  19
ENDBRANCH   1   5
BRANCH   3  25
HETATM   25  C10 UNL     1      -4.821  -1.073 -12.496  1.00  0.00     0.184 C 
HETATM   26  C11 UNL     1      -3.331  -0.840 -12.474  1.00  0.00     0.068 C 
HETATM   27  C12 UNL     1      -3.046   0.320 -13.381  1.00  0.00     0.142 C 
HETATM   28  C17 UNL     1      -4.368   0.745 -13.973  1.00  0.00     0.161 C 
HETATM   29  N3  UNL     1      -5.388  -0.032 -13.323  1.00  0.00    -0.312 N 
HETATM   30  C18 UNL     1      -6.774   0.195 -13.472  1.00  0.00     0.363 C 
HETATM   31  O8  UNL     1      -7.206   1.102 -14.198  1.00  0.00    -0.238 OA
BRANCH  27  32
HETATM   32  O7  UNL     1      -2.440   1.306 -12.649  1.00  0.00    -0.384 OA
BRANCH  32  33
HETATM   33  C13 UNL     1      -2.019   0.857 -11.408  1.00  0.00     0.172 C 
BRANCH  33  34
HETATM   34  C14 UNL     1      -1.599   2.004 -10.518  1.00  0.00     0.009 A 
HETATM   35  C15 UNL     1      -1.087   3.258 -11.169  1.00  0.00     0.007 A 
HETATM   36  C16 UNL     1      -0.103   2.358 -10.529  1.00  0.00     0.007 A 
ENDBRANCH  33  34
ENDBRANCH  32  33
ENDBRANCH  27  32
BRANCH  30  37
HETATM   37  O9  UNL     1      -7.665  -0.600 -12.806  1.00  0.00    -0.304 OA
BRANCH  37  38
HETATM   38  C19 UNL     1      -8.365  -0.249 -11.635  1.00  0.00     0.185 C 
BRANCH  38  39
HETATM   39  C20 UNL     1      -7.489   0.488 -10.648  1.00  0.00     0.010 A 
HETATM   40  C21 UNL     1      -8.265   1.367  -9.685  1.00  0.00     0.007 A 
HETATM   41  C22 UNL     1      -7.395   1.973 -10.698  1.00  0.00     0.007 A 
ENDBRANCH  38  39
ENDBRANCH  37  38
ENDBRANCH  30  37
ENDBRANCH   3  25
TORSDOF 16
ENDMDL
MODEL 4
REMARK VINA RESULT: -7.906998025      3.779      6.537
REMARK  16 active torsions:
REMARK  status: ('A' for Active; 'I' for Inactive)
REMARK    1  A    between atoms: C1_2  and  C2_4 
REMARK    2  A    between atoms: C2_4  and  N1_5 
REMARK    3  A    between atoms: N1_5  and  C3_6 
REMARK       I    between atoms: N1_5  and  C5_10 
REMARK    4  A    between atoms: C3_6  and  C4_7 
REMARK    5  A    between atoms: C5_10  and  C6_12 
REMARK    6  A    between atoms: C6_12  and  C7_13 
REMARK    7  A    between atoms: C7_13  and  C8_14 
REMARK    8  A    between atoms: C8_14  and  N2_15 
REMARK    9  A    between atoms: C8_14  and  C23_36 
REMARK       I    between atoms: N2_15  and  C9_17 
REMARK   10  A    between atoms: C9_17  and  C10_19 
REMARK   11  A    between atoms: C12_21  and  O7_22 
REMARK   12  A    between atoms: O7_22  and  C13_23 
REMARK   13  A    between atoms: C13_23  and  C14_24 
REMARK       I    between atoms: N3_28  and  C18_29 
REMARK   14  A    between atoms: C18_29  and  O9_31 
REMARK   15  A    between atoms: O9_31  and  C19_32 
REMARK   16  A    between atoms: C19_32  and  C20_33 
ROOT
HETATM    1  N2  UNL     1      -4.958  -4.478 -16.950  1.00  0.00    -0.354 N 
ATOM      2  H2  UNL     1      -5.615  -4.101 -17.634  1.00  0.00     0.162 HD
HETATM    3  C9  UNL     1      -4.101  -5.548 -17.290  1.00  0.00     0.241 C 
HETATM    4  O6  UNL     1      -3.306  -5.996 -16.434  1.00  0.00    -0.271 OA
ENDROOT
BRANCH   1   5
HETATM    5  C8  UNL     1      -4.888  -3.924 -15.607  1.00  0.00     0.089 C 
BRANCH   5   6
HETATM    6  C7  UNL     1      -3.871  -2.842 -15.502  1.00  0.00     0.034 C 
BRANCH   6   7
HETATM    7  C6  UNL     1      -3.610  -2.555 -14.040  1.00  0.00     0.105 C 
BRANCH   7   8
HETATM    8  C5  UNL     1      -3.711  -1.088 -13.758  1.00  0.00     0.220 C 
HETATM    9  N1  UNL     1      -4.736  -0.589 -12.910  1.00  0.00    -0.332 N 
HETATM   10  O5  UNL     1      -2.859  -0.340 -14.301  1.00  0.00    -0.273 OA
BRANCH   9  11
HETATM   11  C2  UNL     1      -5.698  -1.449 -12.290  1.00  0.00     0.239 C 
BRANCH  11  12
HETATM   12  C1  UNL     1      -7.080  -0.886 -12.362  1.00  0.00     0.191 C 
HETATM   13  O1  UNL     1      -7.686  -0.799 -13.455  1.00  0.00    -0.647 OA
HETATM   14  O2  UNL     1      -7.733  -0.443 -11.222  1.00  0.00    -0.647 OA
ENDBRANCH  11  12
ENDBRANCH   9  11
BRANCH   9  15
HETATM   15  C3  UNL     1      -4.784   0.842 -12.686  1.00  0.00     0.239 C 
BRANCH  15  16
HETATM   16  C4  UNL     1      -4.398   1.215 -11.326  1.00  0.00     0.191 C 
HETATM   17  O3  UNL     1      -3.239   0.988 -10.911  1.00  0.00    -0.647 OA
HETATM   18  O4  UNL     1      -5.302   1.823 -10.477  1.00  0.00    -0.647 OA
ENDBRANCH  15  16
ENDBRANCH   9  15
ENDBRANCH   7   8
ENDBRANCH   6   7
ENDBRANCH   5   6
BRANCH   5  19
HETATM   19  C23 UNL     1      -6.283  -3.473 -15.263  1.00  0.00     0.008 C 
HETATM   20  C24 UNL     1      -7.054  -3.243 -16.543  1.00  0.00     0.007 C 
HETATM   21  C25 UNL     1      -8.460  -2.727 -16.208  1.00  0.00     0.000 C 
HETATM   22  C26 UNL     1      -9.178  -3.858 -15.542  1.00  0.00     0.000 C 
HETATM   23  C27 UNL     1      -8.334  -4.859 -14.855  1.00  0.00     0.000 C 
HETATM   24  C28 UNL     1      -7.016  -4.383 -14.321  1.00  0.00     0.007 C 
ENDBRANCH   5  19
ENDBRANCH   1   5
BRANCH   3  25
HETATM   25  C10 UNL     1      -4.174  -6.107 -18.659  1.00  0.00     0.184 C 
HETATM   26  C11 UNL     1      -2.799  -6.228 -19.267  1.00  0.00     0.068 C 
HETATM   27  C12 UNL     1      -2.564  -7.681 -19.556  1.00  0.00     0.142 C 
HETATM   28  C17 UNL     1      -3.787  -8.424 -19.076  1.00  0.00     0.161 C 
HETATM   29  N3  UNL     1      -4.747  -7.434 -18.670  1.00  0.00    -0.312 N 
HETATM   30  C18 UNL     1      -6.086  -7.722 -18.326  1.00  0.00     0.363 C 
HETATM   31  O8  UNL     1      -6.526  -8.880 -18.351  1.00  0.00    -0.238 OA
BRANCH  27  32
HETATM   32  O7  UNL     1      -2.335  -7.827 -20.898  1.00  0.00    -0.384 OA
BRANCH  32  33
HETATM   33  C13 UNL     1      -1.268  -7.060 -21.336  1.00  0.00     0.172 C 
BRANCH  33  34
HETATM   34  C14 UNL     1      -0.487  -7.766 -22.420  1.00  0.00     0.009 A 
HETATM   35  C15 UNL     1      -0.074  -9.192 -22.185  1.00  0.00     0.007 A 
HETATM   36  C16 UNL     1       0.963  -8.143 -22.075  1.00  0.00     0.007 A 
ENDBRANCH  33  34
ENDBRANCH  32  33
ENDBRANCH  27  32
BRANCH  30  37
HETATM   37  O9  UNL     1      -6.923  -6.705 -17.956  1.00  0.00    -0.304 OA
BRANCH  37  38
HETATM   38  C19 UNL     1      -8.208  -6.464 -18.481  1.00  0.00     0.185 C 
BRANCH  38  39
HETATM   39  C20 UNL     1      -9.300  -6.978 -17.570  1.00  0.00     0.010 A 
HETATM   40  C21 UNL     1     -10.339  -7.822 -18.284  1.00  0.00     0.007 A 
HETATM   41  C22 UNL     1     -10.701  -6.506 -17.747  1.00  0.00     0.007 A 
ENDBRANCH  38  39
ENDBRANCH  37  38
ENDBRANCH  30  37
ENDBRANCH   3  25
TORSDOF 16
ENDMDL
MODEL 5
REMARK VINA RESULT: -7.895107804      1.163      1.667
REMARK  16 active torsions:
REMARK  status: ('A' for Active; 'I' for Inactive)
REMARK    1  A    between atoms: C1_2  and  C2_4 
REMARK    2  A    between atoms: C2_4  and  N1_5 
REMARK    3  A    between atoms: N1_5  and  C3_6 
REMARK       I    between atoms: N1_5  and  C5_10 
REMARK    4  A    between atoms: C3_6  and  C4_7 
REMARK    5  A    between atoms: C5_10  and  C6_12 
REMARK    6  A    between atoms: C6_12  and  C7_13 
REMARK    7  A    between atoms: C7_13  and  C8_14 
REMARK    8  A    between atoms: C8_14  and  N2_15 
REMARK    9  A    between atoms: C8_14  and  C23_36 
REMARK       I    between atoms: N2_15  and  C9_17 
REMARK   10  A    between atoms: C9_17  and  C10_19 
REMARK   11  A    between atoms: C12_21  and  O7_22 
REMARK   12  A    between atoms: O7_22  and  C13_23 
REMARK   13  A    between atoms: C13_23  and  C14_24 
REMARK       I    between atoms: N3_28  and  C18_29 
REMARK   14  A    between atoms: C18_29  and  O9_31 
REMARK   15  A    between atoms: O9_31  and  C19_32 
REMARK   16  A    between atoms: C19_32  and  C20_33 
ROOT
HETATM    1  N2  UNL     1      -7.215  -2.600 -13.675  1.00  0.00    -0.354 N 
ATOM      2  H2  UNL     1      -7.109  -3.378 -13.023  1.00  0.00     0.162 HD
HETATM    3  C9  UNL     1      -7.769  -2.807 -14.958  1.00  0.00     0.241 C 
HETATM    4  O6  UNL     1      -7.886  -1.840 -15.742  1.00  0.00    -0.271 OA
ENDROOT
BRANCH   1   5
HETATM    5  C8  UNL     1      -6.800  -1.257 -13.301  1.00  0.00     0.089 C 
BRANCH   5   6
HETATM    6  C7  UNL     1      -7.261  -0.891 -11.934  1.00  0.00     0.034 C 
BRANCH   6   7
HETATM    7  C6  UNL     1      -8.254   0.247 -12.041  1.00  0.00     0.105 C 
BRANCH   7   8
HETATM    8  C5  UNL     1      -7.549   1.565 -12.106  1.00  0.00     0.220 C 
HETATM    9  N1  UNL     1      -6.933   2.108 -10.947  1.00  0.00    -0.332 N 
HETATM   10  O5  UNL     1      -7.532   2.152 -13.218  1.00  0.00    -0.273 OA
BRANCH   9  11
HETATM   11  C2  UNL     1      -6.950   1.430  -9.686  1.00  0.00     0.239 C 
BRANCH  11  12
HETATM   12  C1  UNL     1      -7.474   2.299  -8.590  1.00  0.00     0.191 C 
HETATM   13  O1  UNL     1      -6.881   2.379  -7.489  1.00  0.00    -0.647 OA
HETATM   14  O2  UNL     1      -8.632   3.042  -8.757  1.00  0.00    -0.647 OA
ENDBRANCH  11  12
ENDBRANCH   9  11
BRANCH   9  15
HETATM   15  C3  UNL     1      -6.275   3.393 -11.076  1.00  0.00     0.239 C 
BRANCH  15  16
HETATM   16  C4  UNL     1      -4.833   3.316 -10.847  1.00  0.00     0.191 C 
HETATM   17  O3  UNL     1      -4.058   3.011 -11.783  1.00  0.00    -0.647 OA
HETATM   18  O4  UNL     1      -4.300   3.576  -9.600  1.00  0.00    -0.647 OA
ENDBRANCH  15  16
ENDBRANCH   9  15
ENDBRANCH   7   8
ENDBRANCH   6   7
ENDBRANCH   5   6
BRANCH   5  19
HETATM   19  C23 UNL     1      -5.302  -1.220 -13.459  1.00  0.00     0.008 C 
HETATM   20  C24 UNL     1      -4.902   0.122 -14.028  1.00  0.00     0.007 C 
HETATM   21  C25 UNL     1      -3.384   0.153 -14.248  1.00  0.00     0.000 C 
HETATM   22  C26 UNL     1      -2.758   0.126 -12.890  1.00  0.00     0.000 C 
HETATM   23  C27 UNL     1      -3.560  -0.488 -11.809  1.00  0.00     0.000 C 
HETATM   24  C28 UNL     1      -4.537  -1.552 -12.211  1.00  0.00     0.007 C 
ENDBRANCH   5  19
ENDBRANCH   1   5
BRANCH   3  25
HETATM   25  C10 UNL     1      -8.192  -4.176 -15.334  1.00  0.00     0.184 C 
HETATM   26  C11 UNL     1      -9.651  -4.203 -15.718  1.00  0.00     0.068 C 
HETATM   27  C12 UNL     1      -9.729  -4.656 -17.145  1.00  0.00     0.142 C 
HETATM   28  C17 UNL     1      -8.309  -4.855 -17.617  1.00  0.00     0.161 C 
HETATM   29  N3  UNL     1      -7.457  -4.674 -16.474  1.00  0.00    -0.312 N 
HETATM   30  C18 UNL     1      -6.073  -4.951 -16.464  1.00  0.00     0.363 C 
HETATM   31  O8  UNL     1      -5.491  -5.376 -17.473  1.00  0.00    -0.238 OA
BRANCH  27  32
HETATM   32  O7  UNL     1     -10.481  -5.799 -17.199  1.00  0.00    -0.384 OA
BRANCH  32  33
HETATM   33  C13 UNL     1     -10.183  -6.574 -18.308  1.00  0.00     0.172 C 
BRANCH  33  34
HETATM   34  C14 UNL     1     -10.052  -8.034 -17.944  1.00  0.00     0.009 A 
HETATM   35  C15 UNL     1      -8.855  -8.461 -17.141  1.00  0.00     0.007 A 
HETATM   36  C16 UNL     1      -8.874  -8.790 -18.583  1.00  0.00     0.007 A 
ENDBRANCH  33  34
ENDBRANCH  32  33
ENDBRANCH  27  32
BRANCH  30  37
HETATM   37  O9  UNL     1      -5.350  -4.748 -15.321  1.00  0.00    -0.304 OA
BRANCH  37  38
HETATM   38  C19 UNL     1      -3.983  -5.043 -15.148  1.00  0.00     0.185 C 
BRANCH  38  39
HETATM   39  C20 UNL     1      -3.239  -3.915 -14.468  1.00  0.00     0.010 A 
HETATM   40  C21 UNL     1      -2.462  -3.035 -15.429  1.00  0.00     0.007 A 
HETATM   41  C22 UNL     1      -1.751  -3.893 -14.476  1.00  0.00     0.007 A 
ENDBRANCH  38  39
ENDBRANCH  37  38
ENDBRANCH  30  37
ENDBRANCH   3  25
TORSDOF 16
ENDMDL
