MODEL 1
REMARK VINA RESULT: -9.110445081      0.000      0.000
REMARK  16 active torsions:
REMARK  status: ('A' for Active; 'I' for Inactive)
REMARK    1  A    between atoms: C2_2  and  C3_3 
REMARK    2  A    between atoms: C3_3  and  C4_4 
REMARK    3  A    between atoms: C4_4  and  C5_5 
REMARK    4  A    between atoms: C5_5  and  O1_6 
REMARK    5  A    between atoms: C5_5  and  C8_10 
REMARK    6  A    between atoms: O1_6  and  C6_7 
REMARK       I    between atoms: C8_10  and  N1_12 
REMARK       I    between atoms: N1_12  and  C9_14 
REMARK    7  A    between atoms: C9_14  and  C10_16 
REMARK    8  A    between atoms: C11_17  and  C12_18 
REMARK    9  A    between atoms: C12_18  and  N2_19 
REMARK       I    between atoms: N2_19  and  C13_21 
REMARK   10  A    between atoms: C13_21  and  C14_23 
REMARK   11  A    between atoms: C14_23  and  C15_24 
REMARK   12  A    between atoms: C14_23  and  N3_28 
REMARK   13  A    between atoms: C15_24  and  C16_25 
REMARK       I    between atoms: N3_28  and  C19_30 
REMARK   14  A    between atoms: C19_30  and  C20_32 
REMARK   15  A    between atoms: N4_40  and  C27_41 
REMARK   16  A    between atoms: C27_41  and  C28_42 
ROOT
HETATM    1  C10 UNL     1      -5.337  -2.007 -16.050  1.00  0.00     0.322 C 
HETATM    2  C11 UNL     1      -5.046  -1.270 -14.800  1.00  0.00     0.079 C 
HETATM    3  C25 UNL     1      -3.745  -2.029 -14.827  1.00  0.00     0.228 C 
HETATM    4  C26 UNL     1      -3.413  -2.513 -13.431  1.00  0.00     0.043 C 
HETATM    5  N4  UNL     1      -4.352  -2.992 -15.687  1.00  0.00     0.107 N 
ENDROOT
BRANCH   2   6
HETATM    6  C12 UNL     1      -4.804   0.220 -14.951  1.00  0.00     0.132 C 
BRANCH   6   7
HETATM    7  N2  UNL     1      -4.839   0.921 -13.708  1.00  0.00    -0.359 N 
HETATM    8  C13 UNL     1      -3.725   1.142 -12.878  1.00  0.00     0.240 C 
HETATM    9  O5  UNL     1      -2.606   0.707 -13.222  1.00  0.00    -0.271 OA
ATOM     10  H2  UNL     1      -5.738   1.289 -13.398  1.00  0.00     0.162 HD
BRANCH   8  11
HETATM   11  C14 UNL     1      -3.802   1.894 -11.567  1.00  0.00     0.177 C 
BRANCH  11  12
HETATM   12  C15 UNL     1      -2.548   2.672 -11.471  1.00  0.00     0.038 C 
BRANCH  12  13
HETATM   13  C16 UNL     1      -1.543   2.248 -10.465  1.00  0.00    -0.020 C 
HETATM   14  C17 UNL     1      -0.118   2.356 -10.965  1.00  0.00     0.009 C 
HETATM   15  C18 UNL     1      -1.798   0.936  -9.800  1.00  0.00     0.009 C 
ENDBRANCH  12  13
ENDBRANCH  11  12
BRANCH  11  16
HETATM   16  N3  UNL     1      -4.997   2.681 -11.517  1.00  0.00    -0.347 N 
HETATM   17  C19 UNL     1      -6.157   2.317 -10.779  1.00  0.00     0.222 C 
HETATM   18  O6  UNL     1      -6.061   1.222 -10.143  1.00  0.00    -0.273 OA
ATOM     19  H3  UNL     1      -5.017   3.555 -12.041  1.00  0.00     0.163 HD
BRANCH  17  20
HETATM   20  C20 UNL     1      -7.407   3.106 -10.721  1.00  0.00     0.082 C 
HETATM   21  C21 UNL     1      -7.427   4.277 -11.617  1.00  0.00     0.040 C 
HETATM   22  C22 UNL     1      -6.921   5.551 -11.012  1.00  0.00     0.168 C 
HETATM   23  O7  UNL     1      -7.280   5.704  -9.683  1.00  0.00    -0.391 OA
HETATM   24  C23 UNL     1      -6.878   4.671  -8.866  1.00  0.00     0.168 C 
HETATM   25  C24 UNL     1      -7.673   3.441  -9.270  1.00  0.00     0.040 C 
ENDBRANCH  17  20
ENDBRANCH  11  16
ENDBRANCH   8  11
ENDBRANCH   6   7
ENDBRANCH   2   6
BRANCH   1  26
HETATM   26  C9  UNL     1      -6.715  -2.530 -16.204  1.00  0.00     0.258 C 
HETATM   27  N1  UNL     1      -6.894  -3.790 -16.823  1.00  0.00    -0.294 N 
HETATM   28  C8  UNL     1      -8.171  -4.343 -17.009  1.00  0.00     0.254 C 
ATOM     29  H1  UNL     1      -6.076  -4.309 -17.141  1.00  0.00     0.171 HD
HETATM   30  O3  UNL     1      -9.201  -3.743 -16.625  1.00  0.00    -0.270 OA
HETATM   31  O4  UNL     1      -7.729  -1.907 -15.810  1.00  0.00    -0.271 OA
BRANCH  28  32
HETATM   32  C5  UNL     1      -8.352  -5.671 -17.674  1.00  0.00     0.224 C 
BRANCH  32  33
HETATM   33  C4  UNL     1      -9.760  -5.792 -18.144  1.00  0.00     0.042 C 
BRANCH  33  34
HETATM   34  C3  UNL     1     -10.386  -7.111 -17.840  1.00  0.00     0.003 C 
BRANCH  34  35
HETATM   35  C2  UNL     1      -9.912  -8.210 -18.756  1.00  0.00    -0.004 C 
HETATM   36  C1  UNL     1      -9.271  -9.312 -17.917  1.00  0.00     0.005 C 
ENDBRANCH  34  35
ENDBRANCH  33  34
ENDBRANCH  32  33
BRANCH  32  37
HETATM   37  O1  UNL     1      -7.480  -5.790 -18.762  1.00  0.00    -0.307 OA
BRANCH  37  38
HETATM   38  C6  UNL     1      -6.309  -6.503 -18.816  1.00  0.00     0.255 C 
HETATM   39  C7  UNL     1      -6.089  -7.609 -17.846  1.00  0.00     0.126 C 
HETATM   40  O2  UNL     1      -5.458  -6.204 -19.680  1.00  0.00    -0.266 OA
ENDBRANCH  37  38
ENDBRANCH  32  37
ENDBRANCH  28  32
ENDBRANCH   1  26
BRANCH   5  41
HETATM   41  C27 UNL     1      -3.582  -3.368 -16.854  1.00  0.00     0.278 C 
BRANCH  41  42
HETATM   42  C28 UNL     1      -3.316  -4.851 -16.944  1.00  0.00     0.006 C 
HETATM   43  C29 UNL     1      -1.852  -5.200 -16.947  1.00  0.00     0.011 C 
HETATM   44  C30 UNL     1      -3.948  -5.495 -15.728  1.00  0.00     0.011 C 
ENDBRANCH  41  42
ENDBRANCH   5  41
TORSDOF 16
ENDMDL
MODEL 2
REMARK VINA RESULT: -8.944170827      1.811      4.348
REMARK  16 active torsions:
REMARK  status: ('A' for Active; 'I' for Inactive)
REMARK    1  A    between atoms: C2_2  and  C3_3 
REMARK    2  A    between atoms: C3_3  and  C4_4 
REMARK    3  A    between atoms: C4_4  and  C5_5 
REMARK    4  A    between atoms: C5_5  and  O1_6 
REMARK    5  A    between atoms: C5_5  and  C8_10 
REMARK    6  A    between atoms: O1_6  and  C6_7 
REMARK       I    between atoms: C8_10  and  N1_12 
REMARK       I    between atoms: N1_12  and  C9_14 
REMARK    7  A    between atoms: C9_14  and  C10_16 
REMARK    8  A    between atoms: C11_17  and  C12_18 
REMARK    9  A    between atoms: C12_18  and  N2_19 
REMARK       I    between atoms: N2_19  and  C13_21 
REMARK   10  A    between atoms: C13_21  and  C14_23 
REMARK   11  A    between atoms: C14_23  and  C15_24 
REMARK   12  A    between atoms: C14_23  and  N3_28 
REMARK   13  A    between atoms: C15_24  and  C16_25 
REMARK       I    between atoms: N3_28  and  C19_30 
REMARK   14  A    between atoms: C19_30  and  C20_32 
REMARK   15  A    between atoms: N4_40  and  C27_41 
REMARK   16  A    between atoms: C27_41  and  C28_42 
ROOT
HETATM    1  C10 UNL     1      -6.045  -2.782 -14.897  1.00  0.00     0.322 C 
HETATM    2  C11 UNL     1      -6.359  -2.204 -13.571  1.00  0.00     0.079 C 
HETATM    3  C25 UNL     1      -4.884  -1.899 -13.516  1.00  0.00     0.228 C 
HETATM    4  C26 UNL     1      -4.354  -2.213 -12.133  1.00  0.00     0.043 C 
HETATM    5  N4  UNL     1      -4.665  -2.903 -14.506  1.00  0.00     0.107 N 
ENDROOT
BRANCH   2   6
HETATM    6  C12 UNL     1      -7.175  -0.925 -13.583  1.00  0.00     0.132 C 
BRANCH   6   7
HETATM    7  N2  UNL     1      -6.520   0.162 -12.927  1.00  0.00    -0.359 N 
HETATM    8  C13 UNL     1      -6.667   0.485 -11.566  1.00  0.00     0.240 C 
HETATM    9  O5  UNL     1      -7.418  -0.206 -10.848  1.00  0.00    -0.271 OA
ATOM     10  H2  UNL     1      -5.900   0.747 -13.487  1.00  0.00     0.162 HD
BRANCH   8  11
HETATM   11  C14 UNL     1      -5.953   1.645 -10.907  1.00  0.00     0.177 C 
BRANCH  11  12
HETATM   12  C15 UNL     1      -6.795   2.039  -9.758  1.00  0.00     0.038 C 
BRANCH  12  13
HETATM   13  C16 UNL     1      -7.672   3.227  -9.914  1.00  0.00    -0.020 C 
HETATM   14  C17 UNL     1      -7.366   4.032 -11.160  1.00  0.00     0.009 C 
HETATM   15  C18 UNL     1      -7.810   4.100  -8.711  1.00  0.00     0.009 C 
ENDBRANCH  12  13
ENDBRANCH  11  12
BRANCH  11  16
HETATM   16  N3  UNL     1      -4.614   1.272 -10.563  1.00  0.00    -0.347 N 
HETATM   17  C19 UNL     1      -3.530   1.265 -11.484  1.00  0.00     0.222 C 
HETATM   18  O6  UNL     1      -3.832   1.630 -12.662  1.00  0.00    -0.273 OA
ATOM     19  H3  UNL     1      -4.426   0.994  -9.600  1.00  0.00     0.163 HD
BRANCH  17  20
HETATM   20  C20 UNL     1      -2.142   0.873 -11.157  1.00  0.00     0.082 C 
HETATM   21  C21 UNL     1      -1.829   0.895  -9.717  1.00  0.00     0.040 C 
HETATM   22  C22 UNL     1      -1.289   2.195  -9.201  1.00  0.00     0.168 C 
HETATM   23  O7  UNL     1      -0.435   2.822 -10.094  1.00  0.00    -0.391 OA
HETATM   24  C23 UNL     1      -0.989   3.067 -11.331  1.00  0.00     0.168 C 
HETATM   25  C24 UNL     1      -1.213   1.720 -11.998  1.00  0.00     0.040 C 
ENDBRANCH  17  20
ENDBRANCH  11  16
ENDBRANCH   8  11
ENDBRANCH   6   7
ENDBRANCH   2   6
BRANCH   1  26
HETATM   26  C9  UNL     1      -6.711  -4.062 -15.234  1.00  0.00     0.258 C 
HETATM   27  N1  UNL     1      -6.718  -4.485 -16.585  1.00  0.00    -0.294 N 
HETATM   28  C8  UNL     1      -7.337  -5.681 -16.978  1.00  0.00     0.254 C 
ATOM     29  H1  UNL     1      -6.263  -3.906 -17.290  1.00  0.00     0.171 HD
HETATM   30  O3  UNL     1      -7.902  -6.425 -16.144  1.00  0.00    -0.270 OA
HETATM   31  O4  UNL     1      -7.269  -4.788 -14.378  1.00  0.00    -0.271 OA
BRANCH  28  32
HETATM   32  C5  UNL     1      -7.350  -6.115 -18.410  1.00  0.00     0.224 C 
BRANCH  32  33
HETATM   33  C4  UNL     1      -6.242  -7.084 -18.635  1.00  0.00     0.042 C 
BRANCH  33  34
HETATM   34  C3  UNL     1      -5.090  -6.516 -19.393  1.00  0.00     0.003 C 
BRANCH  34  35
HETATM   35  C2  UNL     1      -3.918  -7.463 -19.474  1.00  0.00    -0.004 C 
HETATM   36  C1  UNL     1      -2.803  -6.802 -20.279  1.00  0.00     0.005 C 
ENDBRANCH  34  35
ENDBRANCH  33  34
ENDBRANCH  32  33
BRANCH  32  37
HETATM   37  O1  UNL     1      -8.574  -6.720 -18.721  1.00  0.00    -0.307 OA
BRANCH  37  38
HETATM   38  C6  UNL     1      -9.830  -6.270 -18.399  1.00  0.00     0.255 C 
HETATM   39  C7  UNL     1     -10.821  -7.228 -17.839  1.00  0.00     0.126 C 
HETATM   40  O2  UNL     1     -10.107  -5.066 -18.584  1.00  0.00    -0.266 OA
ENDBRANCH  37  38
ENDBRANCH  32  37
ENDBRANCH  28  32
ENDBRANCH   1  26
BRANCH   5  41
HETATM   41  C27 UNL     1      -3.809  -2.522 -15.610  1.00  0.00     0.278 C 
BRANCH  41  42
HETATM   42  C28 UNL     1      -2.630  -3.445 -15.800  1.00  0.00     0.006 C 
HETATM   43  C29 UNL     1      -2.024  -3.921 -14.507  1.00  0.00     0.011 C 
HETATM   44  C30 UNL     1      -3.126  -4.657 -16.559  1.00  0.00     0.011 C 
ENDBRANCH  41  42
ENDBRANCH   5  41
TORSDOF 16
ENDMDL
MODEL 3
REMARK VINA RESULT: -8.920429305      1.238      3.398
REMARK  16 active torsions:
REMARK  status: ('A' for Active; 'I' for Inactive)
REMARK    1  A    between atoms: C2_2  and  C3_3 
REMARK    2  A    between atoms: C3_3  and  C4_4 
REMARK    3  A    between atoms: C4_4  and  C5_5 
REMARK    4  A    between atoms: C5_5  and  O1_6 
REMARK    5  A    between atoms: C5_5  and  C8_10 
REMARK    6  A    between atoms: O1_6  and  C6_7 
REMARK       I    between atoms: C8_10  and  N1_12 
REMARK       I    between atoms: N1_12  and  C9_14 
REMARK    7  A    between atoms: C9_14  and  C10_16 
REMARK    8  A    between atoms: C11_17  and  C12_18 
REMARK    9  A    between atoms: C12_18  and  N2_19 
REMARK       I    between atoms: N2_19  and  C13_21 
REMARK   10  A    between atoms: C13_21  and  C14_23 
REMARK   11  A    between atoms: C14_23  and  C15_24 
REMARK   12  A    between atoms: C14_23  and  N3_28 
REMARK   13  A    between atoms: C15_24  and  C16_25 
REMARK       I    between atoms: N3_28  and  C19_30 
REMARK   14  A    between atoms: C19_30  and  C20_32 
REMARK   15  A    between atoms: N4_40  and  C27_41 
REMARK   16  A    between atoms: C27_41  and  C28_42 
ROOT
HETATM    1  C10 UNL     1      -5.521  -2.039 -16.088  1.00  0.00     0.322 C 
HETATM    2  C11 UNL     1      -5.308  -1.263 -14.845  1.00  0.00     0.079 C 
HETATM    3  C25 UNL     1      -3.962  -1.941 -14.825  1.00  0.00     0.228 C 
HETATM    4  C26 UNL     1      -3.637  -2.378 -13.413  1.00  0.00     0.043 C 
HETATM    5  N4  UNL     1      -4.487  -2.955 -15.681  1.00  0.00     0.107 N 
ENDROOT
BRANCH   2   6
HETATM    6  C12 UNL     1      -5.154   0.236 -15.019  1.00  0.00     0.132 C 
BRANCH   6   7
HETATM    7  N2  UNL     1      -5.115   0.942 -13.779  1.00  0.00    -0.359 N 
HETATM    8  C13 UNL     1      -6.224   1.155 -12.940  1.00  0.00     0.240 C 
HETATM    9  O5  UNL     1      -7.341   0.710 -13.273  1.00  0.00    -0.271 OA
ATOM     10  H2  UNL     1      -4.217   1.320 -13.478  1.00  0.00     0.162 HD
BRANCH   8  11
HETATM   11  C14 UNL     1      -6.141   1.907 -11.630  1.00  0.00     0.177 C 
BRANCH  11  12
HETATM   12  C15 UNL     1      -7.325   1.491 -10.848  1.00  0.00     0.038 C 
BRANCH  12  13
HETATM   13  C16 UNL     1      -7.790   2.388  -9.761  1.00  0.00    -0.020 C 
HETATM   14  C17 UNL     1      -7.577   3.856 -10.068  1.00  0.00     0.009 C 
HETATM   15  C18 UNL     1      -7.330   2.040  -8.384  1.00  0.00     0.009 C 
ENDBRANCH  12  13
ENDBRANCH  11  12
BRANCH  11  16
HETATM   16  N3  UNL     1      -4.886   1.652 -10.990  1.00  0.00    -0.347 N 
HETATM   17  C19 UNL     1      -3.877   2.637 -10.798  1.00  0.00     0.222 C 
HETATM   18  O6  UNL     1      -4.173   3.792 -11.235  1.00  0.00    -0.273 OA
ATOM     19  H3  UNL     1      -4.704   0.708 -10.652  1.00  0.00     0.163 HD
BRANCH  17  20
HETATM   20  C20 UNL     1      -2.569   2.395 -10.153  1.00  0.00     0.082 C 
HETATM   21  C21 UNL     1      -1.557   3.432 -10.424  1.00  0.00     0.040 C 
HETATM   22  C22 UNL     1      -0.697   3.185 -11.627  1.00  0.00     0.168 C 
HETATM   23  O7  UNL     1      -0.366   1.851 -11.795  1.00  0.00    -0.391 OA
HETATM   24  C23 UNL     1      -1.450   1.006 -11.882  1.00  0.00     0.168 C 
HETATM   25  C24 UNL     1      -2.124   0.996 -10.520  1.00  0.00     0.040 C 
ENDBRANCH  17  20
ENDBRANCH  11  16
ENDBRANCH   8  11
ENDBRANCH   6   7
ENDBRANCH   2   6
BRANCH   1  26
HETATM   26  C9  UNL     1      -6.860  -2.649 -16.264  1.00  0.00     0.258 C 
HETATM   27  N1  UNL     1      -6.948  -3.913 -16.895  1.00  0.00    -0.294 N 
HETATM   28  C8  UNL     1      -8.183  -4.546 -17.103  1.00  0.00     0.254 C 
ATOM     29  H1  UNL     1      -6.094  -4.375 -17.206  1.00  0.00     0.171 HD
HETATM   30  O3  UNL     1      -9.256  -4.017 -16.730  1.00  0.00    -0.270 OA
HETATM   31  O4  UNL     1      -7.918  -2.096 -15.881  1.00  0.00    -0.271 OA
BRANCH  28  32
HETATM   32  C5  UNL     1      -8.269  -5.878 -17.780  1.00  0.00     0.224 C 
BRANCH  32  33
HETATM   33  C4  UNL     1      -9.647  -6.066 -18.312  1.00  0.00     0.042 C 
BRANCH  33  34
HETATM   34  C3  UNL     1     -10.271  -7.363 -17.924  1.00  0.00     0.003 C 
BRANCH  34  35
HETATM   35  C2  UNL     1      -9.792  -8.519 -18.765  1.00  0.00    -0.004 C 
HETATM   36  C1  UNL     1      -9.166  -9.569 -17.852  1.00  0.00     0.005 C 
ENDBRANCH  34  35
ENDBRANCH  33  34
ENDBRANCH  32  33
BRANCH  32  37
HETATM   37  O1  UNL     1      -7.346  -5.947 -18.830  1.00  0.00    -0.307 OA
BRANCH  37  38
HETATM   38  C6  UNL     1      -6.171  -6.656 -18.860  1.00  0.00     0.255 C 
HETATM   39  C7  UNL     1      -5.943  -7.722 -17.848  1.00  0.00     0.126 C 
HETATM   40  O2  UNL     1      -5.325  -6.387 -19.738  1.00  0.00    -0.266 OA
ENDBRANCH  37  38
ENDBRANCH  32  37
ENDBRANCH  28  32
ENDBRANCH   1  26
BRANCH   5  41
HETATM   41  C27 UNL     1      -3.666  -3.303 -16.822  1.00  0.00     0.278 C 
BRANCH  41  42
HETATM   42  C28 UNL     1      -3.474  -4.791 -16.989  1.00  0.00     0.006 C 
HETATM   43  C29 UNL     1      -2.047  -5.186 -17.258  1.00  0.00     0.011 C 
HETATM   44  C30 UNL     1      -3.906  -5.448 -15.696  1.00  0.00     0.011 C 
ENDBRANCH  41  42
ENDBRANCH   5  41
TORSDOF 16
ENDMDL
MODEL 4
REMARK VINA RESULT: -8.905347994      2.009     10.632
REMARK  16 active torsions:
REMARK  status: ('A' for Active; 'I' for Inactive)
REMARK    1  A    between atoms: C2_2  and  C3_3 
REMARK    2  A    between atoms: C3_3  and  C4_4 
REMARK    3  A    between atoms: C4_4  and  C5_5 
REMARK    4  A    between atoms: C5_5  and  O1_6 
REMARK    5  A    between atoms: C5_5  and  C8_10 
REMARK    6  A    between atoms: O1_6  and  C6_7 
REMARK       I    between atoms: C8_10  and  N1_12 
REMARK       I    between atoms: N1_12  and  C9_14 
REMARK    7  A    between atoms: C9_14  and  C10_16 
REMARK    8  A    between atoms: C11_17  and  C12_18 
REMARK    9  A    between atoms: C12_18  and  N2_19 
REMARK       I    between atoms: N2_19  and  C13_21 
REMARK   10  A    between atoms: C13_21  and  C14_23 
REMARK   11  A    between atoms: C14_23  and  C15_24 
REMARK   12  A    between atoms: C14_23  and  N3_28 
REMARK   13  A    between atoms: C15_24  and  C16_25 
REMARK       I    between atoms: N3_28  and  C19_30 
REMARK   14  A    between atoms: C19_30  and  C20_32 
REMARK   15  A    between atoms: N4_40  and  C27_41 
REMARK   16  A    between atoms: C27_41  and  C28_42 
ROOT
HETATM    1  C10 UNL     1      -5.392  -0.009 -14.424  1.00  0.00     0.322 C 
HETATM    2  C11 UNL     1      -5.586  -1.380 -14.946  1.00  0.00     0.079 C 
HETATM    3  C25 UNL     1      -7.003  -1.208 -14.462  1.00  0.00     0.228 C 
HETATM    4  C26 UNL     1      -7.465  -2.482 -13.788  1.00  0.00     0.043 C 
HETATM    5  N4  UNL     1      -6.553  -0.174 -13.588  1.00  0.00     0.107 N 
ENDROOT
BRANCH   2   6
HETATM    6  C12 UNL     1      -5.546  -1.525 -16.455  1.00  0.00     0.132 C 
BRANCH   6   7
HETATM    7  N2  UNL     1      -5.610  -2.884 -16.889  1.00  0.00    -0.359 N 
HETATM    8  C13 UNL     1      -4.675  -3.880 -16.554  1.00  0.00     0.240 C 
HETATM    9  O5  UNL     1      -3.702  -3.589 -15.828  1.00  0.00    -0.271 OA
ATOM     10  H2  UNL     1      -6.393  -3.153 -17.485  1.00  0.00     0.162 HD
BRANCH   8  11
HETATM   11  C14 UNL     1      -4.779  -5.311 -17.031  1.00  0.00     0.177 C 
BRANCH  11  12
HETATM   12  C15 UNL     1      -3.567  -5.995 -16.532  1.00  0.00     0.038 C 
BRANCH  12  13
HETATM   13  C16 UNL     1      -2.849  -6.902 -17.461  1.00  0.00    -0.020 C 
HETATM   14  C17 UNL     1      -2.867  -6.421 -18.897  1.00  0.00     0.009 C 
HETATM   15  C18 UNL     1      -3.198  -8.351 -17.360  1.00  0.00     0.009 C 
ENDBRANCH  12  13
ENDBRANCH  11  12
BRANCH  11  16
HETATM   16  N3  UNL     1      -6.013  -5.891 -16.593  1.00  0.00    -0.347 N 
HETATM   17  C19 UNL     1      -7.113  -6.163 -17.453  1.00  0.00     0.222 C 
HETATM   18  O6  UNL     1      -6.923  -5.858 -18.671  1.00  0.00    -0.273 OA
ATOM     19  H3  UNL     1      -6.109  -6.123 -15.605  1.00  0.00     0.163 HD
BRANCH  17  20
HETATM   20  C20 UNL     1      -8.400  -6.749 -17.022  1.00  0.00     0.082 C 
HETATM   21  C21 UNL     1      -9.467  -6.685 -18.038  1.00  0.00     0.040 C 
HETATM   22  C22 UNL     1     -10.325  -5.457 -17.985  1.00  0.00     0.168 C 
HETATM   23  O7  UNL     1     -10.589  -5.032 -16.693  1.00  0.00    -0.391 OA
HETATM   24  C23 UNL     1      -9.464  -4.782 -15.939  1.00  0.00     0.168 C 
HETATM   25  C24 UNL     1      -8.776  -6.116 -15.700  1.00  0.00     0.040 C 
ENDBRANCH  17  20
ENDBRANCH  11  16
ENDBRANCH   8  11
ENDBRANCH   6   7
ENDBRANCH   2   6
BRANCH   1  26
HETATM   26  C9  UNL     1      -4.129   0.248 -13.692  1.00  0.00     0.258 C 
HETATM   27  N1  UNL     1      -4.057   1.377 -12.843  1.00  0.00    -0.294 N 
HETATM   28  C8  UNL     1      -2.890   1.686 -12.127  1.00  0.00     0.254 C 
ATOM     29  H1  UNL     1      -4.872   1.982 -12.749  1.00  0.00     0.171 HD
HETATM   30  O3  UNL     1      -1.869   0.966 -12.208  1.00  0.00    -0.270 OA
HETATM   31  O4  UNL     1      -3.120  -0.491 -13.793  1.00  0.00    -0.271 OA
BRANCH  28  32
HETATM   32  C5  UNL     1      -2.819   2.888 -11.239  1.00  0.00     0.224 C 
BRANCH  32  33
HETATM   33  C4  UNL     1      -1.400   3.327 -11.127  1.00  0.00     0.042 C 
BRANCH  33  34
HETATM   34  C3  UNL     1      -0.702   2.807  -9.916  1.00  0.00     0.003 C 
BRANCH  34  35
HETATM   35  C2  UNL     1      -1.613   2.689  -8.720  1.00  0.00    -0.004 C 
HETATM   36  C1  UNL     1      -1.402   3.900  -7.816  1.00  0.00     0.005 C 
ENDBRANCH  34  35
ENDBRANCH  33  34
ENDBRANCH  32  33
BRANCH  32  37
HETATM   37  O1  UNL     1      -3.592   3.927 -11.770  1.00  0.00    -0.307 OA
BRANCH  37  38
HETATM   38  C6  UNL     1      -4.516   4.698 -11.109  1.00  0.00     0.255 C 
HETATM   39  C7  UNL     1      -4.577   4.641  -9.624  1.00  0.00     0.126 C 
HETATM   40  O2  UNL     1      -5.280   5.429 -11.773  1.00  0.00    -0.266 OA
ENDBRANCH  37  38
ENDBRANCH  32  37
ENDBRANCH  28  32
ENDBRANCH   1  26
BRANCH   5  41
HETATM   41  C27 UNL     1      -7.338   1.043 -13.595  1.00  0.00     0.278 C 
BRANCH  41  42
HETATM   42  C28 UNL     1      -7.983   1.347 -12.265  1.00  0.00     0.006 C 
HETATM   43  C29 UNL     1      -7.899   0.210 -11.282  1.00  0.00     0.011 C 
HETATM   44  C30 UNL     1      -7.253   2.533 -11.671  1.00  0.00     0.011 C 
ENDBRANCH  41  42
ENDBRANCH   5  41
TORSDOF 16
ENDMDL
MODEL 5
REMARK VINA RESULT: -8.868935596      1.436      3.273
REMARK  16 active torsions:
REMARK  status: ('A' for Active; 'I' for Inactive)
REMARK    1  A    between atoms: C2_2  and  C3_3 
REMARK    2  A    between atoms: C3_3  and  C4_4 
REMARK    3  A    between atoms: C4_4  and  C5_5 
REMARK    4  A    between atoms: C5_5  and  O1_6 
REMARK    5  A    between atoms: C5_5  and  C8_10 
REMARK    6  A    between atoms: O1_6  and  C6_7 
REMARK       I    between atoms: C8_10  and  N1_12 
REMARK       I    between atoms: N1_12  and  C9_14 
REMARK    7  A    between atoms: C9_14  and  C10_16 
REMARK    8  A    between atoms: C11_17  and  C12_18 
REMARK    9  A    between atoms: C12_18  and  N2_19 
REMARK       I    between atoms: N2_19  and  C13_21 
REMARK   10  A    between atoms: C13_21  and  C14_23 
REMARK   11  A    between atoms: C14_23  and  C15_24 
REMARK   12  A    between atoms: C14_23  and  N3_28 
REMARK   13  A    between atoms: C15_24  and  C16_25 
REMARK       I    between atoms: N3_28  and  C19_30 
REMARK   14  A    between atoms: C19_30  and  C20_32 
REMARK   15  A    between atoms: N4_40  and  C27_41 
REMARK   16  A    between atoms: C27_41  and  C28_42 
ROOT
HETATM    1  C10 UNL     1      -5.403  -2.125 -16.123  1.00  0.00     0.322 C 
HETATM    2  C11 UNL     1      -5.171  -1.388 -14.861  1.00  0.00     0.079 C 
HETATM    3  C25 UNL     1      -3.849  -2.111 -14.851  1.00  0.00     0.228 C 
HETATM    4  C26 UNL     1      -3.548  -2.594 -13.448  1.00  0.00     0.043 C 
HETATM    5  N4  UNL     1      -4.403  -3.086 -15.734  1.00  0.00     0.107 N 
ENDROOT
BRANCH   2   6
HETATM    6  C12 UNL     1      -4.965   0.109 -14.998  1.00  0.00     0.132 C 
BRANCH   6   7
HETATM    7  N2  UNL     1      -4.762   0.762 -13.744  1.00  0.00    -0.359 N 
HETATM    8  C13 UNL     1      -5.788   1.271 -12.928  1.00  0.00     0.240 C 
HETATM    9  O5  UNL     1      -6.976   1.163 -13.295  1.00  0.00    -0.271 OA
ATOM     10  H2  UNL     1      -3.802   0.868 -13.417  1.00  0.00     0.162 HD
BRANCH   8  11
HETATM   11  C14 UNL     1      -5.532   1.956 -11.603  1.00  0.00     0.177 C 
BRANCH  11  12
HETATM   12  C15 UNL     1      -5.994   1.012 -10.563  1.00  0.00     0.038 C 
BRANCH  12  13
HETATM   13  C16 UNL     1      -7.275   1.309  -9.876  1.00  0.00    -0.020 C 
HETATM   14  C17 UNL     1      -8.385   0.345 -10.242  1.00  0.00     0.009 C 
HETATM   15  C18 UNL     1      -7.734   2.729  -9.934  1.00  0.00     0.009 C 
ENDBRANCH  12  13
ENDBRANCH  11  12
BRANCH  11  16
HETATM   16  N3  UNL     1      -4.154   2.331 -11.497  1.00  0.00    -0.347 N 
HETATM   17  C19 UNL     1      -3.710   3.605 -11.048  1.00  0.00     0.222 C 
HETATM   18  O6  UNL     1      -4.639   4.410 -10.729  1.00  0.00    -0.273 OA
ATOM     19  H3  UNL     1      -3.449   1.643 -11.759  1.00  0.00     0.163 HD
BRANCH  17  20
HETATM   20  C20 UNL     1      -2.294   4.020 -10.941  1.00  0.00     0.082 C 
HETATM   21  C21 UNL     1      -1.328   3.006 -11.401  1.00  0.00     0.040 C 
HETATM   22  C22 UNL     1      -0.843   2.062 -10.343  1.00  0.00     0.168 C 
HETATM   23  O7  UNL     1      -0.657   2.671  -9.113  1.00  0.00    -0.391 OA
HETATM   24  C23 UNL     1      -1.777   3.303  -8.619  1.00  0.00     0.168 C 
HETATM   25  C24 UNL     1      -2.058   4.491  -9.523  1.00  0.00     0.040 C 
ENDBRANCH  17  20
ENDBRANCH  11  16
ENDBRANCH   8  11
ENDBRANCH   6   7
ENDBRANCH   2   6
BRANCH   1  26
HETATM   26  C9  UNL     1      -6.761  -2.685 -16.322  1.00  0.00     0.258 C 
HETATM   27  N1  UNL     1      -6.885  -3.963 -16.917  1.00  0.00    -0.294 N 
HETATM   28  C8  UNL     1      -8.139  -4.550 -17.143  1.00  0.00     0.254 C 
ATOM     29  H1  UNL     1      -6.042  -4.469 -17.189  1.00  0.00     0.171 HD
HETATM   30  O3  UNL     1      -9.198  -3.966 -16.818  1.00  0.00    -0.270 OA
HETATM   31  O4  UNL     1      -7.805  -2.077 -15.987  1.00  0.00    -0.271 OA
BRANCH  28  32
HETATM   32  C5  UNL     1      -8.261  -5.897 -17.783  1.00  0.00     0.224 C 
BRANCH  32  33
HETATM   33  C4  UNL     1      -9.656  -6.080 -18.271  1.00  0.00     0.042 C 
BRANCH  33  34
HETATM   34  C3  UNL     1     -10.273  -7.375 -17.862  1.00  0.00     0.003 C 
BRANCH  34  35
HETATM   35  C2  UNL     1      -9.818  -8.534 -18.713  1.00  0.00    -0.004 C 
HETATM   36  C1  UNL     1      -9.174  -9.585 -17.814  1.00  0.00     0.005 C 
ENDBRANCH  34  35
ENDBRANCH  33  34
ENDBRANCH  32  33
BRANCH  32  37
HETATM   37  O1  UNL     1      -7.370  -6.005 -18.857  1.00  0.00    -0.307 OA
BRANCH  37  38
HETATM   38  C6  UNL     1      -6.174  -6.679 -18.881  1.00  0.00     0.255 C 
HETATM   39  C7  UNL     1      -5.972  -7.829 -17.959  1.00  0.00     0.126 C 
HETATM   40  O2  UNL     1      -5.287  -6.309 -19.679  1.00  0.00    -0.266 OA
ENDBRANCH  37  38
ENDBRANCH  32  37
ENDBRANCH  28  32
ENDBRANCH   1  26
BRANCH   5  41
HETATM   41  C27 UNL     1      -3.588  -3.434 -16.879  1.00  0.00     0.278 C 
BRANCH  41  42
HETATM   42  C28 UNL     1      -3.349  -4.918 -17.014  1.00  0.00     0.006 C 
HETATM   43  C29 UNL     1      -1.893  -5.287 -17.106  1.00  0.00     0.011 C 
HETATM   44  C30 UNL     1      -3.923  -5.580 -15.779  1.00  0.00     0.011 C 
ENDBRANCH  41  42
ENDBRANCH   5  41
TORSDOF 16
ENDMDL
