MODEL 1
REMARK VINA RESULT: -9.270254698      0.000      0.000
REMARK  16 active torsions:
REMARK  status: ('A' for Active; 'I' for Inactive)
REMARK    1  A    between atoms: C2_2  and  C5_5 
REMARK    2  A    between atoms: C8_8  and  C9_9 
REMARK    3  A    between atoms: C9_9  and  O1_10 
REMARK    4  A    between atoms: C9_9  and  C10_12 
REMARK    5  A    between atoms: C12_16  and  C13_17 
REMARK    6  A    between atoms: C13_17  and  O4_18 
REMARK    7  A    between atoms: C13_17  and  C23_34 
REMARK    8  A    between atoms: O4_18  and  C14_19 
REMARK    9  A    between atoms: C14_19  and  C15_21 
REMARK   10  A    between atoms: C15_21  and  C16_22 
REMARK   11  A    between atoms: C16_22  and  C17_23 
REMARK   12  A    between atoms: C17_23  and  C18_24 
REMARK   13  A    between atoms: C18_24  and  C19_25 
REMARK   14  A    between atoms: C19_25  and  C20_26 
REMARK   15  A    between atoms: C20_26  and  C21_27 
REMARK       I    between atoms: C21_27  and  N1_29 
REMARK   16  A    between atoms: C26_37  and  C27_38 
ROOT
HETATM    1  C13 UNL     1      20.976  29.943  14.285  1.00  0.00     0.090 C 
ENDROOT
BRANCH   1   2
HETATM    2  C12 UNL     1      19.608  29.424  14.542  1.00  0.00     0.213 C 
HETATM    3  C10 UNL     1      18.481  30.345  14.129  1.00  0.00     0.188 C 
HETATM    4  O2  UNL     1      17.898  29.627  13.123  1.00  0.00    -0.356 OA
HETATM    5  C11 UNL     1      18.013  28.289  13.571  1.00  0.00     0.339 C 
HETATM    6  O3  UNL     1      19.307  28.206  14.022  1.00  0.00    -0.352 OA
BRANCH   3   7
HETATM    7  C9  UNL     1      17.471  30.588  15.226  1.00  0.00     0.154 C 
BRANCH   7   8
HETATM    8  C8  UNL     1      16.957  32.005  15.100  1.00  0.00     0.017 C 
HETATM    9  C7  UNL     1      18.117  32.938  15.422  1.00  0.00     0.007 C 
HETATM   10  C6  UNL     1      17.808  34.342  15.655  1.00  0.00     0.006 C 
HETATM   11  C5  UNL     1      16.412  34.808  15.744  1.00  0.00    -0.007 C 
HETATM   12  C31 UNL     1      15.382  33.733  15.517  1.00  0.00     0.006 C 
HETATM   13  C30 UNL     1      15.877  32.386  16.063  1.00  0.00     0.007 C 
BRANCH  11  14
HETATM   14  C2  UNL     1      16.087  35.632  16.982  1.00  0.00    -0.048 C 
HETATM   15  C1  UNL     1      14.650  35.647  17.360  1.00  0.00     0.015 C 
HETATM   16  C3  UNL     1      16.562  37.062  16.826  1.00  0.00     0.015 C 
HETATM   17  C4  UNL     1      16.870  35.094  18.189  1.00  0.00     0.015 C 
ENDBRANCH  11  14
ENDBRANCH   7   8
BRANCH   7  18
HETATM   18  O1  UNL     1      18.198  30.598  16.470  1.00  0.00    -0.393 OA
ATOM     19  H1  UNL     1      17.521  30.500  17.127  1.00  0.00     0.210 HD
ENDBRANCH   7  18
ENDBRANCH   3   7
ENDBRANCH   1   2
BRANCH   1  20
HETATM   20  O4  UNL     1      20.971  31.280  14.652  1.00  0.00    -0.280 OA
BRANCH  20  21
HETATM   21  C14 UNL     1      21.992  32.193  14.540  1.00  0.00     0.263 C 
HETATM   22  O5  UNL     1      21.931  32.772  13.439  1.00  0.00    -0.265 OA
BRANCH  21  23
HETATM   23  C15 UNL     1      22.959  32.383  15.614  1.00  0.00     0.111 C 
BRANCH  23  24
HETATM   24  C16 UNL     1      22.287  32.799  16.889  1.00  0.00     0.010 C 
BRANCH  24  25
HETATM   25  C17 UNL     1      21.494  34.042  16.696  1.00  0.00     0.000 C 
BRANCH  25  26
HETATM   26  C18 UNL     1      22.342  35.281  16.485  1.00  0.00     0.000 C 
BRANCH  26  27
HETATM   27  C19 UNL     1      21.599  36.561  16.641  1.00  0.00     0.009 C 
BRANCH  27  28
HETATM   28  C20 UNL     1      20.314  36.337  17.374  1.00  0.00     0.103 C 
BRANCH  28  29
HETATM   29  C21 UNL     1      20.368  36.794  18.771  1.00  0.00     0.223 C 
HETATM   30  O6  UNL     1      20.410  37.999  19.101  1.00  0.00    -0.273 OA
HETATM   31  N1  UNL     1      20.375  35.818  19.796  1.00  0.00    -0.304 N 
HETATM   32  C22 UNL     1      21.397  35.339  20.377  1.00  0.00     0.203 C 
ATOM     33  H1  UNL     1      19.467  35.462  20.098  1.00  0.00     0.171 HD
HETATM   34  N2  UNL     1      22.710  35.772  20.025  1.00  0.00    -0.066 NA
HETATM   35  N3  UNL     1      21.273  34.361  21.391  1.00  0.00    -0.066 NA
ENDBRANCH  28  29
ENDBRANCH  27  28
ENDBRANCH  26  27
ENDBRANCH  25  26
ENDBRANCH  24  25
ENDBRANCH  23  24
ENDBRANCH  21  23
ENDBRANCH  20  21
ENDBRANCH   1  20
BRANCH   1  36
HETATM   36  C23 UNL     1      21.705  29.538  13.080  1.00  0.00    -0.047 C 
HETATM   37  C24 UNL     1      21.114  29.640  11.741  1.00  0.00     0.037 C 
HETATM   38  C25 UNL     1      20.950  28.342  10.988  1.00  0.00     0.020 C 
HETATM   39  C26 UNL     1      22.167  27.469  11.014  1.00  0.00     0.087 C 
HETATM   40  C28 UNL     1      23.190  27.952  12.015  1.00  0.00     0.020 C 
HETATM   41  C29 UNL     1      22.418  28.185  13.299  1.00  0.00     0.037 C 
BRANCH  39  42
HETATM   42  C27 UNL     1      21.765  26.063  11.299  1.00  0.00     0.177 C 
HETATM   43  O7  UNL     1      22.639  25.174  11.458  1.00  0.00    -0.648 OA
HETATM   44  O8  UNL     1      20.439  25.673  11.402  1.00  0.00    -0.648 OA
ENDBRANCH  39  42
ENDBRANCH   1  36
TORSDOF 16
ENDMDL
MODEL 2
REMARK VINA RESULT: -9.136366340      0.916      1.483
REMARK  16 active torsions:
REMARK  status: ('A' for Active; 'I' for Inactive)
REMARK    1  A    between atoms: C2_2  and  C5_5 
REMARK    2  A    between atoms: C8_8  and  C9_9 
REMARK    3  A    between atoms: C9_9  and  O1_10 
REMARK    4  A    between atoms: C9_9  and  C10_12 
REMARK    5  A    between atoms: C12_16  and  C13_17 
REMARK    6  A    between atoms: C13_17  and  O4_18 
REMARK    7  A    between atoms: C13_17  and  C23_34 
REMARK    8  A    between atoms: O4_18  and  C14_19 
REMARK    9  A    between atoms: C14_19  and  C15_21 
REMARK   10  A    between atoms: C15_21  and  C16_22 
REMARK   11  A    between atoms: C16_22  and  C17_23 
REMARK   12  A    between atoms: C17_23  and  C18_24 
REMARK   13  A    between atoms: C18_24  and  C19_25 
REMARK   14  A    between atoms: C19_25  and  C20_26 
REMARK   15  A    between atoms: C20_26  and  C21_27 
REMARK       I    between atoms: C21_27  and  N1_29 
REMARK   16  A    between atoms: C26_37  and  C27_38 
ROOT
HETATM    1  C13 UNL     1      20.820  29.167  13.675  1.00  0.00     0.090 C 
ENDROOT
BRANCH   1   2
HETATM    2  C12 UNL     1      19.386  28.846  13.896  1.00  0.00     0.213 C 
HETATM    3  C10 UNL     1      18.430  30.004  13.709  1.00  0.00     0.188 C 
HETATM    4  O2  UNL     1      17.719  29.595  12.616  1.00  0.00    -0.356 OA
HETATM    5  C11 UNL     1      17.605  28.197  12.807  1.00  0.00     0.339 C 
HETATM    6  O3  UNL     1      18.872  27.815  13.176  1.00  0.00    -0.352 OA
BRANCH   3   7
HETATM    7  C9  UNL     1      17.492  30.204  14.876  1.00  0.00     0.154 C 
BRANCH   7   8
HETATM    8  C8  UNL     1      16.933  31.607  14.808  1.00  0.00     0.017 C 
HETATM    9  C7  UNL     1      18.100  32.569  14.988  1.00  0.00     0.007 C 
HETATM   10  C6  UNL     1      17.786  33.966  15.252  1.00  0.00     0.006 C 
HETATM   11  C5  UNL     1      16.400  34.400  15.505  1.00  0.00    -0.007 C 
HETATM   12  C31 UNL     1      15.377  33.299  15.404  1.00  0.00     0.006 C 
HETATM   13  C30 UNL     1      15.966  31.967  15.892  1.00  0.00     0.007 C 
BRANCH  11  14
HETATM   14  C2  UNL     1      16.204  35.222  16.770  1.00  0.00    -0.048 C 
HETATM   15  C1  UNL     1      17.025  34.787  17.930  1.00  0.00     0.015 C 
HETATM   16  C3  UNL     1      14.748  35.241  17.188  1.00  0.00     0.015 C 
HETATM   17  C4  UNL     1      16.546  36.694  16.497  1.00  0.00     0.015 C 
ENDBRANCH  11  14
ENDBRANCH   7   8
BRANCH   7  18
HETATM   18  O1  UNL     1      18.304  30.217  16.067  1.00  0.00    -0.393 OA
ATOM     19  H1  UNL     1      18.502  29.300  16.214  1.00  0.00     0.210 HD
ENDBRANCH   7  18
ENDBRANCH   3   7
ENDBRANCH   1   2
BRANCH   1  20
HETATM   20  O4  UNL     1      21.039  30.417  14.234  1.00  0.00    -0.280 OA
BRANCH  20  21
HETATM   21  C14 UNL     1      21.817  31.439  13.745  1.00  0.00     0.263 C 
HETATM   22  O5  UNL     1      21.254  31.979  12.773  1.00  0.00    -0.265 OA
BRANCH  21  23
HETATM   23  C15 UNL     1      23.102  31.767  14.348  1.00  0.00     0.111 C 
BRANCH  23  24
HETATM   24  C16 UNL     1      23.361  33.245  14.318  1.00  0.00     0.010 C 
BRANCH  24  25
HETATM   25  C17 UNL     1      23.465  33.799  15.694  1.00  0.00     0.000 C 
BRANCH  25  26
HETATM   26  C18 UNL     1      22.549  33.122  16.696  1.00  0.00     0.000 C 
BRANCH  26  27
HETATM   27  C19 UNL     1      21.160  33.652  16.704  1.00  0.00     0.009 C 
BRANCH  27  28
HETATM   28  C20 UNL     1      21.166  35.145  16.598  1.00  0.00     0.103 C 
BRANCH  28  29
HETATM   29  C21 UNL     1      20.512  35.801  17.742  1.00  0.00     0.223 C 
HETATM   30  O6  UNL     1      19.913  36.895  17.659  1.00  0.00    -0.273 OA
HETATM   31  N1  UNL     1      20.567  35.160  19.002  1.00  0.00    -0.304 N 
HETATM   32  C22 UNL     1      21.410  35.378  19.925  1.00  0.00     0.203 C 
ATOM     33  H1  UNL     1      19.857  34.451  19.188  1.00  0.00     0.171 HD
HETATM   34  N2  UNL     1      22.440  36.351  19.761  1.00  0.00    -0.066 NA
HETATM   35  N3  UNL     1      21.360  34.667  21.147  1.00  0.00    -0.066 NA
ENDBRANCH  28  29
ENDBRANCH  27  28
ENDBRANCH  26  27
ENDBRANCH  25  26
ENDBRANCH  24  25
ENDBRANCH  23  24
ENDBRANCH  21  23
ENDBRANCH  20  21
ENDBRANCH   1  20
BRANCH   1  36
HETATM   36  C23 UNL     1      21.464  28.833  12.402  1.00  0.00    -0.047 C 
HETATM   37  C24 UNL     1      20.705  28.323  11.256  1.00  0.00     0.037 C 
HETATM   38  C25 UNL     1      21.079  26.942  10.775  1.00  0.00     0.020 C 
HETATM   39  C26 UNL     1      22.554  26.730  10.628  1.00  0.00     0.087 C 
HETATM   40  C28 UNL     1      23.353  27.849  11.254  1.00  0.00     0.020 C 
HETATM   41  C29 UNL     1      22.766  28.035  12.640  1.00  0.00     0.037 C 
BRANCH  39  42
HETATM   42  C27 UNL     1      22.929  25.414  11.216  1.00  0.00     0.177 C 
HETATM   43  O7  UNL     1      22.042  24.571  11.502  1.00  0.00    -0.648 OA
HETATM   44  O8  UNL     1      24.244  25.059  11.471  1.00  0.00    -0.648 OA
ENDBRANCH  39  42
ENDBRANCH   1  36
TORSDOF 16
ENDMDL
MODEL 3
REMARK VINA RESULT: -9.084019422      2.377      7.029
REMARK  16 active torsions:
REMARK  status: ('A' for Active; 'I' for Inactive)
REMARK    1  A    between atoms: C2_2  and  C5_5 
REMARK    2  A    between atoms: C8_8  and  C9_9 
REMARK    3  A    between atoms: C9_9  and  O1_10 
REMARK    4  A    between atoms: C9_9  and  C10_12 
REMARK    5  A    between atoms: C12_16  and  C13_17 
REMARK    6  A    between atoms: C13_17  and  O4_18 
REMARK    7  A    between atoms: C13_17  and  C23_34 
REMARK    8  A    between atoms: O4_18  and  C14_19 
REMARK    9  A    between atoms: C14_19  and  C15_21 
REMARK   10  A    between atoms: C15_21  and  C16_22 
REMARK   11  A    between atoms: C16_22  and  C17_23 
REMARK   12  A    between atoms: C17_23  and  C18_24 
REMARK   13  A    between atoms: C18_24  and  C19_25 
REMARK   14  A    between atoms: C19_25  and  C20_26 
REMARK   15  A    between atoms: C20_26  and  C21_27 
REMARK       I    between atoms: C21_27  and  N1_29 
REMARK   16  A    between atoms: C26_37  and  C27_38 
ROOT
HETATM    1  C13 UNL     1      18.776  31.239  14.031  1.00  0.00     0.090 C 
ENDROOT
BRANCH   1   2
HETATM    2  C12 UNL     1      18.986  29.865  14.556  1.00  0.00     0.213 C 
HETATM    3  C10 UNL     1      19.230  28.804  13.505  1.00  0.00     0.188 C 
HETATM    4  O2  UNL     1      20.520  28.443  13.778  1.00  0.00    -0.356 OA
HETATM    5  C11 UNL     1      20.585  28.516  15.191  1.00  0.00     0.339 C 
HETATM    6  O3  UNL     1      19.966  29.707  15.484  1.00  0.00    -0.352 OA
BRANCH   3   7
HETATM    7  C9  UNL     1      18.329  27.600  13.645  1.00  0.00     0.154 C 
BRANCH   7   8
HETATM    8  C8  UNL     1      17.656  27.347  12.314  1.00  0.00     0.017 C 
HETATM    9  C7  UNL     1      17.786  25.859  12.017  1.00  0.00     0.007 C 
HETATM   10  C6  UNL     1      17.478  25.412  10.666  1.00  0.00     0.006 C 
HETATM   11  C5  UNL     1      17.216  26.381   9.586  1.00  0.00    -0.007 C 
HETATM   12  C31 UNL     1      17.240  27.822  10.025  1.00  0.00     0.006 C 
HETATM   13  C30 UNL     1      18.278  28.031  11.138  1.00  0.00     0.007 C 
BRANCH  11  14
HETATM   14  C2  UNL     1      18.040  26.175   8.323  1.00  0.00    -0.048 C 
HETATM   15  C1  UNL     1      19.388  25.591   8.547  1.00  0.00     0.015 C 
HETATM   16  C3  UNL     1      18.196  27.472   7.556  1.00  0.00     0.015 C 
HETATM   17  C4  UNL     1      17.295  25.242   7.358  1.00  0.00     0.015 C 
ENDBRANCH  11  14
ENDBRANCH   7   8
BRANCH   7  18
HETATM   18  O1  UNL     1      17.243  27.990  14.508  1.00  0.00    -0.393 OA
ATOM     19  H1  UNL     1      16.810  27.169  14.708  1.00  0.00     0.210 HD
ENDBRANCH   7  18
ENDBRANCH   3   7
ENDBRANCH   1   2
BRANCH   1  20
HETATM   20  O4  UNL     1      19.976  31.914  14.189  1.00  0.00    -0.280 OA
BRANCH  20  21
HETATM   21  C14 UNL     1      21.080  31.883  13.371  1.00  0.00     0.263 C 
HETATM   22  O5  UNL     1      20.727  31.829  12.177  1.00  0.00    -0.265 OA
BRANCH  21  23
HETATM   23  C15 UNL     1      22.430  31.913  13.919  1.00  0.00     0.111 C 
BRANCH  23  24
HETATM   24  C16 UNL     1      22.886  33.319  14.175  1.00  0.00     0.010 C 
BRANCH  24  25
HETATM   25  C17 UNL     1      23.315  33.495  15.588  1.00  0.00     0.000 C 
BRANCH  25  26
HETATM   26  C18 UNL     1      22.163  33.572  16.571  1.00  0.00     0.000 C 
BRANCH  26  27
HETATM   27  C19 UNL     1      21.057  34.470  16.142  1.00  0.00     0.009 C 
BRANCH  27  28
HETATM   28  C20 UNL     1      21.333  35.880  16.560  1.00  0.00     0.103 C 
BRANCH  28  29
HETATM   29  C21 UNL     1      20.504  36.312  17.695  1.00  0.00     0.223 C 
HETATM   30  O6  UNL     1      19.809  37.351  17.686  1.00  0.00    -0.273 OA
HETATM   31  N1  UNL     1      20.492  35.509  18.860  1.00  0.00    -0.304 N 
HETATM   32  C22 UNL     1      21.210  35.668  19.894  1.00  0.00     0.203 C 
ATOM     33  H1  UNL     1      19.842  34.722  18.869  1.00  0.00     0.171 HD
HETATM   34  N2  UNL     1      22.149  36.739  19.977  1.00  0.00    -0.066 NA
HETATM   35  N3  UNL     1      21.107  34.792  21.001  1.00  0.00    -0.066 NA
ENDBRANCH  28  29
ENDBRANCH  27  28
ENDBRANCH  26  27
ENDBRANCH  25  26
ENDBRANCH  24  25
ENDBRANCH  23  24
ENDBRANCH  21  23
ENDBRANCH  20  21
ENDBRANCH   1  20
BRANCH   1  36
HETATM   36  C23 UNL     1      17.520  31.947  14.297  1.00  0.00    -0.047 C 
HETATM   37  C24 UNL     1      17.340  33.364  13.966  1.00  0.00     0.037 C 
HETATM   38  C25 UNL     1      17.059  34.286  15.127  1.00  0.00     0.020 C 
HETATM   39  C26 UNL     1      16.008  33.777  16.064  1.00  0.00     0.087 C 
HETATM   40  C28 UNL     1      15.659  32.331  15.794  1.00  0.00     0.020 C 
HETATM   41  C29 UNL     1      16.988  31.607  15.707  1.00  0.00     0.037 C 
BRANCH  39  42
HETATM   42  C27 UNL     1      16.463  33.961  17.470  1.00  0.00     0.177 C 
HETATM   43  O7  UNL     1      15.623  34.056  18.401  1.00  0.00    -0.648 OA
HETATM   44  O8  UNL     1      17.803  34.034  17.817  1.00  0.00    -0.648 OA
ENDBRANCH  39  42
ENDBRANCH   1  36
TORSDOF 16
ENDMDL
MODEL 4
REMARK VINA RESULT: -9.065858880      4.243      7.844
REMARK  16 active torsions:
REMARK  status: ('A' for Active; 'I' for Inactive)
REMARK    1  A    between atoms: C2_2  and  C5_5 
REMARK    2  A    between atoms: C8_8  and  C9_9 
REMARK    3  A    between atoms: C9_9  and  O1_10 
REMARK    4  A    between atoms: C9_9  and  C10_12 
REMARK    5  A    between atoms: C12_16  and  C13_17 
REMARK    6  A    between atoms: C13_17  and  O4_18 
REMARK    7  A    between atoms: C13_17  and  C23_34 
REMARK    8  A    between atoms: O4_18  and  C14_19 
REMARK    9  A    between atoms: C14_19  and  C15_21 
REMARK   10  A    between atoms: C15_21  and  C16_22 
REMARK   11  A    between atoms: C16_22  and  C17_23 
REMARK   12  A    between atoms: C17_23  and  C18_24 
REMARK   13  A    between atoms: C18_24  and  C19_25 
REMARK   14  A    between atoms: C19_25  and  C20_26 
REMARK   15  A    between atoms: C20_26  and  C21_27 
REMARK       I    between atoms: C21_27  and  N1_29 
REMARK   16  A    between atoms: C26_37  and  C27_38 
ROOT
HETATM    1  C13 UNL     1      20.820  29.711  12.208  1.00  0.00     0.090 C 
ENDROOT
BRANCH   1   2
HETATM    2  C12 UNL     1      19.742  28.977  12.922  1.00  0.00     0.213 C 
HETATM    3  C10 UNL     1      18.425  29.714  13.031  1.00  0.00     0.188 C 
HETATM    4  O2  UNL     1      17.610  28.926  12.267  1.00  0.00    -0.356 OA
HETATM    5  C11 UNL     1      18.075  27.617  12.540  1.00  0.00     0.339 C 
HETATM    6  O3  UNL     1      19.442  27.734  12.464  1.00  0.00    -0.352 OA
BRANCH   3   7
HETATM    7  C9  UNL     1      17.888  29.777  14.441  1.00  0.00     0.154 C 
BRANCH   7   8
HETATM    8  C8  UNL     1      17.031  31.017  14.574  1.00  0.00     0.017 C 
HETATM    9  C7  UNL     1      17.914  32.214  14.245  1.00  0.00     0.007 C 
HETATM   10  C6  UNL     1      17.407  33.537  14.581  1.00  0.00     0.006 C 
HETATM   11  C5  UNL     1      16.167  33.700  15.362  1.00  0.00    -0.007 C 
HETATM   12  C31 UNL     1      15.476  32.407  15.708  1.00  0.00     0.006 C 
HETATM   13  C30 UNL     1      16.505  31.291  15.947  1.00  0.00     0.007 C 
BRANCH  11  14
HETATM   14  C2  UNL     1      16.289  34.605  16.581  1.00  0.00    -0.048 C 
HETATM   15  C1  UNL     1      17.522  34.404  17.385  1.00  0.00     0.015 C 
HETATM   16  C3  UNL     1      15.087  34.457  17.491  1.00  0.00     0.015 C 
HETATM   17  C4  UNL     1      16.264  36.076  16.144  1.00  0.00     0.015 C 
ENDBRANCH  11  14
ENDBRANCH   7   8
BRANCH   7  18
HETATM   18  O1  UNL     1      19.011  30.044  15.305  1.00  0.00    -0.393 OA
ATOM     19  H1  UNL     1      18.946  29.371  15.972  1.00  0.00     0.210 HD
ENDBRANCH   7  18
ENDBRANCH   3   7
ENDBRANCH   1   2
BRANCH   1  20
HETATM   20  O4  UNL     1      21.305  28.855  11.231  1.00  0.00    -0.280 OA
BRANCH  20  21
HETATM   21  C14 UNL     1      22.602  28.449  11.028  1.00  0.00     0.263 C 
HETATM   22  O5  UNL     1      23.065  28.991  10.005  1.00  0.00    -0.265 OA
BRANCH  21  23
HETATM   23  C15 UNL     1      23.254  27.516  11.936  1.00  0.00     0.111 C 
BRANCH  23  24
HETATM   24  C16 UNL     1      24.685  27.282  11.547  1.00  0.00     0.010 C 
BRANCH  24  25
HETATM   25  C17 UNL     1      24.919  25.855  11.200  1.00  0.00     0.000 C 
BRANCH  25  26
HETATM   26  C18 UNL     1      24.467  25.485   9.801  1.00  0.00     0.000 C 
BRANCH  26  27
HETATM   27  C19 UNL     1      23.517  24.341   9.753  1.00  0.00     0.009 C 
BRANCH  27  28
HETATM   28  C20 UNL     1      22.226  24.756   9.120  1.00  0.00     0.103 C 
BRANCH  28  29
HETATM   29  C21 UNL     1      21.224  25.195  10.103  1.00  0.00     0.223 C 
HETATM   30  O6  UNL     1      21.095  24.677  11.234  1.00  0.00    -0.273 OA
HETATM   31  N1  UNL     1      20.358  26.257   9.750  1.00  0.00    -0.304 N 
HETATM   32  C22 UNL     1      19.190  26.150   9.266  1.00  0.00     0.203 C 
ATOM     33  H1  UNL     1      20.709  27.203   9.899  1.00  0.00     0.171 HD
HETATM   34  N2  UNL     1      18.612  24.869   9.021  1.00  0.00    -0.066 NA
HETATM   35  N3  UNL     1      18.420  27.294   8.950  1.00  0.00    -0.066 NA
ENDBRANCH  28  29
ENDBRANCH  27  28
ENDBRANCH  26  27
ENDBRANCH  25  26
ENDBRANCH  24  25
ENDBRANCH  23  24
ENDBRANCH  21  23
ENDBRANCH  20  21
ENDBRANCH   1  20
BRANCH   1  36
HETATM   36  C23 UNL     1      21.764  30.547  12.955  1.00  0.00    -0.047 C 
HETATM   37  C24 UNL     1      22.397  30.088  14.196  1.00  0.00     0.037 C 
HETATM   38  C25 UNL     1      22.093  30.897  15.433  1.00  0.00     0.020 C 
HETATM   39  C26 UNL     1      22.219  32.376  15.236  1.00  0.00     0.087 C 
HETATM   40  C28 UNL     1      22.352  32.745  13.777  1.00  0.00     0.020 C 
HETATM   41  C29 UNL     1      21.239  31.996  13.070  1.00  0.00     0.037 C 
BRANCH  39  42
HETATM   42  C27 UNL     1      21.051  33.063  15.855  1.00  0.00     0.177 C 
HETATM   43  O7  UNL     1      20.229  32.413  16.550  1.00  0.00    -0.648 OA
HETATM   44  O8  UNL     1      20.815  34.420  15.699  1.00  0.00    -0.648 OA
ENDBRANCH  39  42
ENDBRANCH   1  36
TORSDOF 16
ENDMDL
MODEL 5
REMARK VINA RESULT: -8.996428446      2.309      5.134
REMARK  16 active torsions:
REMARK  status: ('A' for Active; 'I' for Inactive)
REMARK    1  A    between atoms: C2_2  and  C5_5 
REMARK    2  A    between atoms: C8_8  and  C9_9 
REMARK    3  A    between atoms: C9_9  and  O1_10 
REMARK    4  A    between atoms: C9_9  and  C10_12 
REMARK    5  A    between atoms: C12_16  and  C13_17 
REMARK    6  A    between atoms: C13_17  and  O4_18 
REMARK    7  A    between atoms: C13_17  and  C23_34 
REMARK    8  A    between atoms: O4_18  and  C14_19 
REMARK    9  A    between atoms: C14_19  and  C15_21 
REMARK   10  A    between atoms: C15_21  and  C16_22 
REMARK   11  A    between atoms: C16_22  and  C17_23 
REMARK   12  A    between atoms: C17_23  and  C18_24 
REMARK   13  A    between atoms: C18_24  and  C19_25 
REMARK   14  A    between atoms: C19_25  and  C20_26 
REMARK   15  A    between atoms: C20_26  and  C21_27 
REMARK       I    between atoms: C21_27  and  N1_29 
REMARK   16  A    between atoms: C26_37  and  C27_38 
ROOT
HETATM    1  C13 UNL     1      18.640  29.372  12.696  1.00  0.00     0.090 C 
ENDROOT
BRANCH   1   2
HETATM    2  C12 UNL     1      20.106  29.342  12.454  1.00  0.00     0.213 C 
HETATM    3  C10 UNL     1      20.959  29.824  13.606  1.00  0.00     0.188 C 
HETATM    4  O2  UNL     1      21.615  28.676  13.957  1.00  0.00    -0.356 OA
HETATM    5  C11 UNL     1      21.842  28.039  12.713  1.00  0.00     0.339 C 
HETATM    6  O3  UNL     1      20.636  28.154  12.064  1.00  0.00    -0.352 OA
BRANCH   3   7
HETATM    7  C9  UNL     1      21.965  30.878  13.209  1.00  0.00     0.154 C 
BRANCH   7   8
HETATM    8  C8  UNL     1      22.430  31.594  14.457  1.00  0.00     0.017 C 
HETATM    9  C7  UNL     1      21.334  31.437  15.503  1.00  0.00     0.007 C 
HETATM   10  C6  UNL     1      21.409  32.278  16.689  1.00  0.00     0.006 C 
HETATM   11  C5  UNL     1      22.408  33.357  16.794  1.00  0.00    -0.007 C 
HETATM   12  C31 UNL     1      23.345  33.453  15.618  1.00  0.00     0.006 C 
HETATM   13  C30 UNL     1      22.621  33.072  14.318  1.00  0.00     0.007 C 
BRANCH  11  14
HETATM   14  C2  UNL     1      21.845  34.722  17.165  1.00  0.00    -0.048 C 
HETATM   15  C1  UNL     1      20.427  34.936  16.776  1.00  0.00     0.015 C 
HETATM   16  C3  UNL     1      22.683  35.836  16.573  1.00  0.00     0.015 C 
HETATM   17  C4  UNL     1      21.938  34.932  18.682  1.00  0.00     0.015 C 
ENDBRANCH  11  14
ENDBRANCH   7   8
BRANCH   7  18
HETATM   18  O1  UNL     1      21.244  31.892  12.482  1.00  0.00    -0.393 OA
ATOM     19  H1  UNL     1      20.445  31.453  12.217  1.00  0.00     0.210 HD
ENDBRANCH   7  18
ENDBRANCH   3   7
ENDBRANCH   1   2
BRANCH   1  20
HETATM   20  O4  UNL     1      18.463  29.720  14.026  1.00  0.00    -0.280 OA
BRANCH  20  21
HETATM   21  C14 UNL     1      17.824  30.825  14.536  1.00  0.00     0.263 C 
HETATM   22  O5  UNL     1      17.133  30.505  15.522  1.00  0.00    -0.265 OA
BRANCH  21  23
HETATM   23  C15 UNL     1      17.996  32.142  13.937  1.00  0.00     0.111 C 
BRANCH  23  24
HETATM   24  C16 UNL     1      17.901  33.230  14.966  1.00  0.00     0.010 C 
BRANCH  24  25
HETATM   25  C17 UNL     1      16.717  34.095  14.724  1.00  0.00     0.000 C 
BRANCH  25  26
HETATM   26  C18 UNL     1      15.496  33.700  15.532  1.00  0.00     0.000 C 
BRANCH  26  27
HETATM   27  C19 UNL     1      15.776  33.441  16.970  1.00  0.00     0.009 C 
BRANCH  27  28
HETATM   28  C20 UNL     1      15.551  34.679  17.780  1.00  0.00     0.103 C 
BRANCH  28  29
HETATM   29  C21 UNL     1      16.782  35.459  17.983  1.00  0.00     0.223 C 
HETATM   30  O6  UNL     1      17.653  35.164  18.831  1.00  0.00    -0.273 OA
HETATM   31  N1  UNL     1      16.990  36.604  17.179  1.00  0.00    -0.304 N 
HETATM   32  C22 UNL     1      16.707  37.803  17.484  1.00  0.00     0.203 C 
ATOM     33  H1  UNL     1      17.410  36.451  16.262  1.00  0.00     0.171 HD
HETATM   34  N2  UNL     1      16.117  38.119  18.744  1.00  0.00    -0.066 NA
HETATM   35  N3  UNL     1      16.964  38.868  16.588  1.00  0.00    -0.066 NA
ENDBRANCH  28  29
ENDBRANCH  27  28
ENDBRANCH  26  27
ENDBRANCH  25  26
ENDBRANCH  24  25
ENDBRANCH  23  24
ENDBRANCH  21  23
ENDBRANCH  20  21
ENDBRANCH   1  20
BRANCH   1  36
HETATM   36  C23 UNL     1      17.772  28.350  12.105  1.00  0.00    -0.047 C 
HETATM   37  C24 UNL     1      17.711  26.982  12.631  1.00  0.00     0.037 C 
HETATM   38  C25 UNL     1      18.134  25.888  11.682  1.00  0.00     0.020 C 
HETATM   39  C26 UNL     1      17.532  26.005  10.315  1.00  0.00     0.087 C 
HETATM   40  C28 UNL     1      16.857  27.341  10.106  1.00  0.00     0.020 C 
HETATM   41  C29 UNL     1      17.865  28.377  10.563  1.00  0.00     0.037 C 
BRANCH  39  42
HETATM   42  C27 UNL     1      18.583  25.773   9.286  1.00  0.00     0.177 C 
HETATM   43  O7  UNL     1      18.280  25.736   8.067  1.00  0.00    -0.648 OA
HETATM   44  O8  UNL     1      19.918  25.591   9.612  1.00  0.00    -0.648 OA
ENDBRANCH  39  42
ENDBRANCH   1  36
TORSDOF 16
ENDMDL
