MODEL 1
REMARK VINA RESULT: -7.682712317      0.000      0.000
REMARK  19 active torsions:
REMARK  status: ('A' for Active; 'I' for Inactive)
REMARK    1  A    between atoms: S1_2  and  C2_3 
REMARK    2  A    between atoms: C2_3  and  C3_4 
REMARK    3  A    between atoms: C3_4  and  C4_5 
REMARK    4  A    between atoms: C4_5  and  N1_6 
REMARK    5  A    between atoms: C4_5  and  C29_42 
REMARK    6  A    between atoms: N1_6  and  C5_8 
REMARK    7  A    between atoms: C5_8  and  C6_9 
REMARK    8  A    between atoms: C5_8  and  C11_16 
REMARK    9  A    between atoms: C6_9  and  O2_11 
REMARK   10  A    between atoms: O2_11  and  C7_12 
REMARK   11  A    between atoms: C11_16  and  C12_17 
REMARK   12  A    between atoms: C11_16  and  N2_21 
REMARK   13  A    between atoms: C12_17  and  C13_18 
REMARK       I    between atoms: N2_21  and  C16_23 
REMARK   14  A    between atoms: C16_23  and  C17_25 
REMARK   15  A    between atoms: C17_25  and  N3_26 
REMARK   16  A    between atoms: C17_25  and  C23_36 
REMARK   17  A    between atoms: C18_28  and  O4_29 
REMARK   18  A    between atoms: C18_28  and  O5_31 
REMARK   19  A    between atoms: O5_31  and  C19_32 
ROOT
HETATM    1  C11 UNL     1      18.115  33.424  15.865  1.00  0.00     0.117 C 
ENDROOT
BRANCH   1   2
HETATM    2  C5  UNL     1      19.224  34.138  16.645  1.00  0.00     0.201 C 
BRANCH   2   3
HETATM    3  N1  UNL     1      20.278  34.646  15.929  1.00  0.00    -0.395 N 
ATOM      4  H1  UNL     1      20.062  35.120  15.052  1.00  0.00     0.155 HD
BRANCH   3   5
HETATM    5  C4  UNL     1      21.633  34.566  16.302  1.00  0.00     0.168 C 
BRANCH   5   6
HETATM    6  C3  UNL     1      22.445  35.783  16.448  1.00  0.00     0.044 C 
BRANCH   6   7
HETATM    7  C2  UNL     1      22.188  36.606  17.705  1.00  0.00     0.076 C 
BRANCH   7   8
HETATM    8  S1  UNL     1      22.111  35.400  19.112  1.00  0.00    -0.173 SA
HETATM    9  C1  UNL     1      23.169  36.040  20.465  1.00  0.00     0.089 C 
ENDBRANCH   7   8
ENDBRANCH   6   7
ENDBRANCH   5   6
BRANCH   5  10
HETATM   10  C29 UNL     1      22.246  33.500  15.424  1.00  0.00     0.253 C 
HETATM   11  N4  UNL     1      21.913  33.279  14.076  1.00  0.00    -0.060 NA
HETATM   12  O6  UNL     1      23.130  32.735  15.907  1.00  0.00    -0.275 OA
ENDBRANCH   5  10
ENDBRANCH   3   5
ENDBRANCH   2   3
BRANCH   2  13
HETATM   13  C6  UNL     1      18.564  34.979  17.633  1.00  0.00     0.283 C 
HETATM   14  O1  UNL     1      17.949  34.578  18.612  1.00  0.00    -0.263 OA
BRANCH  13  15
HETATM   15  O2  UNL     1      18.607  36.396  17.492  1.00  0.00    -0.314 OA
BRANCH  15  16
HETATM   16  C7  UNL     1      17.555  37.196  17.986  1.00  0.00     0.132 C 
HETATM   17  C8  UNL     1      16.634  37.784  16.958  1.00  0.00     0.032 C 
HETATM   18  C9  UNL     1      17.371  39.131  17.012  1.00  0.00     0.005 C 
HETATM   19  C10 UNL     1      18.057  38.615  18.245  1.00  0.00     0.032 C 
ENDBRANCH  15  16
ENDBRANCH  13  15
ENDBRANCH   2  13
ENDBRANCH   1   2
BRANCH   1  20
HETATM   20  C12 UNL     1      16.977  34.209  15.446  1.00  0.00     0.031 C 
BRANCH  20  21
HETATM   21  C13 UNL     1      15.585  33.764  15.552  1.00  0.00    -0.021 C 
HETATM   22  C14 UNL     1      15.028  34.532  16.790  1.00  0.00     0.009 C 
HETATM   23  C15 UNL     1      15.382  32.316  15.969  1.00  0.00     0.009 C 
ENDBRANCH  20  21
ENDBRANCH   1  20
BRANCH   1  24
HETATM   24  N2  UNL     1      18.741  32.571  14.839  1.00  0.00    -0.349 N 
HETATM   25  C16 UNL     1      18.909  31.197  15.020  1.00  0.00     0.264 C 
HETATM   26  O3  UNL     1      18.499  30.689  16.092  1.00  0.00    -0.266 OA
ATOM     27  H2  UNL     1      19.061  32.998  13.970  1.00  0.00     0.163 HD
BRANCH  25  28
HETATM   28  C17 UNL     1      19.552  30.287  14.016  1.00  0.00     0.085 C 
BRANCH  28  29
HETATM   29  N3  UNL     1      20.774  30.340  13.931  1.00  0.00    -0.315 N 
HETATM   30  C18 UNL     1      21.962  29.696  13.978  1.00  0.00     0.263 C 
ATOM     31  H3  UNL     1      20.996  31.317  13.736  1.00  0.00     0.170 HD
BRANCH  30  32
HETATM   32  O4  UNL     1      22.981  30.320  14.493  1.00  0.00    -0.327 OA
ATOM     33  H4  UNL     1      23.852  29.997  14.297  1.00  0.00     0.221 HD
ENDBRANCH  30  32
BRANCH  30  34
HETATM   34  O5  UNL     1      22.299  28.419  13.548  1.00  0.00    -0.306 OA
BRANCH  34  35
HETATM   35  C19 UNL     1      22.435  28.062  12.187  1.00  0.00     0.060 C 
HETATM   36  C20 UNL     1      23.863  27.754  11.815  1.00  0.00     0.046 C 
HETATM   37  C21 UNL     1      21.913  29.136  11.270  1.00  0.00     0.046 C 
HETATM   38  C22 UNL     1      21.627  26.806  11.936  1.00  0.00     0.046 C 
ENDBRANCH  34  35
ENDBRANCH  30  34
ENDBRANCH  28  29
BRANCH  28  39
HETATM   39  C23 UNL     1      18.670  29.447  13.215  1.00  0.00     0.041 C 
HETATM   40  C24 UNL     1      18.317  28.102  13.795  1.00  0.00     0.011 C 
HETATM   41  C25 UNL     1      17.992  27.219  12.595  1.00  0.00     0.001 C 
HETATM   42  C26 UNL     1      16.899  27.806  11.760  1.00  0.00     0.000 C 
HETATM   43  C27 UNL     1      17.102  29.246  11.395  1.00  0.00     0.001 C 
HETATM   44  C28 UNL     1      17.435  30.096  12.648  1.00  0.00     0.011 C 
ENDBRANCH  28  39
ENDBRANCH  25  28
ENDBRANCH   1  24
TORSDOF 19
ENDMDL
MODEL 2
REMARK VINA RESULT: -7.509305046      2.225      4.673
REMARK  19 active torsions:
REMARK  status: ('A' for Active; 'I' for Inactive)
REMARK    1  A    between atoms: S1_2  and  C2_3 
REMARK    2  A    between atoms: C2_3  and  C3_4 
REMARK    3  A    between atoms: C3_4  and  C4_5 
REMARK    4  A    between atoms: C4_5  and  N1_6 
REMARK    5  A    between atoms: C4_5  and  C29_42 
REMARK    6  A    between atoms: N1_6  and  C5_8 
REMARK    7  A    between atoms: C5_8  and  C6_9 
REMARK    8  A    between atoms: C5_8  and  C11_16 
REMARK    9  A    between atoms: C6_9  and  O2_11 
REMARK   10  A    between atoms: O2_11  and  C7_12 
REMARK   11  A    between atoms: C11_16  and  C12_17 
REMARK   12  A    between atoms: C11_16  and  N2_21 
REMARK   13  A    between atoms: C12_17  and  C13_18 
REMARK       I    between atoms: N2_21  and  C16_23 
REMARK   14  A    between atoms: C16_23  and  C17_25 
REMARK   15  A    between atoms: C17_25  and  N3_26 
REMARK   16  A    between atoms: C17_25  and  C23_36 
REMARK   17  A    between atoms: C18_28  and  O4_29 
REMARK   18  A    between atoms: C18_28  and  O5_31 
REMARK   19  A    between atoms: O5_31  and  C19_32 
ROOT
HETATM    1  C11 UNL     1      18.230  32.816  15.161  1.00  0.00     0.117 C 
ENDROOT
BRANCH   1   2
HETATM    2  C5  UNL     1      19.533  33.116  15.908  1.00  0.00     0.201 C 
BRANCH   2   3
HETATM    3  N1  UNL     1      19.444  33.801  17.093  1.00  0.00    -0.395 N 
ATOM      4  H1  UNL     1      19.080  33.293  17.900  1.00  0.00     0.155 HD
BRANCH   3   5
HETATM    5  C4  UNL     1      19.811  35.145  17.290  1.00  0.00     0.168 C 
BRANCH   5   6
HETATM    6  C3  UNL     1      21.180  35.499  17.692  1.00  0.00     0.044 C 
BRANCH   6   7
HETATM    7  C2  UNL     1      21.632  34.969  19.049  1.00  0.00     0.076 C 
BRANCH   7   8
HETATM    8  S1  UNL     1      22.629  36.323  19.832  1.00  0.00    -0.173 SA
HETATM    9  C1  UNL     1      22.152  37.907  19.041  1.00  0.00     0.089 C 
ENDBRANCH   7   8
ENDBRANCH   6   7
ENDBRANCH   5   6
BRANCH   5  10
HETATM   10  C29 UNL     1      18.725  35.754  18.146  1.00  0.00     0.253 C 
HETATM   11  N4  UNL     1      18.431  37.127  18.216  1.00  0.00    -0.060 NA
HETATM   12  O6  UNL     1      18.006  34.999  18.862  1.00  0.00    -0.275 OA
ENDBRANCH   5  10
ENDBRANCH   3   5
ENDBRANCH   2   3
BRANCH   2  13
HETATM   13  C6  UNL     1      20.338  31.904  15.846  1.00  0.00     0.283 C 
HETATM   14  O1  UNL     1      20.208  30.926  16.570  1.00  0.00    -0.263 OA
BRANCH  13  15
HETATM   15  O2  UNL     1      21.377  31.799  14.877  1.00  0.00    -0.314 OA
BRANCH  15  16
HETATM   16  C7  UNL     1      22.731  31.817  15.277  1.00  0.00     0.132 C 
HETATM   17  C8  UNL     1      23.084  32.785  16.367  1.00  0.00     0.032 C 
HETATM   18  C9  UNL     1      23.617  33.801  15.345  1.00  0.00     0.005 C 
HETATM   19  C10 UNL     1      23.542  32.697  14.329  1.00  0.00     0.032 C 
ENDBRANCH  15  16
ENDBRANCH  13  15
ENDBRANCH   2  13
ENDBRANCH   1   2
BRANCH   1  20
HETATM   20  C12 UNL     1      17.345  33.924  14.885  1.00  0.00     0.031 C 
BRANCH  20  21
HETATM   21  C13 UNL     1      15.967  34.019  15.376  1.00  0.00    -0.021 C 
HETATM   22  C14 UNL     1      15.894  35.426  16.043  1.00  0.00     0.009 C 
HETATM   23  C15 UNL     1      15.613  33.106  16.538  1.00  0.00     0.009 C 
ENDBRANCH  20  21
ENDBRANCH   1  20
BRANCH   1  24
HETATM   24  N2  UNL     1      18.536  31.920  14.032  1.00  0.00    -0.349 N 
HETATM   25  C16 UNL     1      18.009  30.630  13.946  1.00  0.00     0.264 C 
HETATM   26  O3  UNL     1      17.246  30.243  14.865  1.00  0.00    -0.266 OA
ATOM     27  H2  UNL     1      19.150  32.253  13.290  1.00  0.00     0.163 HD
BRANCH  25  28
HETATM   28  C17 UNL     1      18.299  29.673  12.829  1.00  0.00     0.085 C 
BRANCH  28  29
HETATM   29  N3  UNL     1      17.336  29.272  12.186  1.00  0.00    -0.315 N 
HETATM   30  C18 UNL     1      16.824  28.884  10.996  1.00  0.00     0.263 C 
ATOM     31  H3  UNL     1      16.569  29.196  12.855  1.00  0.00     0.170 HD
BRANCH  30  32
HETATM   32  O4  UNL     1      15.594  29.205  10.720  1.00  0.00    -0.327 OA
ATOM     33  H4  UNL     1      15.412  30.098  10.451  1.00  0.00     0.221 HD
ENDBRANCH  30  32
BRANCH  30  34
HETATM   34  O5  UNL     1      17.416  28.165   9.965  1.00  0.00    -0.306 OA
BRANCH  34  35
HETATM   35  C19 UNL     1      17.946  26.863  10.122  1.00  0.00     0.060 C 
HETATM   36  C20 UNL     1      17.665  26.293  11.489  1.00  0.00     0.046 C 
HETATM   37  C21 UNL     1      19.430  26.827   9.873  1.00  0.00     0.046 C 
HETATM   38  C22 UNL     1      17.284  25.950   9.112  1.00  0.00     0.046 C 
ENDBRANCH  34  35
ENDBRANCH  30  34
ENDBRANCH  28  29
BRANCH  28  39
HETATM   39  C23 UNL     1      19.690  29.283  12.627  1.00  0.00     0.041 C 
HETATM   40  C24 UNL     1      20.581  30.300  11.964  1.00  0.00     0.011 C 
HETATM   41  C25 UNL     1      21.689  29.492  11.298  1.00  0.00     0.001 C 
HETATM   42  C26 UNL     1      22.411  28.630  12.285  1.00  0.00     0.000 C 
HETATM   43  C27 UNL     1      21.516  27.800  13.156  1.00  0.00     0.001 C 
HETATM   44  C28 UNL     1      20.406  28.669  13.801  1.00  0.00     0.011 C 
ENDBRANCH  28  39
ENDBRANCH  25  28
ENDBRANCH   1  24
TORSDOF 19
ENDMDL
MODEL 3
REMARK VINA RESULT: -7.494051899      3.637      9.613
REMARK  19 active torsions:
REMARK  status: ('A' for Active; 'I' for Inactive)
REMARK    1  A    between atoms: S1_2  and  C2_3 
REMARK    2  A    between atoms: C2_3  and  C3_4 
REMARK    3  A    between atoms: C3_4  and  C4_5 
REMARK    4  A    between atoms: C4_5  and  N1_6 
REMARK    5  A    between atoms: C4_5  and  C29_42 
REMARK    6  A    between atoms: N1_6  and  C5_8 
REMARK    7  A    between atoms: C5_8  and  C6_9 
REMARK    8  A    between atoms: C5_8  and  C11_16 
REMARK    9  A    between atoms: C6_9  and  O2_11 
REMARK   10  A    between atoms: O2_11  and  C7_12 
REMARK   11  A    between atoms: C11_16  and  C12_17 
REMARK   12  A    between atoms: C11_16  and  N2_21 
REMARK   13  A    between atoms: C12_17  and  C13_18 
REMARK       I    between atoms: N2_21  and  C16_23 
REMARK   14  A    between atoms: C16_23  and  C17_25 
REMARK   15  A    between atoms: C17_25  and  N3_26 
REMARK   16  A    between atoms: C17_25  and  C23_36 
REMARK   17  A    between atoms: C18_28  and  O4_29 
REMARK   18  A    between atoms: C18_28  and  O5_31 
REMARK   19  A    between atoms: O5_31  and  C19_32 
ROOT
HETATM    1  C11 UNL     1      19.836  28.896  11.664  1.00  0.00     0.117 C 
ENDROOT
BRANCH   1   2
HETATM    2  C5  UNL     1      20.754  27.695  11.911  1.00  0.00     0.201 C 
BRANCH   2   3
HETATM    3  N1  UNL     1      20.255  26.447  11.638  1.00  0.00    -0.395 N 
ATOM      4  H1  UNL     1      19.644  26.025  12.337  1.00  0.00     0.155 HD
BRANCH   3   5
HETATM    5  C4  UNL     1      20.516  25.699  10.474  1.00  0.00     0.168 C 
BRANCH   5   6
HETATM    6  C3  UNL     1      19.595  25.744   9.329  1.00  0.00     0.044 C 
BRANCH   6   7
HETATM    7  C2  UNL     1      20.112  25.121   8.037  1.00  0.00     0.076 C 
BRANCH   7   8
HETATM    8  S1  UNL     1      19.050  25.793   6.673  1.00  0.00    -0.173 SA
HETATM    9  C1  UNL     1      18.206  27.295   7.301  1.00  0.00     0.089 C 
ENDBRANCH   7   8
ENDBRANCH   6   7
ENDBRANCH   5   6
BRANCH   5  10
HETATM   10  C29 UNL     1      20.873  24.308  10.943  1.00  0.00     0.253 C 
HETATM   11  N4  UNL     1      20.034  23.185  10.838  1.00  0.00    -0.060 NA
HETATM   12  O6  UNL     1      22.005  24.104  11.469  1.00  0.00    -0.275 OA
ENDBRANCH   5  10
ENDBRANCH   3   5
ENDBRANCH   2   3
BRANCH   2  13
HETATM   13  C6  UNL     1      22.068  28.063  11.404  1.00  0.00     0.283 C 
HETATM   14  O1  UNL     1      22.324  29.071  10.758  1.00  0.00    -0.263 OA
BRANCH  13  15
HETATM   15  O2  UNL     1      23.182  27.212  11.654  1.00  0.00    -0.314 OA
BRANCH  15  16
HETATM   16  C7  UNL     1      24.316  27.254  10.815  1.00  0.00     0.132 C 
HETATM   17  C8  UNL     1      24.199  26.521   9.511  1.00  0.00     0.032 C 
HETATM   18  C9  UNL     1      24.955  25.310  10.080  1.00  0.00     0.005 C 
HETATM   19  C10 UNL     1      25.321  26.187  11.244  1.00  0.00     0.032 C 
ENDBRANCH  15  16
ENDBRANCH  13  15
ENDBRANCH   2  13
ENDBRANCH   1   2
BRANCH   1  20
HETATM   20  C12 UNL     1      18.557  28.646  11.040  1.00  0.00     0.031 C 
BRANCH  20  21
HETATM   21  C13 UNL     1      17.264  28.882  11.687  1.00  0.00    -0.021 C 
HETATM   22  C14 UNL     1      16.991  27.573  12.489  1.00  0.00     0.009 C 
HETATM   23  C15 UNL     1      16.059  28.934  10.762  1.00  0.00     0.009 C 
ENDBRANCH  20  21
ENDBRANCH   1  20
BRANCH   1  24
HETATM   24  N2  UNL     1      19.824  29.732  12.878  1.00  0.00    -0.349 N 
HETATM   25  C16 UNL     1      19.879  31.126  12.818  1.00  0.00     0.264 C 
HETATM   26  O3  UNL     1      19.929  31.666  11.686  1.00  0.00    -0.266 OA
ATOM     27  H2  UNL     1      19.775  29.278  13.789  1.00  0.00     0.163 HD
BRANCH  25  28
HETATM   28  C17 UNL     1      19.886  32.022  14.021  1.00  0.00     0.085 C 
BRANCH  28  29
HETATM   29  N3  UNL     1      20.982  32.407  14.411  1.00  0.00    -0.315 N 
HETATM   30  C18 UNL     1      21.796  33.440  14.724  1.00  0.00     0.263 C 
ATOM     31  H3  UNL     1      21.530  31.563  14.576  1.00  0.00     0.170 HD
BRANCH  30  32
HETATM   32  O4  UNL     1      23.061  33.336  14.438  1.00  0.00    -0.327 OA
ATOM     33  H4  UNL     1      23.680  33.271  15.155  1.00  0.00     0.221 HD
ENDBRANCH  30  32
BRANCH  30  34
HETATM   34  O5  UNL     1      21.500  34.655  15.330  1.00  0.00    -0.306 OA
BRANCH  34  35
HETATM   35  C19 UNL     1      21.539  34.862  16.728  1.00  0.00     0.060 C 
HETATM   36  C20 UNL     1      22.295  36.111  17.101  1.00  0.00     0.046 C 
HETATM   37  C21 UNL     1      22.145  33.690  17.453  1.00  0.00     0.046 C 
HETATM   38  C22 UNL     1      20.120  35.032  17.228  1.00  0.00     0.046 C 
ENDBRANCH  34  35
ENDBRANCH  30  34
ENDBRANCH  28  29
BRANCH  28  39
HETATM   39  C23 UNL     1      18.598  32.328  14.633  1.00  0.00     0.041 C 
HETATM   40  C24 UNL     1      17.980  33.652  14.265  1.00  0.00     0.011 C 
HETATM   41  C25 UNL     1      17.079  34.016  15.439  1.00  0.00     0.001 C 
HETATM   42  C26 UNL     1      16.068  32.949  15.710  1.00  0.00     0.000 C 
HETATM   43  C27 UNL     1      16.637  31.565  15.809  1.00  0.00     0.001 C 
HETATM   44  C28 UNL     1      17.548  31.249  14.595  1.00  0.00     0.011 C 
ENDBRANCH  28  39
ENDBRANCH  25  28
ENDBRANCH   1  24
TORSDOF 19
ENDMDL
MODEL 4
REMARK VINA RESULT: -7.368093030      3.770     10.591
REMARK  19 active torsions:
REMARK  status: ('A' for Active; 'I' for Inactive)
REMARK    1  A    between atoms: S1_2  and  C2_3 
REMARK    2  A    between atoms: C2_3  and  C3_4 
REMARK    3  A    between atoms: C3_4  and  C4_5 
REMARK    4  A    between atoms: C4_5  and  N1_6 
REMARK    5  A    between atoms: C4_5  and  C29_42 
REMARK    6  A    between atoms: N1_6  and  C5_8 
REMARK    7  A    between atoms: C5_8  and  C6_9 
REMARK    8  A    between atoms: C5_8  and  C11_16 
REMARK    9  A    between atoms: C6_9  and  O2_11 
REMARK   10  A    between atoms: O2_11  and  C7_12 
REMARK   11  A    between atoms: C11_16  and  C12_17 
REMARK   12  A    between atoms: C11_16  and  N2_21 
REMARK   13  A    between atoms: C12_17  and  C13_18 
REMARK       I    between atoms: N2_21  and  C16_23 
REMARK   14  A    between atoms: C16_23  and  C17_25 
REMARK   15  A    between atoms: C17_25  and  N3_26 
REMARK   16  A    between atoms: C17_25  and  C23_36 
REMARK   17  A    between atoms: C18_28  and  O4_29 
REMARK   18  A    between atoms: C18_28  and  O5_31 
REMARK   19  A    between atoms: O5_31  and  C19_32 
ROOT
HETATM    1  C11 UNL     1      21.978  27.753  11.539  1.00  0.00     0.117 C 
ENDROOT
BRANCH   1   2
HETATM    2  C5  UNL     1      20.826  26.777  11.283  1.00  0.00     0.201 C 
BRANCH   2   3
HETATM    3  N1  UNL     1      19.702  27.266  10.669  1.00  0.00    -0.395 N 
ATOM      4  H1  UNL     1      19.828  27.742   9.775  1.00  0.00     0.155 HD
BRANCH   3   5
HETATM    5  C4  UNL     1      18.389  27.168  11.167  1.00  0.00     0.168 C 
BRANCH   5   6
HETATM    6  C3  UNL     1      17.492  26.095  10.715  1.00  0.00     0.044 C 
BRANCH   6   7
HETATM    7  C2  UNL     1      17.902  25.383   9.430  1.00  0.00     0.076 C 
BRANCH   7   8
HETATM    8  S1  UNL     1      17.959  23.573   9.832  1.00  0.00    -0.173 SA
HETATM    9  C1  UNL     1      18.510  23.397  11.572  1.00  0.00     0.089 C 
ENDBRANCH   7   8
ENDBRANCH   6   7
ENDBRANCH   5   6
BRANCH   5  10
HETATM   10  C29 UNL     1      17.804  28.559  11.079  1.00  0.00     0.253 C 
HETATM   11  N4  UNL     1      16.445  28.846  10.859  1.00  0.00    -0.060 NA
HETATM   12  O6  UNL     1      18.565  29.559  11.215  1.00  0.00    -0.275 OA
ENDBRANCH   5  10
ENDBRANCH   3   5
ENDBRANCH   2   3
BRANCH   2  13
HETATM   13  C6  UNL     1      21.425  25.544  10.793  1.00  0.00     0.283 C 
HETATM   14  O1  UNL     1      21.985  24.701  11.482  1.00  0.00    -0.263 OA
BRANCH  13  15
HETATM   15  O2  UNL     1      21.384  25.248   9.400  1.00  0.00    -0.314 OA
BRANCH  15  16
HETATM   16  C7  UNL     1      21.680  23.948   8.936  1.00  0.00     0.132 C 
HETATM   17  C8  UNL     1      22.985  23.786   8.215  1.00  0.00     0.032 C 
HETATM   18  C9  UNL     1      22.284  23.860   6.849  1.00  0.00     0.005 C 
HETATM   19  C10 UNL     1      20.989  23.704   7.596  1.00  0.00     0.032 C 
ENDBRANCH  15  16
ENDBRANCH  13  15
ENDBRANCH   2  13
ENDBRANCH   1   2
BRANCH   1  20
HETATM   20  C12 UNL     1      22.999  27.868  10.524  1.00  0.00     0.031 C 
BRANCH  20  21
HETATM   21  C13 UNL     1      24.416  27.565  10.741  1.00  0.00    -0.021 C 
HETATM   22  C14 UNL     1      24.734  26.450   9.699  1.00  0.00     0.009 C 
HETATM   23  C15 UNL     1      24.750  26.868  12.051  1.00  0.00     0.009 C 
ENDBRANCH  20  21
ENDBRANCH   1  20
BRANCH   1  24
HETATM   24  N2  UNL     1      21.414  29.015  12.053  1.00  0.00    -0.349 N 
HETATM   25  C16 UNL     1      21.253  29.253  13.419  1.00  0.00     0.264 C 
HETATM   26  O3  UNL     1      21.615  28.356  14.220  1.00  0.00    -0.266 OA
ATOM     27  H2  UNL     1      21.134  29.736  11.389  1.00  0.00     0.163 HD
BRANCH  25  28
HETATM   28  C17 UNL     1      20.672  30.510  13.993  1.00  0.00     0.085 C 
BRANCH  28  29
HETATM   29  N3  UNL     1      19.471  30.686  13.826  1.00  0.00    -0.315 N 
HETATM   30  C18 UNL     1      18.235  30.793  14.364  1.00  0.00     0.263 C 
ATOM     31  H3  UNL     1      19.346  30.806  12.820  1.00  0.00     0.170 HD
BRANCH  30  32
HETATM   32  O4  UNL     1      17.229  30.304  13.699  1.00  0.00    -0.327 OA
ATOM     33  H4  UNL     1      16.750  29.578  14.080  1.00  0.00     0.221 HD
ENDBRANCH  30  32
BRANCH  30  34
HETATM   34  O5  UNL     1      17.834  31.366  15.565  1.00  0.00    -0.306 OA
BRANCH  34  35
HETATM   35  C19 UNL     1      17.239  32.644  15.662  1.00  0.00     0.060 C 
HETATM   36  C20 UNL     1      15.740  32.569  15.801  1.00  0.00     0.046 C 
HETATM   37  C21 UNL     1      17.576  33.512  14.479  1.00  0.00     0.046 C 
HETATM   38  C22 UNL     1      17.769  33.328  16.904  1.00  0.00     0.046 C 
ENDBRANCH  34  35
ENDBRANCH  30  34
ENDBRANCH  28  29
BRANCH  28  39
HETATM   39  C23 UNL     1      21.588  31.421  14.670  1.00  0.00     0.041 C 
HETATM   40  C24 UNL     1      22.194  32.511  13.825  1.00  0.00     0.011 C 
HETATM   41  C25 UNL     1      23.510  32.866  14.510  1.00  0.00     0.001 C 
HETATM   42  C26 UNL     1      23.298  33.273  15.933  1.00  0.00     0.000 C 
HETATM   43  C27 UNL     1      22.454  32.324  16.731  1.00  0.00     0.001 C 
HETATM   44  C28 UNL     1      21.135  31.992  15.988  1.00  0.00     0.011 C 
ENDBRANCH  28  39
ENDBRANCH  25  28
ENDBRANCH   1  24
TORSDOF 19
ENDMDL
MODEL 5
REMARK VINA RESULT: -7.352999226      3.696     10.551
REMARK  19 active torsions:
REMARK  status: ('A' for Active; 'I' for Inactive)
REMARK    1  A    between atoms: S1_2  and  C2_3 
REMARK    2  A    between atoms: C2_3  and  C3_4 
REMARK    3  A    between atoms: C3_4  and  C4_5 
REMARK    4  A    between atoms: C4_5  and  N1_6 
REMARK    5  A    between atoms: C4_5  and  C29_42 
REMARK    6  A    between atoms: N1_6  and  C5_8 
REMARK    7  A    between atoms: C5_8  and  C6_9 
REMARK    8  A    between atoms: C5_8  and  C11_16 
REMARK    9  A    between atoms: C6_9  and  O2_11 
REMARK   10  A    between atoms: O2_11  and  C7_12 
REMARK   11  A    between atoms: C11_16  and  C12_17 
REMARK   12  A    between atoms: C11_16  and  N2_21 
REMARK   13  A    between atoms: C12_17  and  C13_18 
REMARK       I    between atoms: N2_21  and  C16_23 
REMARK   14  A    between atoms: C16_23  and  C17_25 
REMARK   15  A    between atoms: C17_25  and  N3_26 
REMARK   16  A    between atoms: C17_25  and  C23_36 
REMARK   17  A    between atoms: C18_28  and  O4_29 
REMARK   18  A    between atoms: C18_28  and  O5_31 
REMARK   19  A    between atoms: O5_31  and  C19_32 
ROOT
HETATM    1  C11 UNL     1      21.908  27.843  11.613  1.00  0.00     0.117 C 
ENDROOT
BRANCH   1   2
HETATM    2  C5  UNL     1      20.767  26.867  11.311  1.00  0.00     0.201 C 
BRANCH   2   3
HETATM    3  N1  UNL     1      19.666  27.358  10.657  1.00  0.00    -0.395 N 
ATOM      4  H1  UNL     1      19.832  27.967   9.855  1.00  0.00     0.155 HD
BRANCH   3   5
HETATM    5  C4  UNL     1      18.327  27.094  10.999  1.00  0.00     0.168 C 
BRANCH   5   6
HETATM    6  C3  UNL     1      17.332  26.789   9.961  1.00  0.00     0.044 C 
BRANCH   6   7
HETATM    7  C2  UNL     1      17.432  25.404   9.331  1.00  0.00     0.076 C 
BRANCH   7   8
HETATM    8  S1  UNL     1      17.545  25.671   7.500  1.00  0.00    -0.173 SA
HETATM    9  C1  UNL     1      18.231  27.347   7.213  1.00  0.00     0.089 C 
ENDBRANCH   7   8
ENDBRANCH   6   7
ENDBRANCH   5   6
BRANCH   5  10
HETATM   10  C29 UNL     1      17.919  28.184  11.964  1.00  0.00     0.253 C 
HETATM   11  N4  UNL     1      17.994  29.562  11.697  1.00  0.00    -0.060 NA
HETATM   12  O6  UNL     1      17.469  27.865  13.102  1.00  0.00    -0.275 OA
ENDBRANCH   5  10
ENDBRANCH   3   5
ENDBRANCH   2   3
BRANCH   2  13
HETATM   13  C6  UNL     1      21.386  25.637  10.838  1.00  0.00     0.283 C 
HETATM   14  O1  UNL     1      22.000  24.837  11.531  1.00  0.00    -0.263 OA
BRANCH  13  15
HETATM   15  O2  UNL     1      21.297  25.290   9.459  1.00  0.00    -0.314 OA
BRANCH  15  16
HETATM   16  C7  UNL     1      21.542  23.966   9.038  1.00  0.00     0.132 C 
HETATM   17  C8  UNL     1      22.788  23.751   8.231  1.00  0.00     0.032 C 
HETATM   18  C9  UNL     1      21.988  23.771   6.918  1.00  0.00     0.005 C 
HETATM   19  C10 UNL     1      20.751  23.669   7.766  1.00  0.00     0.032 C 
ENDBRANCH  15  16
ENDBRANCH  13  15
ENDBRANCH   2  13
ENDBRANCH   1   2
BRANCH   1  20
HETATM   20  C12 UNL     1      22.905  28.048  10.588  1.00  0.00     0.031 C 
BRANCH  20  21
HETATM   21  C13 UNL     1      24.324  27.712  10.739  1.00  0.00    -0.021 C 
HETATM   22  C14 UNL     1      24.567  26.588   9.685  1.00  0.00     0.009 C 
HETATM   23  C15 UNL     1      24.704  27.010  12.032  1.00  0.00     0.009 C 
ENDBRANCH  20  21
ENDBRANCH   1  20
BRANCH   1  24
HETATM   24  N2  UNL     1      21.335  29.055  12.226  1.00  0.00    -0.349 N 
HETATM   25  C16 UNL     1      21.155  29.173  13.605  1.00  0.00     0.264 C 
HETATM   26  O3  UNL     1      21.507  28.210  14.330  1.00  0.00    -0.266 OA
ATOM     27  H2  UNL     1      21.063  29.831  11.624  1.00  0.00     0.163 HD
BRANCH  25  28
HETATM   28  C17 UNL     1      20.564  30.375  14.279  1.00  0.00     0.085 C 
BRANCH  28  29
HETATM   29  N3  UNL     1      19.343  30.395  14.392  1.00  0.00    -0.315 N 
HETATM   30  C18 UNL     1      18.261  30.586  15.181  1.00  0.00     0.263 C 
ATOM     31  H3  UNL     1      18.975  30.160  13.470  1.00  0.00     0.170 HD
BRANCH  30  32
HETATM   32  O4  UNL     1      17.220  29.830  14.992  1.00  0.00    -0.327 OA
ATOM     33  H4  UNL     1      16.392  30.103  15.368  1.00  0.00     0.221 HD
ENDBRANCH  30  32
BRANCH  30  34
HETATM   34  O5  UNL     1      18.060  31.499  16.209  1.00  0.00    -0.306 OA
BRANCH  34  35
HETATM   35  C19 UNL     1      17.528  32.794  16.013  1.00  0.00     0.060 C 
HETATM   36  C20 UNL     1      16.031  32.831  16.190  1.00  0.00     0.046 C 
HETATM   37  C21 UNL     1      17.873  33.343  14.654  1.00  0.00     0.046 C 
HETATM   38  C22 UNL     1      18.124  33.721  17.051  1.00  0.00     0.046 C 
ENDBRANCH  34  35
ENDBRANCH  30  34
ENDBRANCH  28  29
BRANCH  28  39
HETATM   39  C23 UNL     1      21.484  31.420  14.710  1.00  0.00     0.041 C 
HETATM   40  C24 UNL     1      21.471  31.761  16.177  1.00  0.00     0.011 C 
HETATM   41  C25 UNL     1      21.956  33.204  16.260  1.00  0.00     0.001 C 
HETATM   42  C26 UNL     1      23.302  33.370  15.629  1.00  0.00     0.000 C 
HETATM   43  C27 UNL     1      23.418  32.786  14.252  1.00  0.00     0.001 C 
HETATM   44  C28 UNL     1      22.906  31.323  14.223  1.00  0.00     0.011 C 
ENDBRANCH  28  39
ENDBRANCH  25  28
ENDBRANCH   1  24
TORSDOF 19
ENDMDL
