MODEL 1
REMARK VINA RESULT: -8.473193491      0.000      0.000
REMARK  15 active torsions:
REMARK  status: ('A' for Active; 'I' for Inactive)
REMARK    1  A    between atoms: N1_1  and  C1_5 
REMARK    2  A    between atoms: C1_5  and  C2_6 
REMARK    3  A    between atoms: C2_6  and  S1_7 
REMARK    4  A    between atoms: S1_7  and  O1_8 
REMARK    5  A    between atoms: O1_8  and  N2_9 
REMARK    6  A    between atoms: C5_16  and  C6_17 
REMARK    7  A    between atoms: C5_16  and  C20_32 
REMARK    8  A    between atoms: C6_17  and  C7_18 
REMARK    9  A    between atoms: C7_18  and  N4_19 
REMARK   10  A    between atoms: C10_22  and  C11_23 
REMARK   11  A    between atoms: C11_23  and  C12_24 
REMARK   12  A    between atoms: C23_35  and  O4_36 
REMARK   13  A    between atoms: O4_36  and  C24_37 
REMARK   14  A    between atoms: C24_37  and  C25_38 
REMARK   15  A    between atoms: C25_38  and  N5_39 
ROOT
HETATM    1  N2  UNL     1      17.466  32.113  14.770  1.00  0.00    -0.170 N 
HETATM    2  C3  UNL     1      16.599  31.488  15.730  1.00  0.00     0.351 C 
HETATM    3  O2  UNL     1      15.352  31.687  15.814  1.00  0.00    -0.244 OA
HETATM    4  N3  UNL     1      17.416  30.641  16.521  1.00  0.00    -0.275 N 
ATOM      5  H3  UNL     1      17.107  30.052  17.295  1.00  0.00     0.173 HD
HETATM    6  C4  UNL     1      18.757  30.766  16.032  1.00  0.00     0.261 C 
HETATM    7  O3  UNL     1      19.793  30.487  16.673  1.00  0.00    -0.270 OA
HETATM    8  C5  UNL     1      18.682  31.285  14.633  1.00  0.00     0.175 C 
ENDROOT
BRANCH   8   9
HETATM    9  C6  UNL     1      19.777  32.209  14.283  1.00  0.00     0.069 C 
BRANCH   9  10
HETATM   10  C7  UNL     1      21.005  31.580  13.669  1.00  0.00     0.125 C 
BRANCH  10  11
HETATM   11  N4  UNL     1      22.130  32.195  14.280  1.00  0.00    -0.393 N 
HETATM   12  C8  UNL     1      22.180  33.611  14.258  1.00  0.00     0.122 C 
HETATM   13  C9  UNL     1      22.711  34.217  15.522  1.00  0.00     0.024 C 
HETATM   14  C10 UNL     1      22.062  33.524  16.753  1.00  0.00    -0.008 C 
HETATM   15  C18 UNL     1      22.533  32.133  16.730  1.00  0.00     0.049 C 
HETATM   16  C19 UNL     1      22.770  31.551  15.346  1.00  0.00     0.058 C 
BRANCH  14  17
HETATM   17  C11 UNL     1      22.349  34.410  17.885  1.00  0.00     0.009 C 
BRANCH  17  18
HETATM   18  C12 UNL     1      21.295  35.179  18.559  1.00  0.00    -0.014 C 
HETATM   19  C13 UNL     1      21.066  36.499  17.776  1.00  0.00     0.005 C 
HETATM   20  C14 UNL     1      22.225  37.421  17.825  1.00  0.00     0.000 C 
HETATM   21  C15 UNL     1      22.493  37.856  19.273  1.00  0.00     0.000 C 
HETATM   22  C16 UNL     1      22.790  36.594  20.028  1.00  0.00     0.000 C 
HETATM   23  C17 UNL     1      21.627  35.623  19.954  1.00  0.00     0.005 C 
ENDBRANCH  17  18
ENDBRANCH  14  17
ENDBRANCH  10  11
ENDBRANCH   9  10
ENDBRANCH   8   9
BRANCH   8  24
HETATM   24  C20 UNL     1      18.386  30.207  13.692  1.00  0.00    -0.018 A 
HETATM   25  C21 UNL     1      18.643  28.916  14.127  1.00  0.00     0.013 A 
HETATM   26  C22 UNL     1      18.390  27.830  13.323  1.00  0.00     0.037 A 
HETATM   27  C23 UNL     1      17.869  27.983  12.048  1.00  0.00     0.068 A 
HETATM   28  C30 UNL     1      17.621  29.259  11.629  1.00  0.00     0.037 A 
HETATM   29  C31 UNL     1      17.869  30.360  12.423  1.00  0.00     0.013 A 
BRANCH  27  30
HETATM   30  O4  UNL     1      17.622  26.850  11.254  1.00  0.00    -0.349 OA
BRANCH  30  31
HETATM   31  C24 UNL     1      18.645  25.850  11.117  1.00  0.00     0.206 C 
BRANCH  31  32
HETATM   32  C25 UNL     1      19.849  26.395  10.430  1.00  0.00     0.299 C 
BRANCH  32  33
HETATM   33  N5  UNL     1      20.981  26.595  11.292  1.00  0.00     0.090 N 
HETATM   34  C26 UNL     1      22.043  25.676  11.110  1.00  0.00     0.272 C 
HETATM   35  C27 UNL     1      23.325  26.482  11.117  1.00  0.00     0.032 C 
HETATM   36  C28 UNL     1      22.908  27.776  11.820  1.00  0.00     0.032 C 
HETATM   37  C29 UNL     1      21.496  27.927  11.244  1.00  0.00     0.272 C 
ENDBRANCH  32  33
ENDBRANCH  31  32
ENDBRANCH  30  31
ENDBRANCH  27  30
ENDBRANCH   8  24
BRANCH   1  38
HETATM   38  O1  UNL     1      17.218  33.254  14.114  1.00  0.00    -0.196 OA
BRANCH  38  39
HETATM   39  S1  UNL     1      16.745  34.523  15.133  1.00  0.00     0.022 SA
BRANCH  39  40
HETATM   40  C2  UNL     1      17.717  34.647  16.633  1.00  0.00     0.135 C 
BRANCH  40  41
HETATM   41  C1  UNL     1      16.836  34.935  17.825  1.00  0.00     0.242 C 
BRANCH  41  42
HETATM   42  N1  UNL     1      15.599  34.143  17.759  1.00  0.00    -0.079 N 
ATOM     43  H13 UNL     1      15.793  33.149  17.643  1.00  0.00     0.274 HD
ATOM     44  H12 UNL     1      15.127  34.102  18.662  1.00  0.00     0.274 HD
ATOM     45  H11 UNL     1      14.985  34.497  17.026  1.00  0.00     0.274 HD
ENDBRANCH  41  42
ENDBRANCH  40  41
ENDBRANCH  39  40
ENDBRANCH  38  39
ENDBRANCH   1  38
TORSDOF 15
ENDMDL
MODEL 2
REMARK VINA RESULT: -8.392010097      2.229      6.791
REMARK  15 active torsions:
REMARK  status: ('A' for Active; 'I' for Inactive)
REMARK    1  A    between atoms: N1_1  and  C1_5 
REMARK    2  A    between atoms: C1_5  and  C2_6 
REMARK    3  A    between atoms: C2_6  and  S1_7 
REMARK    4  A    between atoms: S1_7  and  O1_8 
REMARK    5  A    between atoms: O1_8  and  N2_9 
REMARK    6  A    between atoms: C5_16  and  C6_17 
REMARK    7  A    between atoms: C5_16  and  C20_32 
REMARK    8  A    between atoms: C6_17  and  C7_18 
REMARK    9  A    between atoms: C7_18  and  N4_19 
REMARK   10  A    between atoms: C10_22  and  C11_23 
REMARK   11  A    between atoms: C11_23  and  C12_24 
REMARK   12  A    between atoms: C23_35  and  O4_36 
REMARK   13  A    between atoms: O4_36  and  C24_37 
REMARK   14  A    between atoms: C24_37  and  C25_38 
REMARK   15  A    between atoms: C25_38  and  N5_39 
ROOT
HETATM    1  N2  UNL     1      19.296  29.964  14.202  1.00  0.00    -0.170 N 
HETATM    2  C3  UNL     1      18.461  29.396  13.180  1.00  0.00     0.351 C 
HETATM    3  O2  UNL     1      17.867  28.282  13.270  1.00  0.00    -0.244 OA
HETATM    4  N3  UNL     1      18.455  30.319  12.104  1.00  0.00    -0.275 N 
ATOM      5  H3  UNL     1      17.955  30.215  11.221  1.00  0.00     0.173 HD
HETATM    6  C4  UNL     1      19.282  31.424  12.488  1.00  0.00     0.261 C 
HETATM    7  O3  UNL     1      19.819  32.236  11.704  1.00  0.00    -0.270 OA
HETATM    8  C5  UNL     1      19.378  31.422  13.979  1.00  0.00     0.175 C 
ENDROOT
BRANCH   8   9
HETATM    9  C6  UNL     1      20.694  31.848  14.490  1.00  0.00     0.069 C 
BRANCH   9  10
HETATM   10  C7  UNL     1      20.836  31.910  15.992  1.00  0.00     0.125 C 
BRANCH  10  11
HETATM   11  N4  UNL     1      22.034  32.624  16.262  1.00  0.00    -0.393 N 
HETATM   12  C8  UNL     1      22.520  33.474  15.238  1.00  0.00     0.122 C 
HETATM   13  C9  UNL     1      23.092  34.763  15.744  1.00  0.00     0.024 C 
HETATM   14  C10 UNL     1      22.149  35.374  16.820  1.00  0.00    -0.008 C 
HETATM   15  C18 UNL     1      22.168  34.439  17.952  1.00  0.00     0.049 C 
HETATM   16  C19 UNL     1      22.341  32.975  17.582  1.00  0.00     0.058 C 
BRANCH  14  17
HETATM   17  C11 UNL     1      22.589  36.764  16.968  1.00  0.00     0.009 C 
BRANCH  17  18
HETATM   18  C12 UNL     1      21.646  37.856  17.240  1.00  0.00    -0.014 C 
HETATM   19  C13 UNL     1      22.165  39.145  16.549  1.00  0.00     0.005 C 
HETATM   20  C14 UNL     1      23.430  39.654  17.129  1.00  0.00     0.000 C 
HETATM   21  C15 UNL     1      23.217  40.046  18.597  1.00  0.00     0.000 C 
HETATM   22  C16 UNL     1      22.786  38.790  19.295  1.00  0.00     0.000 C 
HETATM   23  C17 UNL     1      21.512  38.234  18.687  1.00  0.00     0.005 C 
ENDBRANCH  17  18
ENDBRANCH  14  17
ENDBRANCH  10  11
ENDBRANCH   9  10
ENDBRANCH   8   9
BRANCH   8  24
HETATM   24  C20 UNL     1      18.195  32.034  14.579  1.00  0.00    -0.018 A 
HETATM   25  C21 UNL     1      18.010  33.389  14.344  1.00  0.00     0.013 A 
HETATM   26  C22 UNL     1      16.924  34.059  14.855  1.00  0.00     0.037 A 
HETATM   27  C23 UNL     1      15.971  33.407  15.622  1.00  0.00     0.068 A 
HETATM   28  C30 UNL     1      16.163  32.073  15.848  1.00  0.00     0.037 A 
HETATM   29  C31 UNL     1      17.249  31.386  15.343  1.00  0.00     0.013 A 
BRANCH  27  30
HETATM   30  O4  UNL     1      14.872  34.123  16.126  1.00  0.00    -0.349 OA
BRANCH  30  31
HETATM   31  C24 UNL     1      14.852  34.493  17.515  1.00  0.00     0.206 C 
BRANCH  31  32
HETATM   32  C25 UNL     1      14.807  35.973  17.682  1.00  0.00     0.299 C 
BRANCH  32  33
HETATM   33  N5  UNL     1      16.067  36.564  18.042  1.00  0.00     0.090 N 
HETATM   34  C26 UNL     1      17.076  35.645  18.416  1.00  0.00     0.272 C 
HETATM   35  C27 UNL     1      18.349  36.087  17.727  1.00  0.00     0.032 C 
HETATM   36  C28 UNL     1      18.065  37.556  17.401  1.00  0.00     0.032 C 
HETATM   37  C29 UNL     1      16.579  37.447  17.041  1.00  0.00     0.272 C 
ENDBRANCH  32  33
ENDBRANCH  31  32
ENDBRANCH  30  31
ENDBRANCH  27  30
ENDBRANCH   8  24
BRANCH   1  38
HETATM   38  O1  UNL     1      19.901  29.288  15.188  1.00  0.00    -0.196 OA
BRANCH  38  39
HETATM   39  S1  UNL     1      21.137  28.267  14.637  1.00  0.00     0.022 SA
BRANCH  39  40
HETATM   40  C2  UNL     1      22.018  28.901  13.212  1.00  0.00     0.135 C 
BRANCH  40  41
HETATM   41  C1  UNL     1      21.708  28.086  11.979  1.00  0.00     0.242 C 
BRANCH  41  42
HETATM   42  N1  UNL     1      20.760  27.008  12.295  1.00  0.00    -0.079 N 
ATOM     43  H13 UNL     1      20.722  26.821  13.297  1.00  0.00     0.274 HD
ATOM     44  H12 UNL     1      19.793  27.301  12.158  1.00  0.00     0.274 HD
ATOM     45  H11 UNL     1      20.981  26.167  11.762  1.00  0.00     0.274 HD
ENDBRANCH  41  42
ENDBRANCH  40  41
ENDBRANCH  39  40
ENDBRANCH  38  39
ENDBRANCH   1  38
TORSDOF 15
ENDMDL
MODEL 3
REMARK VINA RESULT: -8.343818883      2.540      7.244
REMARK  15 active torsions:
REMARK  status: ('A' for Active; 'I' for Inactive)
REMARK    1  A    between atoms: N1_1  and  C1_5 
REMARK    2  A    between atoms: C1_5  and  C2_6 
REMARK    3  A    between atoms: C2_6  and  S1_7 
REMARK    4  A    between atoms: S1_7  and  O1_8 
REMARK    5  A    between atoms: O1_8  and  N2_9 
REMARK    6  A    between atoms: C5_16  and  C6_17 
REMARK    7  A    between atoms: C5_16  and  C20_32 
REMARK    8  A    between atoms: C6_17  and  C7_18 
REMARK    9  A    between atoms: C7_18  and  N4_19 
REMARK   10  A    between atoms: C10_22  and  C11_23 
REMARK   11  A    between atoms: C11_23  and  C12_24 
REMARK   12  A    between atoms: C23_35  and  O4_36 
REMARK   13  A    between atoms: O4_36  and  C24_37 
REMARK   14  A    between atoms: C24_37  and  C25_38 
REMARK   15  A    between atoms: C25_38  and  N5_39 
ROOT
HETATM    1  N2  UNL     1      19.455  30.007  14.236  1.00  0.00    -0.170 N 
HETATM    2  C3  UNL     1      18.600  29.412  13.247  1.00  0.00     0.351 C 
HETATM    3  O2  UNL     1      18.035  28.286  13.364  1.00  0.00    -0.244 OA
HETATM    4  N3  UNL     1      18.537  30.327  12.165  1.00  0.00    -0.275 N 
ATOM      5  H3  UNL     1      18.011  30.205  11.300  1.00  0.00     0.173 HD
HETATM    6  C4  UNL     1      19.351  31.454  12.514  1.00  0.00     0.261 C 
HETATM    7  O3  UNL     1      19.843  32.271  11.706  1.00  0.00    -0.270 OA
HETATM    8  C5  UNL     1      19.497  31.465  14.001  1.00  0.00     0.175 C 
ENDROOT
BRANCH   8   9
HETATM    9  C6  UNL     1      20.819  31.925  14.464  1.00  0.00     0.069 C 
BRANCH   9  10
HETATM   10  C7  UNL     1      20.996  32.041  15.959  1.00  0.00     0.125 C 
BRANCH  10  11
HETATM   11  N4  UNL     1      21.808  33.183  16.189  1.00  0.00    -0.393 N 
HETATM   12  C8  UNL     1      21.817  34.178  15.180  1.00  0.00     0.122 C 
HETATM   13  C9  UNL     1      21.843  35.578  15.714  1.00  0.00     0.024 C 
HETATM   14  C10 UNL     1      20.819  35.720  16.876  1.00  0.00    -0.008 C 
HETATM   15  C18 UNL     1      21.311  34.856  17.956  1.00  0.00     0.049 C 
HETATM   16  C19 UNL     1      22.045  33.604  17.503  1.00  0.00     0.058 C 
BRANCH  14  17
HETATM   17  C11 UNL     1      20.655  37.164  17.066  1.00  0.00     0.009 C 
BRANCH  17  18
HETATM   18  C12 UNL     1      21.697  38.124  16.682  1.00  0.00    -0.014 C 
HETATM   19  C13 UNL     1      21.943  39.092  17.870  1.00  0.00     0.005 C 
HETATM   20  C14 UNL     1      20.784  39.968  18.164  1.00  0.00     0.000 C 
HETATM   21  C15 UNL     1      20.491  40.876  16.962  1.00  0.00     0.000 C 
HETATM   22  C16 UNL     1      20.178  39.954  15.821  1.00  0.00     0.000 C 
HETATM   23  C17 UNL     1      21.341  39.023  15.533  1.00  0.00     0.005 C 
ENDBRANCH  17  18
ENDBRANCH  14  17
ENDBRANCH  10  11
ENDBRANCH   9  10
ENDBRANCH   8   9
BRANCH   8  24
HETATM   24  C20 UNL     1      18.321  32.055  14.635  1.00  0.00    -0.018 A 
HETATM   25  C21 UNL     1      18.088  33.399  14.385  1.00  0.00     0.013 A 
HETATM   26  C22 UNL     1      17.004  34.048  14.926  1.00  0.00     0.037 A 
HETATM   27  C23 UNL     1      16.100  33.384  15.740  1.00  0.00     0.068 A 
HETATM   28  C30 UNL     1      16.339  32.060  15.981  1.00  0.00     0.037 A 
HETATM   29  C31 UNL     1      17.423  31.394  15.446  1.00  0.00     0.013 A 
BRANCH  27  30
HETATM   30  O4  UNL     1      15.001  34.078  16.275  1.00  0.00    -0.349 OA
BRANCH  30  31
HETATM   31  C24 UNL     1      15.064  34.559  17.628  1.00  0.00     0.206 C 
BRANCH  31  32
HETATM   32  C25 UNL     1      14.875  36.035  17.689  1.00  0.00     0.299 C 
BRANCH  32  33
HETATM   33  N5  UNL     1      16.089  36.777  17.898  1.00  0.00     0.090 N 
HETATM   34  C26 UNL     1      16.706  37.260  16.720  1.00  0.00     0.272 C 
HETATM   35  C27 UNL     1      17.118  38.691  16.996  1.00  0.00     0.032 C 
HETATM   36  C28 UNL     1      17.144  38.747  18.526  1.00  0.00     0.032 C 
HETATM   37  C29 UNL     1      15.936  37.853  18.827  1.00  0.00     0.272 C 
ENDBRANCH  32  33
ENDBRANCH  31  32
ENDBRANCH  30  31
ENDBRANCH  27  30
ENDBRANCH   8  24
BRANCH   1  38
HETATM   38  O1  UNL     1      20.109  29.353  15.206  1.00  0.00    -0.196 OA
BRANCH  38  39
HETATM   39  S1  UNL     1      21.321  28.323  14.618  1.00  0.00     0.022 SA
BRANCH  39  40
HETATM   40  C2  UNL     1      22.152  28.945  13.158  1.00  0.00     0.135 C 
BRANCH  40  41
HETATM   41  C1  UNL     1      21.826  28.098  11.950  1.00  0.00     0.242 C 
BRANCH  41  42
HETATM   42  N1  UNL     1      20.893  27.020  12.310  1.00  0.00    -0.079 N 
ATOM     43  H13 UNL     1      21.304  26.375  12.984  1.00  0.00     0.274 HD
ATOM     44  H12 UNL     1      20.119  27.363  12.878  1.00  0.00     0.274 HD
ATOM     45  H11 UNL     1      20.564  26.536  11.474  1.00  0.00     0.274 HD
ENDBRANCH  41  42
ENDBRANCH  40  41
ENDBRANCH  39  40
ENDBRANCH  38  39
ENDBRANCH   1  38
TORSDOF 15
ENDMDL
MODEL 4
REMARK VINA RESULT: -8.204646074      2.510      4.780
REMARK  15 active torsions:
REMARK  status: ('A' for Active; 'I' for Inactive)
REMARK    1  A    between atoms: N1_1  and  C1_5 
REMARK    2  A    between atoms: C1_5  and  C2_6 
REMARK    3  A    between atoms: C2_6  and  S1_7 
REMARK    4  A    between atoms: S1_7  and  O1_8 
REMARK    5  A    between atoms: O1_8  and  N2_9 
REMARK    6  A    between atoms: C5_16  and  C6_17 
REMARK    7  A    between atoms: C5_16  and  C20_32 
REMARK    8  A    between atoms: C6_17  and  C7_18 
REMARK    9  A    between atoms: C7_18  and  N4_19 
REMARK   10  A    between atoms: C10_22  and  C11_23 
REMARK   11  A    between atoms: C11_23  and  C12_24 
REMARK   12  A    between atoms: C23_35  and  O4_36 
REMARK   13  A    between atoms: O4_36  and  C24_37 
REMARK   14  A    between atoms: C24_37  and  C25_38 
REMARK   15  A    between atoms: C25_38  and  N5_39 
ROOT
HETATM    1  N2  UNL     1      20.575  30.738  14.443  1.00  0.00    -0.170 N 
HETATM    2  C3  UNL     1      21.719  30.380  13.652  1.00  0.00     0.351 C 
HETATM    3  O2  UNL     1      22.727  29.749  14.085  1.00  0.00    -0.244 OA
HETATM    4  N3  UNL     1      21.475  30.870  12.344  1.00  0.00    -0.275 N 
ATOM      5  H3  UNL     1      22.095  30.781  11.539  1.00  0.00     0.173 HD
HETATM    6  C4  UNL     1      20.195  31.513  12.363  1.00  0.00     0.261 C 
HETATM    7  O3  UNL     1      19.799  32.367  11.541  1.00  0.00    -0.270 OA
HETATM    8  C5  UNL     1      19.435  30.976  13.533  1.00  0.00     0.175 C 
ENDROOT
BRANCH   8   9
HETATM    9  C6  UNL     1      18.577  31.977  14.193  1.00  0.00     0.069 C 
BRANCH   9  10
HETATM   10  C7  UNL     1      17.223  31.492  14.652  1.00  0.00     0.125 C 
BRANCH  10  11
HETATM   11  N4  UNL     1      16.935  32.167  15.868  1.00  0.00    -0.393 N 
HETATM   12  C8  UNL     1      17.979  32.937  16.439  1.00  0.00     0.122 C 
HETATM   13  C9  UNL     1      17.517  34.226  17.046  1.00  0.00     0.024 C 
HETATM   14  C10 UNL     1      16.522  34.936  16.085  1.00  0.00    -0.008 C 
HETATM   15  C18 UNL     1      15.342  34.066  16.010  1.00  0.00     0.049 C 
HETATM   16  C19 UNL     1      15.623  32.578  16.132  1.00  0.00     0.058 C 
BRANCH  14  17
HETATM   17  C11 UNL     1      16.429  36.312  16.581  1.00  0.00     0.009 C 
BRANCH  17  18
HETATM   18  C12 UNL     1      17.112  36.747  17.806  1.00  0.00    -0.014 C 
HETATM   19  C13 UNL     1      16.089  37.485  18.710  1.00  0.00     0.005 C 
HETATM   20  C14 UNL     1      15.608  38.763  18.133  1.00  0.00     0.000 C 
HETATM   21  C15 UNL     1      16.779  39.742  17.972  1.00  0.00     0.000 C 
HETATM   22  C16 UNL     1      17.744  39.072  17.039  1.00  0.00     0.000 C 
HETATM   23  C17 UNL     1      18.216  37.743  17.598  1.00  0.00     0.005 C 
ENDBRANCH  17  18
ENDBRANCH  14  17
ENDBRANCH  10  11
ENDBRANCH   9  10
ENDBRANCH   8   9
BRANCH   8  24
HETATM   24  C20 UNL     1      18.836  29.682  13.216  1.00  0.00    -0.018 A 
HETATM   25  C21 UNL     1      18.142  29.596  12.019  1.00  0.00     0.013 A 
HETATM   26  C22 UNL     1      17.549  28.421  11.622  1.00  0.00     0.037 A 
HETATM   27  C23 UNL     1      17.623  27.278  12.402  1.00  0.00     0.068 A 
HETATM   28  C30 UNL     1      18.308  27.374  13.580  1.00  0.00     0.037 A 
HETATM   29  C31 UNL     1      18.909  28.546  13.993  1.00  0.00     0.013 A 
BRANCH  27  30
HETATM   30  O4  UNL     1      17.006  26.093  11.965  1.00  0.00    -0.349 OA
BRANCH  30  31
HETATM   31  C24 UNL     1      17.824  24.990  11.538  1.00  0.00     0.206 C 
BRANCH  31  32
HETATM   32  C25 UNL     1      18.413  25.240  10.193  1.00  0.00     0.299 C 
BRANCH  32  33
HETATM   33  N5  UNL     1      19.850  25.218  10.165  1.00  0.00     0.090 N 
HETATM   34  C26 UNL     1      20.474  26.456  10.451  1.00  0.00     0.272 C 
HETATM   35  C27 UNL     1      21.615  26.163  11.402  1.00  0.00     0.032 C 
HETATM   36  C28 UNL     1      21.862  24.667  11.184  1.00  0.00     0.032 C 
HETATM   37  C29 UNL     1      20.413  24.201  10.997  1.00  0.00     0.272 C 
ENDBRANCH  32  33
ENDBRANCH  31  32
ENDBRANCH  30  31
ENDBRANCH  27  30
ENDBRANCH   8  24
BRANCH   1  38
HETATM   38  O1  UNL     1      20.543  30.842  15.778  1.00  0.00    -0.196 OA
BRANCH  38  39
HETATM   39  S1  UNL     1      21.656  31.967  16.388  1.00  0.00     0.022 SA
BRANCH  39  40
HETATM   40  C2  UNL     1      21.886  33.398  15.334  1.00  0.00     0.135 C 
BRANCH  40  41
HETATM   41  C1  UNL     1      23.350  33.756  15.223  1.00  0.00     0.242 C 
BRANCH  41  42
HETATM   42  N1  UNL     1      24.084  32.713  14.492  1.00  0.00    -0.079 N 
ATOM     43  H13 UNL     1      24.046  31.815  14.974  1.00  0.00     0.274 HD
ATOM     44  H12 UNL     1      23.605  32.445  13.632  1.00  0.00     0.274 HD
ATOM     45  H11 UNL     1      25.044  33.007  14.315  1.00  0.00     0.274 HD
ENDBRANCH  41  42
ENDBRANCH  40  41
ENDBRANCH  39  40
ENDBRANCH  38  39
ENDBRANCH   1  38
TORSDOF 15
ENDMDL
MODEL 5
REMARK VINA RESULT: -8.102168868      3.328      8.482
REMARK  15 active torsions:
REMARK  status: ('A' for Active; 'I' for Inactive)
REMARK    1  A    between atoms: N1_1  and  C1_5 
REMARK    2  A    between atoms: C1_5  and  C2_6 
REMARK    3  A    between atoms: C2_6  and  S1_7 
REMARK    4  A    between atoms: S1_7  and  O1_8 
REMARK    5  A    between atoms: O1_8  and  N2_9 
REMARK    6  A    between atoms: C5_16  and  C6_17 
REMARK    7  A    between atoms: C5_16  and  C20_32 
REMARK    8  A    between atoms: C6_17  and  C7_18 
REMARK    9  A    between atoms: C7_18  and  N4_19 
REMARK   10  A    between atoms: C10_22  and  C11_23 
REMARK   11  A    between atoms: C11_23  and  C12_24 
REMARK   12  A    between atoms: C23_35  and  O4_36 
REMARK   13  A    between atoms: O4_36  and  C24_37 
REMARK   14  A    between atoms: C24_37  and  C25_38 
REMARK   15  A    between atoms: C25_38  and  N5_39 
ROOT
HETATM    1  N2  UNL     1      20.553  30.484  14.561  1.00  0.00    -0.170 N 
HETATM    2  C3  UNL     1      21.526  31.537  14.655  1.00  0.00     0.351 C 
HETATM    3  O2  UNL     1      22.289  31.728  15.646  1.00  0.00    -0.244 OA
HETATM    4  N3  UNL     1      21.442  32.273  13.446  1.00  0.00    -0.275 N 
ATOM      5  H3  UNL     1      22.002  33.087  13.193  1.00  0.00     0.173 HD
HETATM    6  C4  UNL     1      20.425  31.659  12.645  1.00  0.00     0.261 C 
HETATM    7  O3  UNL     1      19.808  32.210  11.708  1.00  0.00    -0.270 OA
HETATM    8  C5  UNL     1      20.245  30.259  13.134  1.00  0.00     0.175 C 
ENDROOT
BRANCH   8   9
HETATM    9  C6  UNL     1      18.851  29.785  13.078  1.00  0.00     0.069 C 
BRANCH   9  10
HETATM   10  C7  UNL     1      18.630  28.327  13.407  1.00  0.00     0.125 C 
BRANCH  10  11
HETATM   11  N4  UNL     1      17.836  27.786  12.361  1.00  0.00    -0.393 N 
HETATM   12  C8  UNL     1      17.581  28.624  11.248  1.00  0.00     0.122 C 
HETATM   13  C9  UNL     1      17.607  27.906   9.933  1.00  0.00     0.024 C 
HETATM   14  C10 UNL     1      18.839  26.958   9.873  1.00  0.00    -0.008 C 
HETATM   15  C18 UNL     1      18.612  25.934  10.900  1.00  0.00     0.049 C 
HETATM   16  C19 UNL     1      17.854  26.405  12.130  1.00  0.00     0.058 C 
BRANCH  14  17
HETATM   17  C11 UNL     1      18.979  26.604   8.457  1.00  0.00     0.009 C 
BRANCH  17  18
HETATM   18  C12 UNL     1      17.883  26.784   7.497  1.00  0.00    -0.014 C 
HETATM   19  C13 UNL     1      17.299  25.390   7.144  1.00  0.00     0.005 C 
HETATM   20  C14 UNL     1      18.247  24.526   6.401  1.00  0.00     0.000 C 
HETATM   21  C15 UNL     1      18.597  25.167   5.051  1.00  0.00     0.000 C 
HETATM   22  C16 UNL     1      19.232  26.486   5.379  1.00  0.00     0.000 C 
HETATM   23  C17 UNL     1      18.287  27.368   6.174  1.00  0.00     0.005 C 
ENDBRANCH  17  18
ENDBRANCH  14  17
ENDBRANCH  10  11
ENDBRANCH   9  10
ENDBRANCH   8   9
BRANCH   8  24
HETATM   24  C20 UNL     1      21.276  29.380  12.587  1.00  0.00    -0.018 A 
HETATM   25  C21 UNL     1      21.327  29.266  11.206  1.00  0.00     0.013 A 
HETATM   26  C22 UNL     1      22.266  28.473  10.590  1.00  0.00     0.037 A 
HETATM   27  C23 UNL     1      23.197  27.756  11.325  1.00  0.00     0.068 A 
HETATM   28  C30 UNL     1      23.137  27.874  12.685  1.00  0.00     0.037 A 
HETATM   29  C31 UNL     1      22.202  28.666  13.319  1.00  0.00     0.013 A 
BRANCH  27  30
HETATM   30  O4  UNL     1      24.144  26.956  10.663  1.00  0.00    -0.349 OA
BRANCH  30  31
HETATM   31  C24 UNL     1      24.489  25.674  11.214  1.00  0.00     0.206 C 
BRANCH  31  32
HETATM   32  C25 UNL     1      24.053  24.564  10.323  1.00  0.00     0.299 C 
BRANCH  32  33
HETATM   33  N5  UNL     1      23.476  24.996   9.079  1.00  0.00     0.090 N 
HETATM   34  C26 UNL     1      24.224  24.661   7.925  1.00  0.00     0.272 C 
HETATM   35  C27 UNL     1      23.238  24.142   6.900  1.00  0.00     0.032 C 
HETATM   36  C28 UNL     1      21.904  24.706   7.397  1.00  0.00     0.032 C 
HETATM   37  C29 UNL     1      22.124  24.567   8.908  1.00  0.00     0.272 C 
ENDBRANCH  32  33
ENDBRANCH  31  32
ENDBRANCH  30  31
ENDBRANCH  27  30
ENDBRANCH   8  24
BRANCH   1  38
HETATM   38  O1  UNL     1      20.011  29.822  15.592  1.00  0.00    -0.196 OA
BRANCH  38  39
HETATM   39  S1  UNL     1      19.076  30.809  16.605  1.00  0.00     0.022 SA
BRANCH  39  40
HETATM   40  C2  UNL     1      17.870  31.805  15.730  1.00  0.00     0.135 C 
BRANCH  40  41
HETATM   41  C1  UNL     1      18.331  33.240  15.624  1.00  0.00     0.242 C 
BRANCH  41  42
HETATM   42  N1  UNL     1      18.171  33.734  14.249  1.00  0.00    -0.079 N 
ATOM     43  H13 UNL     1      18.186  32.974  13.569  1.00  0.00     0.274 HD
ATOM     44  H12 UNL     1      17.225  34.074  14.076  1.00  0.00     0.274 HD
ATOM     45  H11 UNL     1      18.873  34.444  14.039  1.00  0.00     0.274 HD
ENDBRANCH  41  42
ENDBRANCH  40  41
ENDBRANCH  39  40
ENDBRANCH  38  39
ENDBRANCH   1  38
TORSDOF 15
ENDMDL
