MODEL 1
REMARK VINA RESULT: -9.356552729      0.000      0.000
REMARK  14 active torsions:
REMARK  status: ('A' for Active; 'I' for Inactive)
REMARK    1  A    between atoms: C2_2  and  C3_3 
REMARK    2  A    between atoms: C3_3  and  N1_4 
REMARK    3  A    between atoms: C3_3  and  C15_20 
REMARK       I    between atoms: N1_4  and  C4_6 
REMARK    4  A    between atoms: C4_6  and  C5_8 
REMARK    5  A    between atoms: C5_8  and  C6_9 
REMARK    6  A    between atoms: C5_8  and  C10_13 
REMARK    7  A    between atoms: C15_20  and  C16_22 
REMARK    8  A    between atoms: C16_22  and  C17_24 
REMARK    9  A    between atoms: C17_24  and  C18_25 
REMARK   10  A    between atoms: C17_24  and  N2_31 
REMARK   11  A    between atoms: C18_25  and  C19_26 
REMARK       I    between atoms: N2_31  and  C24_33 
REMARK   12  A    between atoms: C24_33  and  C25_35 
REMARK   13  A    between atoms: C25_35  and  N3_36 
REMARK   14  A    between atoms: C25_35  and  C29_43 
REMARK       I    between atoms: N3_36  and  C26_38 
REMARK       I    between atoms: C26_38  and  N4_40 
ROOT
HETATM    1  C16 UNL     1      20.691  33.325  16.449  1.00  0.00     0.219 C 
HETATM    2  O5  UNL     1      21.687  32.674  16.890  1.00  0.00    -0.287 OA
ENDROOT
BRANCH   1   3
HETATM    3  C15 UNL     1      19.777  32.665  15.548  1.00  0.00     0.219 C 
HETATM    4  O4  UNL     1      19.335  33.324  14.572  1.00  0.00    -0.287 OA
BRANCH   3   5
HETATM    5  C3  UNL     1      19.303  31.274  15.658  1.00  0.00     0.162 C 
BRANCH   5   6
HETATM    6  C2  UNL     1      17.840  31.216  16.175  1.00  0.00     0.029 C 
HETATM    7  C1  UNL     1      16.928  31.084  14.969  1.00  0.00     0.007 C 
ENDBRANCH   5   6
BRANCH   5   8
HETATM    8  N1  UNL     1      19.464  30.470  14.490  1.00  0.00    -0.349 N 
HETATM    9  C4  UNL     1      19.917  29.151  14.381  1.00  0.00     0.226 C 
HETATM   10  O1  UNL     1      20.251  28.453  15.400  1.00  0.00    -0.273 OA
ATOM     11  H1  UNL     1      19.212  30.920  13.609  1.00  0.00     0.163 HD
BRANCH   9  12
HETATM   12  C5  UNL     1      20.076  28.389  13.060  1.00  0.00     0.122 C 
BRANCH  12  13
HETATM   13  C6  UNL     1      21.198  28.973  12.341  1.00  0.00    -0.036 C 
HETATM   14  C7  UNL     1      21.681  28.222  11.117  1.00  0.00     0.015 C 
HETATM   15  C8  UNL     1      21.038  30.419  11.927  1.00  0.00     0.015 C 
HETATM   16  C9  UNL     1      22.464  28.990  13.237  1.00  0.00     0.015 C 
ENDBRANCH  12  13
BRANCH  12  17
HETATM   17  C10 UNL     1      18.710  28.323  12.443  1.00  0.00     0.105 C 
HETATM   18  C11 UNL     1      17.820  27.751  13.589  1.00  0.00     0.050 C 
HETATM   19  C12 UNL     1      18.490  27.391  11.311  1.00  0.00     0.044 C 
HETATM   20  C13 UNL     1      17.803  28.073  10.127  1.00  0.00     0.032 C 
HETATM   21  C14 UNL     1      16.650  28.921  10.609  1.00  0.00     0.210 C 
HETATM   22  O2  UNL     1      16.896  29.412  11.895  1.00  0.00    -0.240 OA
HETATM   23  O3  UNL     1      18.176  29.542  12.129  1.00  0.00    -0.229 OA
ENDBRANCH  12  17
ENDBRANCH   9  12
ENDBRANCH   5   8
ENDBRANCH   3   5
ENDBRANCH   1   3
BRANCH   1  24
HETATM   24  C17 UNL     1      20.578  34.719  16.918  1.00  0.00     0.163 C 
BRANCH  24  25
HETATM   25  C18 UNL     1      21.699  35.573  16.404  1.00  0.00     0.038 C 
BRANCH  25  26
HETATM   26  C19 UNL     1      22.534  36.206  17.502  1.00  0.00    -0.012 C 
HETATM   27  C20 UNL     1      22.035  37.643  17.732  1.00  0.00     0.005 C 
HETATM   28  C21 UNL     1      22.385  37.930  19.174  1.00  0.00     0.000 C 
HETATM   29  C22 UNL     1      22.669  36.599  19.832  1.00  0.00     0.000 C 
HETATM   30  C23 UNL     1      22.131  35.601  18.856  1.00  0.00     0.005 C 
ENDBRANCH  25  26
ENDBRANCH  24  25
BRANCH  24  31
HETATM   31  N2  UNL     1      19.259  35.248  16.630  1.00  0.00    -0.347 N 
HETATM   32  C24 UNL     1      18.145  35.335  17.467  1.00  0.00     0.241 C 
HETATM   33  O6  UNL     1      18.284  34.906  18.678  1.00  0.00    -0.271 OA
ATOM     34  H2  UNL     1      19.127  35.607  15.684  1.00  0.00     0.163 HD
BRANCH  32  35
HETATM   35  C25 UNL     1      16.832  35.884  17.058  1.00  0.00     0.181 C 
BRANCH  35  36
HETATM   36  N3  UNL     1      16.505  37.040  17.937  1.00  0.00    -0.329 N 
HETATM   37  C26 UNL     1      16.666  38.377  17.522  1.00  0.00     0.318 C 
HETATM   38  O7  UNL     1      17.106  38.617  16.363  1.00  0.00    -0.247 OA
HETATM   39  N4  UNL     1      16.352  39.474  18.360  1.00  0.00    -0.343 N 
HETATM   40  C27 UNL     1      15.847  39.223  19.708  1.00  0.00     0.154 C 
HETATM   41  C28 UNL     1      16.509  40.849  17.932  1.00  0.00     0.154 C 
ATOM     42  H3  UNL     1      16.150  36.857  18.876  1.00  0.00     0.165 HD
ENDBRANCH  35  36
BRANCH  35  43
HETATM   43  C29 UNL     1      15.681  34.945  17.059  1.00  0.00     0.009 C 
HETATM   44  C30 UNL     1      14.361  35.507  17.433  1.00  0.00     0.012 C 
HETATM   45  C31 UNL     1      15.540  34.165  15.767  1.00  0.00     0.012 C 
ENDBRANCH  35  43
ENDBRANCH  32  35
ENDBRANCH  24  31
ENDBRANCH   1  24
TORSDOF 14
ENDMDL
MODEL 2
REMARK VINA RESULT: -9.265985582      1.559      2.895
REMARK  14 active torsions:
REMARK  status: ('A' for Active; 'I' for Inactive)
REMARK    1  A    between atoms: C2_2  and  C3_3 
REMARK    2  A    between atoms: C3_3  and  N1_4 
REMARK    3  A    between atoms: C3_3  and  C15_20 
REMARK       I    between atoms: N1_4  and  C4_6 
REMARK    4  A    between atoms: C4_6  and  C5_8 
REMARK    5  A    between atoms: C5_8  and  C6_9 
REMARK    6  A    between atoms: C5_8  and  C10_13 
REMARK    7  A    between atoms: C15_20  and  C16_22 
REMARK    8  A    between atoms: C16_22  and  C17_24 
REMARK    9  A    between atoms: C17_24  and  C18_25 
REMARK   10  A    between atoms: C17_24  and  N2_31 
REMARK   11  A    between atoms: C18_25  and  C19_26 
REMARK       I    between atoms: N2_31  and  C24_33 
REMARK   12  A    between atoms: C24_33  and  C25_35 
REMARK   13  A    between atoms: C25_35  and  N3_36 
REMARK   14  A    between atoms: C25_35  and  C29_43 
REMARK       I    between atoms: N3_36  and  C26_38 
REMARK       I    between atoms: C26_38  and  N4_40 
ROOT
HETATM    1  C16 UNL     1      19.888  32.907  16.199  1.00  0.00     0.219 C 
HETATM    2  O5  UNL     1      18.732  32.436  15.968  1.00  0.00    -0.287 OA
ENDROOT
BRANCH   1   3
HETATM    3  C15 UNL     1      21.041  32.108  15.860  1.00  0.00     0.219 C 
HETATM    4  O4  UNL     1      21.694  31.588  16.802  1.00  0.00    -0.287 OA
BRANCH   3   5
HETATM    5  C3  UNL     1      21.537  31.832  14.500  1.00  0.00     0.162 C 
BRANCH   5   6
HETATM    6  C2  UNL     1      23.066  31.557  14.502  1.00  0.00     0.029 C 
HETATM    7  C1  UNL     1      23.776  32.897  14.559  1.00  0.00     0.007 C 
ENDBRANCH   5   6
BRANCH   5   8
HETATM    8  N1  UNL     1      20.837  30.820  13.777  1.00  0.00    -0.349 N 
HETATM    9  C4  UNL     1      20.153  30.916  12.561  1.00  0.00     0.226 C 
HETATM   10  O1  UNL     1      20.085  32.007  11.895  1.00  0.00    -0.273 OA
ATOM     11  H1  UNL     1      20.835  29.895  14.208  1.00  0.00     0.163 HD
BRANCH   9  12
HETATM   12  C5  UNL     1      19.409  29.759  11.884  1.00  0.00     0.122 C 
BRANCH  12  13
HETATM   13  C6  UNL     1      18.208  29.488  12.660  1.00  0.00    -0.036 C 
HETATM   14  C7  UNL     1      18.297  28.367  13.675  1.00  0.00     0.015 C 
HETATM   15  C8  UNL     1      17.602  30.674  13.377  1.00  0.00     0.015 C 
HETATM   16  C9  UNL     1      17.063  29.001  11.733  1.00  0.00     0.015 C 
ENDBRANCH  12  13
BRANCH  12  17
HETATM   17  C10 UNL     1      20.428  28.688  11.636  1.00  0.00     0.105 C 
HETATM   18  C11 UNL     1      21.621  29.461  10.994  1.00  0.00     0.050 C 
HETATM   19  C12 UNL     1      20.112  27.625  10.651  1.00  0.00     0.044 C 
HETATM   20  C13 UNL     1      20.370  26.224  11.211  1.00  0.00     0.032 C 
HETATM   21  C14 UNL     1      21.699  26.184  11.927  1.00  0.00     0.210 C 
HETATM   22  O2  UNL     1      22.005  27.431  12.481  1.00  0.00    -0.240 OA
HETATM   23  O3  UNL     1      20.926  28.111  12.772  1.00  0.00    -0.229 OA
ENDBRANCH  12  17
ENDBRANCH   9  12
ENDBRANCH   5   8
ENDBRANCH   3   5
ENDBRANCH   1   3
BRANCH   1  24
HETATM   24  C17 UNL     1      19.924  34.251  16.804  1.00  0.00     0.163 C 
BRANCH  24  25
HETATM   25  C18 UNL     1      21.061  35.072  16.271  1.00  0.00     0.038 C 
BRANCH  25  26
HETATM   26  C19 UNL     1      22.080  35.457  17.329  1.00  0.00    -0.012 C 
HETATM   27  C20 UNL     1      21.893  36.944  17.673  1.00  0.00     0.005 C 
HETATM   28  C21 UNL     1      22.393  37.061  19.094  1.00  0.00     0.000 C 
HETATM   29  C22 UNL     1      22.454  35.660  19.657  1.00  0.00     0.000 C 
HETATM   30  C23 UNL     1      21.661  34.852  18.679  1.00  0.00     0.005 C 
ENDBRANCH  25  26
ENDBRANCH  24  25
BRANCH  24  31
HETATM   31  N2  UNL     1      18.631  34.897  16.687  1.00  0.00    -0.347 N 
HETATM   32  C24 UNL     1      17.730  35.249  17.694  1.00  0.00     0.241 C 
HETATM   33  O6  UNL     1      18.078  34.989  18.911  1.00  0.00    -0.271 OA
ATOM     34  H2  UNL     1      18.339  35.127  15.736  1.00  0.00     0.163 HD
BRANCH  32  35
HETATM   35  C25 UNL     1      16.419  35.896  17.455  1.00  0.00     0.181 C 
BRANCH  35  36
HETATM   36  N3  UNL     1      16.372  37.172  18.221  1.00  0.00    -0.329 N 
HETATM   37  C26 UNL     1      16.667  38.419  17.635  1.00  0.00     0.318 C 
HETATM   38  O7  UNL     1      16.986  38.469  16.413  1.00  0.00    -0.247 OA
HETATM   39  N4  UNL     1      16.620  39.631  18.365  1.00  0.00    -0.343 N 
HETATM   40  C27 UNL     1      16.259  39.599  19.781  1.00  0.00     0.154 C 
HETATM   41  C28 UNL     1      16.913  40.914  17.761  1.00  0.00     0.154 C 
ATOM     42  H3  UNL     1      16.116  37.142  19.208  1.00  0.00     0.165 HD
ENDBRANCH  35  36
BRANCH  35  43
HETATM   43  C29 UNL     1      15.208  35.100  17.781  1.00  0.00     0.009 C 
HETATM   44  C30 UNL     1      13.907  35.650  17.329  1.00  0.00     0.012 C 
HETATM   45  C31 UNL     1      15.309  33.649  17.355  1.00  0.00     0.012 C 
ENDBRANCH  35  43
ENDBRANCH  32  35
ENDBRANCH  24  31
ENDBRANCH   1  24
TORSDOF 14
ENDMDL
MODEL 3
REMARK VINA RESULT: -8.987275152      1.136      1.617
REMARK  14 active torsions:
REMARK  status: ('A' for Active; 'I' for Inactive)
REMARK    1  A    between atoms: C2_2  and  C3_3 
REMARK    2  A    between atoms: C3_3  and  N1_4 
REMARK    3  A    between atoms: C3_3  and  C15_20 
REMARK       I    between atoms: N1_4  and  C4_6 
REMARK    4  A    between atoms: C4_6  and  C5_8 
REMARK    5  A    between atoms: C5_8  and  C6_9 
REMARK    6  A    between atoms: C5_8  and  C10_13 
REMARK    7  A    between atoms: C15_20  and  C16_22 
REMARK    8  A    between atoms: C16_22  and  C17_24 
REMARK    9  A    between atoms: C17_24  and  C18_25 
REMARK   10  A    between atoms: C17_24  and  N2_31 
REMARK   11  A    between atoms: C18_25  and  C19_26 
REMARK       I    between atoms: N2_31  and  C24_33 
REMARK   12  A    between atoms: C24_33  and  C25_35 
REMARK   13  A    between atoms: C25_35  and  N3_36 
REMARK   14  A    between atoms: C25_35  and  C29_43 
REMARK       I    between atoms: N3_36  and  C26_38 
REMARK       I    between atoms: C26_38  and  N4_40 
ROOT
HETATM    1  C16 UNL     1      20.164  32.800  16.024  1.00  0.00     0.219 C 
HETATM    2  O5  UNL     1      20.250  31.816  16.820  1.00  0.00    -0.287 OA
ENDROOT
BRANCH   1   3
HETATM    3  C15 UNL     1      20.126  32.540  14.604  1.00  0.00     0.219 C 
HETATM    4  O4  UNL     1      19.086  32.864  13.975  1.00  0.00    -0.287 OA
BRANCH   3   5
HETATM    5  C3  UNL     1      21.201  31.927  13.806  1.00  0.00     0.162 C 
BRANCH   5   6
HETATM    6  C2  UNL     1      22.514  31.801  14.628  1.00  0.00     0.029 C 
HETATM    7  C1  UNL     1      23.423  32.947  14.224  1.00  0.00     0.007 C 
ENDBRANCH   5   6
BRANCH   5   8
HETATM    8  N1  UNL     1      20.877  30.690  13.172  1.00  0.00    -0.349 N 
HETATM    9  C4  UNL     1      20.654  29.434  13.746  1.00  0.00     0.226 C 
HETATM   10  O1  UNL     1      20.705  29.239  15.010  1.00  0.00    -0.273 OA
ATOM     11  H1  UNL     1      20.794  30.727  12.155  1.00  0.00     0.163 HD
BRANCH   9  12
HETATM   12  C5  UNL     1      20.335  28.158  12.959  1.00  0.00     0.122 C 
BRANCH  12  13
HETATM   13  C6  UNL     1      21.449  27.900  12.060  1.00  0.00    -0.036 C 
HETATM   14  C7  UNL     1      21.593  26.480  11.551  1.00  0.00     0.015 C 
HETATM   15  C8  UNL     1      21.549  28.804  10.852  1.00  0.00     0.015 C 
HETATM   16  C9  UNL     1      22.799  28.123  12.793  1.00  0.00     0.015 C 
ENDBRANCH  12  13
BRANCH  12  17
HETATM   17  C10 UNL     1      18.939  28.322  12.435  1.00  0.00     0.105 C 
HETATM   18  C11 UNL     1      18.077  28.446  13.728  1.00  0.00     0.050 C 
HETATM   19  C12 UNL     1      18.325  27.194  11.694  1.00  0.00     0.044 C 
HETATM   20  C13 UNL     1      17.712  27.641  10.365  1.00  0.00     0.032 C 
HETATM   21  C14 UNL     1      16.915  28.909  10.558  1.00  0.00     0.210 C 
HETATM   22  O2  UNL     1      17.449  29.682  11.593  1.00  0.00    -0.240 OA
HETATM   23  O3  UNL     1      18.733  29.480  11.737  1.00  0.00    -0.229 OA
ENDBRANCH  12  17
ENDBRANCH   9  12
ENDBRANCH   5   8
ENDBRANCH   3   5
ENDBRANCH   1   3
BRANCH   1  24
HETATM   24  C17 UNL     1      20.113  34.133  16.653  1.00  0.00     0.163 C 
BRANCH  24  25
HETATM   25  C18 UNL     1      21.209  35.028  16.153  1.00  0.00     0.038 C 
BRANCH  25  26
HETATM   26  C19 UNL     1      22.175  35.470  17.239  1.00  0.00    -0.012 C 
HETATM   27  C20 UNL     1      21.903  36.948  17.565  1.00  0.00     0.005 C 
HETATM   28  C21 UNL     1      22.353  37.099  19.000  1.00  0.00     0.000 C 
HETATM   29  C22 UNL     1      22.467  35.706  19.575  1.00  0.00     0.000 C 
HETATM   30  C23 UNL     1      21.745  34.853  18.579  1.00  0.00     0.005 C 
ENDBRANCH  25  26
ENDBRANCH  24  25
BRANCH  24  31
HETATM   31  N2  UNL     1      18.787  34.706  16.528  1.00  0.00    -0.347 N 
HETATM   32  C24 UNL     1      17.873  35.032  17.531  1.00  0.00     0.241 C 
HETATM   33  O6  UNL     1      18.238  34.820  18.752  1.00  0.00    -0.271 OA
ATOM     34  H2  UNL     1      18.480  34.897  15.574  1.00  0.00     0.163 HD
BRANCH  32  35
HETATM   35  C25 UNL     1      16.528  35.602  17.284  1.00  0.00     0.181 C 
BRANCH  35  36
HETATM   36  N3  UNL     1      16.386  36.849  18.084  1.00  0.00    -0.329 N 
HETATM   37  C26 UNL     1      16.628  38.128  17.543  1.00  0.00     0.318 C 
HETATM   38  O7  UNL     1      16.980  38.233  16.335  1.00  0.00    -0.247 OA
HETATM   39  N4  UNL     1      16.490  39.313  18.306  1.00  0.00    -0.343 N 
HETATM   40  C27 UNL     1      16.089  39.218  19.708  1.00  0.00     0.154 C 
HETATM   41  C28 UNL     1      16.729  40.628  17.749  1.00  0.00     0.154 C 
ATOM     42  H3  UNL     1      16.102  36.775  19.061  1.00  0.00     0.165 HD
ENDBRANCH  35  36
BRANCH  35  43
HETATM   43  C29 UNL     1      15.364  34.722  17.563  1.00  0.00     0.009 C 
HETATM   44  C30 UNL     1      14.018  35.311  17.357  1.00  0.00     0.012 C 
HETATM   45  C31 UNL     1      15.436  33.386  16.852  1.00  0.00     0.012 C 
ENDBRANCH  35  43
ENDBRANCH  32  35
ENDBRANCH  24  31
ENDBRANCH   1  24
TORSDOF 14
ENDMDL
MODEL 4
REMARK VINA RESULT: -8.944905152      1.950      4.748
REMARK  14 active torsions:
REMARK  status: ('A' for Active; 'I' for Inactive)
REMARK    1  A    between atoms: C2_2  and  C3_3 
REMARK    2  A    between atoms: C3_3  and  N1_4 
REMARK    3  A    between atoms: C3_3  and  C15_20 
REMARK       I    between atoms: N1_4  and  C4_6 
REMARK    4  A    between atoms: C4_6  and  C5_8 
REMARK    5  A    between atoms: C5_8  and  C6_9 
REMARK    6  A    between atoms: C5_8  and  C10_13 
REMARK    7  A    between atoms: C15_20  and  C16_22 
REMARK    8  A    between atoms: C16_22  and  C17_24 
REMARK    9  A    between atoms: C17_24  and  C18_25 
REMARK   10  A    between atoms: C17_24  and  N2_31 
REMARK   11  A    between atoms: C18_25  and  C19_26 
REMARK       I    between atoms: N2_31  and  C24_33 
REMARK   12  A    between atoms: C24_33  and  C25_35 
REMARK   13  A    between atoms: C25_35  and  N3_36 
REMARK   14  A    between atoms: C25_35  and  C29_43 
REMARK       I    between atoms: N3_36  and  C26_38 
REMARK       I    between atoms: C26_38  and  N4_40 
ROOT
HETATM    1  C16 UNL     1      19.528  32.401  16.082  1.00  0.00     0.219 C 
HETATM    2  O5  UNL     1      18.755  31.600  16.691  1.00  0.00    -0.287 OA
ENDROOT
BRANCH   1   3
HETATM    3  C15 UNL     1      20.895  32.001  15.849  1.00  0.00     0.219 C 
HETATM    4  O4  UNL     1      21.655  31.896  16.846  1.00  0.00    -0.287 OA
BRANCH   3   5
HETATM    5  C3  UNL     1      21.499  31.696  14.540  1.00  0.00     0.162 C 
BRANCH   5   6
HETATM    6  C2  UNL     1      23.012  31.373  14.678  1.00  0.00     0.029 C 
HETATM    7  C1  UNL     1      23.782  32.661  14.452  1.00  0.00     0.007 C 
ENDBRANCH   5   6
BRANCH   5   8
HETATM    8  N1  UNL     1      20.833  30.699  13.765  1.00  0.00    -0.349 N 
HETATM    9  C4  UNL     1      20.129  30.838  12.565  1.00  0.00     0.226 C 
HETATM   10  O1  UNL     1      20.004  31.962  11.967  1.00  0.00    -0.273 OA
ATOM     11  H1  UNL     1      20.877  29.751  14.140  1.00  0.00     0.163 HD
BRANCH   9  12
HETATM   12  C5  UNL     1      19.425  29.691  11.829  1.00  0.00     0.122 C 
BRANCH  12  13
HETATM   13  C6  UNL     1      18.198  29.387  12.549  1.00  0.00    -0.036 C 
HETATM   14  C7  UNL     1      18.221  28.160  13.438  1.00  0.00     0.015 C 
HETATM   15  C8  UNL     1      17.621  30.512  13.379  1.00  0.00     0.015 C 
HETATM   16  C9  UNL     1      17.057  29.049  11.554  1.00  0.00     0.015 C 
ENDBRANCH  12  13
BRANCH  12  17
HETATM   17  C10 UNL     1      20.466  28.638  11.593  1.00  0.00     0.105 C 
HETATM   18  C11 UNL     1      21.649  29.430  10.956  1.00  0.00     0.050 C 
HETATM   19  C12 UNL     1      20.177  27.564  10.612  1.00  0.00     0.044 C 
HETATM   20  C13 UNL     1      20.456  26.172  11.180  1.00  0.00     0.032 C 
HETATM   21  C14 UNL     1      21.780  26.160  11.905  1.00  0.00     0.210 C 
HETATM   22  O2  UNL     1      22.059  27.415  12.456  1.00  0.00    -0.240 OA
HETATM   23  O3  UNL     1      20.966  28.076  12.736  1.00  0.00    -0.229 OA
ENDBRANCH  12  17
ENDBRANCH   9  12
ENDBRANCH   5   8
ENDBRANCH   3   5
ENDBRANCH   1   3
BRANCH   1  24
HETATM   24  C17 UNL     1      18.927  33.684  15.670  1.00  0.00     0.163 C 
BRANCH  24  25
HETATM   25  C18 UNL     1      17.440  33.574  15.501  1.00  0.00     0.038 C 
BRANCH  25  26
HETATM   26  C19 UNL     1      16.651  34.211  16.632  1.00  0.00    -0.012 C 
HETATM   27  C20 UNL     1      15.985  35.492  16.104  1.00  0.00     0.005 C 
HETATM   28  C21 UNL     1      14.763  35.661  16.977  1.00  0.00     0.000 C 
HETATM   29  C22 UNL     1      14.524  34.335  17.662  1.00  0.00     0.000 C 
HETATM   30  C23 UNL     1      15.384  33.381  16.893  1.00  0.00     0.005 C 
ENDBRANCH  25  26
ENDBRANCH  24  25
BRANCH  24  31
HETATM   31  N2  UNL     1      19.337  34.749  16.565  1.00  0.00    -0.347 N 
HETATM   32  C24 UNL     1      20.508  35.507  16.549  1.00  0.00     0.241 C 
HETATM   33  O6  UNL     1      21.357  35.259  15.606  1.00  0.00    -0.271 OA
ATOM     34  H2  UNL     1      18.677  34.975  17.310  1.00  0.00     0.163 HD
BRANCH  32  35
HETATM   35  C25 UNL     1      20.832  36.568  17.531  1.00  0.00     0.181 C 
BRANCH  35  36
HETATM   36  N3  UNL     1      20.246  37.851  17.056  1.00  0.00    -0.329 N 
HETATM   37  C26 UNL     1      18.913  38.221  17.326  1.00  0.00     0.318 C 
HETATM   38  O7  UNL     1      18.177  37.442  17.994  1.00  0.00    -0.247 OA
HETATM   39  N4  UNL     1      18.359  39.444  16.874  1.00  0.00    -0.343 N 
HETATM   40  C27 UNL     1      19.189  40.359  16.094  1.00  0.00     0.154 C 
HETATM   41  C28 UNL     1      16.993  39.829  17.159  1.00  0.00     0.154 C 
ATOM     42  H3  UNL     1      20.832  38.487  16.514  1.00  0.00     0.165 HD
ENDBRANCH  35  36
BRANCH  35  43
HETATM   43  C29 UNL     1      22.270  36.785  17.835  1.00  0.00     0.009 C 
HETATM   44  C30 UNL     1      22.860  38.071  17.388  1.00  0.00     0.012 C 
HETATM   45  C31 UNL     1      22.617  36.560  19.293  1.00  0.00     0.012 C 
ENDBRANCH  35  43
ENDBRANCH  32  35
ENDBRANCH  24  31
ENDBRANCH   1  24
TORSDOF 14
ENDMDL
MODEL 5
REMARK VINA RESULT: -8.852998814      1.558      2.792
REMARK  14 active torsions:
REMARK  status: ('A' for Active; 'I' for Inactive)
REMARK    1  A    between atoms: C2_2  and  C3_3 
REMARK    2  A    between atoms: C3_3  and  N1_4 
REMARK    3  A    between atoms: C3_3  and  C15_20 
REMARK       I    between atoms: N1_4  and  C4_6 
REMARK    4  A    between atoms: C4_6  and  C5_8 
REMARK    5  A    between atoms: C5_8  and  C6_9 
REMARK    6  A    between atoms: C5_8  and  C10_13 
REMARK    7  A    between atoms: C15_20  and  C16_22 
REMARK    8  A    between atoms: C16_22  and  C17_24 
REMARK    9  A    between atoms: C17_24  and  C18_25 
REMARK   10  A    between atoms: C17_24  and  N2_31 
REMARK   11  A    between atoms: C18_25  and  C19_26 
REMARK       I    between atoms: N2_31  and  C24_33 
REMARK   12  A    between atoms: C24_33  and  C25_35 
REMARK   13  A    between atoms: C25_35  and  N3_36 
REMARK   14  A    between atoms: C25_35  and  C29_43 
REMARK       I    between atoms: N3_36  and  C26_38 
REMARK       I    between atoms: C26_38  and  N4_40 
ROOT
HETATM    1  C16 UNL     1      21.243  33.135  16.786  1.00  0.00     0.219 C 
HETATM    2  O5  UNL     1      22.085  32.601  17.570  1.00  0.00    -0.287 OA
ENDROOT
BRANCH   1   3
HETATM    3  C15 UNL     1      20.657  32.327  15.743  1.00  0.00     0.219 C 
HETATM    4  O4  UNL     1      19.468  31.945  15.893  1.00  0.00    -0.287 OA
BRANCH   3   5
HETATM    5  C3  UNL     1      21.323  31.898  14.501  1.00  0.00     0.162 C 
BRANCH   5   6
HETATM    6  C2  UNL     1      22.815  31.546  14.752  1.00  0.00     0.029 C 
HETATM    7  C1  UNL     1      23.648  32.745  14.338  1.00  0.00     0.007 C 
ENDBRANCH   5   6
BRANCH   5   8
HETATM    8  N1  UNL     1      20.669  30.859  13.772  1.00  0.00    -0.349 N 
HETATM    9  C4  UNL     1      20.052  30.913  12.518  1.00  0.00     0.226 C 
HETATM   10  O1  UNL     1      20.014  31.982  11.817  1.00  0.00    -0.273 OA
ATOM     11  H1  UNL     1      20.650  29.948  14.231  1.00  0.00     0.163 HD
BRANCH   9  12
HETATM   12  C5  UNL     1      19.353  29.730  11.838  1.00  0.00     0.122 C 
BRANCH  12  13
HETATM   13  C6  UNL     1      18.150  29.427  12.599  1.00  0.00    -0.036 C 
HETATM   14  C7  UNL     1      16.973  28.885  11.816  1.00  0.00     0.015 C 
HETATM   15  C8  UNL     1      18.334  28.514  13.791  1.00  0.00     0.015 C 
HETATM   16  C9  UNL     1      17.563  30.721  13.221  1.00  0.00     0.015 C 
ENDBRANCH  12  13
BRANCH  12  17
HETATM   17  C10 UNL     1      20.408  28.689  11.609  1.00  0.00     0.105 C 
HETATM   18  C11 UNL     1      21.571  29.488  10.946  1.00  0.00     0.050 C 
HETATM   19  C12 UNL     1      20.125  27.594  10.651  1.00  0.00     0.044 C 
HETATM   20  C13 UNL     1      20.432  26.216  11.240  1.00  0.00     0.032 C 
HETATM   21  C14 UNL     1      21.765  26.238  11.951  1.00  0.00     0.210 C 
HETATM   22  O2  UNL     1      22.029  27.507  12.476  1.00  0.00    -0.240 OA
HETATM   23  O3  UNL     1      20.929  28.156  12.756  1.00  0.00    -0.229 OA
ENDBRANCH  12  17
ENDBRANCH   9  12
ENDBRANCH   5   8
ENDBRANCH   3   5
ENDBRANCH   1   3
BRANCH   1  24
HETATM   24  C17 UNL     1      20.950  34.560  17.033  1.00  0.00     0.163 C 
BRANCH  24  25
HETATM   25  C18 UNL     1      21.917  35.459  16.320  1.00  0.00     0.038 C 
BRANCH  25  26
HETATM   26  C19 UNL     1      22.564  36.493  17.225  1.00  0.00    -0.012 C 
HETATM   27  C20 UNL     1      21.755  37.798  17.135  1.00  0.00     0.005 C 
HETATM   28  C21 UNL     1      21.997  38.474  18.465  1.00  0.00     0.000 C 
HETATM   29  C22 UNL     1      22.551  37.424  19.400  1.00  0.00     0.000 C 
HETATM   30  C23 UNL     1      22.270  36.137  18.691  1.00  0.00     0.005 C 
ENDBRANCH  25  26
ENDBRANCH  24  25
BRANCH  24  31
HETATM   31  N2  UNL     1      19.559  34.852  16.747  1.00  0.00    -0.347 N 
HETATM   32  C24 UNL     1      18.490  34.993  17.633  1.00  0.00     0.241 C 
HETATM   33  O6  UNL     1      18.750  34.867  18.893  1.00  0.00    -0.271 OA
ATOM     34  H2  UNL     1      19.329  34.970  15.759  1.00  0.00     0.163 HD
BRANCH  32  35
HETATM   35  C25 UNL     1      17.096  35.278  17.224  1.00  0.00     0.181 C 
BRANCH  35  36
HETATM   36  N3  UNL     1      16.623  36.486  17.952  1.00  0.00    -0.329 N 
HETATM   37  C26 UNL     1      16.554  37.758  17.347  1.00  0.00     0.318 C 
HETATM   38  O7  UNL     1      16.905  37.889  16.141  1.00  0.00    -0.247 OA
HETATM   39  N4  UNL     1      16.103  38.905  18.042  1.00  0.00    -0.343 N 
HETATM   40  C27 UNL     1      15.697  38.781  19.441  1.00  0.00     0.154 C 
HETATM   41  C28 UNL     1      16.023  40.210  17.418  1.00  0.00     0.154 C 
ATOM     42  H3  UNL     1      16.339  36.392  18.928  1.00  0.00     0.165 HD
ENDBRANCH  35  36
BRANCH  35  43
HETATM   43  C29 UNL     1      16.103  34.188  17.416  1.00  0.00     0.009 C 
HETATM   44  C30 UNL     1      14.696  34.600  17.640  1.00  0.00     0.012 C 
HETATM   45  C31 UNL     1      16.146  33.137  16.325  1.00  0.00     0.012 C 
ENDBRANCH  35  43
ENDBRANCH  32  35
ENDBRANCH  24  31
ENDBRANCH   1  24
TORSDOF 14
ENDMDL
