MODEL 1
REMARK VINA RESULT: -9.124119319      0.000      0.000
REMARK  14 active torsions:
REMARK  status: ('A' for Active; 'I' for Inactive)
REMARK    1  A    between atoms: O1_2  and  C2_3 
REMARK    2  A    between atoms: C2_3  and  O2_4 
REMARK    3  A    between atoms: O2_4  and  C3_5 
REMARK    4  A    between atoms: C12_14  and  C13_15 
REMARK    5  A    between atoms: C13_15  and  C14_17 
REMARK    6  A    between atoms: C14_17  and  C15_18 
REMARK    7  A    between atoms: C15_18  and  C16_19 
REMARK       I    between atoms: C16_19  and  N1_21 
REMARK    8  A    between atoms: N1_21  and  C17_23 
REMARK    9  A    between atoms: C17_23  and  C18_24 
REMARK   10  A    between atoms: C18_24  and  C19_25 
REMARK   11  A    between atoms: C19_25  and  C20_26 
REMARK   12  A    between atoms: C20_26  and  N2_27 
REMARK       I    between atoms: N2_27  and  C21_29 
REMARK   13  A    between atoms: C21_29  and  C22_31 
REMARK   14  A    between atoms: C22_31  and  O6_33 
ROOT
HETATM    1  C3  UNL     1      18.628  27.729  12.511  1.00  0.00     0.190 C 
HETATM    2  C4  UNL     1      18.126  28.572  13.726  1.00  0.00     0.050 C 
HETATM    3  C5  UNL     1      19.401  29.368  13.804  1.00  0.00    -0.001 C 
HETATM    4  C6  UNL     1      20.332  28.331  14.250  1.00  0.00     0.019 C 
HETATM    5  C7  UNL     1      19.688  30.526  14.612  1.00  0.00     0.002 C 
HETATM    6  C8  UNL     1      19.925  30.397  16.074  1.00  0.00     0.007 C 
HETATM    7  C9  UNL     1      19.990  31.790  16.647  1.00  0.00     0.011 C 
HETATM    8  C10 UNL     1      20.573  32.848  15.808  1.00  0.00    -0.030 C 
HETATM    9  C11 UNL     1      19.521  33.946  15.578  1.00  0.00     0.016 C 
HETATM   10  C12 UNL     1      21.722  33.479  16.549  1.00  0.00     0.064 C 
HETATM   11  C24 UNL     1      22.991  32.876  15.981  1.00  0.00     0.013 C 
HETATM   12  C25 UNL     1      22.655  32.850  14.527  1.00  0.00     0.006 C 
HETATM   13  C26 UNL     1      21.165  32.474  14.513  1.00  0.00    -0.001 C 
HETATM   14  C27 UNL     1      21.051  31.029  14.064  1.00  0.00     0.001 C 
HETATM   15  C28 UNL     1      21.172  31.022  12.600  1.00  0.00     0.017 C 
HETATM   16  C29 UNL     1      21.519  29.922  11.751  1.00  0.00     0.176 C 
HETATM   17  O7  UNL     1      20.729  28.836  11.516  1.00  0.00    -0.350 OA
HETATM   18  C30 UNL     1      19.423  28.808  11.723  1.00  0.00     0.224 A 
HETATM   19  O8  UNL     1      18.407  29.644  11.420  1.00  0.00    -0.333 OA
HETATM   20  C31 UNL     1      19.178  29.948  12.486  1.00  0.00     0.131 A 
HETATM   21  C32 UNL     1      19.711  31.316  12.198  1.00  0.00     0.052 C 
ENDROOT
BRANCH  10  22
HETATM   22  C13 UNL     1      21.847  34.932  16.474  1.00  0.00     0.132 C 
HETATM   23  O3  UNL     1      21.872  35.543  15.408  1.00  0.00    -0.298 OA
BRANCH  22  24
HETATM   24  C14 UNL     1      21.947  35.770  17.689  1.00  0.00     0.088 C 
BRANCH  24  25
HETATM   25  C15 UNL     1      20.653  35.894  18.429  1.00  0.00     0.110 C 
BRANCH  25  26
HETATM   26  C16 UNL     1      19.989  37.189  18.280  1.00  0.00     0.217 C 
HETATM   27  O4  UNL     1      20.177  38.137  19.067  1.00  0.00    -0.274 OA
HETATM   28  N1  UNL     1      19.078  37.399  17.184  1.00  0.00    -0.361 N 
ATOM     29  H1  UNL     1      18.887  36.646  16.522  1.00  0.00     0.162 HD
BRANCH  28  30
HETATM   30  C17 UNL     1      18.441  38.674  17.030  1.00  0.00     0.122 C 
BRANCH  30  31
HETATM   31  C18 UNL     1      16.954  38.605  17.111  1.00  0.00     0.021 C 
BRANCH  31  32
HETATM   32  C19 UNL     1      16.329  38.066  18.323  1.00  0.00     0.021 C 
BRANCH  32  33
HETATM   33  C20 UNL     1      15.662  36.772  18.377  1.00  0.00     0.122 C 
BRANCH  33  34
HETATM   34  N2  UNL     1      15.648  35.948  17.208  1.00  0.00    -0.359 N 
HETATM   35  C21 UNL     1      15.470  34.557  17.198  1.00  0.00     0.246 C 
HETATM   36  O5  UNL     1      15.299  33.935  18.261  1.00  0.00    -0.271 OA
ATOM     37  H2  UNL     1      15.777  36.410  16.308  1.00  0.00     0.162 HD
BRANCH  35  38
HETATM   38  C22 UNL     1      15.489  33.816  15.921  1.00  0.00     0.205 C 
HETATM   39  C23 UNL     1      16.148  32.461  16.043  1.00  0.00     0.049 C 
BRANCH  38  40
HETATM   40  O6  UNL     1      16.119  34.542  14.907  1.00  0.00    -0.387 OA
ATOM     41  H6  UNL     1      15.562  34.642  14.144  1.00  0.00     0.210 HD
ENDBRANCH  38  40
ENDBRANCH  35  38
ENDBRANCH  33  34
ENDBRANCH  32  33
ENDBRANCH  31  32
ENDBRANCH  30  31
ENDBRANCH  28  30
ENDBRANCH  25  26
ENDBRANCH  24  25
ENDBRANCH  22  24
ENDBRANCH  10  22
BRANCH   1  42
HETATM   42  O2  UNL     1      17.527  27.324  11.734  1.00  0.00    -0.356 OA
BRANCH  42  43
HETATM   43  C2  UNL     1      17.755  26.221  10.964  1.00  0.00     0.337 C 
BRANCH  43  44
HETATM   44  O1  UNL     1      18.358  25.158  11.623  1.00  0.00    -0.372 OA
HETATM   45  C1  UNL     1      17.733  23.946  11.270  1.00  0.00     0.204 C 
ENDBRANCH  43  44
ENDBRANCH  42  43
ENDBRANCH   1  42
TORSDOF 14
ENDMDL
MODEL 2
REMARK VINA RESULT: -8.883280348      1.939      4.879
REMARK  14 active torsions:
REMARK  status: ('A' for Active; 'I' for Inactive)
REMARK    1  A    between atoms: O1_2  and  C2_3 
REMARK    2  A    between atoms: C2_3  and  O2_4 
REMARK    3  A    between atoms: O2_4  and  C3_5 
REMARK    4  A    between atoms: C12_14  and  C13_15 
REMARK    5  A    between atoms: C13_15  and  C14_17 
REMARK    6  A    between atoms: C14_17  and  C15_18 
REMARK    7  A    between atoms: C15_18  and  C16_19 
REMARK       I    between atoms: C16_19  and  N1_21 
REMARK    8  A    between atoms: N1_21  and  C17_23 
REMARK    9  A    between atoms: C17_23  and  C18_24 
REMARK   10  A    between atoms: C18_24  and  C19_25 
REMARK   11  A    between atoms: C19_25  and  C20_26 
REMARK   12  A    between atoms: C20_26  and  N2_27 
REMARK       I    between atoms: N2_27  and  C21_29 
REMARK   13  A    between atoms: C21_29  and  C22_31 
REMARK   14  A    between atoms: C22_31  and  O6_33 
ROOT
HETATM    1  C3  UNL     1      21.514  29.139  12.501  1.00  0.00     0.190 C 
HETATM    2  C4  UNL     1      21.627  30.586  13.077  1.00  0.00     0.050 C 
HETATM    3  C5  UNL     1      20.165  30.645  13.432  1.00  0.00    -0.001 C 
HETATM    4  C6  UNL     1      19.570  30.670  12.095  1.00  0.00     0.019 C 
HETATM    5  C7  UNL     1      19.466  31.651  14.191  1.00  0.00     0.002 C 
HETATM    6  C8  UNL     1      19.162  32.980  13.599  1.00  0.00     0.007 C 
HETATM    7  C9  UNL     1      18.619  33.853  14.702  1.00  0.00     0.011 C 
HETATM    8  C10 UNL     1      17.806  33.211  15.745  1.00  0.00    -0.030 C 
HETATM    9  C11 UNL     1      18.478  33.426  17.112  1.00  0.00     0.016 C 
HETATM   10  C12 UNL     1      16.460  33.885  15.798  1.00  0.00     0.064 C 
HETATM   11  C24 UNL     1      15.494  32.990  15.050  1.00  0.00     0.013 C 
HETATM   12  C25 UNL     1      15.940  31.647  15.525  1.00  0.00     0.006 C 
HETATM   13  C26 UNL     1      17.469  31.785  15.598  1.00  0.00    -0.001 C 
HETATM   14  C27 UNL     1      18.064  31.026  14.426  1.00  0.00     0.001 C 
HETATM   15  C28 UNL     1      18.072  29.604  14.795  1.00  0.00     0.017 C 
HETATM   16  C29 UNL     1      18.157  28.469  13.923  1.00  0.00     0.176 C 
HETATM   17  O7  UNL     1      19.262  28.112  13.211  1.00  0.00    -0.350 OA
HETATM   18  C30 UNL     1      20.490  28.515  13.491  1.00  0.00     0.224 A 
HETATM   19  O8  UNL     1      21.216  28.592  14.627  1.00  0.00    -0.333 OA
HETATM   20  C31 UNL     1      20.304  29.559  14.394  1.00  0.00     0.131 A 
HETATM   21  C32 UNL     1      19.397  29.527  15.583  1.00  0.00     0.052 C 
ENDROOT
BRANCH  10  22
HETATM   22  C13 UNL     1      15.895  34.143  17.120  1.00  0.00     0.132 C 
HETATM   23  O3  UNL     1      15.205  33.321  17.720  1.00  0.00    -0.298 OA
BRANCH  22  24
HETATM   24  C14 UNL     1      16.124  35.421  17.830  1.00  0.00     0.088 C 
BRANCH  24  25
HETATM   25  C15 UNL     1      16.007  36.618  16.942  1.00  0.00     0.110 C 
BRANCH  25  26
HETATM   26  C16 UNL     1      17.180  37.493  16.942  1.00  0.00     0.217 C 
HETATM   27  O4  UNL     1      17.130  38.687  16.591  1.00  0.00    -0.274 OA
HETATM   28  N1  UNL     1      18.455  36.972  17.367  1.00  0.00    -0.361 N 
ATOM     29  H1  UNL     1      18.543  35.997  17.653  1.00  0.00     0.162 HD
BRANCH  28  30
HETATM   30  C17 UNL     1      19.599  37.836  17.383  1.00  0.00     0.122 C 
BRANCH  30  31
HETATM   31  C18 UNL     1      20.477  37.632  18.572  1.00  0.00     0.021 C 
BRANCH  31  32
HETATM   32  C19 UNL     1      20.450  36.339  19.265  1.00  0.00     0.021 C 
BRANCH  32  33
HETATM   33  C20 UNL     1      21.569  35.406  19.269  1.00  0.00     0.122 C 
BRANCH  33  34
HETATM   34  N2  UNL     1      21.643  34.406  18.248  1.00  0.00    -0.359 N 
HETATM   35  C21 UNL     1      22.178  34.595  16.965  1.00  0.00     0.246 C 
HETATM   36  O5  UNL     1      22.647  35.698  16.633  1.00  0.00    -0.271 OA
ATOM     37  H2  UNL     1      21.278  33.480  18.472  1.00  0.00     0.162 HD
BRANCH  35  38
HETATM   38  C22 UNL     1      22.185  33.484  15.993  1.00  0.00     0.205 C 
HETATM   39  C23 UNL     1      22.011  32.134  16.651  1.00  0.00     0.049 C 
BRANCH  38  40
HETATM   40  O6  UNL     1      23.351  33.471  15.225  1.00  0.00    -0.387 OA
ATOM     41  H6  UNL     1      23.413  34.234  14.661  1.00  0.00     0.210 HD
ENDBRANCH  38  40
ENDBRANCH  35  38
ENDBRANCH  33  34
ENDBRANCH  32  33
ENDBRANCH  31  32
ENDBRANCH  30  31
ENDBRANCH  28  30
ENDBRANCH  25  26
ENDBRANCH  24  25
ENDBRANCH  22  24
ENDBRANCH  10  22
BRANCH   1  42
HETATM   42  O2  UNL     1      22.747  28.477  12.652  1.00  0.00    -0.356 OA
BRANCH  42  43
HETATM   43  C2  UNL     1      23.093  27.682  11.599  1.00  0.00     0.337 C 
BRANCH  43  44
HETATM   44  O1  UNL     1      24.436  27.339  11.537  1.00  0.00    -0.372 OA
HETATM   45  C1  UNL     1      24.579  25.948  11.361  1.00  0.00     0.204 C 
ENDBRANCH  43  44
ENDBRANCH  42  43
ENDBRANCH   1  42
TORSDOF 14
ENDMDL
MODEL 3
REMARK VINA RESULT: -8.778003479      1.779      2.942
REMARK  14 active torsions:
REMARK  status: ('A' for Active; 'I' for Inactive)
REMARK    1  A    between atoms: O1_2  and  C2_3 
REMARK    2  A    between atoms: C2_3  and  O2_4 
REMARK    3  A    between atoms: O2_4  and  C3_5 
REMARK    4  A    between atoms: C12_14  and  C13_15 
REMARK    5  A    between atoms: C13_15  and  C14_17 
REMARK    6  A    between atoms: C14_17  and  C15_18 
REMARK    7  A    between atoms: C15_18  and  C16_19 
REMARK       I    between atoms: C16_19  and  N1_21 
REMARK    8  A    between atoms: N1_21  and  C17_23 
REMARK    9  A    between atoms: C17_23  and  C18_24 
REMARK   10  A    between atoms: C18_24  and  C19_25 
REMARK   11  A    between atoms: C19_25  and  C20_26 
REMARK   12  A    between atoms: C20_26  and  N2_27 
REMARK       I    between atoms: N2_27  and  C21_29 
REMARK   13  A    between atoms: C21_29  and  C22_31 
REMARK   14  A    between atoms: C22_31  and  O6_33 
ROOT
HETATM    1  C3  UNL     1      21.126  28.570  12.371  1.00  0.00     0.190 C 
HETATM    2  C4  UNL     1      22.300  29.434  12.931  1.00  0.00     0.050 C 
HETATM    3  C5  UNL     1      21.370  30.446  13.543  1.00  0.00    -0.001 C 
HETATM    4  C6  UNL     1      20.814  31.058  12.335  1.00  0.00     0.019 C 
HETATM    5  C7  UNL     1      21.689  31.541  14.425  1.00  0.00     0.002 C 
HETATM    6  C8  UNL     1      22.350  32.769  13.909  1.00  0.00     0.007 C 
HETATM    7  C9  UNL     1      22.725  33.615  15.099  1.00  0.00     0.011 C 
HETATM    8  C10 UNL     1      21.831  33.589  16.266  1.00  0.00    -0.030 C 
HETATM    9  C11 UNL     1      22.614  33.089  17.491  1.00  0.00     0.016 C 
HETATM   10  C12 UNL     1      21.381  34.994  16.567  1.00  0.00     0.064 C 
HETATM   11  C24 UNL     1      19.985  35.137  15.996  1.00  0.00     0.013 C 
HETATM   12  C25 UNL     1      19.399  33.816  16.371  1.00  0.00     0.006 C 
HETATM   13  C26 UNL     1      20.567  32.839  16.169  1.00  0.00    -0.001 C 
HETATM   14  C27 UNL     1      20.301  32.046  14.903  1.00  0.00     0.001 C 
HETATM   15  C28 UNL     1      19.342  30.989  15.251  1.00  0.00     0.017 C 
HETATM   16  C29 UNL     1      18.491  30.247  14.368  1.00  0.00     0.176 C 
HETATM   17  O7  UNL     1      18.919  29.320  13.466  1.00  0.00    -0.350 OA
HETATM   18  C30 UNL     1      20.092  28.711  13.524  1.00  0.00     0.224 A 
HETATM   19  O8  UNL     1      20.787  28.108  14.511  1.00  0.00    -0.333 OA
HETATM   20  C31 UNL     1      20.812  29.456  14.455  1.00  0.00     0.131 A 
HETATM   21  C32 UNL     1      20.302  29.906  15.788  1.00  0.00     0.052 C 
ENDROOT
BRANCH  10  22
HETATM   22  C13 UNL     1      21.331  35.393  17.971  1.00  0.00     0.132 C 
HETATM   23  O3  UNL     1      20.552  34.889  18.777  1.00  0.00    -0.298 OA
BRANCH  22  24
HETATM   24  C14 UNL     1      22.227  36.435  18.518  1.00  0.00     0.088 C 
BRANCH  24  25
HETATM   25  C15 UNL     1      22.156  37.727  17.769  1.00  0.00     0.110 C 
BRANCH  25  26
HETATM   26  C16 UNL     1      20.882  38.435  17.895  1.00  0.00     0.217 C 
HETATM   27  O4  UNL     1      20.490  38.930  18.969  1.00  0.00    -0.274 OA
HETATM   28  N1  UNL     1      20.033  38.580  16.740  1.00  0.00    -0.361 N 
ATOM     29  H1  UNL     1      20.310  38.181  15.844  1.00  0.00     0.162 HD
BRANCH  28  30
HETATM   30  C17 UNL     1      18.793  39.289  16.862  1.00  0.00     0.122 C 
BRANCH  30  31
HETATM   31  C18 UNL     1      17.604  38.392  16.939  1.00  0.00     0.021 C 
BRANCH  31  32
HETATM   32  C19 UNL     1      17.224  37.820  18.235  1.00  0.00     0.021 C 
BRANCH  32  33
HETATM   33  C20 UNL     1      16.657  36.486  18.391  1.00  0.00     0.122 C 
BRANCH  33  34
HETATM   34  N2  UNL     1      16.394  35.703  17.223  1.00  0.00    -0.359 N 
HETATM   35  C21 UNL     1      15.714  34.475  17.207  1.00  0.00     0.246 C 
HETATM   36  O5  UNL     1      15.276  33.983  18.261  1.00  0.00    -0.271 OA
ATOM     37  H2  UNL     1      16.726  36.066  16.330  1.00  0.00     0.162 HD
BRANCH  35  38
HETATM   38  C22 UNL     1      15.516  33.754  15.934  1.00  0.00     0.205 C 
HETATM   39  C23 UNL     1      15.919  32.299  16.020  1.00  0.00     0.049 C 
BRANCH  38  40
HETATM   40  O6  UNL     1      16.207  34.358  14.881  1.00  0.00    -0.387 OA
ATOM     41  H6  UNL     1      15.715  35.076  14.500  1.00  0.00     0.210 HD
ENDBRANCH  38  40
ENDBRANCH  35  38
ENDBRANCH  33  34
ENDBRANCH  32  33
ENDBRANCH  31  32
ENDBRANCH  30  31
ENDBRANCH  28  30
ENDBRANCH  25  26
ENDBRANCH  24  25
ENDBRANCH  22  24
ENDBRANCH  10  22
BRANCH   1  42
HETATM   42  O2  UNL     1      21.530  27.224  12.292  1.00  0.00    -0.356 OA
BRANCH  42  43
HETATM   43  C2  UNL     1      22.389  26.953  11.268  1.00  0.00     0.337 C 
BRANCH  43  44
HETATM   44  O1  UNL     1      23.508  26.210  11.620  1.00  0.00    -0.372 OA
HETATM   45  C1  UNL     1      24.683  26.941  11.359  1.00  0.00     0.204 C 
ENDBRANCH  43  44
ENDBRANCH  42  43
ENDBRANCH   1  42
TORSDOF 14
ENDMDL
MODEL 4
REMARK VINA RESULT: -8.711452065      1.952      4.370
REMARK  14 active torsions:
REMARK  status: ('A' for Active; 'I' for Inactive)
REMARK    1  A    between atoms: O1_2  and  C2_3 
REMARK    2  A    between atoms: C2_3  and  O2_4 
REMARK    3  A    between atoms: O2_4  and  C3_5 
REMARK    4  A    between atoms: C12_14  and  C13_15 
REMARK    5  A    between atoms: C13_15  and  C14_17 
REMARK    6  A    between atoms: C14_17  and  C15_18 
REMARK    7  A    between atoms: C15_18  and  C16_19 
REMARK       I    between atoms: C16_19  and  N1_21 
REMARK    8  A    between atoms: N1_21  and  C17_23 
REMARK    9  A    between atoms: C17_23  and  C18_24 
REMARK   10  A    between atoms: C18_24  and  C19_25 
REMARK   11  A    between atoms: C19_25  and  C20_26 
REMARK   12  A    between atoms: C20_26  and  N2_27 
REMARK       I    between atoms: N2_27  and  C21_29 
REMARK   13  A    between atoms: C21_29  and  C22_31 
REMARK   14  A    between atoms: C22_31  and  O6_33 
ROOT
HETATM    1  C3  UNL     1      21.793  28.063  12.691  1.00  0.00     0.190 C 
HETATM    2  C4  UNL     1      20.898  27.964  13.967  1.00  0.00     0.050 C 
HETATM    3  C5  UNL     1      20.556  29.429  13.939  1.00  0.00    -0.001 C 
HETATM    4  C6  UNL     1      21.857  30.011  14.269  1.00  0.00     0.019 C 
HETATM    5  C7  UNL     1      19.593  30.142  14.741  1.00  0.00     0.002 C 
HETATM    6  C8  UNL     1      19.867  30.447  16.170  1.00  0.00     0.007 C 
HETATM    7  C9  UNL     1      18.599  31.005  16.764  1.00  0.00     0.011 C 
HETATM    8  C10 UNL     1      17.740  31.825  15.897  1.00  0.00    -0.030 C 
HETATM    9  C11 UNL     1      16.353  31.168  15.794  1.00  0.00     0.016 C 
HETATM   10  C12 UNL     1      17.548  33.175  16.537  1.00  0.00     0.064 C 
HETATM   11  C24 UNL     1      18.493  34.129  15.835  1.00  0.00     0.013 C 
HETATM   12  C25 UNL     1      18.334  33.681  14.420  1.00  0.00     0.006 C 
HETATM   13  C26 UNL     1      18.215  32.153  14.542  1.00  0.00    -0.001 C 
HETATM   14  C27 UNL     1      19.523  31.542  14.075  1.00  0.00     0.001 C 
HETATM   15  C28 UNL     1      19.491  31.531  12.606  1.00  0.00     0.017 C 
HETATM   16  C29 UNL     1      20.599  31.431  11.703  1.00  0.00     0.176 C 
HETATM   17  O7  UNL     1      21.362  30.317  11.521  1.00  0.00    -0.350 OA
HETATM   18  C30 UNL     1      20.983  29.094  11.853  1.00  0.00     0.224 A 
HETATM   19  O8  UNL     1      19.853  28.380  11.669  1.00  0.00    -0.333 OA
HETATM   20  C31 UNL     1      19.867  29.295  12.661  1.00  0.00     0.131 A 
HETATM   21  C32 UNL     1      18.727  30.213  12.354  1.00  0.00     0.052 C 
ENDROOT
BRANCH  10  22
HETATM   22  C13 UNL     1      16.208  33.754  16.483  1.00  0.00     0.132 C 
HETATM   23  O3  UNL     1      15.557  33.825  15.443  1.00  0.00    -0.298 OA
BRANCH  22  24
HETATM   24  C14 UNL     1      15.542  34.293  17.689  1.00  0.00     0.088 C 
BRANCH  24  25
HETATM   25  C15 UNL     1      15.177  35.738  17.566  1.00  0.00     0.110 C 
BRANCH  25  26
HETATM   26  C16 UNL     1      16.310  36.634  17.335  1.00  0.00     0.217 C 
HETATM   27  O4  UNL     1      16.456  37.279  16.279  1.00  0.00    -0.274 OA
HETATM   28  N1  UNL     1      17.308  36.796  18.362  1.00  0.00    -0.361 N 
ATOM     29  H1  UNL     1      17.234  36.280  19.238  1.00  0.00     0.162 HD
BRANCH  28  30
HETATM   30  C17 UNL     1      18.408  37.689  18.141  1.00  0.00     0.122 C 
BRANCH  30  31
HETATM   31  C18 UNL     1      19.712  37.151  18.626  1.00  0.00     0.021 C 
BRANCH  31  32
HETATM   32  C19 UNL     1      20.911  37.990  18.530  1.00  0.00     0.021 C 
BRANCH  32  33
HETATM   33  C20 UNL     1      22.160  37.544  17.926  1.00  0.00     0.122 C 
BRANCH  33  34
HETATM   34  N2  UNL     1      22.408  36.140  17.802  1.00  0.00    -0.359 N 
HETATM   35  C21 UNL     1      22.166  35.373  16.652  1.00  0.00     0.246 C 
HETATM   36  O5  UNL     1      21.706  35.903  15.625  1.00  0.00    -0.271 OA
ATOM     37  H2  UNL     1      22.791  35.658  18.614  1.00  0.00     0.162 HD
BRANCH  35  38
HETATM   38  C22 UNL     1      22.452  33.925  16.653  1.00  0.00     0.205 C 
HETATM   39  C23 UNL     1      22.500  33.339  15.260  1.00  0.00     0.049 C 
BRANCH  38  40
HETATM   40  O6  UNL     1      21.526  33.212  17.417  1.00  0.00    -0.387 OA
ATOM     41  H6  UNL     1      20.662  33.608  17.388  1.00  0.00     0.210 HD
ENDBRANCH  38  40
ENDBRANCH  35  38
ENDBRANCH  33  34
ENDBRANCH  32  33
ENDBRANCH  31  32
ENDBRANCH  30  31
ENDBRANCH  28  30
ENDBRANCH  25  26
ENDBRANCH  24  25
ENDBRANCH  22  24
ENDBRANCH  10  22
BRANCH   1  42
HETATM   42  O2  UNL     1      21.785  26.829  12.015  1.00  0.00    -0.356 OA
BRANCH  42  43
HETATM   43  C2  UNL     1      22.938  26.546  11.344  1.00  0.00     0.337 C 
BRANCH  43  44
HETATM   44  O1  UNL     1      23.304  25.207  11.342  1.00  0.00    -0.372 OA
HETATM   45  C1  UNL     1      24.492  25.026  10.608  1.00  0.00     0.204 C 
ENDBRANCH  43  44
ENDBRANCH  42  43
ENDBRANCH   1  42
TORSDOF 14
ENDMDL
MODEL 5
REMARK VINA RESULT: -8.670973876      1.382      2.417
REMARK  14 active torsions:
REMARK  status: ('A' for Active; 'I' for Inactive)
REMARK    1  A    between atoms: O1_2  and  C2_3 
REMARK    2  A    between atoms: C2_3  and  O2_4 
REMARK    3  A    between atoms: O2_4  and  C3_5 
REMARK    4  A    between atoms: C12_14  and  C13_15 
REMARK    5  A    between atoms: C13_15  and  C14_17 
REMARK    6  A    between atoms: C14_17  and  C15_18 
REMARK    7  A    between atoms: C15_18  and  C16_19 
REMARK       I    between atoms: C16_19  and  N1_21 
REMARK    8  A    between atoms: N1_21  and  C17_23 
REMARK    9  A    between atoms: C17_23  and  C18_24 
REMARK   10  A    between atoms: C18_24  and  C19_25 
REMARK   11  A    between atoms: C19_25  and  C20_26 
REMARK   12  A    between atoms: C20_26  and  N2_27 
REMARK       I    between atoms: N2_27  and  C21_29 
REMARK   13  A    between atoms: C21_29  and  C22_31 
REMARK   14  A    between atoms: C22_31  and  O6_33 
ROOT
HETATM    1  C3  UNL     1      20.317  28.650  12.165  1.00  0.00     0.190 C 
HETATM    2  C4  UNL     1      21.638  29.097  12.867  1.00  0.00     0.050 C 
HETATM    3  C5  UNL     1      21.030  30.376  13.375  1.00  0.00    -0.001 C 
HETATM    4  C6  UNL     1      20.847  31.100  12.117  1.00  0.00     0.019 C 
HETATM    5  C7  UNL     1      21.589  31.330  14.299  1.00  0.00     0.002 C 
HETATM    6  C8  UNL     1      22.672  32.258  13.877  1.00  0.00     0.007 C 
HETATM    7  C9  UNL     1      23.166  32.968  15.111  1.00  0.00     0.011 C 
HETATM    8  C10 UNL     1      22.187  33.271  16.165  1.00  0.00    -0.030 C 
HETATM    9  C11 UNL     1      22.617  32.579  17.469  1.00  0.00     0.016 C 
HETATM   10  C12 UNL     1      22.193  34.755  16.424  1.00  0.00     0.064 C 
HETATM   11  C24 UNL     1      20.997  35.331  15.695  1.00  0.00     0.013 C 
HETATM   12  C25 UNL     1      19.970  34.287  15.986  1.00  0.00     0.006 C 
HETATM   13  C26 UNL     1      20.766  32.975  15.913  1.00  0.00    -0.001 C 
HETATM   14  C27 UNL     1      20.400  32.276  14.616  1.00  0.00     0.001 C 
HETATM   15  C28 UNL     1      19.113  31.604  14.839  1.00  0.00     0.017 C 
HETATM   16  C29 UNL     1      18.172  31.157  13.855  1.00  0.00     0.176 C 
HETATM   17  O7  UNL     1      18.370  30.114  13.000  1.00  0.00    -0.350 OA
HETATM   18  C30 UNL     1      19.262  29.156  13.190  1.00  0.00     0.224 A 
HETATM   19  O8  UNL     1      19.603  28.387  14.246  1.00  0.00    -0.333 OA
HETATM   20  C31 UNL     1      20.077  29.651  14.206  1.00  0.00     0.131 A 
HETATM   21  C32 UNL     1      19.596  30.282  15.474  1.00  0.00     0.052 C 
ENDROOT
BRANCH  10  22
HETATM   22  C13 UNL     1      22.118  35.189  17.817  1.00  0.00     0.132 C 
HETATM   23  O3  UNL     1      22.192  34.406  18.761  1.00  0.00    -0.298 OA
BRANCH  22  24
HETATM   24  C14 UNL     1      21.952  36.613  18.182  1.00  0.00     0.088 C 
BRANCH  24  25
HETATM   25  C15 UNL     1      20.721  36.875  18.989  1.00  0.00     0.110 C 
BRANCH  25  26
HETATM   26  C16 UNL     1      19.919  38.008  18.526  1.00  0.00     0.217 C 
HETATM   27  O4  UNL     1      19.897  39.105  19.116  1.00  0.00    -0.274 OA
HETATM   28  N1  UNL     1      19.116  37.870  17.337  1.00  0.00    -0.361 N 
ATOM     29  H1  UNL     1      19.096  36.986  16.829  1.00  0.00     0.162 HD
BRANCH  28  30
HETATM   30  C17 UNL     1      18.344  38.986  16.875  1.00  0.00     0.122 C 
BRANCH  30  31
HETATM   31  C18 UNL     1      16.872  38.757  16.947  1.00  0.00     0.021 C 
BRANCH  31  32
HETATM   32  C19 UNL     1      16.292  38.227  18.185  1.00  0.00     0.021 C 
BRANCH  32  33
HETATM   33  C20 UNL     1      15.781  36.869  18.317  1.00  0.00     0.122 C 
BRANCH  33  34
HETATM   34  N2  UNL     1      16.133  35.895  17.330  1.00  0.00    -0.359 N 
HETATM   35  C21 UNL     1      15.881  34.518  17.423  1.00  0.00     0.246 C 
HETATM   36  O5  UNL     1      15.300  34.049  18.417  1.00  0.00    -0.271 OA
ATOM     37  H2  UNL     1      16.606  36.229  16.490  1.00  0.00     0.162 HD
BRANCH  35  38
HETATM   38  C22 UNL     1      16.308  33.611  16.339  1.00  0.00     0.205 C 
HETATM   39  C23 UNL     1      16.401  34.307  15.000  1.00  0.00     0.049 C 
BRANCH  38  40
HETATM   40  O6  UNL     1      15.462  32.505  16.222  1.00  0.00    -0.387 OA
ATOM     41  H6  UNL     1      15.942  31.712  16.014  1.00  0.00     0.210 HD
ENDBRANCH  38  40
ENDBRANCH  35  38
ENDBRANCH  33  34
ENDBRANCH  32  33
ENDBRANCH  31  32
ENDBRANCH  30  31
ENDBRANCH  28  30
ENDBRANCH  25  26
ENDBRANCH  24  25
ENDBRANCH  22  24
ENDBRANCH  10  22
BRANCH   1  42
HETATM   42  O2  UNL     1      20.261  27.244  12.120  1.00  0.00    -0.356 OA
BRANCH  42  43
HETATM   43  C2  UNL     1      19.549  26.741  11.071  1.00  0.00     0.337 C 
BRANCH  43  44
HETATM   44  O1  UNL     1      19.177  27.672  10.112  1.00  0.00    -0.372 OA
HETATM   45  C1  UNL     1      18.500  27.039   9.051  1.00  0.00     0.204 C 
ENDBRANCH  43  44
ENDBRANCH  42  43
ENDBRANCH   1  42
TORSDOF 14
ENDMDL
