MODEL 1
REMARK VINA RESULT: -6.817370068      0.000      0.000
REMARK  2 active torsions:
REMARK  status: ('A' for Active; 'I' for Inactive)
REMARK    1  A    between atoms: C7_11  and  C8_12 
REMARK       I    between atoms: C8_12  and  N4_14 
REMARK    2  A    between atoms: N4_14  and  C9_16 
ROOT
HETATM    1  C1  UNL     1      14.571   8.329  21.763  1.00  0.00     0.272 C 
HETATM    2  N1  UNL     1      15.247   9.374  22.564  1.00  0.00    -0.067 N 
HETATM    3  C2  UNL     1      14.310  10.436  22.711  1.00  0.00     0.238 C 
HETATM    4  C3  UNL     1      14.786  11.774  22.247  1.00  0.00     0.049 C 
HETATM    5  C4  UNL     1      15.927  12.334  23.027  1.00  0.00     0.145 C 
HETATM    6  N2  UNL     1      16.872  11.383  23.494  1.00  0.00    -0.317 N 
HETATM    7  N3  UNL     1      16.477  10.854  24.674  1.00  0.00    -0.336 N 
ATOM      8  H3  UNL     1      16.270  11.456  25.471  1.00  0.00     0.180 HD
HETATM    9  C5  UNL     1      16.357   9.449  24.778  1.00  0.00     0.167 C 
HETATM   10  C6  UNL     1      15.473   8.762  23.835  1.00  0.00     0.258 C 
HETATM   11  C7  UNL     1      17.436  10.514  22.541  1.00  0.00     0.219 C 
HETATM   12  C14 UNL     1      16.424   9.686  21.823  1.00  0.00     0.273 C 
ENDROOT
BRANCH  11  13
HETATM   13  C8  UNL     1      18.308  11.162  21.545  1.00  0.00     0.244 C 
HETATM   14  O1  UNL     1      17.891  11.513  20.417  1.00  0.00    -0.271 OA
HETATM   15  N4  UNL     1      19.671  11.412  21.838  1.00  0.00    -0.355 N 
ATOM     16  H4  UNL     1      20.030  11.133  22.751  1.00  0.00     0.162 HD
BRANCH  15  17
HETATM   17  C9  UNL     1      20.581  12.044  20.906  1.00  0.00     0.084 C 
HETATM   18  C10 UNL     1      21.198  11.080  19.937  1.00  0.00     0.025 C 
HETATM   19  C11 UNL     1      22.367  11.912  19.391  1.00  0.00     0.002 C 
HETATM   20  C12 UNL     1      22.796  12.770  20.559  1.00  0.00     0.002 C 
HETATM   21  C13 UNL     1      21.792  12.564  21.657  1.00  0.00     0.025 C 
ENDBRANCH  15  17
ENDBRANCH  11  13
TORSDOF 2
ENDMDL
MODEL 2
REMARK VINA RESULT: -6.744951759      3.986      8.527
REMARK  2 active torsions:
REMARK  status: ('A' for Active; 'I' for Inactive)
REMARK    1  A    between atoms: C7_11  and  C8_12 
REMARK       I    between atoms: C8_12  and  N4_14 
REMARK    2  A    between atoms: N4_14  and  C9_16 
ROOT
HETATM    1  C1  UNL     1      24.886  15.064  19.445  1.00  0.00     0.272 C 
HETATM    2  N1  UNL     1      25.301  13.704  19.856  1.00  0.00    -0.067 N 
HETATM    3  C2  UNL     1      25.739  13.043  18.673  1.00  0.00     0.238 C 
HETATM    4  C3  UNL     1      25.050  11.752  18.373  1.00  0.00     0.049 C 
HETATM    5  C4  UNL     1      25.293  10.670  19.371  1.00  0.00     0.145 C 
HETATM    6  N2  UNL     1      25.410  11.099  20.720  1.00  0.00    -0.317 N 
HETATM    7  N3  UNL     1      26.680  11.477  20.994  1.00  0.00    -0.336 N 
ATOM      8  H3  UNL     1      27.459  10.838  20.837  1.00  0.00     0.180 HD
HETATM    9  C5  UNL     1      26.902  12.776  21.504  1.00  0.00     0.167 C 
HETATM   10  C6  UNL     1      26.418  13.915  20.722  1.00  0.00     0.258 C 
HETATM   11  C7  UNL     1      24.365  11.886  21.238  1.00  0.00     0.219 C 
HETATM   12  C14 UNL     1      24.144  13.152  20.481  1.00  0.00     0.273 C 
ENDROOT
BRANCH  11  13
HETATM   13  C8  UNL     1      23.073  11.191  21.381  1.00  0.00     0.244 C 
HETATM   14  O1  UNL     1      22.918  10.219  22.156  1.00  0.00    -0.271 OA
HETATM   15  N4  UNL     1      21.946  11.607  20.631  1.00  0.00    -0.355 N 
ATOM     16  H4  UNL     1      22.052  12.397  19.994  1.00  0.00     0.162 HD
BRANCH  15  17
HETATM   17  C9  UNL     1      20.650  10.969  20.724  1.00  0.00     0.084 C 
HETATM   18  C10 UNL     1      19.901  10.959  19.426  1.00  0.00     0.025 C 
HETATM   19  C11 UNL     1      18.480  10.628  19.902  1.00  0.00     0.002 C 
HETATM   20  C12 UNL     1      18.376  11.280  21.261  1.00  0.00     0.002 C 
HETATM   21  C13 UNL     1      19.742  11.798  21.613  1.00  0.00     0.025 C 
ENDBRANCH  15  17
ENDBRANCH  11  13
TORSDOF 2
ENDMDL
MODEL 3
REMARK VINA RESULT: -6.626380883      1.071      1.074
REMARK  2 active torsions:
REMARK  status: ('A' for Active; 'I' for Inactive)
REMARK    1  A    between atoms: C7_11  and  C8_12 
REMARK       I    between atoms: C8_12  and  N4_14 
REMARK    2  A    between atoms: N4_14  and  C9_16 
ROOT
HETATM    1  C1  UNL     1      15.097   8.636  21.535  1.00  0.00     0.272 C 
HETATM    2  N1  UNL     1      15.412   9.589  22.623  1.00  0.00    -0.067 N 
HETATM    3  C2  UNL     1      14.434  10.622  22.548  1.00  0.00     0.238 C 
HETATM    4  C3  UNL     1      14.980  12.006  22.415  1.00  0.00     0.049 C 
HETATM    5  C4  UNL     1      15.760  12.483  23.594  1.00  0.00     0.145 C 
HETATM    6  N2  UNL     1      16.531  11.491  24.257  1.00  0.00    -0.317 N 
HETATM    7  N3  UNL     1      15.781  10.831  25.168  1.00  0.00    -0.336 N 
ATOM      8  H3  UNL     1      15.288  11.338  25.903  1.00  0.00     0.180 HD
HETATM    9  C5  UNL     1      15.696   9.423  25.079  1.00  0.00     0.167 C 
HETATM   10  C6  UNL     1      15.218   8.840  23.824  1.00  0.00     0.258 C 
HETATM   11  C7  UNL     1      17.424  10.738  23.472  1.00  0.00     0.219 C 
HETATM   12  C14 UNL     1      16.756   9.989  22.368  1.00  0.00     0.273 C 
ENDROOT
BRANCH  11  13
HETATM   13  C8  UNL     1      18.554  11.500  22.909  1.00  0.00     0.244 C 
HETATM   14  O1  UNL     1      18.968  12.563  23.426  1.00  0.00    -0.271 OA
HETATM   15  N4  UNL     1      19.219  11.044  21.744  1.00  0.00    -0.355 N 
ATOM     16  H4  UNL     1      18.896  10.179  21.308  1.00  0.00     0.162 HD
BRANCH  15  17
HETATM   17  C9  UNL     1      20.333  11.743  21.141  1.00  0.00     0.084 C 
HETATM   18  C10 UNL     1      20.565  11.363  19.709  1.00  0.00     0.025 C 
HETATM   19  C11 UNL     1      21.983  11.904  19.481  1.00  0.00     0.002 C 
HETATM   20  C12 UNL     1      22.668  11.742  20.818  1.00  0.00     0.002 C 
HETATM   21  C13 UNL     1      21.624  11.300  21.804  1.00  0.00     0.025 C 
ENDBRANCH  15  17
ENDBRANCH  11  13
TORSDOF 2
ENDMDL
MODEL 4
REMARK VINA RESULT: -6.567530136      1.644      2.352
REMARK  2 active torsions:
REMARK  status: ('A' for Active; 'I' for Inactive)
REMARK    1  A    between atoms: C7_11  and  C8_12 
REMARK       I    between atoms: C8_12  and  N4_14 
REMARK    2  A    between atoms: N4_14  and  C9_16 
ROOT
HETATM    1  C1  UNL     1      14.867  12.147  22.205  1.00  0.00     0.272 C 
HETATM    2  N1  UNL     1      15.670  11.613  23.329  1.00  0.00    -0.067 N 
HETATM    3  C2  UNL     1      15.781  12.669  24.279  1.00  0.00     0.238 C 
HETATM    4  C3  UNL     1      17.178  13.041  24.656  1.00  0.00     0.049 C 
HETATM    5  C4  UNL     1      17.933  11.974  25.374  1.00  0.00     0.145 C 
HETATM    6  N2  UNL     1      17.655  10.645  24.959  1.00  0.00    -0.317 N 
HETATM    7  N3  UNL     1      16.576  10.155  25.610  1.00  0.00    -0.336 N 
ATOM      8  H3  UNL     1      16.545  10.141  26.629  1.00  0.00     0.180 HD
HETATM    9  C5  UNL     1      15.493   9.663  24.847  1.00  0.00     0.167 C 
HETATM   10  C6  UNL     1      14.869  10.565  23.876  1.00  0.00     0.258 C 
HETATM   11  C7  UNL     1      17.779  10.359  23.587  1.00  0.00     0.219 C 
HETATM   12  C14 UNL     1      16.891  11.193  22.725  1.00  0.00     0.273 C 
ENDROOT
BRANCH  11  13
HETATM   13  C8  UNL     1      19.153  10.431  23.056  1.00  0.00     0.244 C 
HETATM   14  O1  UNL     1      20.112   9.835  23.599  1.00  0.00    -0.271 OA
HETATM   15  N4  UNL     1      19.436  11.191  21.895  1.00  0.00    -0.355 N 
ATOM     16  H4  UNL     1      18.668  11.684  21.439  1.00  0.00     0.162 HD
BRANCH  15  17
HETATM   17  C9  UNL     1      20.761  11.303  21.323  1.00  0.00     0.084 C 
HETATM   18  C10 UNL     1      21.441  12.597  21.655  1.00  0.00     0.025 C 
HETATM   19  C11 UNL     1      22.577  12.613  20.622  1.00  0.00     0.002 C 
HETATM   20  C12 UNL     1      21.995  11.920  19.412  1.00  0.00     0.002 C 
HETATM   21  C13 UNL     1      20.653  11.375  19.811  1.00  0.00     0.025 C 
ENDBRANCH  15  17
ENDBRANCH  11  13
TORSDOF 2
ENDMDL
MODEL 5
REMARK VINA RESULT: -6.565868824      1.379      1.729
REMARK  2 active torsions:
REMARK  status: ('A' for Active; 'I' for Inactive)
REMARK    1  A    between atoms: C7_11  and  C8_12 
REMARK       I    between atoms: C8_12  and  N4_14 
REMARK    2  A    between atoms: N4_14  and  C9_16 
ROOT
HETATM    1  C1  UNL     1      14.813   9.413  21.700  1.00  0.00     0.272 C 
HETATM    2  N1  UNL     1      15.460  10.068  22.859  1.00  0.00    -0.067 N 
HETATM    3  C2  UNL     1      15.011  11.420  22.857  1.00  0.00     0.238 C 
HETATM    4  C3  UNL     1      16.094  12.450  22.833  1.00  0.00     0.049 C 
HETATM    5  C4  UNL     1      16.958  12.472  24.048  1.00  0.00     0.145 C 
HETATM    6  N2  UNL     1      17.216  11.206  24.637  1.00  0.00    -0.317 N 
HETATM    7  N3  UNL     1      16.225  10.864  25.492  1.00  0.00    -0.336 N 
ATOM      8  H3  UNL     1      15.966  11.482  26.261  1.00  0.00     0.180 HD
HETATM    9  C5  UNL     1      15.559   9.633  25.296  1.00  0.00     0.167 C 
HETATM   10  C6  UNL     1      14.925   9.392  23.998  1.00  0.00     0.258 C 
HETATM   11  C7  UNL     1      17.737  10.200  23.801  1.00  0.00     0.219 C 
HETATM   12  C14 UNL     1      16.856   9.879  22.641  1.00  0.00     0.273 C 
ENDROOT
BRANCH  11  13
HETATM   13  C8  UNL     1      19.102  10.449  23.302  1.00  0.00     0.244 C 
HETATM   14  O1  UNL     1      20.113  10.324  24.030  1.00  0.00    -0.271 OA
HETATM   15  N4  UNL     1      19.315  10.845  21.959  1.00  0.00    -0.355 N 
ATOM     16  H4  UNL     1      18.504  10.953  21.350  1.00  0.00     0.162 HD
BRANCH  15  17
HETATM   17  C9  UNL     1      20.628  11.105  21.407  1.00  0.00     0.084 C 
HETATM   18  C10 UNL     1      21.141  12.478  21.722  1.00  0.00     0.025 C 
HETATM   19  C11 UNL     1      22.286  12.610  20.708  1.00  0.00     0.002 C 
HETATM   20  C12 UNL     1      21.815  11.828  19.504  1.00  0.00     0.002 C 
HETATM   21  C13 UNL     1      20.541  11.133  19.893  1.00  0.00     0.025 C 
ENDBRANCH  15  17
ENDBRANCH  11  13
TORSDOF 2
ENDMDL
