MODEL 1
REMARK VINA RESULT: -7.557389007      0.000      0.000
REMARK  4 active torsions:
REMARK  status: ('A' for Active; 'I' for Inactive)
REMARK    1  A    between atoms: C5_5  and  N1_6 
REMARK       I    between atoms: N1_6  and  C6_8 
REMARK       I    between atoms: C6_8  and  N2_10 
REMARK    2  A    between atoms: N2_10  and  C7_12 
REMARK    3  A    between atoms: N3_15  and  S1_16 
REMARK    4  A    between atoms: S1_16  and  N4_19 
ROOT
HETATM    1  C7  UNL     1      18.796  12.656  22.406  1.00  0.00     0.088 C 
HETATM    2  C8  UNL     1      18.667  13.640  23.532  1.00  0.00     0.041 C 
HETATM    3  C9  UNL     1      17.279  13.635  24.176  1.00  0.00     0.110 C 
HETATM    4  N3  UNL     1      16.512  12.632  23.510  1.00  0.00    -0.197 NA
HETATM    5  C14 UNL     1      16.342  13.069  22.130  1.00  0.00     0.110 C 
HETATM    6  C15 UNL     1      17.643  12.709  21.440  1.00  0.00     0.041 C 
ENDROOT
BRANCH   1   7
HETATM    7  N2  UNL     1      19.996  13.001  21.670  1.00  0.00    -0.338 N 
HETATM    8  C6  UNL     1      20.701  11.998  20.953  1.00  0.00     0.316 C 
HETATM    9  N1  UNL     1      21.872  12.328  20.235  1.00  0.00    -0.339 N 
HETATM   10  O1  UNL     1      20.297  10.815  20.947  1.00  0.00    -0.247 OA
ATOM     11  H1  UNL     1      22.220  13.286  20.226  1.00  0.00     0.164 HD
ATOM     12  H2  UNL     1      20.335  13.964  21.667  1.00  0.00     0.164 HD
BRANCH   9  13
HETATM   13  C5  UNL     1      22.571  11.287  19.514  1.00  0.00     0.086 C 
HETATM   14  C4  UNL     1      23.382  11.969  18.419  1.00  0.00     0.026 C 
HETATM   15  C3  UNL     1      24.415  11.010  17.871  1.00  0.00     0.006 C 
HETATM   16  C2  UNL     1      25.459  10.756  18.922  1.00  0.00    -0.019 C 
HETATM   17  C1  UNL     1      26.658  11.639  18.692  1.00  0.00     0.010 C 
HETATM   18  C17 UNL     1      24.893  11.032  20.296  1.00  0.00     0.006 C 
HETATM   19  C16 UNL     1      23.478  10.486  20.416  1.00  0.00     0.026 C 
ENDBRANCH   9  13
ENDBRANCH   1   7
BRANCH   4  20
HETATM   20  S1  UNL     1      15.055  12.176  24.239  1.00  0.00     0.282 S 
HETATM   21  O2  UNL     1      13.891  13.021  23.802  1.00  0.00    -0.194 OA
HETATM   22  O3  UNL     1      15.205  12.351  25.745  1.00  0.00    -0.194 OA
BRANCH  20  23
HETATM   23  N4  UNL     1      14.735  10.514  23.984  1.00  0.00    -0.198 NA
HETATM   24  C10 UNL     1      15.079   9.649  25.065  1.00  0.00     0.108 C 
HETATM   25  C11 UNL     1      15.746   8.433  24.404  1.00  0.00     0.017 C 
HETATM   26  C12 UNL     1      15.305   8.536  22.936  1.00  0.00     0.017 C 
HETATM   27  C13 UNL     1      15.282  10.016  22.759  1.00  0.00     0.108 C 
ENDBRANCH  20  23
ENDBRANCH   4  20
TORSDOF 4
ENDMDL
MODEL 2
REMARK VINA RESULT: -7.491979545      3.769      9.598
REMARK  4 active torsions:
REMARK  status: ('A' for Active; 'I' for Inactive)
REMARK    1  A    between atoms: C5_5  and  N1_6 
REMARK       I    between atoms: N1_6  and  C6_8 
REMARK       I    between atoms: C6_8  and  N2_10 
REMARK    2  A    between atoms: N2_10  and  C7_12 
REMARK    3  A    between atoms: N3_15  and  S1_16 
REMARK    4  A    between atoms: S1_16  and  N4_19 
ROOT
HETATM    1  C7  UNL     1      22.034  12.432  20.703  1.00  0.00     0.088 C 
HETATM    2  C8  UNL     1      22.275  12.304  19.227  1.00  0.00     0.041 C 
HETATM    3  C9  UNL     1      23.712  12.641  18.825  1.00  0.00     0.110 C 
HETATM    4  N3  UNL     1      24.422  12.950  20.024  1.00  0.00    -0.197 NA
HETATM    5  C14 UNL     1      23.834  14.167  20.569  1.00  0.00     0.110 C 
HETATM    6  C15 UNL     1      22.577  13.710  21.282  1.00  0.00     0.041 C 
ENDROOT
BRANCH   1   7
HETATM    7  N2  UNL     1      20.598  12.438  20.904  1.00  0.00    -0.338 N 
HETATM    8  C6  UNL     1      19.949  11.283  21.415  1.00  0.00     0.316 C 
HETATM    9  N1  UNL     1      18.550  11.283  21.611  1.00  0.00    -0.339 N 
HETATM   10  O1  UNL     1      20.603  10.256  21.697  1.00  0.00    -0.247 OA
ATOM     11  H1  UNL     1      17.996  12.109  21.388  1.00  0.00     0.164 HD
ATOM     12  H2  UNL     1      20.054  13.271  20.678  1.00  0.00     0.164 HD
BRANCH   9  13
HETATM   13  C5  UNL     1      17.914  10.093  22.133  1.00  0.00     0.086 C 
HETATM   14  C4  UNL     1      17.466  10.412  23.554  1.00  0.00     0.026 C 
HETATM   15  C3  UNL     1      16.476   9.371  24.028  1.00  0.00     0.006 C 
HETATM   16  C2  UNL     1      15.196   9.519  23.256  1.00  0.00    -0.019 C 
HETATM   17  C1  UNL     1      14.200  10.328  24.045  1.00  0.00     0.010 C 
HETATM   18  C17 UNL     1      15.460  10.207  21.936  1.00  0.00     0.006 C 
HETATM   19  C16 UNL     1      16.732   9.671  21.294  1.00  0.00     0.026 C 
ENDBRANCH   9  13
ENDBRANCH   1   7
BRANCH   4  20
HETATM   20  S1  UNL     1      26.109  13.029  19.914  1.00  0.00     0.282 S 
HETATM   21  O2  UNL     1      26.688  14.214  20.632  1.00  0.00    -0.194 OA
HETATM   22  O3  UNL     1      26.480  13.161  18.442  1.00  0.00    -0.194 OA
BRANCH  20  23
HETATM   23  N4  UNL     1      26.828  11.572  20.455  1.00  0.00    -0.198 NA
HETATM   24  C10 UNL     1      28.020  11.723  21.223  1.00  0.00     0.108 C 
HETATM   25  C11 UNL     1      28.973  10.640  20.695  1.00  0.00     0.017 C 
HETATM   26  C12 UNL     1      28.038   9.669  19.957  1.00  0.00     0.017 C 
HETATM   27  C13 UNL     1      27.032  10.621  19.406  1.00  0.00     0.108 C 
ENDBRANCH  20  23
ENDBRANCH   4  20
TORSDOF 4
ENDMDL
MODEL 3
REMARK VINA RESULT: -7.435418107      2.057      2.542
REMARK  4 active torsions:
REMARK  status: ('A' for Active; 'I' for Inactive)
REMARK    1  A    between atoms: C5_5  and  N1_6 
REMARK       I    between atoms: N1_6  and  C6_8 
REMARK       I    between atoms: C6_8  and  N2_10 
REMARK    2  A    between atoms: N2_10  and  C7_12 
REMARK    3  A    between atoms: N3_15  and  S1_16 
REMARK    4  A    between atoms: S1_16  and  N4_19 
ROOT
HETATM    1  C7  UNL     1      20.239  11.509  22.024  1.00  0.00     0.088 C 
HETATM    2  C8  UNL     1      19.974  11.053  23.429  1.00  0.00     0.041 C 
HETATM    3  C9  UNL     1      18.484  10.891  23.735  1.00  0.00     0.110 C 
HETATM    4  N3  UNL     1      17.774  11.198  22.536  1.00  0.00    -0.197 NA
HETATM    5  C14 UNL     1      18.001  12.609  22.252  1.00  0.00     0.110 C 
HETATM    6  C15 UNL     1      19.370  12.664  21.603  1.00  0.00     0.041 C 
ENDROOT
BRANCH   1   7
HETATM    7  N2  UNL     1      21.616  11.958  21.970  1.00  0.00    -0.338 N 
HETATM    8  C6  UNL     1      22.459  11.536  20.908  1.00  0.00     0.316 C 
HETATM    9  N1  UNL     1      23.802  11.969  20.851  1.00  0.00    -0.339 N 
HETATM   10  O1  UNL     1      22.025  10.779  20.013  1.00  0.00    -0.247 OA
ATOM     11  H1  UNL     1      24.177  12.587  21.571  1.00  0.00     0.164 HD
ATOM     12  H2  UNL     1      21.980  12.577  22.695  1.00  0.00     0.164 HD
BRANCH   9  13
HETATM   13  C5  UNL     1      24.638  11.525  19.758  1.00  0.00     0.086 C 
HETATM   14  C4  UNL     1      25.791  12.514  19.646  1.00  0.00     0.026 C 
HETATM   15  C3  UNL     1      26.893  11.925  18.794  1.00  0.00     0.006 C 
HETATM   16  C2  UNL     1      27.532  10.784  19.532  1.00  0.00    -0.019 C 
HETATM   17  C1  UNL     1      28.786  11.246  20.227  1.00  0.00     0.010 C 
HETATM   18  C17 UNL     1      26.573  10.224  20.557  1.00  0.00     0.006 C 
HETATM   19  C16 UNL     1      25.166  10.128  19.984  1.00  0.00     0.026 C 
ENDBRANCH   9  13
ENDBRANCH   1   7
BRANCH   4  20
HETATM   20  S1  UNL     1      16.136  10.774  22.489  1.00  0.00     0.282 S 
HETATM   21  O2  UNL     1      15.227  11.961  22.343  1.00  0.00    -0.194 OA
HETATM   22  O3  UNL     1      15.787  10.092  23.806  1.00  0.00    -0.194 OA
BRANCH  20  23
HETATM   23  N4  UNL     1      15.837   9.618  21.262  1.00  0.00    -0.198 NA
HETATM   24  C10 UNL     1      15.191   8.420  21.690  1.00  0.00     0.108 C 
HETATM   25  C11 UNL     1      15.934   7.288  20.965  1.00  0.00     0.017 C 
HETATM   26  C12 UNL     1      16.666   8.012  19.823  1.00  0.00     0.017 C 
HETATM   27  C13 UNL     1      16.999   9.305  20.488  1.00  0.00     0.108 C 
ENDBRANCH  20  23
ENDBRANCH   4  20
TORSDOF 4
ENDMDL
MODEL 4
REMARK VINA RESULT: -7.396554510      2.598      3.732
REMARK  4 active torsions:
REMARK  status: ('A' for Active; 'I' for Inactive)
REMARK    1  A    between atoms: C5_5  and  N1_6 
REMARK       I    between atoms: N1_6  and  C6_8 
REMARK       I    between atoms: C6_8  and  N2_10 
REMARK    2  A    between atoms: N2_10  and  C7_12 
REMARK    3  A    between atoms: N3_15  and  S1_16 
REMARK    4  A    between atoms: S1_16  and  N4_19 
ROOT
HETATM    1  C7  UNL     1      21.466  10.484  21.948  1.00  0.00     0.088 C 
HETATM    2  C8  UNL     1      20.579   9.823  20.933  1.00  0.00     0.041 C 
HETATM    3  C9  UNL     1      19.090  10.005  21.231  1.00  0.00     0.110 C 
HETATM    4  N3  UNL     1      18.992  10.810  22.406  1.00  0.00    -0.197 NA
HETATM    5  C14 UNL     1      19.556  10.036  23.504  1.00  0.00     0.110 C 
HETATM    6  C15 UNL     1      21.057  10.196  23.368  1.00  0.00     0.041 C 
ENDROOT
BRANCH   1   7
HETATM    7  N2  UNL     1      22.801   9.952  21.763  1.00  0.00    -0.338 N 
HETATM    8  C6  UNL     1      23.792  10.734  21.112  1.00  0.00     0.316 C 
HETATM    9  N1  UNL     1      25.095  10.220  20.927  1.00  0.00    -0.339 N 
HETATM   10  O1  UNL     1      23.527  11.883  20.697  1.00  0.00    -0.247 OA
ATOM     11  H1  UNL     1      25.334   9.286  21.258  1.00  0.00     0.164 HD
ATOM     12  H2  UNL     1      23.030   9.016  22.099  1.00  0.00     0.164 HD
BRANCH   9  13
HETATM   13  C5  UNL     1      26.085  11.038  20.262  1.00  0.00     0.086 C 
HETATM   14  C4  UNL     1      26.904  11.723  21.349  1.00  0.00     0.026 C 
HETATM   15  C3  UNL     1      28.176  12.286  20.757  1.00  0.00     0.006 C 
HETATM   16  C2  UNL     1      29.077  11.154  20.353  1.00  0.00    -0.019 C 
HETATM   17  C1  UNL     1      30.100  10.892  21.427  1.00  0.00     0.010 C 
HETATM   18  C17 UNL     1      28.266   9.900  20.122  1.00  0.00     0.006 C 
HETATM   19  C16 UNL     1      26.984  10.219  19.367  1.00  0.00     0.026 C 
ENDBRANCH   9  13
ENDBRANCH   1   7
BRANCH   4  20
HETATM   20  S1  UNL     1      17.468  11.450  22.769  1.00  0.00     0.282 S 
HETATM   21  O2  UNL     1      16.827  12.137  21.596  1.00  0.00    -0.194 OA
HETATM   22  O3  UNL     1      17.644  12.492  23.867  1.00  0.00    -0.194 OA
BRANCH  20  23
HETATM   23  N4  UNL     1      16.435  10.248  23.416  1.00  0.00    -0.198 NA
HETATM   24  C10 UNL     1      15.177  10.099  22.760  1.00  0.00     0.108 C 
HETATM   25  C11 UNL     1      14.153   9.947  23.894  1.00  0.00     0.017 C 
HETATM   26  C12 UNL     1      15.016   9.573  25.109  1.00  0.00     0.017 C 
HETATM   27  C13 UNL     1      16.245  10.371  24.829  1.00  0.00     0.108 C 
ENDBRANCH  20  23
ENDBRANCH   4  20
TORSDOF 4
ENDMDL
MODEL 5
REMARK VINA RESULT: -7.392656521      3.980      9.680
REMARK  4 active torsions:
REMARK  status: ('A' for Active; 'I' for Inactive)
REMARK    1  A    between atoms: C5_5  and  N1_6 
REMARK       I    between atoms: N1_6  and  C6_8 
REMARK       I    between atoms: C6_8  and  N2_10 
REMARK    2  A    between atoms: N2_10  and  C7_12 
REMARK    3  A    between atoms: N3_15  and  S1_16 
REMARK    4  A    between atoms: S1_16  and  N4_19 
ROOT
HETATM    1  C7  UNL     1      22.571  13.330  21.201  1.00  0.00     0.088 C 
HETATM    2  C8  UNL     1      23.242  14.652  21.438  1.00  0.00     0.041 C 
HETATM    3  C9  UNL     1      24.733  14.635  21.093  1.00  0.00     0.110 C 
HETATM    4  N3  UNL     1      25.035  13.332  20.596  1.00  0.00    -0.197 NA
HETATM    5  C14 UNL     1      24.840  12.398  21.698  1.00  0.00     0.110 C 
HETATM    6  C15 UNL     1      23.344  12.166  21.758  1.00  0.00     0.041 C 
ENDROOT
BRANCH   1   7
HETATM    7  N2  UNL     1      21.292  13.371  21.883  1.00  0.00    -0.338 N 
HETATM    8  C6  UNL     1      20.151  12.773  21.286  1.00  0.00     0.316 C 
HETATM    9  N1  UNL     1      18.902  12.810  21.944  1.00  0.00    -0.339 N 
HETATM   10  O1  UNL     1      20.235  12.208  20.173  1.00  0.00    -0.247 OA
ATOM     11  H1  UNL     1      18.810  13.265  22.852  1.00  0.00     0.164 HD
ATOM     12  H2  UNL     1      21.212  13.828  22.791  1.00  0.00     0.164 HD
BRANCH   9  13
HETATM   13  C5  UNL     1      17.756  12.193  21.314  1.00  0.00     0.086 C 
HETATM   14  C4  UNL     1      17.791  10.713  21.670  1.00  0.00     0.026 C 
HETATM   15  C3  UNL     1      16.450  10.080  21.373  1.00  0.00     0.006 C 
HETATM   16  C2  UNL     1      15.429  10.609  22.339  1.00  0.00    -0.019 C 
HETATM   17  C1  UNL     1      15.243   9.648  23.484  1.00  0.00     0.010 C 
HETATM   18  C17 UNL     1      15.870  11.949  22.882  1.00  0.00     0.006 C 
HETATM   19  C16 UNL     1      16.458  12.812  21.774  1.00  0.00     0.026 C 
ENDBRANCH   9  13
ENDBRANCH   1   7
BRANCH   4  20
HETATM   20  S1  UNL     1      26.527  13.135  19.824  1.00  0.00     0.282 S 
HETATM   21  O2  UNL     1      27.381  14.371  19.875  1.00  0.00    -0.194 OA
HETATM   22  O3  UNL     1      26.261  12.826  18.356  1.00  0.00    -0.194 OA
BRANCH  20  23
HETATM   23  N4  UNL     1      27.368  11.782  20.450  1.00  0.00    -0.198 NA
HETATM   24  C10 UNL     1      28.634  12.065  21.044  1.00  0.00     0.108 C 
HETATM   25  C11 UNL     1      29.567  10.952  20.542  1.00  0.00     0.017 C 
HETATM   26  C12 UNL     1      28.597   9.867  20.047  1.00  0.00     0.017 C 
HETATM   27  C13 UNL     1      27.492  10.711  19.508  1.00  0.00     0.108 C 
ENDBRANCH  20  23
ENDBRANCH   4  20
TORSDOF 4
ENDMDL
