MODEL 1
REMARK VINA RESULT: -7.146891803      0.000      0.000
REMARK  6 active torsions:
REMARK  status: ('A' for Active; 'I' for Inactive)
REMARK    1  A    between atoms: N1_9  and  S1_10 
REMARK    2  A    between atoms: S1_10  and  N2_13 
REMARK    3  A    between atoms: C11_16  and  N3_17 
REMARK    4  A    between atoms: N3_17  and  C12_19 
REMARK    5  A    between atoms: C12_19  and  N4_21 
REMARK    6  A    between atoms: N4_21  and  C13_23 
ROOT
HETATM    1  C1  UNL     1      23.707   9.675  18.385  1.00  0.00     0.014 C 
HETATM    2  C2  UNL     1      24.247  10.135  19.369  1.00  0.00    -0.091 C 
HETATM    3  C3  UNL     1      24.880  10.681  20.575  1.00  0.00     0.175 C 
HETATM    4  C4  UNL     1      26.370  10.550  20.437  1.00  0.00     0.039 C 
HETATM    5  C5  UNL     1      27.036  11.060  19.254  1.00  0.00     0.003 C 
HETATM    6  C6  UNL     1      26.438  12.074  18.393  1.00  0.00     0.002 C 
HETATM    7  C7  UNL     1      25.439  13.001  18.987  1.00  0.00     0.021 C 
HETATM    8  C8  UNL     1      25.428  13.018  20.484  1.00  0.00     0.138 C 
HETATM    9  N1  UNL     1      24.518  11.984  20.889  1.00  0.00    -0.282 N 
ENDROOT
BRANCH   9  10
HETATM   10  S1  UNL     1      23.216  12.413  21.785  1.00  0.00     0.302 S 
HETATM   11  O1  UNL     1      23.477  12.002  23.241  1.00  0.00    -0.188 OA
HETATM   12  O2  UNL     1      23.125  13.933  21.856  1.00  0.00    -0.188 OA
BRANCH  10  13
HETATM   13  N2  UNL     1      21.672  11.834  21.354  1.00  0.00    -0.193 NA
HETATM   14  C9  UNL     1      21.485  10.490  21.756  1.00  0.00     0.111 C 
HETATM   15  C10 UNL     1      20.463   9.765  20.853  1.00  0.00     0.041 C 
HETATM   16  C11 UNL     1      19.393  10.796  20.577  1.00  0.00     0.086 C 
HETATM   17  C15 UNL     1      19.970  11.790  19.591  1.00  0.00     0.041 C 
HETATM   18  C16 UNL     1      21.397  12.134  19.976  1.00  0.00     0.111 C 
BRANCH  16  19
HETATM   19  N3  UNL     1      18.118  10.275  20.255  1.00  0.00    -0.363 N 
ATOM     20  H3  UNL     1      17.946  10.022  19.282  1.00  0.00     0.162 HD
BRANCH  19  21
HETATM   21  C12 UNL     1      17.061  10.078  21.174  1.00  0.00     0.167 C 
HETATM   22  S2  UNL     1      16.732  11.195  22.297  1.00  0.00    -0.041 SA
BRANCH  21  23
HETATM   23  N4  UNL     1      16.271   8.871  21.102  1.00  0.00    -0.368 N 
ATOM     24  H4  UNL     1      15.937   8.418  21.953  1.00  0.00     0.161 HD
BRANCH  23  25
HETATM   25  C13 UNL     1      15.960   8.314  19.803  1.00  0.00     0.117 C 
HETATM   26  C14 UNL     1      16.962   7.204  19.503  1.00  0.00     0.026 C 
ENDBRANCH  23  25
ENDBRANCH  21  23
ENDBRANCH  19  21
ENDBRANCH  16  19
ENDBRANCH  10  13
ENDBRANCH   9  10
TORSDOF 6
ENDMDL
MODEL 2
REMARK VINA RESULT: -7.108420021      1.082      1.681
REMARK  6 active torsions:
REMARK  status: ('A' for Active; 'I' for Inactive)
REMARK    1  A    between atoms: N1_9  and  S1_10 
REMARK    2  A    between atoms: S1_10  and  N2_13 
REMARK    3  A    between atoms: C11_16  and  N3_17 
REMARK    4  A    between atoms: N3_17  and  C12_19 
REMARK    5  A    between atoms: C12_19  and  N4_21 
REMARK    6  A    between atoms: N4_21  and  C13_23 
ROOT
HETATM    1  C1  UNL     1      23.696   9.692  18.210  1.00  0.00     0.014 C 
HETATM    2  C2  UNL     1      24.186  10.148  19.221  1.00  0.00    -0.091 C 
HETATM    3  C3  UNL     1      24.760  10.688  20.460  1.00  0.00     0.175 C 
HETATM    4  C4  UNL     1      26.257  10.606  20.371  1.00  0.00     0.039 C 
HETATM    5  C5  UNL     1      26.947  11.162  19.223  1.00  0.00     0.003 C 
HETATM    6  C6  UNL     1      26.347  12.175  18.362  1.00  0.00     0.002 C 
HETATM    7  C7  UNL     1      25.299  13.057  18.938  1.00  0.00     0.021 C 
HETATM    8  C8  UNL     1      25.236  13.043  20.434  1.00  0.00     0.138 C 
HETATM    9  N1  UNL     1      24.346  11.972  20.787  1.00  0.00    -0.282 N 
ENDROOT
BRANCH   9  10
HETATM   10  S1  UNL     1      23.001  12.341  21.645  1.00  0.00     0.302 S 
HETATM   11  O1  UNL     1      23.238  11.941  23.108  1.00  0.00    -0.188 OA
HETATM   12  O2  UNL     1      22.839  13.856  21.712  1.00  0.00    -0.188 OA
BRANCH  10  13
HETATM   13  N2  UNL     1      21.497  11.693  21.171  1.00  0.00    -0.193 NA
HETATM   14  C9  UNL     1      21.358  10.343  21.574  1.00  0.00     0.111 C 
HETATM   15  C10 UNL     1      20.396   9.571  20.644  1.00  0.00     0.041 C 
HETATM   16  C11 UNL     1      19.291  10.553  20.331  1.00  0.00     0.086 C 
HETATM   17  C15 UNL     1      19.853  11.567  19.357  1.00  0.00     0.041 C 
HETATM   18  C16 UNL     1      21.251  11.975  19.783  1.00  0.00     0.111 C 
BRANCH  16  19
HETATM   19  N3  UNL     1      18.050   9.975  19.973  1.00  0.00    -0.363 N 
ATOM     20  H3  UNL     1      17.895   9.770  18.986  1.00  0.00     0.162 HD
BRANCH  19  21
HETATM   21  C12 UNL     1      17.007   9.661  20.874  1.00  0.00     0.167 C 
HETATM   22  S2  UNL     1      15.883   8.567  20.479  1.00  0.00    -0.041 SA
BRANCH  21  23
HETATM   23  N4  UNL     1      16.951  10.322  22.158  1.00  0.00    -0.368 N 
ATOM     24  H4  UNL     1      17.571  10.036  22.915  1.00  0.00     0.161 HD
BRANCH  23  25
HETATM   25  C13 UNL     1      16.001  11.397  22.350  1.00  0.00     0.117 C 
HETATM   26  C14 UNL     1      16.632  12.692  21.848  1.00  0.00     0.026 C 
ENDBRANCH  23  25
ENDBRANCH  21  23
ENDBRANCH  19  21
ENDBRANCH  16  19
ENDBRANCH  10  13
ENDBRANCH   9  10
TORSDOF 6
ENDMDL
MODEL 3
REMARK VINA RESULT: -7.063865955      1.201      1.485
REMARK  6 active torsions:
REMARK  status: ('A' for Active; 'I' for Inactive)
REMARK    1  A    between atoms: N1_9  and  S1_10 
REMARK    2  A    between atoms: S1_10  and  N2_13 
REMARK    3  A    between atoms: C11_16  and  N3_17 
REMARK    4  A    between atoms: N3_17  and  C12_19 
REMARK    5  A    between atoms: C12_19  and  N4_21 
REMARK    6  A    between atoms: N4_21  and  C13_23 
ROOT
HETATM    1  C1  UNL     1      23.690   9.692  18.300  1.00  0.00     0.014 C 
HETATM    2  C2  UNL     1      24.213  10.104  19.313  1.00  0.00    -0.091 C 
HETATM    3  C3  UNL     1      24.827  10.590  20.555  1.00  0.00     0.175 C 
HETATM    4  C4  UNL     1      26.320  10.530  20.408  1.00  0.00     0.039 C 
HETATM    5  C5  UNL     1      26.961  11.149  19.264  1.00  0.00     0.003 C 
HETATM    6  C6  UNL     1      26.319  12.196  18.475  1.00  0.00     0.002 C 
HETATM    7  C7  UNL     1      25.285  13.036  19.132  1.00  0.00     0.021 C 
HETATM    8  C8  UNL     1      25.277  12.949  20.627  1.00  0.00     0.138 C 
HETATM    9  N1  UNL     1      24.412  11.852  20.959  1.00  0.00    -0.282 N 
ENDROOT
BRANCH   9  10
HETATM   10  S1  UNL     1      23.096  12.163  21.883  1.00  0.00     0.302 S 
HETATM   11  O1  UNL     1      23.321  11.539  23.267  1.00  0.00    -0.188 OA
HETATM   12  O2  UNL     1      23.020  13.657  22.174  1.00  0.00    -0.188 OA
BRANCH  10  13
HETATM   13  N2  UNL     1      21.555  11.675  21.341  1.00  0.00    -0.193 NA
HETATM   14  C9  UNL     1      21.297  10.318  21.650  1.00  0.00     0.111 C 
HETATM   15  C10 UNL     1      20.295   9.691  20.655  1.00  0.00     0.041 C 
HETATM   16  C11 UNL     1      19.282  10.780  20.391  1.00  0.00     0.086 C 
HETATM   17  C15 UNL     1      19.946  11.806  19.497  1.00  0.00     0.041 C 
HETATM   18  C16 UNL     1      21.363  12.067  19.972  1.00  0.00     0.111 C 
BRANCH  16  19
HETATM   19  N3  UNL     1      18.005  10.332  19.975  1.00  0.00    -0.363 N 
ATOM     20  H3  UNL     1      17.665  10.660  19.071  1.00  0.00     0.162 HD
BRANCH  19  21
HETATM   21  C12 UNL     1      17.164   9.468  20.712  1.00  0.00     0.167 C 
HETATM   22  S2  UNL     1      16.559   8.133  20.029  1.00  0.00    -0.041 SA
BRANCH  21  23
HETATM   23  N4  UNL     1      16.848   9.783  22.087  1.00  0.00    -0.368 N 
ATOM     24  H4  UNL     1      17.490  10.339  22.652  1.00  0.00     0.161 HD
BRANCH  23  25
HETATM   25  C13 UNL     1      15.606   9.298  22.649  1.00  0.00     0.117 C 
HETATM   26  C14 UNL     1      15.850   8.929  24.109  1.00  0.00     0.026 C 
ENDBRANCH  23  25
ENDBRANCH  21  23
ENDBRANCH  19  21
ENDBRANCH  16  19
ENDBRANCH  10  13
ENDBRANCH   9  10
TORSDOF 6
ENDMDL
MODEL 4
REMARK VINA RESULT: -7.043716238      2.145      3.281
REMARK  6 active torsions:
REMARK  status: ('A' for Active; 'I' for Inactive)
REMARK    1  A    between atoms: N1_9  and  S1_10 
REMARK    2  A    between atoms: S1_10  and  N2_13 
REMARK    3  A    between atoms: C11_16  and  N3_17 
REMARK    4  A    between atoms: N3_17  and  C12_19 
REMARK    5  A    between atoms: C12_19  and  N4_21 
REMARK    6  A    between atoms: N4_21  and  C13_23 
ROOT
HETATM    1  C1  UNL     1      25.967  11.782  20.961  1.00  0.00     0.014 C 
HETATM    2  C2  UNL     1      24.906  12.069  20.448  1.00  0.00    -0.091 C 
HETATM    3  C3  UNL     1      23.620  12.438  19.845  1.00  0.00     0.175 C 
HETATM    4  C4  UNL     1      23.736  12.314  18.353  1.00  0.00     0.039 C 
HETATM    5  C5  UNL     1      24.223  11.082  17.764  1.00  0.00     0.003 C 
HETATM    6  C6  UNL     1      24.196   9.808  18.475  1.00  0.00     0.002 C 
HETATM    7  C7  UNL     1      23.183   9.621  19.545  1.00  0.00     0.021 C 
HETATM    8  C8  UNL     1      22.074  10.627  19.527  1.00  0.00     0.138 C 
HETATM    9  N1  UNL     1      22.524  11.734  20.324  1.00  0.00    -0.282 N 
ENDROOT
BRANCH   9  10
HETATM   10  S1  UNL     1      21.642  12.141  21.642  1.00  0.00     0.302 S 
HETATM   11  O1  UNL     1      22.383  11.642  22.890  1.00  0.00    -0.188 OA
HETATM   12  O2  UNL     1      21.644  13.656  21.809  1.00  0.00    -0.188 OA
BRANCH  10  13
HETATM   13  N2  UNL     1      20.022  11.622  21.762  1.00  0.00    -0.193 NA
HETATM   14  C9  UNL     1      19.187  12.297  20.840  1.00  0.00     0.111 C 
HETATM   15  C10 UNL     1      17.728  12.365  21.342  1.00  0.00     0.041 C 
HETATM   16  C11 UNL     1      17.480  11.024  21.991  1.00  0.00     0.086 C 
HETATM   17  C15 UNL     1      18.221  11.019  23.312  1.00  0.00     0.041 C 
HETATM   18  C16 UNL     1      19.598  11.633  23.135  1.00  0.00     0.111 C 
BRANCH  16  19
HETATM   19  N3  UNL     1      16.126  10.615  22.041  1.00  0.00    -0.363 N 
ATOM     20  H3  UNL     1      15.426  11.333  22.225  1.00  0.00     0.162 HD
BRANCH  19  21
HETATM   21  C12 UNL     1      15.667   9.290  21.858  1.00  0.00     0.167 C 
HETATM   22  S2  UNL     1      15.860   8.545  20.436  1.00  0.00    -0.041 SA
BRANCH  21  23
HETATM   23  N4  UNL     1      15.025   8.601  22.953  1.00  0.00    -0.368 N 
ATOM     24  H4  UNL     1      14.119   8.151  22.824  1.00  0.00     0.161 HD
BRANCH  23  25
HETATM   25  C13 UNL     1      15.690   8.558  24.239  1.00  0.00     0.117 C 
HETATM   26  C14 UNL     1      14.941   9.480  25.197  1.00  0.00     0.026 C 
ENDBRANCH  23  25
ENDBRANCH  21  23
ENDBRANCH  19  21
ENDBRANCH  16  19
ENDBRANCH  10  13
ENDBRANCH   9  10
TORSDOF 6
ENDMDL
MODEL 5
REMARK VINA RESULT: -6.946412742      1.381      2.132
REMARK  6 active torsions:
REMARK  status: ('A' for Active; 'I' for Inactive)
REMARK    1  A    between atoms: N1_9  and  S1_10 
REMARK    2  A    between atoms: S1_10  and  N2_13 
REMARK    3  A    between atoms: C11_16  and  N3_17 
REMARK    4  A    between atoms: N3_17  and  C12_19 
REMARK    5  A    between atoms: C12_19  and  N4_21 
REMARK    6  A    between atoms: N4_21  and  C13_23 
ROOT
HETATM    1  C1  UNL     1      24.282  13.711  18.435  1.00  0.00     0.014 C 
HETATM    2  C2  UNL     1      23.720  12.708  18.819  1.00  0.00    -0.091 C 
HETATM    3  C3  UNL     1      23.015  11.508  19.284  1.00  0.00     0.175 C 
HETATM    4  C4  UNL     1      23.492  10.330  18.484  1.00  0.00     0.039 C 
HETATM    5  C5  UNL     1      24.911  10.057  18.370  1.00  0.00     0.003 C 
HETATM    6  C6  UNL     1      25.889  10.574  19.322  1.00  0.00     0.002 C 
HETATM    7  C7  UNL     1      25.430  10.888  20.700  1.00  0.00     0.021 C 
HETATM    8  C8  UNL     1      24.099  10.300  21.056  1.00  0.00     0.138 C 
HETATM    9  N1  UNL     1      23.114  11.262  20.647  1.00  0.00    -0.282 N 
ENDROOT
BRANCH   9  10
HETATM   10  S1  UNL     1      22.122  11.881  21.794  1.00  0.00     0.302 S 
HETATM   11  O1  UNL     1      22.679  11.496  23.171  1.00  0.00    -0.188 OA
HETATM   12  O2  UNL     1      22.219  13.403  21.783  1.00  0.00    -0.188 OA
BRANCH  10  13
HETATM   13  N2  UNL     1      20.466  11.480  21.777  1.00  0.00    -0.193 NA
HETATM   14  C9  UNL     1      20.245  10.187  21.244  1.00  0.00     0.111 C 
HETATM   15  C10 UNL     1      18.840  10.065  20.615  1.00  0.00     0.041 C 
HETATM   16  C11 UNL     1      17.934  10.842  21.542  1.00  0.00     0.086 C 
HETATM   17  C15 UNL     1      18.208  12.313  21.311  1.00  0.00     0.041 C 
HETATM   18  C16 UNL     1      19.702  12.550  21.195  1.00  0.00     0.111 C 
BRANCH  16  19
HETATM   19  N3  UNL     1      16.572  10.457  21.522  1.00  0.00    -0.363 N 
ATOM     20  H3  UNL     1      15.924  11.053  21.007  1.00  0.00     0.162 HD
BRANCH  19  21
HETATM   21  C12 UNL     1      16.039   9.314  22.160  1.00  0.00     0.167 C 
HETATM   22  S2  UNL     1      15.875   9.273  23.768  1.00  0.00    -0.041 SA
BRANCH  21  23
HETATM   23  N4  UNL     1      15.635   8.178  21.363  1.00  0.00    -0.368 N 
ATOM     24  H4  UNL     1      15.285   7.330  21.809  1.00  0.00     0.161 HD
BRANCH  23  25
HETATM   25  C13 UNL     1      15.736   8.262  19.922  1.00  0.00     0.117 C 
HETATM   26  C14 UNL     1      16.869   7.349  19.465  1.00  0.00     0.026 C 
ENDBRANCH  23  25
ENDBRANCH  21  23
ENDBRANCH  19  21
ENDBRANCH  16  19
ENDBRANCH  10  13
ENDBRANCH   9  10
TORSDOF 6
ENDMDL
