MODEL 1
REMARK VINA RESULT: -7.802534996      0.000      0.000
REMARK  4 active torsions:
REMARK  status: ('A' for Active; 'I' for Inactive)
REMARK       I    between atoms: C1_2  and  N1_3 
REMARK    1  A    between atoms: C1_2  and  C5_8 
REMARK    2  A    between atoms: N1_3  and  C2_5 
REMARK       I    between atoms: N2_12  and  C9_13 
REMARK    3  A    between atoms: C9_13  and  C10_15 
REMARK       I    between atoms: N3_19  and  C14_20 
REMARK       I    between atoms: C14_20  and  N4_22 
REMARK    4  A    between atoms: N4_22  and  C15_24 
ROOT
HETATM    1  C10 UNL     1      22.561  10.182  22.488  1.00  0.00     0.181 C 
HETATM    2  C11 UNL     1      23.037   9.936  23.889  1.00  0.00     0.037 C 
HETATM    3  C12 UNL     1      21.765   9.478  24.580  1.00  0.00     0.022 C 
HETATM    4  C13 UNL     1      20.701  10.325  23.904  1.00  0.00     0.129 C 
HETATM    5  N3  UNL     1      21.189  10.556  22.576  1.00  0.00    -0.321 N 
HETATM    6  C14 UNL     1      20.338  11.063  21.548  1.00  0.00     0.319 C 
HETATM    7  O3  UNL     1      20.791  11.208  20.403  1.00  0.00    -0.247 OA
HETATM    8  N4  UNL     1      19.002  11.397  21.815  1.00  0.00    -0.338 N 
ATOM      9  H4  UNL     1      18.666  11.265  22.769  1.00  0.00     0.164 HD
ENDROOT
BRANCH   1  10
HETATM   10  C9  UNL     1      23.431  11.179  21.801  1.00  0.00     0.243 C 
HETATM   11  N2  UNL     1      23.968  10.761  20.529  1.00  0.00    -0.337 N 
HETATM   12  C5  UNL     1      24.839  11.547  19.662  1.00  0.00     0.179 C 
HETATM   13  C8  UNL     1      23.767   9.503  19.837  1.00  0.00     0.127 C 
HETATM   14  C6  UNL     1      24.162  11.352  18.319  1.00  0.00     0.037 C 
HETATM   15  C7  UNL     1      23.761   9.904  18.372  1.00  0.00     0.022 C 
HETATM   16  O2  UNL     1      23.728  12.302  22.206  1.00  0.00    -0.271 OA
BRANCH  12  17
HETATM   17  C1  UNL     1      26.224  11.079  19.660  1.00  0.00     0.241 C 
HETATM   18  O1  UNL     1      26.951  11.299  18.639  1.00  0.00    -0.271 OA
HETATM   19  N1  UNL     1      26.837  10.384  20.725  1.00  0.00    -0.355 N 
ATOM     20  H1  UNL     1      26.279  10.192  21.557  1.00  0.00     0.162 HD
BRANCH  19  21
HETATM   21  C2  UNL     1      28.206   9.928  20.705  1.00  0.00     0.084 A 
HETATM   22  C3  UNL     1      29.169  10.349  21.750  1.00  0.00     0.027 A 
HETATM   23  C4  UNL     1      28.621   8.961  21.809  1.00  0.00     0.027 A 
ENDBRANCH  19  21
ENDBRANCH  12  17
ENDBRANCH   1  10
BRANCH   8  24
HETATM   24  C15 UNL     1      18.071  11.911  20.850  1.00  0.00     0.086 C 
HETATM   25  C16 UNL     1      16.962  12.670  21.546  1.00  0.00     0.025 C 
HETATM   26  C17 UNL     1      16.301  11.813  22.577  1.00  0.00     0.002 C 
HETATM   27  C18 UNL     1      15.791  10.512  22.054  1.00  0.00     0.000 C 
HETATM   28  C19 UNL     1      16.710   9.807  21.104  1.00  0.00     0.002 C 
HETATM   29  C20 UNL     1      17.407  10.732  20.135  1.00  0.00     0.025 C 
ENDBRANCH   8  24
TORSDOF 4
ENDMDL
MODEL 2
REMARK VINA RESULT: -7.552081643      2.044      8.472
REMARK  4 active torsions:
REMARK  status: ('A' for Active; 'I' for Inactive)
REMARK       I    between atoms: C1_2  and  N1_3 
REMARK    1  A    between atoms: C1_2  and  C5_8 
REMARK    2  A    between atoms: N1_3  and  C2_5 
REMARK       I    between atoms: N2_12  and  C9_13 
REMARK    3  A    between atoms: C9_13  and  C10_15 
REMARK       I    between atoms: N3_19  and  C14_20 
REMARK       I    between atoms: C14_20  and  N4_22 
REMARK    4  A    between atoms: N4_22  and  C15_24 
ROOT
HETATM    1  C10 UNL     1      23.227  12.260  21.538  1.00  0.00     0.181 C 
HETATM    2  C11 UNL     1      22.972  13.302  22.587  1.00  0.00     0.037 C 
HETATM    3  C12 UNL     1      24.297  14.040  22.628  1.00  0.00     0.022 C 
HETATM    4  C13 UNL     1      25.303  12.926  22.396  1.00  0.00     0.129 C 
HETATM    5  N3  UNL     1      24.622  11.968  21.573  1.00  0.00    -0.321 N 
HETATM    6  C14 UNL     1      25.330  10.926  20.903  1.00  0.00     0.319 C 
HETATM    7  O3  UNL     1      24.706  10.146  20.168  1.00  0.00    -0.247 OA
HETATM    8  N4  UNL     1      26.714  10.774  21.063  1.00  0.00    -0.338 N 
ATOM      9  H4  UNL     1      27.193  11.435  21.676  1.00  0.00     0.164 HD
ENDROOT
BRANCH   1  10
HETATM   10  C9  UNL     1      22.343  11.077  21.741  1.00  0.00     0.243 C 
HETATM   11  N2  UNL     1      21.040  11.164  21.128  1.00  0.00    -0.337 N 
HETATM   12  C5  UNL     1      19.996  10.146  21.176  1.00  0.00     0.179 C 
HETATM   13  C8  UNL     1      20.487  12.249  20.341  1.00  0.00     0.127 C 
HETATM   14  C6  UNL     1      19.583  10.087  19.717  1.00  0.00     0.037 C 
HETATM   15  C7  UNL     1      19.621  11.535  19.316  1.00  0.00     0.022 C 
HETATM   16  O2  UNL     1      22.613  10.053  22.367  1.00  0.00    -0.271 OA
BRANCH  12  17
HETATM   17  C1  UNL     1      18.883  10.503  22.054  1.00  0.00     0.241 C 
HETATM   18  O1  UNL     1      19.104  11.248  23.063  1.00  0.00    -0.271 OA
HETATM   19  N1  UNL     1      17.550  10.078  21.872  1.00  0.00    -0.355 N 
ATOM     20  H1  UNL     1      17.342   9.479  21.073  1.00  0.00     0.162 HD
BRANCH  19  21
HETATM   21  C2  UNL     1      16.464  10.439  22.751  1.00  0.00     0.084 A 
HETATM   22  C3  UNL     1      15.070  10.027  22.458  1.00  0.00     0.027 A 
HETATM   23  C4  UNL     1      15.812   9.305  23.534  1.00  0.00     0.027 A 
ENDBRANCH  19  21
ENDBRANCH  12  17
ENDBRANCH   1  10
BRANCH   8  24
HETATM   24  C15 UNL     1      27.512   9.760  20.432  1.00  0.00     0.086 C 
HETATM   25  C16 UNL     1      28.274   8.969  21.473  1.00  0.00     0.025 C 
HETATM   26  C17 UNL     1      29.085   9.879  22.339  1.00  0.00     0.002 C 
HETATM   27  C18 UNL     1      30.013  10.772  21.586  1.00  0.00     0.000 C 
HETATM   28  C19 UNL     1      29.435  11.385  20.348  1.00  0.00     0.002 C 
HETATM   29  C20 UNL     1      28.563  10.443  19.553  1.00  0.00     0.025 C 
ENDBRANCH   8  24
TORSDOF 4
ENDMDL
MODEL 3
REMARK VINA RESULT: -7.526943061      2.668      8.212
REMARK  4 active torsions:
REMARK  status: ('A' for Active; 'I' for Inactive)
REMARK       I    between atoms: C1_2  and  N1_3 
REMARK    1  A    between atoms: C1_2  and  C5_8 
REMARK    2  A    between atoms: N1_3  and  C2_5 
REMARK       I    between atoms: N2_12  and  C9_13 
REMARK    3  A    between atoms: C9_13  and  C10_15 
REMARK       I    between atoms: N3_19  and  C14_20 
REMARK       I    between atoms: C14_20  and  N4_22 
REMARK    4  A    between atoms: N4_22  and  C15_24 
ROOT
HETATM    1  C10 UNL     1      21.907  10.812  20.467  1.00  0.00     0.181 C 
HETATM    2  C11 UNL     1      22.080   9.535  19.699  1.00  0.00     0.037 C 
HETATM    3  C12 UNL     1      23.590   9.435  19.586  1.00  0.00     0.022 C 
HETATM    4  C13 UNL     1      24.006  10.887  19.429  1.00  0.00     0.129 C 
HETATM    5  N3  UNL     1      23.021  11.642  20.149  1.00  0.00    -0.321 N 
HETATM    6  C14 UNL     1      23.231  13.015  20.478  1.00  0.00     0.319 C 
HETATM    7  O3  UNL     1      22.371  13.617  21.138  1.00  0.00    -0.247 OA
HETATM    8  N4  UNL     1      24.390  13.688  20.068  1.00  0.00    -0.338 N 
ATOM      9  H4  UNL     1      25.074  13.159  19.526  1.00  0.00     0.164 HD
ENDROOT
BRANCH   1  10
HETATM   10  C9  UNL     1      20.578  11.426  20.185  1.00  0.00     0.243 C 
HETATM   11  N2  UNL     1      19.685  11.518  21.314  1.00  0.00    -0.337 N 
HETATM   12  C5  UNL     1      18.337  12.076  21.302  1.00  0.00     0.179 C 
HETATM   13  C8  UNL     1      19.917  11.096  22.681  1.00  0.00     0.127 C 
HETATM   14  C6  UNL     1      18.383  12.968  22.528  1.00  0.00     0.037 C 
HETATM   15  C7  UNL     1      19.165  12.131  23.501  1.00  0.00     0.022 C 
HETATM   16  O2  UNL     1      20.178  11.853  19.102  1.00  0.00    -0.271 OA
BRANCH  12  17
HETATM   17  C1  UNL     1      17.291  11.058  21.392  1.00  0.00     0.241 C 
HETATM   18  O1  UNL     1      16.267  11.285  22.112  1.00  0.00    -0.271 OA
HETATM   19  N1  UNL     1      17.327   9.812  20.731  1.00  0.00    -0.355 N 
ATOM     20  H1  UNL     1      18.136   9.601  20.147  1.00  0.00     0.162 HD
BRANCH  19  21
HETATM   21  C2  UNL     1      16.285   8.818  20.832  1.00  0.00     0.084 A 
HETATM   22  C3  UNL     1      15.440   8.471  19.665  1.00  0.00     0.027 A 
HETATM   23  C4  UNL     1      16.510   7.513  20.077  1.00  0.00     0.027 A 
ENDBRANCH  19  21
ENDBRANCH  12  17
ENDBRANCH   1  10
BRANCH   8  24
HETATM   24  C15 UNL     1      24.690  15.064  20.350  1.00  0.00     0.086 C 
HETATM   25  C16 UNL     1      25.217  15.751  19.108  1.00  0.00     0.025 C 
HETATM   26  C17 UNL     1      26.393  15.011  18.555  1.00  0.00     0.002 C 
HETATM   27  C18 UNL     1      27.496  14.795  19.537  1.00  0.00     0.000 C 
HETATM   28  C19 UNL     1      27.052  14.391  20.909  1.00  0.00     0.002 C 
HETATM   29  C20 UNL     1      25.816  15.116  21.385  1.00  0.00     0.025 C 
ENDBRANCH   8  24
TORSDOF 4
ENDMDL
MODEL 4
REMARK VINA RESULT: -7.501980737      2.136      7.931
REMARK  4 active torsions:
REMARK  status: ('A' for Active; 'I' for Inactive)
REMARK       I    between atoms: C1_2  and  N1_3 
REMARK    1  A    between atoms: C1_2  and  C5_8 
REMARK    2  A    between atoms: N1_3  and  C2_5 
REMARK       I    between atoms: N2_12  and  C9_13 
REMARK    3  A    between atoms: C9_13  and  C10_15 
REMARK       I    between atoms: N3_19  and  C14_20 
REMARK       I    between atoms: C14_20  and  N4_22 
REMARK    4  A    between atoms: N4_22  and  C15_24 
ROOT
HETATM    1  C10 UNL     1      21.793  12.226  22.704  1.00  0.00     0.181 C 
HETATM    2  C11 UNL     1      21.876  12.441  24.186  1.00  0.00     0.037 C 
HETATM    3  C12 UNL     1      23.074  13.364  24.305  1.00  0.00     0.022 C 
HETATM    4  C13 UNL     1      23.992  12.856  23.207  1.00  0.00     0.129 C 
HETATM    5  N3  UNL     1      23.119  12.341  22.193  1.00  0.00    -0.321 N 
HETATM    6  C14 UNL     1      23.595  12.045  20.881  1.00  0.00     0.319 C 
HETATM    7  O3  UNL     1      22.796  11.641  20.023  1.00  0.00    -0.247 OA
HETATM    8  N4  UNL     1      24.948  12.204  20.550  1.00  0.00    -0.338 N 
ATOM      9  H4  UNL     1      25.575  12.538  21.282  1.00  0.00     0.164 HD
ENDROOT
BRANCH   1  10
HETATM   10  C9  UNL     1      21.121  10.931  22.393  1.00  0.00     0.243 C 
HETATM   11  N2  UNL     1      19.991  11.017  21.501  1.00  0.00    -0.337 N 
HETATM   12  C5  UNL     1      19.169   9.903  21.042  1.00  0.00     0.179 C 
HETATM   13  C8  UNL     1      19.431  12.196  20.869  1.00  0.00     0.127 C 
HETATM   14  C6  UNL     1      19.103  10.186  19.554  1.00  0.00     0.037 C 
HETATM   15  C7  UNL     1      18.958  11.682  19.521  1.00  0.00     0.022 C 
HETATM   16  O2  UNL     1      21.434   9.818  22.815  1.00  0.00    -0.271 OA
BRANCH  12  17
HETATM   17  C1  UNL     1      17.845   9.869  21.662  1.00  0.00     0.241 C 
HETATM   18  O1  UNL     1      16.823   9.678  20.928  1.00  0.00    -0.271 OA
HETATM   19  N1  UNL     1      17.601  10.038  23.041  1.00  0.00    -0.355 N 
ATOM     20  H1  UNL     1      18.402  10.194  23.655  1.00  0.00     0.162 HD
BRANCH  19  21
HETATM   21  C2  UNL     1      16.287  10.003  23.635  1.00  0.00     0.084 A 
HETATM   22  C3  UNL     1      15.675   8.725  24.070  1.00  0.00     0.027 A 
HETATM   23  C4  UNL     1      16.215   9.644  25.116  1.00  0.00     0.027 A 
ENDBRANCH  19  21
ENDBRANCH  12  17
ENDBRANCH   1  10
BRANCH   8  24
HETATM   24  C15 UNL     1      25.521  11.934  19.261  1.00  0.00     0.086 C 
HETATM   25  C16 UNL     1      26.056  10.519  19.211  1.00  0.00     0.025 C 
HETATM   26  C17 UNL     1      27.022  10.280  20.327  1.00  0.00     0.002 C 
HETATM   27  C18 UNL     1      28.147  11.258  20.381  1.00  0.00     0.000 C 
HETATM   28  C19 UNL     1      27.757  12.685  20.143  1.00  0.00     0.002 C 
HETATM   29  C20 UNL     1      26.723  12.859  19.057  1.00  0.00     0.025 C 
ENDBRANCH   8  24
TORSDOF 4
ENDMDL
MODEL 5
REMARK VINA RESULT: -7.387887801      2.358      8.498
REMARK  4 active torsions:
REMARK  status: ('A' for Active; 'I' for Inactive)
REMARK       I    between atoms: C1_2  and  N1_3 
REMARK    1  A    between atoms: C1_2  and  C5_8 
REMARK    2  A    between atoms: N1_3  and  C2_5 
REMARK       I    between atoms: N2_12  and  C9_13 
REMARK    3  A    between atoms: C9_13  and  C10_15 
REMARK       I    between atoms: N3_19  and  C14_20 
REMARK       I    between atoms: C14_20  and  N4_22 
REMARK    4  A    between atoms: N4_22  and  C15_24 
ROOT
HETATM    1  C10 UNL     1      20.807  10.830  22.858  1.00  0.00     0.181 C 
HETATM    2  C11 UNL     1      21.082   9.629  23.713  1.00  0.00     0.037 C 
HETATM    3  C12 UNL     1      22.574   9.748  23.958  1.00  0.00     0.022 C 
HETATM    4  C13 UNL     1      23.080  10.308  22.639  1.00  0.00     0.129 C 
HETATM    5  N3  UNL     1      22.000  11.100  22.126  1.00  0.00    -0.321 N 
HETATM    6  C14 UNL     1      22.197  12.020  21.053  1.00  0.00     0.319 C 
HETATM    7  O3  UNL     1      21.244  12.715  20.669  1.00  0.00    -0.247 OA
HETATM    8  N4  UNL     1      23.447  12.149  20.431  1.00  0.00    -0.338 N 
ATOM      9  H4  UNL     1      24.206  11.560  20.774  1.00  0.00     0.164 HD
ENDROOT
BRANCH   1  10
HETATM   10  C9  UNL     1      19.598  10.614  22.012  1.00  0.00     0.243 C 
HETATM   11  N2  UNL     1      18.402  11.287  22.456  1.00  0.00    -0.337 N 
HETATM   12  C5  UNL     1      17.096  11.239  21.807  1.00  0.00     0.179 C 
HETATM   13  C8  UNL     1      18.229  12.145  23.611  1.00  0.00     0.127 C 
HETATM   14  C6  UNL     1      16.727  12.710  21.794  1.00  0.00     0.037 C 
HETATM   15  C7  UNL     1      17.216  13.173  23.138  1.00  0.00     0.022 C 
HETATM   16  O2  UNL     1      19.525   9.931  20.991  1.00  0.00    -0.271 OA
BRANCH  12  17
HETATM   17  C1  UNL     1      16.122  10.427  22.533  1.00  0.00     0.241 C 
HETATM   18  O1  UNL     1      16.293   9.168  22.602  1.00  0.00    -0.271 OA
HETATM   19  N1  UNL     1      14.976  10.938  23.180  1.00  0.00    -0.355 N 
ATOM     20  H1  UNL     1      14.811  11.943  23.141  1.00  0.00     0.162 HD
BRANCH  19  21
HETATM   21  C2  UNL     1      14.023  10.120  23.891  1.00  0.00     0.084 A 
HETATM   22  C3  UNL     1      14.132   9.913  25.355  1.00  0.00     0.027 A 
HETATM   23  C4  UNL     1      13.081  10.844  24.848  1.00  0.00     0.027 A 
ENDBRANCH  19  21
ENDBRANCH  12  17
ENDBRANCH   1  10
BRANCH   8  24
HETATM   24  C15 UNL     1      23.742  13.044  19.348  1.00  0.00     0.086 C 
HETATM   25  C16 UNL     1      23.704  12.302  18.029  1.00  0.00     0.025 C 
HETATM   26  C17 UNL     1      24.621  11.121  18.061  1.00  0.00     0.002 C 
HETATM   27  C18 UNL     1      26.028  11.451  18.430  1.00  0.00     0.000 C 
HETATM   28  C19 UNL     1      26.175  12.427  19.556  1.00  0.00     0.002 C 
HETATM   29  C20 UNL     1      25.174  13.557  19.515  1.00  0.00     0.025 C 
ENDBRANCH   8  24
TORSDOF 4
ENDMDL
