MODEL 1
REMARK VINA RESULT: -7.640217395      0.000      0.000
REMARK  6 active torsions:
REMARK  status: ('A' for Active; 'I' for Inactive)
REMARK    1  A    between atoms: C2_2  and  N1_3 
REMARK       I    between atoms: N1_3  and  C3_5 
REMARK       I    between atoms: C3_5  and  N2_7 
REMARK    2  A    between atoms: N2_7  and  C4_9 
REMARK    3  A    between atoms: N3_12  and  C7_13 
REMARK    4  A    between atoms: N4_16  and  C10_17 
REMARK    5  A    between atoms: C10_17  and  O2_18 
REMARK    6  A    between atoms: C10_17  and  N5_20 
ROOT
HETATM    1  C7  UNL     1      19.267  10.652  21.058  1.00  0.00     0.226 C 
HETATM    2  C8  UNL     1      19.089  12.079  21.522  1.00  0.00     0.055 C 
HETATM    3  C9  UNL     1      20.528  12.613  21.701  1.00  0.00     0.128 C 
HETATM    4  N4  UNL     1      21.319  12.321  20.548  1.00  0.00    -0.347 N 
HETATM    5  C15 UNL     1      20.764  11.675  19.362  1.00  0.00     0.128 C 
HETATM    6  C16 UNL     1      19.691  10.690  19.630  1.00  0.00     0.055 C 
ENDROOT
BRANCH   1   7
HETATM    7  N3  UNL     1      18.171   9.798  21.305  1.00  0.00     0.095 N 
HETATM    8  C6  UNL     1      17.537   9.217  20.162  1.00  0.00     0.275 C 
HETATM    9  C5  UNL     1      16.162   8.790  20.645  1.00  0.00     0.057 C 
HETATM   10  C4  UNL     1      15.816   9.913  21.606  1.00  0.00     0.116 C 
HETATM   11  C17 UNL     1      17.145  10.393  22.118  1.00  0.00     0.298 C 
BRANCH  10  12
HETATM   12  N2  UNL     1      15.069   9.304  22.706  1.00  0.00    -0.337 N 
HETATM   13  C3  UNL     1      14.122  10.078  23.393  1.00  0.00     0.316 C 
HETATM   14  N1  UNL     1      13.396   9.495  24.463  1.00  0.00    -0.343 N 
HETATM   15  O1  UNL     1      13.926  11.288  23.050  1.00  0.00    -0.247 OA
ATOM     16  H1  UNL     1      13.563   8.527  24.735  1.00  0.00     0.164 HD
ATOM     17  H2  UNL     1      15.234   8.332  22.969  1.00  0.00     0.164 HD
BRANCH  14  18
HETATM   18  C2  UNL     1      12.418  10.294  25.158  1.00  0.00     0.120 C 
HETATM   19  C1  UNL     1      12.967  10.693  26.499  1.00  0.00     0.026 C 
ENDBRANCH  14  18
ENDBRANCH  10  12
ENDBRANCH   1   7
BRANCH   4  20
HETATM   20  C10 UNL     1      22.688  12.650  20.516  1.00  0.00     0.217 C 
BRANCH  20  21
HETATM   21  O2  UNL     1      23.003  13.762  21.132  1.00  0.00    -0.333 OA
ATOM     22  H2  UNL     1      23.322  13.651  22.020  1.00  0.00     0.220 HD
ENDBRANCH  20  21
BRANCH  20  23
HETATM   23  N5  UNL     1      23.757  11.964  19.923  1.00  0.00    -0.348 N 
HETATM   24  C11 UNL     1      24.550  12.573  18.814  1.00  0.00     0.126 C 
HETATM   25  C12 UNL     1      24.398  11.449  17.790  1.00  0.00     0.021 C 
HETATM   26  C13 UNL     1      24.286  10.178  18.619  1.00  0.00     0.021 C 
HETATM   27  C14 UNL     1      24.406  10.699  20.070  1.00  0.00     0.126 C 
ENDBRANCH  20  23
ENDBRANCH   4  20
TORSDOF 6
ENDMDL
MODEL 2
REMARK VINA RESULT: -7.405485821      2.688      9.650
REMARK  6 active torsions:
REMARK  status: ('A' for Active; 'I' for Inactive)
REMARK    1  A    between atoms: C2_2  and  N1_3 
REMARK       I    between atoms: N1_3  and  C3_5 
REMARK       I    between atoms: C3_5  and  N2_7 
REMARK    2  A    between atoms: N2_7  and  C4_9 
REMARK    3  A    between atoms: N3_12  and  C7_13 
REMARK    4  A    between atoms: N4_16  and  C10_17 
REMARK    5  A    between atoms: C10_17  and  O2_18 
REMARK    6  A    between atoms: C10_17  and  N5_20 
ROOT
HETATM    1  C7  UNL     1      21.113  11.024  20.107  1.00  0.00     0.226 C 
HETATM    2  C8  UNL     1      19.760  10.672  19.532  1.00  0.00     0.055 C 
HETATM    3  C9  UNL     1      18.990  10.039  20.712  1.00  0.00     0.128 C 
HETATM    4  N4  UNL     1      19.090  10.859  21.877  1.00  0.00    -0.347 N 
HETATM    5  C15 UNL     1      19.774  12.149  21.868  1.00  0.00     0.128 C 
HETATM    6  C16 UNL     1      20.942  12.232  20.962  1.00  0.00     0.055 C 
ENDROOT
BRANCH   1   7
HETATM    7  N3  UNL     1      22.156  11.137  19.162  1.00  0.00     0.095 N 
HETATM    8  C6  UNL     1      23.149  10.107  19.174  1.00  0.00     0.275 C 
HETATM    9  C5  UNL     1      24.350  10.705  18.463  1.00  0.00     0.057 C 
HETATM   10  C4  UNL     1      24.296  12.146  18.937  1.00  0.00     0.116 C 
HETATM   11  C17 UNL     1      22.838  12.401  19.200  1.00  0.00     0.298 C 
BRANCH  10  12
HETATM   12  N2  UNL     1      24.732  12.971  17.811  1.00  0.00    -0.337 N 
HETATM   13  C3  UNL     1      25.727  13.936  18.023  1.00  0.00     0.316 C 
HETATM   14  N1  UNL     1      26.154  14.742  16.937  1.00  0.00    -0.343 N 
HETATM   15  O1  UNL     1      26.235  14.077  19.182  1.00  0.00    -0.247 OA
ATOM     16  H1  UNL     1      25.738  14.627  16.013  1.00  0.00     0.164 HD
ATOM     17  H2  UNL     1      24.319  12.847  16.887  1.00  0.00     0.164 HD
BRANCH  14  18
HETATM   18  C2  UNL     1      27.184  15.726  17.160  1.00  0.00     0.120 C 
HETATM   19  C1  UNL     1      27.342  16.567  15.925  1.00  0.00     0.026 C 
ENDBRANCH  14  18
ENDBRANCH  10  12
ENDBRANCH   1   7
BRANCH   4  20
HETATM   20  C10 UNL     1      18.524  10.442  23.098  1.00  0.00     0.217 C 
BRANCH  20  21
HETATM   21  O2  UNL     1      19.388  10.186  24.048  1.00  0.00    -0.333 OA
ATOM     22  H2  UNL     1      20.160   9.707  23.768  1.00  0.00     0.220 HD
ENDBRANCH  20  21
BRANCH  20  23
HETATM   23  N5  UNL     1      17.176  10.263  23.441  1.00  0.00    -0.348 N 
HETATM   24  C11 UNL     1      16.652  10.690  24.773  1.00  0.00     0.126 C 
HETATM   25  C12 UNL     1      16.035   9.359  25.202  1.00  0.00     0.021 C 
HETATM   26  C13 UNL     1      15.600   8.692  23.906  1.00  0.00     0.021 C 
HETATM   27  C14 UNL     1      15.998   9.731  22.832  1.00  0.00     0.126 C 
ENDBRANCH  20  23
ENDBRANCH   4  20
TORSDOF 6
ENDMDL
MODEL 3
REMARK VINA RESULT: -7.311226038      2.547      9.591
REMARK  6 active torsions:
REMARK  status: ('A' for Active; 'I' for Inactive)
REMARK    1  A    between atoms: C2_2  and  N1_3 
REMARK       I    between atoms: N1_3  and  C3_5 
REMARK       I    between atoms: C3_5  and  N2_7 
REMARK    2  A    between atoms: N2_7  and  C4_9 
REMARK    3  A    between atoms: N3_12  and  C7_13 
REMARK    4  A    between atoms: N4_16  and  C10_17 
REMARK    5  A    between atoms: C10_17  and  O2_18 
REMARK    6  A    between atoms: C10_17  and  N5_20 
ROOT
HETATM    1  C7  UNL     1      21.037  11.070  20.054  1.00  0.00     0.226 C 
HETATM    2  C8  UNL     1      19.680  10.904  19.409  1.00  0.00     0.055 C 
HETATM    3  C9  UNL     1      18.790  10.310  20.524  1.00  0.00     0.128 C 
HETATM    4  N4  UNL     1      18.930  11.059  21.732  1.00  0.00    -0.347 N 
HETATM    5  C15 UNL     1      19.755  12.261  21.816  1.00  0.00     0.128 C 
HETATM    6  C16 UNL     1      20.965  12.250  20.962  1.00  0.00     0.055 C 
ENDROOT
BRANCH   1   7
HETATM    7  N3  UNL     1      22.127  11.105  19.159  1.00  0.00     0.095 N 
HETATM    8  C6  UNL     1      23.097  10.061  19.285  1.00  0.00     0.275 C 
HETATM    9  C5  UNL     1      24.344  10.592  18.600  1.00  0.00     0.057 C 
HETATM   10  C4  UNL     1      24.295  12.061  18.980  1.00  0.00     0.116 C 
HETATM   11  C17 UNL     1      22.832  12.358  19.152  1.00  0.00     0.298 C 
BRANCH  10  12
HETATM   12  N2  UNL     1      24.804  12.805  17.828  1.00  0.00    -0.337 N 
HETATM   13  C3  UNL     1      25.667  13.889  18.048  1.00  0.00     0.316 C 
HETATM   14  N1  UNL     1      26.162  14.617  16.937  1.00  0.00    -0.343 N 
HETATM   15  O1  UNL     1      25.996  14.204  19.237  1.00  0.00    -0.247 OA
ATOM     16  H1  UNL     1      25.890  14.363  15.988  1.00  0.00     0.164 HD
ATOM     17  H2  UNL     1      24.535  12.541  16.881  1.00  0.00     0.164 HD
BRANCH  14  18
HETATM   18  C2  UNL     1      27.057  15.724  17.171  1.00  0.00     0.120 C 
HETATM   19  C1  UNL     1      27.380  16.385  15.861  1.00  0.00     0.026 C 
ENDBRANCH  14  18
ENDBRANCH  10  12
ENDBRANCH   1   7
BRANCH   4  20
HETATM   20  C10 UNL     1      18.265  10.656  22.907  1.00  0.00     0.217 C 
BRANCH  20  21
HETATM   21  O2  UNL     1      19.047  10.208  23.857  1.00  0.00    -0.333 OA
ATOM     22  H2  UNL     1      18.663  10.212  24.726  1.00  0.00     0.220 HD
ENDBRANCH  20  21
BRANCH  20  23
HETATM   23  N5  UNL     1      16.895  10.663  23.203  1.00  0.00    -0.348 N 
HETATM   24  C11 UNL     1      16.084   9.410  23.152  1.00  0.00     0.126 C 
HETATM   25  C12 UNL     1      14.992   9.894  22.198  1.00  0.00     0.021 C 
HETATM   26  C13 UNL     1      14.868  11.386  22.469  1.00  0.00     0.021 C 
HETATM   27  C14 UNL     1      15.908  11.621  23.590  1.00  0.00     0.126 C 
ENDBRANCH  20  23
ENDBRANCH   4  20
TORSDOF 6
ENDMDL
MODEL 4
REMARK VINA RESULT: -7.249956762      2.193      9.259
REMARK  6 active torsions:
REMARK  status: ('A' for Active; 'I' for Inactive)
REMARK    1  A    between atoms: C2_2  and  N1_3 
REMARK       I    between atoms: N1_3  and  C3_5 
REMARK       I    between atoms: C3_5  and  N2_7 
REMARK    2  A    between atoms: N2_7  and  C4_9 
REMARK    3  A    between atoms: N3_12  and  C7_13 
REMARK    4  A    between atoms: N4_16  and  C10_17 
REMARK    5  A    between atoms: C10_17  and  O2_18 
REMARK    6  A    between atoms: C10_17  and  N5_20 
ROOT
HETATM    1  C7  UNL     1      19.340  10.694  21.015  1.00  0.00     0.226 C 
HETATM    2  C8  UNL     1      18.780  10.203  19.700  1.00  0.00     0.055 C 
HETATM    3  C9  UNL     1      17.683   9.191  20.099  1.00  0.00     0.128 C 
HETATM    4  N4  UNL     1      16.820   9.748  21.091  1.00  0.00    -0.347 N 
HETATM    5  C15 UNL     1      16.957  11.123  21.564  1.00  0.00     0.128 C 
HETATM    6  C16 UNL     1      18.347  11.633  21.609  1.00  0.00     0.055 C 
ENDROOT
BRANCH   1   7
HETATM    7  N3  UNL     1      20.651  11.215  20.953  1.00  0.00     0.095 N 
HETATM    8  C6  UNL     1      20.948  12.079  19.853  1.00  0.00     0.275 C 
HETATM    9  C5  UNL     1      22.463  12.079  19.746  1.00  0.00     0.057 C 
HETATM   10  C4  UNL     1      22.791  10.638  20.096  1.00  0.00     0.116 C 
HETATM   11  C17 UNL     1      21.677  10.210  21.010  1.00  0.00     0.298 C 
BRANCH  10  12
HETATM   12  N2  UNL     1      24.044  10.669  20.850  1.00  0.00    -0.337 N 
HETATM   13  C3  UNL     1      25.254  10.495  20.161  1.00  0.00     0.316 C 
HETATM   14  N1  UNL     1      26.473  10.520  20.884  1.00  0.00    -0.343 N 
HETATM   15  O1  UNL     1      25.244  10.318  18.900  1.00  0.00    -0.247 OA
ATOM     16  H1  UNL     1      26.473  10.656  21.895  1.00  0.00     0.164 HD
ATOM     17  H2  UNL     1      24.039  10.814  21.859  1.00  0.00     0.164 HD
BRANCH  14  18
HETATM   18  C2  UNL     1      27.713  10.350  20.168  1.00  0.00     0.120 C 
HETATM   19  C1  UNL     1      28.709   9.663  21.058  1.00  0.00     0.026 C 
ENDBRANCH  14  18
ENDBRANCH  10  12
ENDBRANCH   1   7
BRANCH   4  20
HETATM   20  C10 UNL     1      15.787   8.976  21.658  1.00  0.00     0.217 C 
BRANCH  20  21
HETATM   21  O2  UNL     1      15.197   8.150  20.831  1.00  0.00    -0.333 OA
ATOM     22  H2  UNL     1      15.389   7.231  20.977  1.00  0.00     0.220 HD
ENDBRANCH  20  21
BRANCH  20  23
HETATM   23  N5  UNL     1      15.302   8.964  22.974  1.00  0.00    -0.348 N 
HETATM   24  C11 UNL     1      14.179   9.854  23.394  1.00  0.00     0.126 C 
HETATM   25  C12 UNL     1      14.866  10.533  24.578  1.00  0.00     0.021 C 
HETATM   26  C13 UNL     1      15.830   9.489  25.122  1.00  0.00     0.021 C 
HETATM   27  C14 UNL     1      15.587   8.276  24.193  1.00  0.00     0.126 C 
ENDBRANCH  20  23
ENDBRANCH   4  20
TORSDOF 6
ENDMDL
MODEL 5
REMARK VINA RESULT: -7.198923680      2.511      9.571
REMARK  6 active torsions:
REMARK  status: ('A' for Active; 'I' for Inactive)
REMARK    1  A    between atoms: C2_2  and  N1_3 
REMARK       I    between atoms: N1_3  and  C3_5 
REMARK       I    between atoms: C3_5  and  N2_7 
REMARK    2  A    between atoms: N2_7  and  C4_9 
REMARK    3  A    between atoms: N3_12  and  C7_13 
REMARK    4  A    between atoms: N4_16  and  C10_17 
REMARK    5  A    between atoms: C10_17  and  O2_18 
REMARK    6  A    between atoms: C10_17  and  N5_20 
ROOT
HETATM    1  C7  UNL     1      21.228  11.047  20.326  1.00  0.00     0.226 C 
HETATM    2  C8  UNL     1      20.737  12.376  20.854  1.00  0.00     0.055 C 
HETATM    3  C9  UNL     1      19.330  12.075  21.415  1.00  0.00     0.128 C 
HETATM    4  N4  UNL     1      19.360  10.926  22.263  1.00  0.00    -0.347 N 
HETATM    5  C15 UNL     1      20.599  10.223  22.582  1.00  0.00     0.128 C 
HETATM    6  C16 UNL     1      21.607  10.206  21.497  1.00  0.00     0.055 C 
ENDROOT
BRANCH   1   7
HETATM    7  N3  UNL     1      22.229  11.128  19.334  1.00  0.00     0.095 N 
HETATM    8  C6  UNL     1      23.189  10.069  19.302  1.00  0.00     0.275 C 
HETATM    9  C5  UNL     1      24.373  10.630  18.534  1.00  0.00     0.057 C 
HETATM   10  C4  UNL     1      24.385  12.072  19.007  1.00  0.00     0.116 C 
HETATM   11  C17 UNL     1      22.949  12.371  19.337  1.00  0.00     0.298 C 
BRANCH  10  12
HETATM   12  N2  UNL     1      24.792  12.883  17.859  1.00  0.00    -0.337 N 
HETATM   13  C3  UNL     1      25.731  13.907  18.052  1.00  0.00     0.316 C 
HETATM   14  N1  UNL     1      26.129  14.699  16.945  1.00  0.00    -0.343 N 
HETATM   15  O1  UNL     1      26.213  14.113  19.212  1.00  0.00    -0.247 OA
ATOM     16  H1  UNL     1      25.734  14.532  16.020  1.00  0.00     0.164 HD
ATOM     17  H2  UNL     1      24.400  12.706  16.935  1.00  0.00     0.164 HD
BRANCH  14  18
HETATM   18  C2  UNL     1      27.101  15.744  17.149  1.00  0.00     0.120 C 
HETATM   19  C1  UNL     1      27.263  16.526  15.876  1.00  0.00     0.026 C 
ENDBRANCH  14  18
ENDBRANCH  10  12
ENDBRANCH   1   7
BRANCH   4  20
HETATM   20  C10 UNL     1      18.173  10.421  22.829  1.00  0.00     0.217 C 
BRANCH  20  21
HETATM   21  O2  UNL     1      18.255  10.117  24.100  1.00  0.00    -0.333 OA
ATOM     22  H2  UNL     1      18.333   9.188  24.285  1.00  0.00     0.220 HD
ENDBRANCH  20  21
BRANCH  20  23
HETATM   23  N5  UNL     1      16.924  10.199  22.232  1.00  0.00    -0.348 N 
HETATM   24  C11 UNL     1      15.712  10.958  22.663  1.00  0.00     0.126 C 
HETATM   25  C12 UNL     1      14.804   9.768  22.969  1.00  0.00     0.021 C 
HETATM   26  C13 UNL     1      15.250   8.677  22.006  1.00  0.00     0.021 C 
HETATM   27  C14 UNL     1      16.383   9.363  21.207  1.00  0.00     0.126 C 
ENDBRANCH  20  23
ENDBRANCH   4  20
TORSDOF 6
ENDMDL
