MODEL 1
REMARK VINA RESULT: -7.271462827      0.000      0.000
REMARK  7 active torsions:
REMARK  status: ('A' for Active; 'I' for Inactive)
REMARK       I    between atoms: C1_2  and  N1_3 
REMARK    1  A    between atoms: C1_2  and  C9_12 
REMARK    2  A    between atoms: N1_3  and  C2_5 
REMARK    3  A    between atoms: C2_5  and  C3_6 
REMARK       I    between atoms: C9_12  and  N2_14 
REMARK    4  A    between atoms: N2_14  and  C10_16 
REMARK    5  A    between atoms: N3_20  and  C14_21 
REMARK    6  A    between atoms: C14_21  and  O3_22 
REMARK    7  A    between atoms: C14_21  and  N4_24 
ROOT
HETATM    1  C9  UNL     1      19.737  10.749  23.742  1.00  0.00     0.310 C 
HETATM    2  O2  UNL     1      19.566  11.987  23.794  1.00  0.00    -0.262 OA
HETATM    3  N2  UNL     1      18.611   9.888  23.745  1.00  0.00    -0.332 N 
ATOM      4  H2  UNL     1      18.745   8.878  23.702  1.00  0.00     0.165 HD
ENDROOT
BRANCH   3   5
HETATM    5  C10 UNL     1      17.277  10.431  23.808  1.00  0.00     0.190 C 
HETATM    6  C11 UNL     1      16.665  10.144  25.145  1.00  0.00     0.049 C 
HETATM    7  C12 UNL     1      15.678   9.043  24.828  1.00  0.00     0.024 C 
HETATM    8  C13 UNL     1      15.158   9.562  23.466  1.00  0.00     0.129 C 
HETATM    9  N3  UNL     1      16.380   9.846  22.802  1.00  0.00    -0.326 N 
BRANCH   9  10
HETATM   10  C14 UNL     1      16.752   9.650  21.467  1.00  0.00     0.218 C 
BRANCH  10  11
HETATM   11  O3  UNL     1      16.017   8.860  20.736  1.00  0.00    -0.332 OA
ATOM     12  H3  UNL     1      16.373   8.556  19.909  1.00  0.00     0.220 HD
ENDBRANCH  10  11
BRANCH  10  13
HETATM   13  N4  UNL     1      17.852  10.204  20.770  1.00  0.00    -0.347 N 
HETATM   14  C15 UNL     1      18.965   9.532  20.152  1.00  0.00     0.126 C 
HETATM   15  C16 UNL     1      19.710  10.614  19.358  1.00  0.00     0.021 C 
HETATM   16  C17 UNL     1      19.459  11.805  20.288  1.00  0.00     0.021 C 
HETATM   17  C18 UNL     1      18.003  11.654  20.570  1.00  0.00     0.126 C 
ENDBRANCH  10  13
ENDBRANCH   9  10
ENDBRANCH   3   5
BRANCH   1  18
HETATM   18  C1  UNL     1      21.103  10.244  23.679  1.00  0.00     0.309 C 
HETATM   19  O1  UNL     1      21.592   9.771  24.740  1.00  0.00    -0.262 OA
HETATM   20  N1  UNL     1      21.873  10.271  22.488  1.00  0.00    -0.353 N 
ATOM     21  H1  UNL     1      21.473  10.655  21.631  1.00  0.00     0.162 HD
BRANCH  20  22
HETATM   22  C2  UNL     1      23.212   9.759  22.486  1.00  0.00     0.127 C 
BRANCH  22  23
HETATM   23  C3  UNL     1      23.936  10.035  21.185  1.00  0.00     0.003 C 
HETATM   24  C4  UNL     1      23.128   9.403  20.075  1.00  0.00     0.006 C 
HETATM   25  C5  UNL     1      23.527   9.884  18.715  1.00  0.00     0.000 C 
HETATM   26  C6  UNL     1      23.781  11.351  18.626  1.00  0.00     0.000 C 
HETATM   27  C7  UNL     1      23.203  12.005  19.868  1.00  0.00     0.000 C 
HETATM   28  C8  UNL     1      24.055  11.522  21.037  1.00  0.00     0.006 C 
ENDBRANCH  22  23
ENDBRANCH  20  22
ENDBRANCH   1  18
TORSDOF 7
ENDMDL
MODEL 2
REMARK VINA RESULT: -7.127291951      1.421      1.944
REMARK  7 active torsions:
REMARK  status: ('A' for Active; 'I' for Inactive)
REMARK       I    between atoms: C1_2  and  N1_3 
REMARK    1  A    between atoms: C1_2  and  C9_12 
REMARK    2  A    between atoms: N1_3  and  C2_5 
REMARK    3  A    between atoms: C2_5  and  C3_6 
REMARK       I    between atoms: C9_12  and  N2_14 
REMARK    4  A    between atoms: N2_14  and  C10_16 
REMARK    5  A    between atoms: N3_20  and  C14_21 
REMARK    6  A    between atoms: C14_21  and  O3_22 
REMARK    7  A    between atoms: C14_21  and  N4_24 
ROOT
HETATM    1  C9  UNL     1      20.368  11.110  23.215  1.00  0.00     0.310 C 
HETATM    2  O2  UNL     1      20.219  12.312  22.905  1.00  0.00    -0.262 OA
HETATM    3  N2  UNL     1      19.295  10.404  23.815  1.00  0.00    -0.332 N 
ATOM      4  H2  UNL     1      19.412   9.424  24.069  1.00  0.00     0.165 HD
ENDROOT
BRANCH   3   5
HETATM    5  C10 UNL     1      18.039  11.064  24.069  1.00  0.00     0.190 C 
HETATM    6  C11 UNL     1      17.529  10.700  25.430  1.00  0.00     0.049 C 
HETATM    7  C12 UNL     1      16.404   9.739  25.114  1.00  0.00     0.024 C 
HETATM    8  C13 UNL     1      15.816  10.446  23.869  1.00  0.00     0.129 C 
HETATM    9  N3  UNL     1      16.993  10.679  23.112  1.00  0.00    -0.326 N 
BRANCH   9  10
HETATM   10  C14 UNL     1      17.215  10.588  21.732  1.00  0.00     0.218 C 
BRANCH  10  11
HETATM   11  O3  UNL     1      17.733  11.618  21.126  1.00  0.00    -0.332 OA
ATOM     12  H3  UNL     1      17.343  11.896  20.305  1.00  0.00     0.220 HD
ENDBRANCH  10  11
BRANCH  10  13
HETATM   13  N4  UNL     1      16.947   9.499  20.869  1.00  0.00    -0.347 N 
HETATM   14  C15 UNL     1      17.799   8.899  19.875  1.00  0.00     0.126 C 
HETATM   15  C16 UNL     1      17.070   7.628  19.421  1.00  0.00     0.021 C 
HETATM   16  C17 UNL     1      15.626   8.124  19.548  1.00  0.00     0.021 C 
HETATM   17  C18 UNL     1      15.661   8.783  20.885  1.00  0.00     0.126 C 
ENDBRANCH  10  13
ENDBRANCH   9  10
ENDBRANCH   3   5
BRANCH   1  18
HETATM   18  C1  UNL     1      21.655  10.483  22.941  1.00  0.00     0.309 C 
HETATM   19  O1  UNL     1      22.206   9.857  23.887  1.00  0.00    -0.262 OA
HETATM   20  N1  UNL     1      22.285  10.556  21.672  1.00  0.00    -0.353 N 
ATOM     21  H1  UNL     1      21.836  11.063  20.908  1.00  0.00     0.162 HD
BRANCH  20  22
HETATM   22  C2  UNL     1      23.552   9.918  21.460  1.00  0.00     0.127 C 
BRANCH  22  23
HETATM   23  C3  UNL     1      24.358  10.581  20.363  1.00  0.00     0.003 C 
HETATM   24  C4  UNL     1      23.882  10.014  19.046  1.00  0.00     0.006 C 
HETATM   25  C5  UNL     1      24.334  10.816  17.866  1.00  0.00     0.000 C 
HETATM   26  C6  UNL     1      24.240  12.293  18.048  1.00  0.00     0.000 C 
HETATM   27  C7  UNL     1      23.361  12.564  19.255  1.00  0.00     0.000 C 
HETATM   28  C8  UNL     1      24.137  12.060  20.467  1.00  0.00     0.006 C 
ENDBRANCH  22  23
ENDBRANCH  20  22
ENDBRANCH   1  18
TORSDOF 7
ENDMDL
MODEL 3
REMARK VINA RESULT: -7.032420084      4.086      8.445
REMARK  7 active torsions:
REMARK  status: ('A' for Active; 'I' for Inactive)
REMARK       I    between atoms: C1_2  and  N1_3 
REMARK    1  A    between atoms: C1_2  and  C9_12 
REMARK    2  A    between atoms: N1_3  and  C2_5 
REMARK    3  A    between atoms: C2_5  and  C3_6 
REMARK       I    between atoms: C9_12  and  N2_14 
REMARK    4  A    between atoms: N2_14  and  C10_16 
REMARK    5  A    between atoms: N3_20  and  C14_21 
REMARK    6  A    between atoms: C14_21  and  O3_22 
REMARK    7  A    between atoms: C14_21  and  N4_24 
ROOT
HETATM    1  C9  UNL     1      24.953  10.643  20.584  1.00  0.00     0.310 C 
HETATM    2  O2  UNL     1      24.882  10.272  19.392  1.00  0.00    -0.262 OA
HETATM    3  N2  UNL     1      26.224  10.862  21.172  1.00  0.00    -0.332 N 
ATOM      4  H2  UNL     1      26.288  11.166  22.143  1.00  0.00     0.165 HD
ENDROOT
BRANCH   3   5
HETATM    5  C10 UNL     1      27.429  10.657  20.407  1.00  0.00     0.190 C 
HETATM    6  C11 UNL     1      28.235   9.542  21.000  1.00  0.00     0.049 C 
HETATM    7  C12 UNL     1      29.370  10.279  21.675  1.00  0.00     0.024 C 
HETATM    8  C13 UNL     1      29.620  11.376  20.612  1.00  0.00     0.129 C 
HETATM    9  N3  UNL     1      28.297  11.841  20.391  1.00  0.00    -0.326 N 
BRANCH   9  10
HETATM   10  C14 UNL     1      27.817  13.140  20.186  1.00  0.00     0.218 C 
BRANCH  10  11
HETATM   11  O3  UNL     1      28.532  14.135  20.629  1.00  0.00    -0.332 OA
ATOM     12  H3  UNL     1      29.012  14.015  21.440  1.00  0.00     0.220 HD
ENDBRANCH  10  11
BRANCH  10  13
HETATM   13  N4  UNL     1      26.622  13.544  19.543  1.00  0.00    -0.347 N 
HETATM   14  C15 UNL     1      26.192  13.298  18.191  1.00  0.00     0.126 C 
HETATM   15  C16 UNL     1      24.733  13.770  18.131  1.00  0.00     0.021 C 
HETATM   16  C17 UNL     1      24.823  14.942  19.113  1.00  0.00     0.021 C 
HETATM   17  C18 UNL     1      25.585  14.325  20.236  1.00  0.00     0.126 C 
ENDBRANCH  10  13
ENDBRANCH   9  10
ENDBRANCH   3   5
BRANCH   1  18
HETATM   18  C1  UNL     1      23.711  10.838  21.321  1.00  0.00     0.309 C 
HETATM   19  O1  UNL     1      23.375   9.935  22.134  1.00  0.00    -0.262 OA
HETATM   20  N1  UNL     1      22.894  11.985  21.150  1.00  0.00    -0.353 N 
ATOM     21  H1  UNL     1      23.169  12.714  20.490  1.00  0.00     0.162 HD
BRANCH  20  22
HETATM   22  C2  UNL     1      21.681  12.122  21.903  1.00  0.00     0.127 C 
BRANCH  22  23
HETATM   23  C3  UNL     1      20.469  12.321  21.018  1.00  0.00     0.003 C 
HETATM   24  C4  UNL     1      20.526  11.275  19.929  1.00  0.00     0.006 C 
HETATM   25  C5  UNL     1      19.232  11.125  19.193  1.00  0.00     0.000 C 
HETATM   26  C6  UNL     1      18.020  11.141  20.063  1.00  0.00     0.000 C 
HETATM   27  C7  UNL     1      18.467  10.937  21.498  1.00  0.00     0.000 C 
HETATM   28  C8  UNL     1      19.250  12.188  21.880  1.00  0.00     0.006 C 
ENDBRANCH  22  23
ENDBRANCH  20  22
ENDBRANCH   1  18
TORSDOF 7
ENDMDL
MODEL 4
REMARK VINA RESULT: -7.005505251      1.948      7.235
REMARK  7 active torsions:
REMARK  status: ('A' for Active; 'I' for Inactive)
REMARK       I    between atoms: C1_2  and  N1_3 
REMARK    1  A    between atoms: C1_2  and  C9_12 
REMARK    2  A    between atoms: N1_3  and  C2_5 
REMARK    3  A    between atoms: C2_5  and  C3_6 
REMARK       I    between atoms: C9_12  and  N2_14 
REMARK    4  A    between atoms: N2_14  and  C10_16 
REMARK    5  A    between atoms: N3_20  and  C14_21 
REMARK    6  A    between atoms: C14_21  and  O3_22 
REMARK    7  A    between atoms: C14_21  and  N4_24 
ROOT
HETATM    1  C9  UNL     1      19.163  10.211  20.257  1.00  0.00     0.310 C 
HETATM    2  O2  UNL     1      19.233  11.289  19.627  1.00  0.00    -0.262 OA
HETATM    3  N2  UNL     1      20.317   9.706  20.908  1.00  0.00    -0.332 N 
ATOM      4  H2  UNL     1      20.265   8.828  21.424  1.00  0.00     0.165 HD
ENDROOT
BRANCH   3   5
HETATM    5  C10 UNL     1      21.564  10.427  20.846  1.00  0.00     0.190 C 
HETATM    6  C11 UNL     1      22.354   9.990  19.651  1.00  0.00     0.049 C 
HETATM    7  C12 UNL     1      23.440   9.135  20.266  1.00  0.00     0.024 C 
HETATM    8  C13 UNL     1      23.730   9.976  21.533  1.00  0.00     0.129 C 
HETATM    9  N3  UNL     1      22.414  10.188  22.021  1.00  0.00    -0.326 N 
BRANCH   9  10
HETATM   10  C14 UNL     1      21.926  10.192  23.333  1.00  0.00     0.218 C 
BRANCH  10  11
HETATM   11  O3  UNL     1      21.284   9.138  23.751  1.00  0.00    -0.332 OA
ATOM     12  H3  UNL     1      21.183   9.019  24.688  1.00  0.00     0.220 HD
ENDBRANCH  10  11
BRANCH  10  13
HETATM   13  N4  UNL     1      22.031  11.214  24.307  1.00  0.00    -0.347 N 
HETATM   14  C15 UNL     1      23.131  12.104  24.572  1.00  0.00     0.126 C 
HETATM   15  C16 UNL     1      22.594  13.136  25.572  1.00  0.00     0.021 C 
HETATM   16  C17 UNL     1      21.633  12.233  26.352  1.00  0.00     0.021 C 
HETATM   17  C18 UNL     1      20.937  11.521  25.243  1.00  0.00     0.126 C 
ENDBRANCH  10  13
ENDBRANCH   9  10
ENDBRANCH   3   5
BRANCH   1  18
HETATM   18  C1  UNL     1      17.883   9.515  20.294  1.00  0.00     0.309 C 
HETATM   19  O1  UNL     1      17.609   8.759  19.323  1.00  0.00    -0.262 OA
HETATM   20  N1  UNL     1      16.963   9.664  21.364  1.00  0.00    -0.353 N 
ATOM     21  H1  UNL     1      17.188  10.277  22.148  1.00  0.00     0.162 HD
BRANCH  20  22
HETATM   22  C2  UNL     1      15.718   8.954  21.345  1.00  0.00     0.127 C 
BRANCH  22  23
HETATM   23  C3  UNL     1      14.873   9.235  22.570  1.00  0.00     0.003 C 
HETATM   24  C4  UNL     1      15.673   8.811  23.779  1.00  0.00     0.006 C 
HETATM   25  C5  UNL     1      15.118   9.343  25.064  1.00  0.00     0.000 C 
HETATM   26  C6  UNL     1      14.671  10.765  25.003  1.00  0.00     0.000 C 
HETATM   27  C7  UNL     1      15.247  11.387  23.745  1.00  0.00     0.000 C 
HETATM   28  C8  UNL     1      14.552  10.699  22.575  1.00  0.00     0.006 C 
ENDBRANCH  22  23
ENDBRANCH  20  22
ENDBRANCH   1  18
TORSDOF 7
ENDMDL
MODEL 5
REMARK VINA RESULT: -6.965107892      1.622      6.993
REMARK  7 active torsions:
REMARK  status: ('A' for Active; 'I' for Inactive)
REMARK       I    between atoms: C1_2  and  N1_3 
REMARK    1  A    between atoms: C1_2  and  C9_12 
REMARK    2  A    between atoms: N1_3  and  C2_5 
REMARK    3  A    between atoms: C2_5  and  C3_6 
REMARK       I    between atoms: C9_12  and  N2_14 
REMARK    4  A    between atoms: N2_14  and  C10_16 
REMARK    5  A    between atoms: N3_20  and  C14_21 
REMARK    6  A    between atoms: C14_21  and  O3_22 
REMARK    7  A    between atoms: C14_21  and  N4_24 
ROOT
HETATM    1  C9  UNL     1      19.178  10.363  20.305  1.00  0.00     0.310 C 
HETATM    2  O2  UNL     1      19.184  11.603  20.141  1.00  0.00    -0.262 OA
HETATM    3  N2  UNL     1      20.406   9.676  20.479  1.00  0.00    -0.332 N 
ATOM      4  H2  UNL     1      20.406   8.665  20.614  1.00  0.00     0.165 HD
ENDROOT
BRANCH   3   5
HETATM    5  C10 UNL     1      21.655  10.396  20.467  1.00  0.00     0.190 C 
HETATM    6  C11 UNL     1      22.523   9.907  19.349  1.00  0.00     0.049 C 
HETATM    7  C12 UNL     1      23.564   9.085  20.075  1.00  0.00     0.024 C 
HETATM    8  C13 UNL     1      23.769   9.985  21.317  1.00  0.00     0.129 C 
HETATM    9  N3  UNL     1      22.423  10.216  21.706  1.00  0.00    -0.326 N 
BRANCH   9  10
HETATM   10  C14 UNL     1      21.848  10.280  22.980  1.00  0.00     0.218 C 
BRANCH  10  11
HETATM   11  O3  UNL     1      22.311   9.485  23.903  1.00  0.00    -0.332 OA
ATOM     12  H3  UNL     1      22.784   9.871  24.630  1.00  0.00     0.220 HD
ENDBRANCH  10  11
BRANCH  10  13
HETATM   13  N4  UNL     1      20.796  11.114  23.429  1.00  0.00    -0.347 N 
HETATM   14  C15 UNL     1      19.499  10.746  23.934  1.00  0.00     0.126 C 
HETATM   15  C16 UNL     1      18.884  12.043  24.475  1.00  0.00     0.021 C 
HETATM   16  C17 UNL     1      19.489  13.029  23.471  1.00  0.00     0.021 C 
HETATM   17  C18 UNL     1      20.910  12.582  23.443  1.00  0.00     0.126 C 
ENDBRANCH  10  13
ENDBRANCH   9  10
ENDBRANCH   3   5
BRANCH   1  18
HETATM   18  C1  UNL     1      17.893   9.675  20.310  1.00  0.00     0.309 C 
HETATM   19  O1  UNL     1      17.611   8.973  19.301  1.00  0.00    -0.262 OA
HETATM   20  N1  UNL     1      16.979   9.772  21.390  1.00  0.00    -0.353 N 
ATOM     21  H1  UNL     1      17.211  10.341  22.205  1.00  0.00     0.162 HD
BRANCH  20  22
HETATM   22  C2  UNL     1      15.729   9.071  21.339  1.00  0.00     0.127 C 
BRANCH  22  23
HETATM   23  C3  UNL     1      14.889   9.296  22.578  1.00  0.00     0.003 C 
HETATM   24  C4  UNL     1      15.706   8.850  23.768  1.00  0.00     0.006 C 
HETATM   25  C5  UNL     1      15.151   9.330  25.073  1.00  0.00     0.000 C 
HETATM   26  C6  UNL     1      14.676  10.743  25.061  1.00  0.00     0.000 C 
HETATM   27  C7  UNL     1      15.231  11.417  23.819  1.00  0.00     0.000 C 
HETATM   28  C8  UNL     1      14.540  10.753  22.633  1.00  0.00     0.006 C 
ENDBRANCH  22  23
ENDBRANCH  20  22
ENDBRANCH   1  18
TORSDOF 7
ENDMDL
