MODEL 1
REMARK VINA RESULT: -7.674951670      0.000      0.000
REMARK  6 active torsions:
REMARK  status: ('A' for Active; 'I' for Inactive)
REMARK    1  A    between atoms: C1_2  and  C2_4 
REMARK    2  A    between atoms: N1_7  and  C5_8 
REMARK    3  A    between atoms: C5_8  and  O3_9 
REMARK    4  A    between atoms: C5_8  and  N2_11 
REMARK       I    between atoms: N2_11  and  C6_13 
REMARK    5  A    between atoms: C6_13  and  C7_15 
REMARK       I    between atoms: N3_19  and  C11_20 
REMARK    6  A    between atoms: C11_20  and  C12_22 
ROOT
HETATM    1  N2  UNL     1      24.567  12.839  20.833  1.00  0.00    -0.291 N 
ATOM      2  H2  UNL     1      24.390  11.947  21.294  1.00  0.00     0.172 HD
HETATM    3  C6  UNL     1      23.698  13.833  21.294  1.00  0.00     0.247 C 
HETATM    4  O4  UNL     1      23.718  15.001  20.896  1.00  0.00    -0.271 OA
ENDROOT
BRANCH   1   5
HETATM    5  C5  UNL     1      25.591  12.740  19.932  1.00  0.00     0.221 C 
BRANCH   5   6
HETATM    6  N1  UNL     1      26.731  11.967  19.871  1.00  0.00    -0.347 N 
HETATM    7  C4  UNL     1      26.933  10.581  19.671  1.00  0.00     0.127 C 
HETATM    8  C3  UNL     1      28.390  10.162  19.756  1.00  0.00     0.035 C 
HETATM    9  C2  UNL     1      29.137  10.773  20.880  1.00  0.00     0.090 C 
HETATM   10  C17 UNL     1      28.613  12.127  21.299  1.00  0.00     0.035 C 
HETATM   11  C16 UNL     1      28.022  12.738  20.047  1.00  0.00     0.127 C 
BRANCH   9  12
HETATM   12  C1  UNL     1      29.084   9.897  22.083  1.00  0.00     0.177 C 
HETATM   13  O1  UNL     1      28.675   8.713  22.062  1.00  0.00    -0.648 OA
HETATM   14  O2  UNL     1      29.514  10.432  23.296  1.00  0.00    -0.648 OA
ENDBRANCH   9  12
ENDBRANCH   5   6
BRANCH   5  15
HETATM   15  O3  UNL     1      25.438  13.575  18.897  1.00  0.00    -0.332 OA
ATOM     16  H3  UNL     1      25.612  13.181  18.050  1.00  0.00     0.220 HD
ENDBRANCH   5  15
ENDBRANCH   1   5
BRANCH   3  17
HETATM   17  C7  UNL     1      22.669  13.538  22.323  1.00  0.00     0.179 C 
HETATM   18  C8  UNL     1      22.156  14.806  22.963  1.00  0.00     0.037 C 
HETATM   19  C9  UNL     1      20.660  14.558  23.202  1.00  0.00     0.022 C 
HETATM   20  C10 UNL     1      20.600  13.031  23.054  1.00  0.00     0.127 C 
HETATM   21  N3  UNL     1      21.483  12.892  21.878  1.00  0.00    -0.338 N 
HETATM   22  C11 UNL     1      21.093  12.277  20.697  1.00  0.00     0.224 C 
HETATM   23  O5  UNL     1      21.822  12.177  19.656  1.00  0.00    -0.273 OA
BRANCH  22  24
HETATM   24  C12 UNL     1      19.732  11.670  20.583  1.00  0.00     0.078 C 
HETATM   25  C13 UNL     1      19.610  10.253  21.034  1.00  0.00     0.014 C 
HETATM   26  C14 UNL     1      19.040   9.817  19.688  1.00  0.00     0.002 C 
HETATM   27  C15 UNL     1      19.351  11.235  19.193  1.00  0.00     0.014 C 
ENDBRANCH  22  24
ENDBRANCH   3  17
TORSDOF 6
ENDMDL
MODEL 2
REMARK VINA RESULT: -7.673173145      3.868      6.189
REMARK  6 active torsions:
REMARK  status: ('A' for Active; 'I' for Inactive)
REMARK    1  A    between atoms: C1_2  and  C2_4 
REMARK    2  A    between atoms: N1_7  and  C5_8 
REMARK    3  A    between atoms: C5_8  and  O3_9 
REMARK    4  A    between atoms: C5_8  and  N2_11 
REMARK       I    between atoms: N2_11  and  C6_13 
REMARK    5  A    between atoms: C6_13  and  C7_15 
REMARK       I    between atoms: N3_19  and  C11_20 
REMARK    6  A    between atoms: C11_20  and  C12_22 
ROOT
HETATM    1  N2  UNL     1      19.575   9.580  20.588  1.00  0.00    -0.291 N 
ATOM      2  H2  UNL     1      19.404   8.577  20.661  1.00  0.00     0.172 HD
HETATM    3  C6  UNL     1      18.396  10.279  20.315  1.00  0.00     0.247 C 
HETATM    4  O4  UNL     1      18.337  11.505  20.188  1.00  0.00    -0.271 OA
ENDROOT
BRANCH   1   5
HETATM    5  C5  UNL     1      20.895   9.877  20.784  1.00  0.00     0.221 C 
BRANCH   5   6
HETATM    6  N1  UNL     1      21.942  10.159  19.933  1.00  0.00    -0.347 N 
HETATM    7  C4  UNL     1      23.003   9.368  19.433  1.00  0.00     0.127 C 
HETATM    8  C3  UNL     1      23.980  10.142  18.564  1.00  0.00     0.035 C 
HETATM    9  C2  UNL     1      24.355  11.470  19.102  1.00  0.00     0.090 C 
HETATM   10  C17 UNL     1      23.288  12.107  19.961  1.00  0.00     0.035 C 
HETATM   11  C16 UNL     1      21.972  11.586  19.426  1.00  0.00     0.127 C 
BRANCH   9  12
HETATM   12  C1  UNL     1      25.582  11.369  19.939  1.00  0.00     0.177 C 
HETATM   13  O1  UNL     1      25.699  11.903  21.066  1.00  0.00    -0.648 OA
HETATM   14  O2  UNL     1      26.656  10.639  19.433  1.00  0.00    -0.648 OA
ENDBRANCH   9  12
ENDBRANCH   5   6
BRANCH   5  15
HETATM   15  O3  UNL     1      21.224   9.892  22.082  1.00  0.00    -0.332 OA
ATOM     16  H3  UNL     1      20.687   9.329  22.626  1.00  0.00     0.220 HD
ENDBRANCH   5  15
ENDBRANCH   1   5
BRANCH   3  17
HETATM   17  C7  UNL     1      17.100   9.570  20.157  1.00  0.00     0.179 C 
HETATM   18  C8  UNL     1      17.286   8.230  19.486  1.00  0.00     0.037 C 
HETATM   19  C9  UNL     1      16.279   7.296  20.170  1.00  0.00     0.022 C 
HETATM   20  C10 UNL     1      15.360   8.320  20.850  1.00  0.00     0.127 C 
HETATM   21  N3  UNL     1      16.397   9.245  21.350  1.00  0.00    -0.338 N 
HETATM   22  C11 UNL     1      16.534   9.591  22.686  1.00  0.00     0.224 C 
HETATM   23  O5  UNL     1      17.443  10.357  23.148  1.00  0.00    -0.273 OA
BRANCH  22  24
HETATM   24  C12 UNL     1      15.574   9.057  23.700  1.00  0.00     0.078 C 
HETATM   25  C13 UNL     1      14.361   9.889  23.951  1.00  0.00     0.014 C 
HETATM   26  C14 UNL     1      14.655   9.964  25.446  1.00  0.00     0.002 C 
HETATM   27  C15 UNL     1      15.987   9.272  25.133  1.00  0.00     0.014 C 
ENDBRANCH  22  24
ENDBRANCH   3  17
TORSDOF 6
ENDMDL
MODEL 3
REMARK VINA RESULT: -7.609189709      3.794      6.528
REMARK  6 active torsions:
REMARK  status: ('A' for Active; 'I' for Inactive)
REMARK    1  A    between atoms: C1_2  and  C2_4 
REMARK    2  A    between atoms: N1_7  and  C5_8 
REMARK    3  A    between atoms: C5_8  and  O3_9 
REMARK    4  A    between atoms: C5_8  and  N2_11 
REMARK       I    between atoms: N2_11  and  C6_13 
REMARK    5  A    between atoms: C6_13  and  C7_15 
REMARK       I    between atoms: N3_19  and  C11_20 
REMARK    6  A    between atoms: C11_20  and  C12_22 
ROOT
HETATM    1  N2  UNL     1      19.576   9.907  21.323  1.00  0.00    -0.291 N 
ATOM      2  H2  UNL     1      19.362   8.922  21.480  1.00  0.00     0.172 HD
HETATM    3  C6  UNL     1      18.517  10.565  20.692  1.00  0.00     0.247 C 
HETATM    4  O4  UNL     1      18.528  11.764  20.401  1.00  0.00    -0.271 OA
ENDROOT
BRANCH   1   5
HETATM    5  C5  UNL     1      20.822  10.226  21.788  1.00  0.00     0.221 C 
BRANCH   5   6
HETATM    6  N1  UNL     1      21.787  11.123  21.381  1.00  0.00    -0.347 N 
HETATM    7  C4  UNL     1      21.710  12.355  20.690  1.00  0.00     0.127 C 
HETATM    8  C3  UNL     1      23.067  12.969  20.391  1.00  0.00     0.035 C 
HETATM    9  C2  UNL     1      24.077  12.005  19.895  1.00  0.00     0.090 C 
HETATM   10  C17 UNL     1      23.869  10.592  20.387  1.00  0.00     0.035 C 
HETATM   11  C16 UNL     1      23.203  10.728  21.740  1.00  0.00     0.127 C 
BRANCH   9  12
HETATM   12  C1  UNL     1      24.063  11.951  18.407  1.00  0.00     0.177 C 
HETATM   13  O1  UNL     1      24.295  10.911  17.748  1.00  0.00    -0.648 OA
HETATM   14  O2  UNL     1      23.775  13.128  17.716  1.00  0.00    -0.648 OA
ENDBRANCH   9  12
ENDBRANCH   5   6
BRANCH   5  15
HETATM   15  O3  UNL     1      21.162   9.506  22.864  1.00  0.00    -0.332 OA
ATOM     16  H3  UNL     1      20.580   8.776  23.043  1.00  0.00     0.220 HD
ENDBRANCH   5  15
ENDBRANCH   1   5
BRANCH   3  17
HETATM   17  C7  UNL     1      17.272   9.843  20.323  1.00  0.00     0.179 C 
HETATM   18  C8  UNL     1      17.582   8.534  19.636  1.00  0.00     0.037 C 
HETATM   19  C9  UNL     1      16.507   7.557  20.133  1.00  0.00     0.022 C 
HETATM   20  C10 UNL     1      15.478   8.538  20.710  1.00  0.00     0.127 C 
HETATM   21  N3  UNL     1      16.413   9.459  21.389  1.00  0.00    -0.338 N 
HETATM   22  C11 UNL     1      16.349   9.753  22.743  1.00  0.00     0.224 C 
HETATM   23  O5  UNL     1      17.166  10.514  23.359  1.00  0.00    -0.273 OA
BRANCH  22  24
HETATM   24  C12 UNL     1      15.265   9.164  23.587  1.00  0.00     0.078 C 
HETATM   25  C13 UNL     1      14.101  10.055  23.868  1.00  0.00     0.014 C 
HETATM   26  C14 UNL     1      14.266   9.884  25.375  1.00  0.00     0.002 C 
HETATM   27  C15 UNL     1      15.564   9.131  25.063  1.00  0.00     0.014 C 
ENDBRANCH  22  24
ENDBRANCH   3  17
TORSDOF 6
ENDMDL
MODEL 4
REMARK VINA RESULT: -7.481530787      2.638      8.130
REMARK  6 active torsions:
REMARK  status: ('A' for Active; 'I' for Inactive)
REMARK    1  A    between atoms: C1_2  and  C2_4 
REMARK    2  A    between atoms: N1_7  and  C5_8 
REMARK    3  A    between atoms: C5_8  and  O3_9 
REMARK    4  A    between atoms: C5_8  and  N2_11 
REMARK       I    between atoms: N2_11  and  C6_13 
REMARK    5  A    between atoms: C6_13  and  C7_15 
REMARK       I    between atoms: N3_19  and  C11_20 
REMARK    6  A    between atoms: C11_20  and  C12_22 
ROOT
HETATM    1  N2  UNL     1      22.846  10.980  20.479  1.00  0.00    -0.291 N 
ATOM      2  H2  UNL     1      23.201  11.926  20.616  1.00  0.00     0.172 HD
HETATM    3  C6  UNL     1      23.358  10.407  19.312  1.00  0.00     0.247 C 
HETATM    4  O4  UNL     1      23.086   9.266  18.929  1.00  0.00    -0.271 OA
ENDROOT
BRANCH   1   5
HETATM    5  C5  UNL     1      21.997  10.615  21.488  1.00  0.00     0.221 C 
BRANCH   5   6
HETATM    6  N1  UNL     1      20.663  10.858  21.742  1.00  0.00    -0.347 N 
HETATM    7  C4  UNL     1      19.745  10.274  22.645  1.00  0.00     0.127 C 
HETATM    8  C3  UNL     1      18.335  10.826  22.518  1.00  0.00     0.035 C 
HETATM    9  C2  UNL     1      17.865  10.984  21.122  1.00  0.00     0.090 C 
HETATM   10  C17 UNL     1      18.974  11.238  20.127  1.00  0.00     0.035 C 
HETATM   11  C16 UNL     1      20.055  11.961  20.901  1.00  0.00     0.127 C 
BRANCH   9  12
HETATM   12  C1  UNL     1      17.149   9.760  20.668  1.00  0.00     0.177 C 
HETATM   13  O1  UNL     1      16.246   9.199  21.330  1.00  0.00    -0.648 OA
HETATM   14  O2  UNL     1      17.509   9.215  19.436  1.00  0.00    -0.648 OA
ENDBRANCH   9  12
ENDBRANCH   5   6
BRANCH   5  15
HETATM   15  O3  UNL     1      22.604   9.865  22.415  1.00  0.00    -0.332 OA
ATOM     16  H3  UNL     1      22.332  10.051  23.305  1.00  0.00     0.220 HD
ENDBRANCH   5  15
ENDBRANCH   1   5
BRANCH   3  17
HETATM   17  C7  UNL     1      24.293  11.156  18.433  1.00  0.00     0.179 C 
HETATM   18  C8  UNL     1      23.832  12.580  18.230  1.00  0.00     0.037 C 
HETATM   19  C9  UNL     1      25.118  13.416  18.195  1.00  0.00     0.022 C 
HETATM   20  C10 UNL     1      26.164  12.317  17.962  1.00  0.00     0.127 C 
HETATM   21  N3  UNL     1      25.629  11.306  18.896  1.00  0.00    -0.338 N 
HETATM   22  C11 UNL     1      26.367  10.755  19.933  1.00  0.00     0.224 C 
HETATM   23  O5  UNL     1      25.918   9.909  20.775  1.00  0.00    -0.273 OA
BRANCH  22  24
HETATM   24  C12 UNL     1      27.799  11.143  20.121  1.00  0.00     0.078 C 
HETATM   25  C13 UNL     1      28.747  10.024  20.395  1.00  0.00     0.014 C 
HETATM   26  C14 UNL     1      29.234  10.681  21.683  1.00  0.00     0.002 C 
HETATM   27  C15 UNL     1      28.123  11.717  21.475  1.00  0.00     0.014 C 
ENDBRANCH  22  24
ENDBRANCH   3  17
TORSDOF 6
ENDMDL
MODEL 5
REMARK VINA RESULT: -7.466558037      3.854      7.341
REMARK  6 active torsions:
REMARK  status: ('A' for Active; 'I' for Inactive)
REMARK    1  A    between atoms: C1_2  and  C2_4 
REMARK    2  A    between atoms: N1_7  and  C5_8 
REMARK    3  A    between atoms: C5_8  and  O3_9 
REMARK    4  A    between atoms: C5_8  and  N2_11 
REMARK       I    between atoms: N2_11  and  C6_13 
REMARK    5  A    between atoms: C6_13  and  C7_15 
REMARK       I    between atoms: N3_19  and  C11_20 
REMARK    6  A    between atoms: C11_20  and  C12_22 
ROOT
HETATM    1  N2  UNL     1      23.101  10.263  23.039  1.00  0.00    -0.291 N 
ATOM      2  H2  UNL     1      24.105  10.185  23.207  1.00  0.00     0.172 HD
HETATM    3  C6  UNL     1      22.805  10.193  21.675  1.00  0.00     0.247 C 
HETATM    4  O4  UNL     1      21.661  10.255  21.217  1.00  0.00    -0.271 OA
ENDROOT
BRANCH   1   5
HETATM    5  C5  UNL     1      22.411  10.409  24.211  1.00  0.00     0.221 C 
BRANCH   5   6
HETATM    6  N1  UNL     1      21.829  11.487  24.843  1.00  0.00    -0.347 N 
HETATM    7  C4  UNL     1      22.218  12.841  24.968  1.00  0.00     0.127 C 
HETATM    8  C3  UNL     1      21.281  13.664  25.836  1.00  0.00     0.035 C 
HETATM    9  C2  UNL     1      20.857  12.990  27.085  1.00  0.00     0.090 C 
HETATM   10  C17 UNL     1      20.827  11.483  26.988  1.00  0.00     0.035 C 
HETATM   11  C16 UNL     1      20.521  11.176  25.538  1.00  0.00     0.127 C 
BRANCH   9  12
HETATM   12  C1  UNL     1      21.777  13.334  28.204  1.00  0.00     0.177 C 
HETATM   13  O1  UNL     1      22.871  12.759  28.405  1.00  0.00    -0.648 OA
HETATM   14  O2  UNL     1      21.390  14.354  29.073  1.00  0.00    -0.648 OA
ENDBRANCH   9  12
ENDBRANCH   5   6
BRANCH   5  15
HETATM   15  O3  UNL     1      22.281   9.251  24.870  1.00  0.00    -0.332 OA
ATOM     16  H3  UNL     1      21.774   9.313  25.670  1.00  0.00     0.220 HD
ENDBRANCH   5  15
ENDBRANCH   1   5
BRANCH   3  17
HETATM   17  C7  UNL     1      23.879  10.031  20.661  1.00  0.00     0.179 C 
HETATM   18  C8  UNL     1      23.353   9.374  19.407  1.00  0.00     0.037 C 
HETATM   19  C9  UNL     1      24.098  10.059  18.254  1.00  0.00     0.022 C 
HETATM   20  C10 UNL     1      25.254  10.721  19.017  1.00  0.00     0.127 C 
HETATM   21  N3  UNL     1      24.489  11.221  20.177  1.00  0.00    -0.338 N 
HETATM   22  C11 UNL     1      24.458  12.555  20.557  1.00  0.00     0.224 C 
HETATM   23  O5  UNL     1      23.777  13.017  21.530  1.00  0.00    -0.273 OA
BRANCH  22  24
HETATM   24  C12 UNL     1      25.263  13.566  19.805  1.00  0.00     0.078 C 
HETATM   25  C13 UNL     1      25.416  14.897  20.462  1.00  0.00     0.014 C 
HETATM   26  C14 UNL     1      24.852  15.623  19.245  1.00  0.00     0.002 C 
HETATM   27  C15 UNL     1      24.533  14.237  18.672  1.00  0.00     0.014 C 
ENDBRANCH  22  24
ENDBRANCH   3  17
TORSDOF 6
ENDMDL
