MODEL 1
REMARK VINA RESULT: -8.056474015      0.000      0.000
REMARK  4 active torsions:
REMARK  status: ('A' for Active; 'I' for Inactive)
REMARK       I    between atoms: C1_2  and  N1_3 
REMARK    1  A    between atoms: C1_2  and  C12_17 
REMARK    2  A    between atoms: N1_3  and  C2_5 
REMARK    3  A    between atoms: C9_12  and  O2_13 
REMARK       I    between atoms: N2_21  and  C16_22 
REMARK    4  A    between atoms: C16_22  and  C17_24 
ROOT
HETATM    1  O1  UNL     1      19.284  10.740  19.036  1.00  0.00    -0.271 OA
HETATM    2  C1  UNL     1      19.642  10.376  20.171  1.00  0.00     0.241 C 
HETATM    3  N1  UNL     1      21.035  10.306  20.446  1.00  0.00    -0.354 N 
ATOM      4  H1  UNL     1      21.336  10.004  21.373  1.00  0.00     0.162 HD
ENDROOT
BRANCH   3   5
HETATM    5  C2  UNL     1      22.046  10.644  19.464  1.00  0.00     0.092 C 
HETATM    6  C3  UNL     1      23.230   9.711  19.482  1.00  0.00     0.012 C 
HETATM    7  C4  UNL     1      24.033   9.813  20.758  1.00  0.00     0.011 C 
HETATM    8  C11 UNL     1      24.153  10.133  18.349  1.00  0.00     0.044 C 
HETATM    9  C5  UNL     1      24.519  11.210  20.963  1.00  0.00    -0.011 C 
HETATM   10  C6  UNL     1      23.312  12.120  21.042  1.00  0.00     0.011 C 
HETATM   11  C10 UNL     1      25.396  11.641  19.821  1.00  0.00     0.042 C 
HETATM   12  C7  UNL     1      22.515  12.032  19.757  1.00  0.00     0.012 C 
HETATM   13  C8  UNL     1      23.409  12.505  18.640  1.00  0.00     0.044 C 
HETATM   14  C9  UNL     1      24.590  11.572  18.550  1.00  0.00     0.059 C 
BRANCH  14  15
HETATM   15  O2  UNL     1      25.430  11.939  17.506  1.00  0.00    -0.390 OA
ATOM     16  H2  UNL     1      25.881  11.180  17.154  1.00  0.00     0.210 HD
ENDBRANCH  14  15
ENDBRANCH   3   5
BRANCH   2  17
HETATM   17  C12 UNL     1      18.714  10.006  21.263  1.00  0.00     0.179 C 
HETATM   18  C13 UNL     1      17.281  10.044  20.897  1.00  0.00     0.037 C 
HETATM   19  C14 UNL     1      16.699  11.169  21.718  1.00  0.00     0.022 C 
HETATM   20  C15 UNL     1      17.941  11.921  22.245  1.00  0.00     0.127 C 
HETATM   21  N2  UNL     1      18.855  10.814  22.432  1.00  0.00    -0.338 N 
HETATM   22  C16 UNL     1      19.691  10.633  23.552  1.00  0.00     0.224 C 
HETATM   23  O3  UNL     1      20.446   9.598  23.523  1.00  0.00    -0.273 OA
BRANCH  22  24
HETATM   24  C17 UNL     1      19.786  11.489  24.731  1.00  0.00     0.078 C 
HETATM   25  C18 UNL     1      18.751  11.398  25.792  1.00  0.00     0.014 C 
HETATM   26  C19 UNL     1      19.878  11.645  26.803  1.00  0.00     0.002 C 
HETATM   27  C20 UNL     1      20.812  11.071  25.762  1.00  0.00     0.014 C 
ENDBRANCH  22  24
ENDBRANCH   2  17
TORSDOF 4
ENDMDL
MODEL 2
REMARK VINA RESULT: -7.903973786      1.839      3.991
REMARK  4 active torsions:
REMARK  status: ('A' for Active; 'I' for Inactive)
REMARK       I    between atoms: C1_2  and  N1_3 
REMARK    1  A    between atoms: C1_2  and  C12_17 
REMARK    2  A    between atoms: N1_3  and  C2_5 
REMARK    3  A    between atoms: C9_12  and  O2_13 
REMARK       I    between atoms: N2_21  and  C16_22 
REMARK    4  A    between atoms: C16_22  and  C17_24 
ROOT
HETATM    1  O1  UNL     1      20.935  12.102  23.570  1.00  0.00    -0.271 OA
HETATM    2  C1  UNL     1      20.374  11.989  22.463  1.00  0.00     0.241 C 
HETATM    3  N1  UNL     1      21.169  11.629  21.341  1.00  0.00    -0.354 N 
ATOM      4  H1  UNL     1      20.718  11.538  20.431  1.00  0.00     0.162 HD
ENDROOT
BRANCH   3   5
HETATM    5  C2  UNL     1      22.595  11.386  21.436  1.00  0.00     0.092 C 
HETATM    6  C3  UNL     1      23.418  12.346  20.615  1.00  0.00     0.012 C 
HETATM    7  C4  UNL     1      23.203  12.175  19.129  1.00  0.00     0.011 C 
HETATM    8  C11 UNL     1      24.882  12.028  20.884  1.00  0.00     0.044 C 
HETATM    9  C5  UNL     1      23.528  10.781  18.707  1.00  0.00    -0.011 C 
HETATM   10  C6  UNL     1      22.624   9.837  19.469  1.00  0.00     0.011 C 
HETATM   11  C10 UNL     1      24.963  10.453  19.014  1.00  0.00     0.042 C 
HETATM   12  C7  UNL     1      22.850   9.994  20.958  1.00  0.00     0.012 C 
HETATM   13  C8  UNL     1      24.284   9.624  21.236  1.00  0.00     0.044 C 
HETATM   14  C9  UNL     1      25.175  10.591  20.499  1.00  0.00     0.059 C 
BRANCH  14  15
HETATM   15  O2  UNL     1      26.514  10.319  20.753  1.00  0.00    -0.390 OA
ATOM     16  H2  UNL     1      27.066  11.027  20.441  1.00  0.00     0.210 HD
ENDBRANCH  14  15
ENDBRANCH   3   5
BRANCH   2  17
HETATM   17  C12 UNL     1      18.929  12.205  22.232  1.00  0.00     0.179 C 
HETATM   18  C13 UNL     1      18.239  12.971  23.294  1.00  0.00     0.037 C 
HETATM   19  C14 UNL     1      17.285  11.988  23.926  1.00  0.00     0.022 C 
HETATM   20  C15 UNL     1      17.758  10.619  23.389  1.00  0.00     0.127 C 
HETATM   21  N2  UNL     1      18.189  10.996  22.060  1.00  0.00    -0.338 N 
HETATM   22  C16 UNL     1      17.914  10.272  20.883  1.00  0.00     0.224 C 
HETATM   23  O3  UNL     1      18.402  10.758  19.802  1.00  0.00    -0.273 OA
BRANCH  22  24
HETATM   24  C17 UNL     1      17.139   9.041  20.762  1.00  0.00     0.078 C 
HETATM   25  C18 UNL     1      15.655   9.102  20.770  1.00  0.00     0.014 C 
HETATM   26  C19 UNL     1      15.681   7.958  19.749  1.00  0.00     0.002 C 
HETATM   27  C20 UNL     1      17.061   8.450  19.372  1.00  0.00     0.014 C 
ENDBRANCH  22  24
ENDBRANCH   2  17
TORSDOF 4
ENDMDL
MODEL 3
REMARK VINA RESULT: -7.781210078      1.867      3.896
REMARK  4 active torsions:
REMARK  status: ('A' for Active; 'I' for Inactive)
REMARK       I    between atoms: C1_2  and  N1_3 
REMARK    1  A    between atoms: C1_2  and  C12_17 
REMARK    2  A    between atoms: N1_3  and  C2_5 
REMARK    3  A    between atoms: C9_12  and  O2_13 
REMARK       I    between atoms: N2_21  and  C16_22 
REMARK    4  A    between atoms: C16_22  and  C17_24 
ROOT
HETATM    1  O1  UNL     1      21.540  10.020  21.337  1.00  0.00    -0.271 OA
HETATM    2  C1  UNL     1      21.233  11.188  21.035  1.00  0.00     0.241 C 
HETATM    3  N1  UNL     1      22.256  12.048  20.550  1.00  0.00    -0.354 N 
ATOM      4  H1  UNL     1      22.012  13.007  20.303  1.00  0.00     0.162 HD
ENDROOT
BRANCH   3   5
HETATM    5  C2  UNL     1      23.631  11.618  20.391  1.00  0.00     0.092 C 
HETATM    6  C3  UNL     1      24.633  12.679  20.770  1.00  0.00     0.012 C 
HETATM    7  C4  UNL     1      24.602  13.870  19.840  1.00  0.00     0.011 C 
HETATM    8  C11 UNL     1      26.016  12.058  20.639  1.00  0.00     0.044 C 
HETATM    9  C5  UNL     1      24.861  13.445  18.432  1.00  0.00    -0.011 C 
HETATM   10  C6  UNL     1      23.787  12.455  18.036  1.00  0.00     0.011 C 
HETATM   11  C10 UNL     1      26.210  12.792  18.313  1.00  0.00     0.042 C 
HETATM   12  C7  UNL     1      23.827  11.253  18.956  1.00  0.00     0.012 C 
HETATM   13  C8  UNL     1      25.176  10.602  18.786  1.00  0.00     0.044 C 
HETATM   14  C9  UNL     1      26.235  11.585  19.215  1.00  0.00     0.059 C 
BRANCH  14  15
HETATM   15  O2  UNL     1      27.501  11.021  19.116  1.00  0.00    -0.390 OA
ATOM     16  H2  UNL     1      28.168  11.638  19.393  1.00  0.00     0.210 HD
ENDBRANCH  14  15
ENDBRANCH   3   5
BRANCH   2  17
HETATM   17  C12 UNL     1      19.868  11.750  21.147  1.00  0.00     0.179 C 
HETATM   18  C13 UNL     1      19.710  12.791  22.186  1.00  0.00     0.037 C 
HETATM   19  C14 UNL     1      18.794  12.176  23.217  1.00  0.00     0.022 C 
HETATM   20  C15 UNL     1      18.774  10.678  22.844  1.00  0.00     0.127 C 
HETATM   21  N2  UNL     1      18.864  10.767  21.402  1.00  0.00    -0.338 N 
HETATM   22  C16 UNL     1      18.100  10.007  20.494  1.00  0.00     0.224 C 
HETATM   23  O3  UNL     1      18.341  10.215  19.252  1.00  0.00    -0.273 OA
BRANCH  22  24
HETATM   24  C17 UNL     1      17.074   9.019  20.812  1.00  0.00     0.078 C 
HETATM   25  C18 UNL     1      15.708   9.470  21.185  1.00  0.00     0.014 C 
HETATM   26  C19 UNL     1      15.182   8.244  20.428  1.00  0.00     0.002 C 
HETATM   27  C20 UNL     1      16.463   8.305  19.626  1.00  0.00     0.014 C 
ENDBRANCH  22  24
ENDBRANCH   2  17
TORSDOF 4
ENDMDL
MODEL 4
REMARK VINA RESULT: -7.569291111      1.741      3.386
REMARK  4 active torsions:
REMARK  status: ('A' for Active; 'I' for Inactive)
REMARK       I    between atoms: C1_2  and  N1_3 
REMARK    1  A    between atoms: C1_2  and  C12_17 
REMARK    2  A    between atoms: N1_3  and  C2_5 
REMARK    3  A    between atoms: C9_12  and  O2_13 
REMARK       I    between atoms: N2_21  and  C16_22 
REMARK    4  A    between atoms: C16_22  and  C17_24 
ROOT
HETATM    1  O1  UNL     1      20.294  11.748  19.375  1.00  0.00    -0.271 OA
HETATM    2  C1  UNL     1      20.652  12.174  20.489  1.00  0.00     0.241 C 
HETATM    3  N1  UNL     1      22.009  12.566  20.654  1.00  0.00    -0.354 N 
ATOM      4  H1  UNL     1      22.309  12.913  21.565  1.00  0.00     0.162 HD
ENDROOT
BRANCH   3   5
HETATM    5  C2  UNL     1      22.982  12.492  19.583  1.00  0.00     0.092 C 
HETATM    6  C3  UNL     1      23.477  11.091  19.324  1.00  0.00     0.012 C 
HETATM    7  C4  UNL     1      24.284  10.536  20.476  1.00  0.00     0.011 C 
HETATM    8  C11 UNL     1      24.413  11.158  18.127  1.00  0.00     0.044 C 
HETATM    9  C5  UNL     1      25.455  11.414  20.768  1.00  0.00    -0.011 C 
HETATM   10  C6  UNL     1      24.935  12.790  21.122  1.00  0.00     0.011 C 
HETATM   11  C10 UNL     1      26.357  11.515  19.569  1.00  0.00     0.042 C 
HETATM   12  C7  UNL     1      24.140  13.355  19.963  1.00  0.00     0.012 C 
HETATM   13  C8  UNL     1      25.079  13.477  18.791  1.00  0.00     0.044 C 
HETATM   14  C9  UNL     1      25.565  12.097  18.427  1.00  0.00     0.059 C 
BRANCH  14  15
HETATM   15  O2  UNL     1      26.407  12.147  17.323  1.00  0.00    -0.390 OA
ATOM     16  H2  UNL     1      26.834  11.309  17.186  1.00  0.00     0.210 HD
ENDBRANCH  14  15
ENDBRANCH   3   5
BRANCH   2  17
HETATM   17  C12 UNL     1      19.759  12.302  21.661  1.00  0.00     0.179 C 
HETATM   18  C13 UNL     1      20.451  12.569  22.942  1.00  0.00     0.037 C 
HETATM   19  C14 UNL     1      20.224  11.330  23.773  1.00  0.00     0.022 C 
HETATM   20  C15 UNL     1      19.697  10.295  22.755  1.00  0.00     0.127 C 
HETATM   21  N2  UNL     1      18.933  11.158  21.879  1.00  0.00    -0.338 N 
HETATM   22  C16 UNL     1      17.650  10.868  21.372  1.00  0.00     0.224 C 
HETATM   23  O3  UNL     1      17.145  11.751  20.593  1.00  0.00    -0.273 OA
BRANCH  22  24
HETATM   24  C17 UNL     1      16.842   9.681  21.638  1.00  0.00     0.078 C 
HETATM   25  C18 UNL     1      15.371   9.812  21.794  1.00  0.00     0.014 C 
HETATM   26  C19 UNL     1      15.254   8.459  21.082  1.00  0.00     0.002 C 
HETATM   27  C20 UNL     1      16.589   8.782  20.448  1.00  0.00     0.014 C 
ENDBRANCH  22  24
ENDBRANCH   2  17
TORSDOF 4
ENDMDL
MODEL 5
REMARK VINA RESULT: -7.562714226      2.448      7.013
REMARK  4 active torsions:
REMARK  status: ('A' for Active; 'I' for Inactive)
REMARK       I    between atoms: C1_2  and  N1_3 
REMARK    1  A    between atoms: C1_2  and  C12_17 
REMARK    2  A    between atoms: N1_3  and  C2_5 
REMARK    3  A    between atoms: C9_12  and  O2_13 
REMARK       I    between atoms: N2_21  and  C16_22 
REMARK    4  A    between atoms: C16_22  and  C17_24 
ROOT
HETATM    1  O1  UNL     1      23.616  12.550  21.888  1.00  0.00    -0.271 OA
HETATM    2  C1  UNL     1      23.368  12.406  20.676  1.00  0.00     0.241 C 
HETATM    3  N1  UNL     1      22.067  11.969  20.304  1.00  0.00    -0.354 N 
ATOM      4  H1  UNL     1      21.858  11.846  19.313  1.00  0.00     0.162 HD
ENDROOT
BRANCH   3   5
HETATM    5  C2  UNL     1      21.027  11.692  21.274  1.00  0.00     0.092 C 
HETATM    6  C3  UNL     1      20.911  10.228  21.620  1.00  0.00     0.012 C 
HETATM    7  C4  UNL     1      20.440   9.389  20.455  1.00  0.00     0.011 C 
HETATM    8  C11 UNL     1      19.851  10.105  22.704  1.00  0.00     0.044 C 
HETATM    9  C5  UNL     1      19.117   9.872  19.959  1.00  0.00    -0.011 C 
HETATM   10  C6  UNL     1      19.276  11.312  19.524  1.00  0.00     0.011 C 
HETATM   11  C10 UNL     1      18.081   9.790  21.045  1.00  0.00     0.042 C 
HETATM   12  C7  UNL     1      19.732  12.159  20.694  1.00  0.00     0.012 C 
HETATM   13  C8  UNL     1      18.656  12.085  21.747  1.00  0.00     0.044 C 
HETATM   14  C9  UNL     1      18.530  10.651  22.196  1.00  0.00     0.059 C 
BRANCH  14  15
HETATM   15  O2  UNL     1      17.576  10.532  23.200  1.00  0.00    -0.390 OA
ATOM     16  H2  UNL     1      17.754   9.774  23.745  1.00  0.00     0.210 HD
ENDBRANCH  14  15
ENDBRANCH   3   5
BRANCH   2  17
HETATM   17  C12 UNL     1      24.339  12.658  19.588  1.00  0.00     0.179 C 
HETATM   18  C13 UNL     1      23.785  12.528  18.222  1.00  0.00     0.037 C 
HETATM   19  C14 UNL     1      24.485  11.328  17.631  1.00  0.00     0.022 C 
HETATM   20  C15 UNL     1      25.146  10.650  18.850  1.00  0.00     0.127 C 
HETATM   21  N2  UNL     1      25.489  11.814  19.641  1.00  0.00    -0.338 N 
HETATM   22  C16 UNL     1      26.715  12.009  20.307  1.00  0.00     0.224 C 
HETATM   23  O3  UNL     1      26.821  13.098  20.975  1.00  0.00    -0.273 OA
BRANCH  22  24
HETATM   24  C17 UNL     1      27.868  11.113  20.318  1.00  0.00     0.078 C 
HETATM   25  C18 UNL     1      29.011  11.394  21.224  1.00  0.00     0.014 C 
HETATM   26  C19 UNL     1      29.140   9.876  21.403  1.00  0.00     0.002 C 
HETATM   27  C20 UNL     1      27.672   9.803  21.049  1.00  0.00     0.014 C 
ENDBRANCH  22  24
ENDBRANCH   2  17
TORSDOF 4
ENDMDL
