MODEL 1
REMARK VINA RESULT: -7.601316034      0.000      0.000
REMARK  5 active torsions:
REMARK  status: ('A' for Active; 'I' for Inactive)
REMARK       I    between atoms: C1_2  and  N1_3 
REMARK       I    between atoms: C1_2  and  N2_10 
REMARK    1  A    between atoms: N1_3  and  C2_5 
REMARK    2  A    between atoms: C2_5  and  C3_6 
REMARK    3  A    between atoms: C9_13  and  C10_14 
REMARK    4  A    between atoms: C10_14  and  O2_15 
REMARK    5  A    between atoms: C10_14  and  N3_17 
ROOT
HETATM    1  O1  UNL     1      18.675  12.170  24.664  1.00  0.00    -0.247 OA
HETATM    2  C1  UNL     1      18.758  11.143  23.947  1.00  0.00     0.318 C 
HETATM    3  N1  UNL     1      17.909  10.043  23.932  1.00  0.00    -0.343 N 
ATOM      4  H1  UNL     1      18.143   9.306  23.266  1.00  0.00     0.164 HD
HETATM    5  N2  UNL     1      19.893  11.147  23.038  1.00  0.00    -0.334 N 
HETATM    6  C7  UNL     1      20.764  12.296  23.080  1.00  0.00     0.128 C 
HETATM    7  C8  UNL     1      21.821  12.311  21.998  1.00  0.00     0.033 C 
HETATM    8  C9  UNL     1      22.289  10.901  21.839  1.00  0.00     0.063 C 
HETATM    9  C16 UNL     1      21.186  10.099  21.200  1.00  0.00     0.033 C 
HETATM   10  C17 UNL     1      20.046  10.013  22.183  1.00  0.00     0.128 C 
ENDROOT
BRANCH   8  11
HETATM   11  C10 UNL     1      23.626  10.696  21.315  1.00  0.00     0.120 C 
BRANCH  11  12
HETATM   12  O2  UNL     1      24.326   9.698  21.780  1.00  0.00    -0.349 OA
ATOM     13  H2  UNL     1      25.274   9.776  21.785  1.00  0.00     0.219 HD
ENDBRANCH  11  12
BRANCH  11  14
HETATM   14  N3  UNL     1      24.326  11.434  20.341  1.00  0.00    -0.333 N 
HETATM   15  C11 UNL     1      25.599  12.051  20.589  1.00  0.00     0.155 C 
HETATM   16  C12 UNL     1      25.454  13.520  20.159  1.00  0.00     0.252 C 
HETATM   17  N4  UNL     1      25.622  13.575  18.740  1.00  0.00    -0.073 N 
HETATM   18  C13 UNL     1      24.369  13.725  18.029  1.00  0.00     0.237 C 
ATOM     19  H42 UNL     1      26.279  14.310  18.479  1.00  0.00     0.277 HD
ATOM     20  H41 UNL     1      26.138  12.763  18.402  1.00  0.00     0.277 HD
HETATM   21  C14 UNL     1      23.259  12.926  18.680  1.00  0.00     0.086 C 
HETATM   22  C15 UNL     1      23.670  11.536  19.020  1.00  0.00     0.274 C 
HETATM   23  F1  UNL     1      24.600  11.110  18.071  1.00  0.00    -0.227 F 
ENDBRANCH  11  14
ENDBRANCH   8  11
BRANCH   3  24
HETATM   24  C2  UNL     1      16.762   9.822  24.726  1.00  0.00     0.129 C 
BRANCH  24  25
HETATM   25  C3  UNL     1      15.477   9.936  23.998  1.00  0.00     0.003 C 
HETATM   26  C4  UNL     1      15.675   9.551  22.492  1.00  0.00     0.006 C 
HETATM   27  C5  UNL     1      14.674  10.669  22.217  1.00  0.00     0.001 C 
HETATM   28  C6  UNL     1      15.119  11.322  23.550  1.00  0.00     0.006 C 
ENDBRANCH  24  25
ENDBRANCH   3  24
TORSDOF 5
ENDMDL
MODEL 2
REMARK VINA RESULT: -7.515133928      3.009      8.545
REMARK  5 active torsions:
REMARK  status: ('A' for Active; 'I' for Inactive)
REMARK       I    between atoms: C1_2  and  N1_3 
REMARK       I    between atoms: C1_2  and  N2_10 
REMARK    1  A    between atoms: N1_3  and  C2_5 
REMARK    2  A    between atoms: C2_5  and  C3_6 
REMARK    3  A    between atoms: C9_13  and  C10_14 
REMARK    4  A    between atoms: C10_14  and  O2_15 
REMARK    5  A    between atoms: C10_14  and  N3_17 
ROOT
HETATM    1  O1  UNL     1      22.046  13.788  21.105  1.00  0.00    -0.247 OA
HETATM    2  C1  UNL     1      21.912  12.540  21.054  1.00  0.00     0.318 C 
HETATM    3  N1  UNL     1      22.391  11.671  20.083  1.00  0.00    -0.343 N 
ATOM      4  H1  UNL     1      22.183  10.682  20.224  1.00  0.00     0.164 HD
HETATM    5  N2  UNL     1      21.159  11.981  22.166  1.00  0.00    -0.334 N 
HETATM    6  C7  UNL     1      20.665  12.907  23.156  1.00  0.00     0.128 C 
HETATM    7  C8  UNL     1      20.039  12.244  24.363  1.00  0.00     0.033 C 
HETATM    8  C9  UNL     1      19.277  11.063  23.856  1.00  0.00     0.063 C 
HETATM    9  C16 UNL     1      20.262  10.022  23.392  1.00  0.00     0.033 C 
HETATM   10  C17 UNL     1      20.974  10.565  22.179  1.00  0.00     0.128 C 
ENDROOT
BRANCH   8  11
HETATM   11  C10 UNL     1      18.164  10.591  24.657  1.00  0.00     0.120 C 
BRANCH  11  12
HETATM   12  O2  UNL     1      18.270  10.645  25.956  1.00  0.00    -0.349 OA
ATOM     13  H2  UNL     1      17.553  11.025  26.451  1.00  0.00     0.219 HD
ENDBRANCH  11  12
BRANCH  11  14
HETATM   14  N3  UNL     1      16.929  10.057  24.242  1.00  0.00    -0.333 N 
HETATM   15  C11 UNL     1      16.563   9.911  22.861  1.00  0.00     0.155 C 
HETATM   16  C12 UNL     1      15.189  10.582  22.708  1.00  0.00     0.252 C 
HETATM   17  N4  UNL     1      14.198   9.649  23.145  1.00  0.00    -0.073 N 
HETATM   18  C13 UNL     1      13.683   9.948  24.466  1.00  0.00     0.237 C 
ATOM     19  H42 UNL     1      13.440   9.576  22.466  1.00  0.00     0.277 HD
ATOM     20  H41 UNL     1      14.553   8.693  23.100  1.00  0.00     0.277 HD
HETATM   21  C14 UNL     1      14.772  10.459  25.386  1.00  0.00     0.086 C 
HETATM   22  C15 UNL     1      16.014   9.639  25.325  1.00  0.00     0.274 C 
HETATM   23  F1  UNL     1      15.653   8.317  25.064  1.00  0.00    -0.227 F 
ENDBRANCH  11  14
ENDBRANCH   8  11
BRANCH   3  24
HETATM   24  C2  UNL     1      23.132  11.989  18.922  1.00  0.00     0.129 C 
BRANCH  24  25
HETATM   25  C3  UNL     1      24.313  11.127  18.690  1.00  0.00     0.003 C 
HETATM   26  C4  UNL     1      24.933  10.681  20.058  1.00  0.00     0.006 C 
HETATM   27  C5  UNL     1      26.273  10.837  19.345  1.00  0.00     0.001 C 
HETATM   28  C6  UNL     1      25.590  11.858  18.401  1.00  0.00     0.006 C 
ENDBRANCH  24  25
ENDBRANCH   3  24
TORSDOF 5
ENDMDL
MODEL 3
REMARK VINA RESULT: -7.484271115      1.138      1.647
REMARK  5 active torsions:
REMARK  status: ('A' for Active; 'I' for Inactive)
REMARK       I    between atoms: C1_2  and  N1_3 
REMARK       I    between atoms: C1_2  and  N2_10 
REMARK    1  A    between atoms: N1_3  and  C2_5 
REMARK    2  A    between atoms: C2_5  and  C3_6 
REMARK    3  A    between atoms: C9_13  and  C10_14 
REMARK    4  A    between atoms: C10_14  and  O2_15 
REMARK    5  A    between atoms: C10_14  and  N3_17 
ROOT
HETATM    1  O1  UNL     1      18.528  12.465  25.012  1.00  0.00    -0.247 OA
HETATM    2  C1  UNL     1      18.594  11.378  24.387  1.00  0.00     0.318 C 
HETATM    3  N1  UNL     1      17.787  10.258  24.536  1.00  0.00    -0.343 N 
ATOM      4  H1  UNL     1      17.997   9.469  23.924  1.00  0.00     0.164 HD
HETATM    5  N2  UNL     1      19.659  11.330  23.397  1.00  0.00    -0.334 N 
HETATM    6  C7  UNL     1      20.490  12.502  23.269  1.00  0.00     0.128 C 
HETATM    7  C8  UNL     1      21.464  12.446  22.113  1.00  0.00     0.033 C 
HETATM    8  C9  UNL     1      21.969  11.042  22.048  1.00  0.00     0.063 C 
HETATM    9  C16 UNL     1      20.851  10.153  21.570  1.00  0.00     0.033 C 
HETATM   10  C17 UNL     1      19.790  10.126  22.641  1.00  0.00     0.128 C 
ENDROOT
BRANCH   8  11
HETATM   11  C10 UNL     1      23.271  10.827  21.445  1.00  0.00     0.120 C 
BRANCH  11  12
HETATM   12  O2  UNL     1      24.014   9.859  21.905  1.00  0.00    -0.349 OA
ATOM     13  H2  UNL     1      24.597   9.412  21.302  1.00  0.00     0.219 HD
ENDBRANCH  11  12
BRANCH  11  14
HETATM   14  N3  UNL     1      23.894  11.527  20.393  1.00  0.00    -0.333 N 
HETATM   15  C11 UNL     1      23.288  11.705  19.103  1.00  0.00     0.155 C 
HETATM   16  C12 UNL     1      24.328  11.236  18.073  1.00  0.00     0.252 C 
HETATM   17  N4  UNL     1      25.251  12.309  17.869  1.00  0.00    -0.073 N 
HETATM   18  C13 UNL     1      26.513  12.105  18.550  1.00  0.00     0.237 C 
ATOM     19  H42 UNL     1      25.397  12.480  16.874  1.00  0.00     0.277 HD
ATOM     20  H41 UNL     1      24.835  13.202  18.131  1.00  0.00     0.277 HD
HETATM   21  C14 UNL     1      26.318  11.455  19.903  1.00  0.00     0.086 C 
HETATM   22  C15 UNL     1      25.228  12.087  20.697  1.00  0.00     0.274 C 
HETATM   23  F1  UNL     1      25.182  13.444  20.375  1.00  0.00    -0.227 F 
ENDBRANCH  11  14
ENDBRANCH   8  11
BRANCH   3  24
HETATM   24  C2  UNL     1      16.709  10.079  25.432  1.00  0.00     0.129 C 
BRANCH  24  25
HETATM   25  C3  UNL     1      15.404   9.816  24.781  1.00  0.00     0.003 C 
HETATM   26  C4  UNL     1      15.606   8.921  23.511  1.00  0.00     0.006 C 
HETATM   27  C5  UNL     1      14.500   9.777  22.901  1.00  0.00     0.001 C 
HETATM   28  C6  UNL     1      14.910  10.907  23.879  1.00  0.00     0.006 C 
ENDBRANCH  24  25
ENDBRANCH   3  24
TORSDOF 5
ENDMDL
MODEL 4
REMARK VINA RESULT: -7.427695479      3.285      4.165
REMARK  5 active torsions:
REMARK  status: ('A' for Active; 'I' for Inactive)
REMARK       I    between atoms: C1_2  and  N1_3 
REMARK       I    between atoms: C1_2  and  N2_10 
REMARK    1  A    between atoms: N1_3  and  C2_5 
REMARK    2  A    between atoms: C2_5  and  C3_6 
REMARK    3  A    between atoms: C9_13  and  C10_14 
REMARK    4  A    between atoms: C10_14  and  O2_15 
REMARK    5  A    between atoms: C10_14  and  N3_17 
ROOT
HETATM    1  O1  UNL     1      21.132  13.934  25.511  1.00  0.00    -0.247 OA
HETATM    2  C1  UNL     1      21.658  12.811  25.709  1.00  0.00     0.318 C 
HETATM    3  N1  UNL     1      22.071  12.264  26.917  1.00  0.00    -0.343 N 
ATOM      4  H1  UNL     1      22.472  11.327  26.871  1.00  0.00     0.164 HD
HETATM    5  N2  UNL     1      21.837  12.022  24.500  1.00  0.00    -0.334 N 
HETATM    6  C7  UNL     1      21.409  12.616  23.258  1.00  0.00     0.128 C 
HETATM    7  C8  UNL     1      21.470  11.680  22.071  1.00  0.00     0.033 C 
HETATM    8  C9  UNL     1      22.711  10.865  22.234  1.00  0.00     0.063 C 
HETATM    9  C16 UNL     1      22.511   9.913  23.384  1.00  0.00     0.033 C 
HETATM   10  C17 UNL     1      22.422  10.728  24.650  1.00  0.00     0.128 C 
ENDROOT
BRANCH   8  11
HETATM   11  C10 UNL     1      23.310  10.313  21.033  1.00  0.00     0.120 C 
BRANCH  11  12
HETATM   12  O2  UNL     1      23.056   9.070  20.730  1.00  0.00    -0.349 OA
ATOM     13  H2  UNL     1      23.677   8.604  20.182  1.00  0.00     0.219 HD
ENDBRANCH  11  12
BRANCH  11  14
HETATM   14  N3  UNL     1      24.163  10.930  20.098  1.00  0.00    -0.333 N 
HETATM   15  C11 UNL     1      25.588  11.003  20.265  1.00  0.00     0.155 C 
HETATM   16  C12 UNL     1      25.966  12.482  20.086  1.00  0.00     0.252 C 
HETATM   17  N4  UNL     1      26.044  12.743  18.682  1.00  0.00    -0.073 N 
HETATM   18  C13 UNL     1      24.888  13.455  18.175  1.00  0.00     0.237 C 
ATOM     19  H42 UNL     1      26.906  13.236  18.451  1.00  0.00     0.277 HD
ATOM     20  H41 UNL     1      26.200  11.881  18.159  1.00  0.00     0.277 HD
HETATM   21  C14 UNL     1      23.610  12.988  18.839  1.00  0.00     0.086 C 
HETATM   22  C15 UNL     1      23.502  11.503  18.906  1.00  0.00     0.274 C 
HETATM   23  F1  UNL     1      24.142  10.967  17.789  1.00  0.00    -0.227 F 
ENDBRANCH  11  14
ENDBRANCH   8  11
BRANCH   3  24
HETATM   24  C2  UNL     1      22.004  12.848  28.202  1.00  0.00     0.129 C 
BRANCH  24  25
HETATM   25  C3  UNL     1      21.130  12.131  29.159  1.00  0.00     0.003 C 
HETATM   26  C4  UNL     1      19.736  11.842  28.504  1.00  0.00     0.006 C 
HETATM   27  C5  UNL     1      19.177  12.128  29.895  1.00  0.00     0.001 C 
HETATM   28  C6  UNL     1      20.429  13.002  30.159  1.00  0.00     0.006 C 
ENDBRANCH  24  25
ENDBRANCH   3  24
TORSDOF 5
ENDMDL
MODEL 5
REMARK VINA RESULT: -7.407501146      1.630      2.159
REMARK  5 active torsions:
REMARK  status: ('A' for Active; 'I' for Inactive)
REMARK       I    between atoms: C1_2  and  N1_3 
REMARK       I    between atoms: C1_2  and  N2_10 
REMARK    1  A    between atoms: N1_3  and  C2_5 
REMARK    2  A    between atoms: C2_5  and  C3_6 
REMARK    3  A    between atoms: C9_13  and  C10_14 
REMARK    4  A    between atoms: C10_14  and  O2_15 
REMARK    5  A    between atoms: C10_14  and  N3_17 
ROOT
HETATM    1  O1  UNL     1      20.085  12.980  23.589  1.00  0.00    -0.247 OA
HETATM    2  C1  UNL     1      20.009  11.823  23.107  1.00  0.00     0.318 C 
HETATM    3  N1  UNL     1      19.221  10.767  23.544  1.00  0.00    -0.343 N 
ATOM      4  H1  UNL     1      19.296   9.901  23.010  1.00  0.00     0.164 HD
HETATM    5  N2  UNL     1      20.868  11.608  21.952  1.00  0.00    -0.334 N 
HETATM    6  C7  UNL     1      21.683  12.718  21.524  1.00  0.00     0.128 C 
HETATM    7  C8  UNL     1      22.421  12.478  20.225  1.00  0.00     0.033 C 
HETATM    8  C9  UNL     1      22.875  11.056  20.249  1.00  0.00     0.063 C 
HETATM    9  C16 UNL     1      21.669  10.165  20.102  1.00  0.00     0.033 C 
HETATM   10  C17 UNL     1      20.828  10.317  21.345  1.00  0.00     0.128 C 
ENDROOT
BRANCH   8  11
HETATM   11  C10 UNL     1      24.036  10.711  19.449  1.00  0.00     0.120 C 
BRANCH  11  12
HETATM   12  O2  UNL     1      23.891   9.833  18.495  1.00  0.00    -0.349 OA
ATOM     13  H2  UNL     1      23.852  10.145  17.598  1.00  0.00     0.219 HD
ENDBRANCH  11  12
BRANCH  11  14
HETATM   14  N3  UNL     1      25.356  11.193  19.538  1.00  0.00    -0.333 N 
HETATM   15  C11 UNL     1      26.307  10.700  20.495  1.00  0.00     0.155 C 
HETATM   16  C12 UNL     1      26.869  11.935  21.216  1.00  0.00     0.252 C 
HETATM   17  N4  UNL     1      27.887  12.497  20.385  1.00  0.00    -0.073 N 
HETATM   18  C13 UNL     1      27.448  13.683  19.677  1.00  0.00     0.237 C 
ATOM     19  H42 UNL     1      28.734  12.686  20.922  1.00  0.00     0.277 HD
ATOM     20  H41 UNL     1      28.255  11.800  19.737  1.00  0.00     0.277 HD
HETATM   21  C14 UNL     1      26.010  13.558  19.220  1.00  0.00     0.086 C 
HETATM   22  C15 UNL     1      25.721  12.249  18.570  1.00  0.00     0.274 C 
HETATM   23  F1  UNL     1      26.876  11.820  17.917  1.00  0.00    -0.227 F 
ENDBRANCH  11  14
ENDBRANCH   8  11
BRANCH   3  24
HETATM   24  C2  UNL     1      18.327  10.746  24.639  1.00  0.00     0.129 C 
BRANCH  24  25
HETATM   25  C3  UNL     1      16.902  10.593  24.267  1.00  0.00     0.003 C 
HETATM   26  C4  UNL     1      16.254   9.425  25.085  1.00  0.00     0.006 C 
HETATM   27  C5  UNL     1      15.488   9.132  23.797  1.00  0.00     0.001 C 
HETATM   28  C6  UNL     1      16.649   9.801  23.019  1.00  0.00     0.006 C 
ENDBRANCH  24  25
ENDBRANCH   3  24
TORSDOF 5
ENDMDL
