MODEL 1
REMARK VINA RESULT: -6.793138102      0.000      0.000
REMARK  3 active torsions:
REMARK  status: ('A' for Active; 'I' for Inactive)
REMARK    1  A    between atoms: C4_4  and  C5_5 
REMARK    2  A    between atoms: C5_5  and  N1_6 
REMARK    3  A    between atoms: C12_17  and  N3_18 
REMARK       I    between atoms: N3_18  and  C13_20 
ROOT
HETATM    1  C1  UNL     1      29.058  11.716  19.352  1.00  0.00     0.012 C 
HETATM    2  C2  UNL     1      27.810  11.547  20.191  1.00  0.00     0.011 C 
HETATM    3  C3  UNL     1      26.885  12.712  19.804  1.00  0.00     0.018 C 
HETATM    4  C4  UNL     1      25.967  12.897  20.959  1.00  0.00     0.060 C 
HETATM    5  C11 UNL     1      26.879  12.572  22.124  1.00  0.00     0.022 C 
HETATM    6  N2  UNL     1      26.728  12.913  23.344  1.00  0.00    -0.328 N 
ATOM      7  H2  UNL     1      27.428  12.620  24.025  1.00  0.00     0.173 HD
HETATM    8 BR1  UNL     1      25.271  13.929  23.932  1.00  0.00     0.047 Br
HETATM    9  C12 UNL     1      28.032  11.773  21.640  1.00  0.00     0.136 C 
ENDROOT
BRANCH   4  10
HETATM   10  C5  UNL     1      24.749  12.062  21.002  1.00  0.00     0.247 C 
BRANCH  10  11
HETATM   11  N1  UNL     1      23.495  12.648  20.703  1.00  0.00    -0.066 N 
HETATM   12  C6  UNL     1      22.450  12.483  21.668  1.00  0.00     0.272 C 
HETATM   13  C7  UNL     1      22.980  12.219  19.396  1.00  0.00     0.263 C 
HETATM   14  C8  UNL     1      23.462  13.084  18.272  1.00  0.00     0.195 C 
HETATM   15  O1  UNL     1      22.940  14.374  18.328  1.00  0.00    -0.388 OA
HETATM   16  C9  UNL     1      22.610  14.658  19.661  1.00  0.00     0.195 C 
HETATM   17  C10 UNL     1      23.705  14.086  20.530  1.00  0.00     0.263 C 
ENDBRANCH  10  11
ENDBRANCH   4  10
BRANCH   9  18
HETATM   18  N3  UNL     1      28.189  10.547  22.396  1.00  0.00    -0.335 N 
HETATM   19  C13 UNL     1      29.433   9.991  22.741  1.00  0.00     0.329 C 
HETATM   20  N4  UNL     1      29.490   8.794  23.480  1.00  0.00    -0.040 NA
HETATM   21  O2  UNL     1      30.488  10.554  22.397  1.00  0.00    -0.251 OA
ATOM     22  H3  UNL     1      27.346  10.058  22.697  1.00  0.00     0.164 HD
ENDBRANCH   9  18
TORSDOF 3
ENDMDL
MODEL 2
REMARK VINA RESULT: -6.609732990      1.926      2.625
REMARK  3 active torsions:
REMARK  status: ('A' for Active; 'I' for Inactive)
REMARK    1  A    between atoms: C4_4  and  C5_5 
REMARK    2  A    between atoms: C5_5  and  N1_6 
REMARK    3  A    between atoms: C12_17  and  N3_18 
REMARK       I    between atoms: N3_18  and  C13_20 
ROOT
HETATM    1  C1  UNL     1      28.535  10.991  19.135  1.00  0.00     0.012 C 
HETATM    2  C2  UNL     1      27.389  10.831  20.110  1.00  0.00     0.011 C 
HETATM    3  C3  UNL     1      26.221  11.636  19.518  1.00  0.00     0.018 C 
HETATM    4  C4  UNL     1      25.335  11.963  20.667  1.00  0.00     0.060 C 
HETATM    5  C11 UNL     1      26.345  12.165  21.778  1.00  0.00     0.022 C 
HETATM    6  N2  UNL     1      26.176  12.804  22.870  1.00  0.00    -0.328 N 
ATOM      7  H2  UNL     1      26.952  12.858  23.530  1.00  0.00     0.173 HD
HETATM    8 BR1  UNL     1      24.563  13.646  23.305  1.00  0.00     0.047 Br
HETATM    9  C12 UNL     1      27.620  11.499  21.414  1.00  0.00     0.136 C 
ENDROOT
BRANCH   4  10
HETATM   10  C5  UNL     1      24.327  10.956  21.057  1.00  0.00     0.247 C 
BRANCH  10  11
HETATM   11  N1  UNL     1      23.003  11.075  20.567  1.00  0.00    -0.066 N 
HETATM   12  C6  UNL     1      22.824  11.771  19.328  1.00  0.00     0.272 C 
HETATM   13  C7  UNL     1      22.097  11.670  21.558  1.00  0.00     0.263 C 
HETATM   14  C8  UNL     1      21.488  10.650  22.471  1.00  0.00     0.195 C 
HETATM   15  O1  UNL     1      20.602   9.802  21.810  1.00  0.00    -0.388 OA
HETATM   16  C9  UNL     1      20.962   9.759  20.455  1.00  0.00     0.195 C 
HETATM   17  C10 UNL     1      22.470   9.724  20.388  1.00  0.00     0.263 C 
ENDBRANCH  10  11
ENDBRANCH   4  10
BRANCH   9  18
HETATM   18  N3  UNL     1      28.067  10.594  22.454  1.00  0.00    -0.335 N 
HETATM   19  C13 UNL     1      29.418  10.324  22.733  1.00  0.00     0.329 C 
HETATM   20  N4  UNL     1      29.759   9.430  23.764  1.00  0.00    -0.040 NA
HETATM   21  O2  UNL     1      30.316  10.876  22.071  1.00  0.00    -0.251 OA
ATOM     22  H3  UNL     1      27.358  10.124  23.018  1.00  0.00     0.164 HD
ENDBRANCH   9  18
TORSDOF 3
ENDMDL
MODEL 3
REMARK VINA RESULT: -6.484217904      2.480      3.343
REMARK  3 active torsions:
REMARK  status: ('A' for Active; 'I' for Inactive)
REMARK    1  A    between atoms: C4_4  and  C5_5 
REMARK    2  A    between atoms: C5_5  and  N1_6 
REMARK    3  A    between atoms: C12_17  and  N3_18 
REMARK       I    between atoms: N3_18  and  C13_20 
ROOT
HETATM    1  C1  UNL     1      26.752  11.828  18.730  1.00  0.00     0.012 C 
HETATM    2  C2  UNL     1      26.044  11.520  20.032  1.00  0.00     0.011 C 
HETATM    3  C3  UNL     1      24.718  12.295  19.981  1.00  0.00     0.018 C 
HETATM    4  C4  UNL     1      24.301  12.473  21.397  1.00  0.00     0.060 C 
HETATM    5  C11 UNL     1      25.640  12.648  22.085  1.00  0.00     0.022 C 
HETATM    6  N2  UNL     1      25.862  13.185  23.221  1.00  0.00    -0.328 N 
ATOM      7  H2  UNL     1      26.822  13.234  23.560  1.00  0.00     0.173 HD
HETATM    8 BR1  UNL     1      24.494  13.887  24.288  1.00  0.00     0.047 Br
HETATM    9  C12 UNL     1      26.714  12.093  21.224  1.00  0.00     0.136 C 
ENDROOT
BRANCH   4  10
HETATM   10  C5  UNL     1      23.533  11.377  22.023  1.00  0.00     0.247 C 
BRANCH  10  11
HETATM   11  N1  UNL     1      22.165  11.577  22.330  1.00  0.00    -0.066 N 
HETATM   12  C6  UNL     1      21.574  12.811  21.908  1.00  0.00     0.272 C 
HETATM   13  C7  UNL     1      21.887  11.406  23.762  1.00  0.00     0.263 C 
HETATM   14  C8  UNL     1      21.588   9.984  24.128  1.00  0.00     0.195 C 
HETATM   15  O1  UNL     1      20.383   9.537  23.591  1.00  0.00    -0.388 OA
HETATM   16  C9  UNL     1      20.103  10.294  22.445  1.00  0.00     0.195 C 
HETATM   17  C10 UNL     1      21.405  10.494  21.705  1.00  0.00     0.263 C 
ENDBRANCH  10  11
ENDBRANCH   4  10
BRANCH   9  18
HETATM   18  N3  UNL     1      27.534  11.138  21.940  1.00  0.00    -0.335 N 
HETATM   19  C13 UNL     1      28.681  11.482  22.675  1.00  0.00     0.329 C 
HETATM   20  N4  UNL     1      29.419  10.485  23.340  1.00  0.00    -0.040 NA
HETATM   21  O2  UNL     1      29.049  12.669  22.742  1.00  0.00    -0.251 OA
ATOM     22  H3  UNL     1      27.263  10.155  21.908  1.00  0.00     0.164 HD
ENDBRANCH   9  18
TORSDOF 3
ENDMDL
MODEL 4
REMARK VINA RESULT: -6.348713667      2.431      3.277
REMARK  3 active torsions:
REMARK  status: ('A' for Active; 'I' for Inactive)
REMARK    1  A    between atoms: C4_4  and  C5_5 
REMARK    2  A    between atoms: C5_5  and  N1_6 
REMARK    3  A    between atoms: C12_17  and  N3_18 
REMARK       I    between atoms: N3_18  and  C13_20 
ROOT
HETATM    1  C1  UNL     1      28.772   9.486  21.611  1.00  0.00     0.012 C 
HETATM    2  C2  UNL     1      27.593  10.434  21.601  1.00  0.00     0.011 C 
HETATM    3  C3  UNL     1      26.960  10.301  20.207  1.00  0.00     0.018 C 
HETATM    4  C4  UNL     1      26.212  11.567  19.981  1.00  0.00     0.060 C 
HETATM    5  C11 UNL     1      27.105  12.572  20.682  1.00  0.00     0.022 C 
HETATM    6  N2  UNL     1      27.141  13.834  20.498  1.00  0.00    -0.328 N 
ATOM      7  H2  UNL     1      27.799  14.390  21.045  1.00  0.00     0.173 HD
HETATM    8 BR1  UNL     1      26.036  14.705  19.264  1.00  0.00     0.047 Br
HETATM    9  C12 UNL     1      27.979  11.866  21.650  1.00  0.00     0.136 C 
ENDROOT
BRANCH   4  10
HETATM   10  C5  UNL     1      24.832  11.645  20.503  1.00  0.00     0.247 C 
BRANCH  10  11
HETATM   11  N1  UNL     1      23.756  11.232  19.679  1.00  0.00    -0.066 N 
HETATM   12  C6  UNL     1      24.029  11.059  18.285  1.00  0.00     0.272 C 
HETATM   13  C7  UNL     1      22.590  12.115  19.808  1.00  0.00     0.263 C 
HETATM   14  C8  UNL     1      21.674  11.707  20.921  1.00  0.00     0.195 C 
HETATM   15  O1  UNL     1      21.035  10.495  20.669  1.00  0.00    -0.388 OA
HETATM   16  C9  UNL     1      21.828   9.754  19.781  1.00  0.00     0.195 C 
HETATM   17  C10 UNL     1      23.269   9.950  20.191  1.00  0.00     0.263 C 
ENDBRANCH  10  11
ENDBRANCH   4  10
BRANCH   9  18
HETATM   18  N3  UNL     1      27.885  12.443  22.976  1.00  0.00    -0.335 N 
HETATM   19  C13 UNL     1      28.680  13.510  23.426  1.00  0.00     0.329 C 
HETATM   20  N4  UNL     1      28.519  14.007  24.733  1.00  0.00    -0.040 NA
HETATM   21  O2  UNL     1      29.528  14.021  22.672  1.00  0.00    -0.251 OA
ATOM     22  H3  UNL     1      27.200  12.050  23.622  1.00  0.00     0.164 HD
ENDBRANCH   9  18
TORSDOF 3
ENDMDL
MODEL 5
REMARK VINA RESULT: -6.322155079      3.340      6.274
REMARK  3 active torsions:
REMARK  status: ('A' for Active; 'I' for Inactive)
REMARK    1  A    between atoms: C4_4  and  C5_5 
REMARK    2  A    between atoms: C5_5  and  N1_6 
REMARK    3  A    between atoms: C12_17  and  N3_18 
REMARK       I    between atoms: N3_18  and  C13_20 
ROOT
HETATM    1  C1  UNL     1      21.544  15.525  22.843  1.00  0.00     0.012 C 
HETATM    2  C2  UNL     1      22.246  14.216  22.552  1.00  0.00     0.011 C 
HETATM    3  C3  UNL     1      22.556  14.234  21.047  1.00  0.00     0.018 C 
HETATM    4  C4  UNL     1      22.701  12.808  20.649  1.00  0.00     0.060 C 
HETATM    5  C11 UNL     1      21.675  12.141  21.543  1.00  0.00     0.022 C 
HETATM    6  N2  UNL     1      21.126  11.001  21.373  1.00  0.00    -0.328 N 
ATOM      7  H2  UNL     1      20.447  10.678  22.062  1.00  0.00     0.173 HD
HETATM    8 BR1  UNL     1      21.518   9.902  19.911  1.00  0.00     0.047 Br
HETATM    9  C12 UNL     1      21.370  13.027  22.693  1.00  0.00     0.136 C 
ENDROOT
BRANCH   4  10
HETATM   10  C5  UNL     1      24.029  12.184  20.825  1.00  0.00     0.247 C 
BRANCH  10  11
HETATM   11  N1  UNL     1      24.864  12.002  19.696  1.00  0.00    -0.066 N 
HETATM   12  C6  UNL     1      24.288  12.252  18.409  1.00  0.00     0.272 C 
HETATM   13  C7  UNL     1      25.475  10.667  19.669  1.00  0.00     0.263 C 
HETATM   14  C8  UNL     1      26.768  10.606  20.424  1.00  0.00     0.195 C 
HETATM   15  O1  UNL     1      27.777  11.348  19.815  1.00  0.00    -0.388 OA
HETATM   16  C9  UNL     1      27.180  12.359  19.048  1.00  0.00     0.195 C 
HETATM   17  C10 UNL     1      26.012  12.898  19.840  1.00  0.00     0.263 C 
ENDBRANCH  10  11
ENDBRANCH   4  10
BRANCH   9  18
HETATM   18  N3  UNL     1      21.531  12.339  23.957  1.00  0.00    -0.335 N 
HETATM   19  C13 UNL     1      20.502  11.635  24.605  1.00  0.00     0.329 C 
HETATM   20  N4  UNL     1      20.750  10.996  25.834  1.00  0.00    -0.040 NA
HETATM   21  O2  UNL     1      19.368  11.574  24.095  1.00  0.00    -0.251 OA
ATOM     22  H3  UNL     1      22.447  12.368  24.405  1.00  0.00     0.164 HD
ENDBRANCH   9  18
TORSDOF 3
ENDMDL
