MODEL 1
REMARK VINA RESULT: -8.262158210      0.000      0.000
REMARK  3 active torsions:
REMARK  status: ('A' for Active; 'I' for Inactive)
REMARK    1  A    between atoms: C1_2  and  C2_4 
REMARK       I    between atoms: N1_8  and  C6_9 
REMARK    2  A    between atoms: C6_9  and  C7_11 
REMARK    3  A    between atoms: C13_17  and  C14_18 
REMARK       I    between atoms: C14_18  and  N2_20 
ROOT
HETATM    1  C7  UNL     1      25.125  12.133  20.154  1.00  0.00     0.095 C 
HETATM    2  C8  UNL     1      24.997  11.959  18.661  1.00  0.00    -0.000 C 
HETATM    3  C9  UNL     1      24.134  13.078  18.127  1.00  0.00     0.006 C 
HETATM    4  C10 UNL     1      22.814  12.817  18.860  1.00  0.00     0.006 C 
HETATM    5  C11 UNL     1      22.955  11.486  19.527  1.00  0.00    -0.000 C 
HETATM    6  C12 UNL     1      23.971  10.810  18.588  1.00  0.00     0.011 C 
HETATM    7  C13 UNL     1      23.851  11.577  20.743  1.00  0.00     0.095 C 
ENDROOT
BRANCH   1   8
HETATM    8  C6  UNL     1      26.313  11.370  20.601  1.00  0.00     0.226 C 
HETATM    9  N1  UNL     1      27.610  11.924  20.634  1.00  0.00    -0.337 N 
HETATM   10  C2  UNL     1      28.844  11.240  21.027  1.00  0.00     0.188 C 
HETATM   11  C5  UNL     1      27.929  13.295  20.294  1.00  0.00     0.127 C 
HETATM   12  C3  UNL     1      29.950  12.153  20.613  1.00  0.00     0.038 C 
HETATM   13  C4  UNL     1      29.288  13.081  19.613  1.00  0.00     0.022 C 
HETATM   14  O3  UNL     1      26.162  10.155  20.973  1.00  0.00    -0.273 OA
BRANCH  10  15
HETATM   15  C1  UNL     1      28.846  10.940  22.475  1.00  0.00     0.196 C 
HETATM   16  O1  UNL     1      28.718  11.807  23.364  1.00  0.00    -0.646 OA
HETATM   17  O2  UNL     1      29.002   9.617  22.862  1.00  0.00    -0.646 OA
ENDBRANCH  10  15
ENDBRANCH   1   8
BRANCH   7  18
HETATM   18  C14 UNL     1      23.308  12.386  21.831  1.00  0.00     0.225 C 
HETATM   19  O4  UNL     1      23.414  13.635  21.772  1.00  0.00    -0.273 OA
HETATM   20  N2  UNL     1      22.673  11.747  22.925  1.00  0.00    -0.349 N 
HETATM   21  C15 UNL     1      22.097  12.450  24.064  1.00  0.00     0.129 C 
HETATM   22  C18 UNL     1      22.470  10.323  23.145  1.00  0.00     0.162 C 
HETATM   23  C16 UNL     1      21.614  11.414  25.016  1.00  0.00     0.058 C 
HETATM   24  C17 UNL     1      22.395  10.183  24.651  1.00  0.00     0.189 C 
HETATM   25  F1  UNL     1      21.689   9.051  25.005  1.00  0.00    -0.248 F 
ENDBRANCH   7  18
TORSDOF 3
ENDMDL
MODEL 2
REMARK VINA RESULT: -8.256648629      1.267      1.281
REMARK  3 active torsions:
REMARK  status: ('A' for Active; 'I' for Inactive)
REMARK    1  A    between atoms: C1_2  and  C2_4 
REMARK       I    between atoms: N1_8  and  C6_9 
REMARK    2  A    between atoms: C6_9  and  C7_11 
REMARK    3  A    between atoms: C13_17  and  C14_18 
REMARK       I    between atoms: C14_18  and  N2_20 
ROOT
HETATM    1  C7  UNL     1      25.125  12.461  20.107  1.00  0.00     0.095 C 
HETATM    2  C8  UNL     1      25.164  12.538  18.601  1.00  0.00    -0.000 C 
HETATM    3  C9  UNL     1      24.375  13.751  18.169  1.00  0.00     0.006 C 
HETATM    4  C10 UNL     1      22.978  13.408  18.699  1.00  0.00     0.006 C 
HETATM    5  C11 UNL     1      23.033  11.982  19.148  1.00  0.00    -0.000 C 
HETATM    6  C12 UNL     1      24.144  11.443  18.226  1.00  0.00     0.011 C 
HETATM    7  C13 UNL     1      23.788  11.849  20.453  1.00  0.00     0.095 C 
ENDROOT
BRANCH   1   8
HETATM    8  C6  UNL     1      26.249  11.604  20.549  1.00  0.00     0.226 C 
HETATM    9  N1  UNL     1      27.583  12.059  20.597  1.00  0.00    -0.337 N 
HETATM   10  C2  UNL     1      28.760  11.278  20.986  1.00  0.00     0.188 C 
HETATM   11  C5  UNL     1      28.007  13.406  20.279  1.00  0.00     0.127 C 
HETATM   12  C3  UNL     1      29.934  12.111  20.591  1.00  0.00     0.038 C 
HETATM   13  C4  UNL     1      29.350  13.101  19.602  1.00  0.00     0.022 C 
HETATM   14  O3  UNL     1      26.004  10.399  20.901  1.00  0.00    -0.273 OA
BRANCH  10  15
HETATM   15  C1  UNL     1      28.731  10.958  22.429  1.00  0.00     0.196 C 
HETATM   16  O1  UNL     1      28.630  11.817  23.329  1.00  0.00    -0.646 OA
HETATM   17  O2  UNL     1      28.822   9.624  22.799  1.00  0.00    -0.646 OA
ENDBRANCH  10  15
ENDBRANCH   1   8
BRANCH   7  18
HETATM   18  C14 UNL     1      23.132  12.483  21.593  1.00  0.00     0.225 C 
HETATM   19  O4  UNL     1      23.702  13.443  22.166  1.00  0.00    -0.273 OA
HETATM   20  N2  UNL     1      21.871  12.003  22.027  1.00  0.00    -0.349 N 
HETATM   21  C15 UNL     1      21.126  12.555  23.151  1.00  0.00     0.129 C 
HETATM   22  C18 UNL     1      21.084  10.909  21.478  1.00  0.00     0.162 C 
HETATM   23  C16 UNL     1      19.908  11.717  23.319  1.00  0.00     0.058 C 
HETATM   24  C17 UNL     1      20.257  10.418  22.649  1.00  0.00     0.189 C 
HETATM   25  F1  UNL     1      19.110   9.787  22.210  1.00  0.00    -0.248 F 
ENDBRANCH   7  18
TORSDOF 3
ENDMDL
MODEL 3
REMARK VINA RESULT: -7.978771192      2.601      6.246
REMARK  3 active torsions:
REMARK  status: ('A' for Active; 'I' for Inactive)
REMARK    1  A    between atoms: C1_2  and  C2_4 
REMARK       I    between atoms: N1_8  and  C6_9 
REMARK    2  A    between atoms: C6_9  and  C7_11 
REMARK    3  A    between atoms: C13_17  and  C14_18 
REMARK       I    between atoms: C14_18  and  N2_20 
ROOT
HETATM    1  C7  UNL     1      23.646  11.363  21.117  1.00  0.00     0.095 C 
HETATM    2  C8  UNL     1      22.434  11.240  20.225  1.00  0.00    -0.000 C 
HETATM    3  C9  UNL     1      22.508   9.914  19.507  1.00  0.00     0.006 C 
HETATM    4  C10 UNL     1      23.806  10.074  18.708  1.00  0.00     0.006 C 
HETATM    5  C11 UNL     1      24.211  11.508  18.840  1.00  0.00    -0.000 C 
HETATM    6  C12 UNL     1      22.835  12.166  19.059  1.00  0.00     0.011 C 
HETATM    7  C13 UNL     1      24.778  11.791  20.214  1.00  0.00     0.095 C 
ENDROOT
BRANCH   1   8
HETATM    8  C6  UNL     1      23.351  12.384  22.148  1.00  0.00     0.226 C 
HETATM    9  N1  UNL     1      22.790  12.065  23.402  1.00  0.00    -0.337 N 
HETATM   10  C2  UNL     1      22.434  13.007  24.466  1.00  0.00     0.188 C 
HETATM   11  C5  UNL     1      22.487  10.723  23.852  1.00  0.00     0.127 C 
HETATM   12  C3  UNL     1      21.624  12.215  25.438  1.00  0.00     0.038 C 
HETATM   13  C4  UNL     1      21.199  11.000  24.638  1.00  0.00     0.022 C 
HETATM   14  O3  UNL     1      23.614  13.611  21.893  1.00  0.00    -0.273 OA
BRANCH  10  15
HETATM   15  C1  UNL     1      23.644  13.608  25.068  1.00  0.00     0.196 C 
HETATM   16  O1  UNL     1      24.620  12.945  25.476  1.00  0.00    -0.646 OA
HETATM   17  O2  UNL     1      23.691  14.989  25.186  1.00  0.00    -0.646 OA
ENDBRANCH  10  15
ENDBRANCH   1   8
BRANCH   7  18
HETATM   18  C14 UNL     1      26.039  11.111  20.496  1.00  0.00     0.225 C 
HETATM   19  O4  UNL     1      26.014   9.992  21.064  1.00  0.00    -0.273 OA
HETATM   20  N2  UNL     1      27.261  11.725  20.122  1.00  0.00    -0.349 N 
HETATM   21  C15 UNL     1      28.576  11.142  20.353  1.00  0.00     0.129 C 
HETATM   22  C18 UNL     1      27.463  13.006  19.464  1.00  0.00     0.162 C 
HETATM   23  C16 UNL     1      29.580  12.138  19.892  1.00  0.00     0.058 C 
HETATM   24  C17 UNL     1      28.841  13.446  19.912  1.00  0.00     0.189 C 
HETATM   25  F1  UNL     1      29.399  14.321  19.002  1.00  0.00    -0.248 F 
ENDBRANCH   7  18
TORSDOF 3
ENDMDL
MODEL 4
REMARK VINA RESULT: -7.900946675      1.197      1.496
REMARK  3 active torsions:
REMARK  status: ('A' for Active; 'I' for Inactive)
REMARK    1  A    between atoms: C1_2  and  C2_4 
REMARK       I    between atoms: N1_8  and  C6_9 
REMARK    2  A    between atoms: C6_9  and  C7_11 
REMARK    3  A    between atoms: C13_17  and  C14_18 
REMARK       I    between atoms: C14_18  and  N2_20 
ROOT
HETATM    1  C7  UNL     1      24.836  12.886  20.784  1.00  0.00     0.095 C 
HETATM    2  C8  UNL     1      24.277  13.021  19.389  1.00  0.00    -0.000 C 
HETATM    3  C9  UNL     1      23.625  14.378  19.270  1.00  0.00     0.006 C 
HETATM    4  C10 UNL     1      22.524  14.279  20.331  1.00  0.00     0.006 C 
HETATM    5  C11 UNL     1      22.486  12.850  20.770  1.00  0.00    -0.000 C 
HETATM    6  C12 UNL     1      23.006  12.154  19.498  1.00  0.00     0.011 C 
HETATM    7  C13 UNL     1      23.663  12.521  21.662  1.00  0.00     0.095 C 
ENDROOT
BRANCH   1   8
HETATM    8  C6  UNL     1      25.859  11.816  20.764  1.00  0.00     0.226 C 
HETATM    9  N1  UNL     1      27.238  12.079  20.631  1.00  0.00    -0.337 N 
HETATM   10  C2  UNL     1      28.316  11.089  20.567  1.00  0.00     0.188 C 
HETATM   11  C5  UNL     1      27.821  13.403  20.553  1.00  0.00     0.127 C 
HETATM   12  C3  UNL     1      29.526  11.851  20.136  1.00  0.00     0.038 C 
HETATM   13  C4  UNL     1      28.953  13.127  19.553  1.00  0.00     0.022 C 
HETATM   14  O3  UNL     1      25.480  10.598  20.869  1.00  0.00    -0.273 OA
BRANCH  10  15
HETATM   15  C1  UNL     1      28.488  10.408  21.868  1.00  0.00     0.196 C 
HETATM   16  O1  UNL     1      28.278   9.191  22.048  1.00  0.00    -0.646 OA
HETATM   17  O2  UNL     1      28.905  11.171  22.948  1.00  0.00    -0.646 OA
ENDBRANCH  10  15
ENDBRANCH   1   8
BRANCH   7  18
HETATM   18  C14 UNL     1      23.656  13.215  22.947  1.00  0.00     0.225 C 
HETATM   19  O4  UNL     1      24.422  14.195  23.114  1.00  0.00    -0.273 OA
HETATM   20  N2  UNL     1      22.787  12.771  23.975  1.00  0.00    -0.349 N 
HETATM   21  C15 UNL     1      22.695  13.383  25.294  1.00  0.00     0.129 C 
HETATM   22  C18 UNL     1      21.846  11.662  23.944  1.00  0.00     0.162 C 
HETATM   23  C16 UNL     1      21.736  12.568  26.086  1.00  0.00     0.058 C 
HETATM   24  C17 UNL     1      21.721  11.235  25.392  1.00  0.00     0.189 C 
HETATM   25  F1  UNL     1      20.517  10.598  25.615  1.00  0.00    -0.248 F 
ENDBRANCH   7  18
TORSDOF 3
ENDMDL
MODEL 5
REMARK VINA RESULT: -7.828250543      0.955      1.259
REMARK  3 active torsions:
REMARK  status: ('A' for Active; 'I' for Inactive)
REMARK    1  A    between atoms: C1_2  and  C2_4 
REMARK       I    between atoms: N1_8  and  C6_9 
REMARK    2  A    between atoms: C6_9  and  C7_11 
REMARK    3  A    between atoms: C13_17  and  C14_18 
REMARK       I    between atoms: C14_18  and  N2_20 
ROOT
HETATM    1  C7  UNL     1      25.124  11.948  20.348  1.00  0.00     0.095 C 
HETATM    2  C8  UNL     1      24.613  11.301  19.084  1.00  0.00    -0.000 C 
HETATM    3  C9  UNL     1      23.702  12.283  18.386  1.00  0.00     0.006 C 
HETATM    4  C10 UNL     1      22.598  12.467  19.433  1.00  0.00     0.006 C 
HETATM    5  C11 UNL     1      22.836  11.433  20.487  1.00  0.00    -0.000 C 
HETATM    6  C12 UNL     1      23.545  10.347  19.656  1.00  0.00     0.011 C 
HETATM    7  C13 UNL     1      24.014  11.804  21.361  1.00  0.00     0.095 C 
ENDROOT
BRANCH   1   8
HETATM    8  C6  UNL     1      26.346  11.225  20.769  1.00  0.00     0.226 C 
HETATM    9  N1  UNL     1      27.623  11.825  20.783  1.00  0.00    -0.337 N 
HETATM   10  C2  UNL     1      28.887  11.182  21.149  1.00  0.00     0.188 C 
HETATM   11  C5  UNL     1      27.887  13.208  20.447  1.00  0.00     0.127 C 
HETATM   12  C3  UNL     1      29.953  12.137  20.722  1.00  0.00     0.038 C 
HETATM   13  C4  UNL     1      29.241  13.047  19.741  1.00  0.00     0.022 C 
HETATM   14  O3  UNL     1      26.244  10.003  21.134  1.00  0.00    -0.273 OA
BRANCH  10  15
HETATM   15  C1  UNL     1      28.926  10.873  22.595  1.00  0.00     0.196 C 
HETATM   16  O1  UNL     1      29.160   9.737  23.056  1.00  0.00    -0.646 OA
HETATM   17  O2  UNL     1      28.687  11.910  23.485  1.00  0.00    -0.646 OA
ENDBRANCH  10  15
ENDBRANCH   1   8
BRANCH   7  18
HETATM   18  C14 UNL     1      23.805  12.998  22.175  1.00  0.00     0.225 C 
HETATM   19  O4  UNL     1      24.301  14.087  21.796  1.00  0.00    -0.273 OA
HETATM   20  N2  UNL     1      23.049  12.904  23.370  1.00  0.00    -0.349 N 
HETATM   21  C15 UNL     1      22.778  14.026  24.260  1.00  0.00     0.129 C 
HETATM   22  C18 UNL     1      22.413  11.729  23.945  1.00  0.00     0.162 C 
HETATM   23  C16 UNL     1      22.032  13.484  25.428  1.00  0.00     0.058 C 
HETATM   24  C17 UNL     1      22.364  12.018  25.431  1.00  0.00     0.189 C 
HETATM   25  F1  UNL     1      21.349  11.305  26.038  1.00  0.00    -0.248 F 
ENDBRANCH   7  18
TORSDOF 3
ENDMDL
