MODEL 1
REMARK VINA RESULT: -7.319738649      0.000      0.000
REMARK  4 active torsions:
REMARK  status: ('A' for Active; 'I' for Inactive)
REMARK       I    between atoms: C1_2  and  N1_3 
REMARK    1  A    between atoms: C1_2  and  C10_20 
REMARK    2  A    between atoms: N1_3  and  S1_5 
REMARK    3  A    between atoms: S1_5  and  N2_8 
REMARK    4  A    between atoms: C9_17  and  O4_18 
ROOT
HETATM    1  S1  UNL     1      20.289  11.358  23.671  1.00  0.00     0.308 S 
HETATM    2  O2  UNL     1      18.907  10.879  23.325  1.00  0.00    -0.188 OA
HETATM    3  O3  UNL     1      21.061  10.129  24.143  1.00  0.00    -0.188 OA
ENDROOT
BRANCH   1   4
HETATM    4  N1  UNL     1      21.094  12.010  22.330  1.00  0.00    -0.241 N 
HETATM    5  C1  UNL     1      21.234  11.289  21.118  1.00  0.00     0.236 C 
HETATM    6  O1  UNL     1      20.744  10.138  21.042  1.00  0.00    -0.272 OA
ATOM      7  H1  UNL     1      21.490  12.948  22.397  1.00  0.00     0.182 HD
BRANCH   5   8
HETATM    8  C10 UNL     1      21.932  11.839  19.935  1.00  0.00     0.079 C 
HETATM    9  C11 UNL     1      22.367  13.245  20.246  1.00  0.00     0.014 C 
HETATM   10  C12 UNL     1      22.895  13.868  19.006  1.00  0.00     0.001 C 
HETATM   11  C13 UNL     1      23.498  12.995  17.988  1.00  0.00     0.000 C 
HETATM   12  C14 UNL     1      23.826  11.604  18.375  1.00  0.00     0.001 C 
HETATM   13  C15 UNL     1      23.156  11.067  19.574  1.00  0.00     0.014 C 
ENDBRANCH   5   8
ENDBRANCH   1   4
BRANCH   1  14
HETATM   14  N2  UNL     1      20.217  12.430  25.010  1.00  0.00    -0.139 NA
HETATM   15  C2  UNL     1      19.040  13.239  25.033  1.00  0.00     0.142 C 
HETATM   16  C3  UNL     1      19.037  13.701  26.485  1.00  0.00     0.258 C 
HETATM   17  N3  UNL     1      19.777  12.677  27.207  1.00  0.00    -0.026 N 
HETATM   18  C4  UNL     1      18.983  12.128  28.294  1.00  0.00     0.242 C 
HETATM   19  C8  UNL     1      21.019  13.227  27.686  1.00  0.00     0.242 C 
HETATM   20  C9  UNL     1      20.097  11.658  26.227  1.00  0.00     0.420 C 
HETATM   21  C5  UNL     1      19.072  13.057  29.463  1.00  0.00     0.028 C 
HETATM   22  C6  UNL     1      20.455  12.841  30.084  1.00  0.00     0.003 C 
HETATM   23  C7  UNL     1      21.467  12.586  28.990  1.00  0.00     0.028 C 
BRANCH  20  24
HETATM   24  O4  UNL     1      19.037  10.762  26.118  1.00  0.00    -0.357 OA
ATOM     25  H4  UNL     1      18.686  10.569  26.979  1.00  0.00     0.213 HD
ENDBRANCH  20  24
ENDBRANCH   1  14
TORSDOF 4
ENDMDL
MODEL 2
REMARK VINA RESULT: -7.250470171      1.337      1.493
REMARK  4 active torsions:
REMARK  status: ('A' for Active; 'I' for Inactive)
REMARK       I    between atoms: C1_2  and  N1_3 
REMARK    1  A    between atoms: C1_2  and  C10_20 
REMARK    2  A    between atoms: N1_3  and  S1_5 
REMARK    3  A    between atoms: S1_5  and  N2_8 
REMARK    4  A    between atoms: C9_17  and  O4_18 
ROOT
HETATM    1  S1  UNL     1      21.431  10.133  23.762  1.00  0.00     0.308 S 
HETATM    2  O2  UNL     1      20.042   9.653  23.445  1.00  0.00    -0.188 OA
HETATM    3  O3  UNL     1      22.026   9.112  24.726  1.00  0.00    -0.188 OA
ENDROOT
BRANCH   1   4
HETATM    4  N1  UNL     1      22.414  10.200  22.383  1.00  0.00    -0.241 N 
HETATM    5  C1  UNL     1      22.000  10.861  21.200  1.00  0.00     0.236 C 
HETATM    6  O1  UNL     1      20.875  11.411  21.179  1.00  0.00    -0.272 OA
ATOM      7  H1  UNL     1      23.331   9.751  22.405  1.00  0.00     0.182 HD
BRANCH   5   8
HETATM    8  C10 UNL     1      22.843  10.931  19.986  1.00  0.00     0.079 C 
HETATM    9  C11 UNL     1      22.812  12.341  19.461  1.00  0.00     0.014 C 
HETATM   10  C12 UNL     1      23.494  12.376  18.144  1.00  0.00     0.001 C 
HETATM   11  C13 UNL     1      24.555  11.393  17.880  1.00  0.00     0.000 C 
HETATM   12  C14 UNL     1      25.095  10.632  19.029  1.00  0.00     0.001 C 
HETATM   13  C15 UNL     1      24.270  10.590  20.252  1.00  0.00     0.014 C 
ENDBRANCH   5   8
ENDBRANCH   1   4
BRANCH   1  14
HETATM   14  N2  UNL     1      21.354  11.621  24.615  1.00  0.00    -0.139 NA
HETATM   15  C2  UNL     1      20.237  12.433  24.251  1.00  0.00     0.142 C 
HETATM   16  C3  UNL     1      20.179  13.390  25.436  1.00  0.00     0.258 C 
HETATM   17  N3  UNL     1      20.801  12.667  26.535  1.00  0.00    -0.026 N 
HETATM   18  C4  UNL     1      19.907  12.585  27.678  1.00  0.00     0.242 C 
HETATM   19  C8  UNL     1      22.048  13.299  26.884  1.00  0.00     0.242 C 
HETATM   20  C9  UNL     1      21.108  11.349  26.015  1.00  0.00     0.420 C 
HETATM   21  C5  UNL     1      19.990  13.870  28.439  1.00  0.00     0.028 C 
HETATM   22  C6  UNL     1      21.316  13.834  29.206  1.00  0.00     0.003 C 
HETATM   23  C7  UNL     1      22.372  13.156  28.362  1.00  0.00     0.028 C 
BRANCH  20  24
HETATM   24  O4  UNL     1      19.996  10.521  26.149  1.00  0.00    -0.357 OA
ATOM     25  H4  UNL     1      19.203  11.043  26.161  1.00  0.00     0.213 HD
ENDBRANCH  20  24
ENDBRANCH   1  14
TORSDOF 4
ENDMDL
MODEL 3
REMARK VINA RESULT: -7.207241805      1.134      1.189
REMARK  4 active torsions:
REMARK  status: ('A' for Active; 'I' for Inactive)
REMARK       I    between atoms: C1_2  and  N1_3 
REMARK    1  A    between atoms: C1_2  and  C10_20 
REMARK    2  A    between atoms: N1_3  and  S1_5 
REMARK    3  A    between atoms: S1_5  and  N2_8 
REMARK    4  A    between atoms: C9_17  and  O4_18 
ROOT
HETATM    1  S1  UNL     1      21.439  10.919  23.964  1.00  0.00     0.308 S 
HETATM    2  O2  UNL     1      20.763   9.593  23.751  1.00  0.00    -0.188 OA
HETATM    3  O3  UNL     1      22.808  10.608  24.562  1.00  0.00    -0.188 OA
ENDROOT
BRANCH   1   4
HETATM    4  N1  UNL     1      21.671  11.759  22.511  1.00  0.00    -0.241 N 
HETATM    5  C1  UNL     1      22.246  11.141  21.373  1.00  0.00     0.236 C 
HETATM    6  O1  UNL     1      22.589   9.939  21.449  1.00  0.00    -0.272 OA
ATOM      7  H1  UNL     1      21.388  12.738  22.454  1.00  0.00     0.182 HD
BRANCH   5   8
HETATM    8  C10 UNL     1      22.457  11.856  20.094  1.00  0.00     0.079 C 
HETATM    9  C11 UNL     1      22.655  13.318  20.389  1.00  0.00     0.014 C 
HETATM   10  C12 UNL     1      22.675  14.066  19.108  1.00  0.00     0.001 C 
HETATM   11  C13 UNL     1      23.142  13.370  17.899  1.00  0.00     0.000 C 
HETATM   12  C14 UNL     1      23.849  12.082  18.073  1.00  0.00     0.001 C 
HETATM   13  C15 UNL     1      23.667  11.385  19.361  1.00  0.00     0.014 C 
ENDBRANCH   5   8
ENDBRANCH   1   4
BRANCH   1  14
HETATM   14  N2  UNL     1      20.586  11.825  25.146  1.00  0.00    -0.139 NA
HETATM   15  C2  UNL     1      19.187  11.542  25.186  1.00  0.00     0.142 C 
HETATM   16  C3  UNL     1      18.819  12.101  26.556  1.00  0.00     0.258 C 
HETATM   17  N3  UNL     1      20.053  12.053  27.325  1.00  0.00    -0.026 N 
HETATM   18  C4  UNL     1      19.872  11.298  28.554  1.00  0.00     0.242 C 
HETATM   19  C8  UNL     1      20.507  13.394  27.591  1.00  0.00     0.242 C 
HETATM   20  C9  UNL     1      21.031  11.421  26.462  1.00  0.00     0.420 C 
HETATM   21  C5  UNL     1      19.238  12.192  29.572  1.00  0.00     0.028 C 
HETATM   22  C6  UNL     1      20.339  13.136  30.066  1.00  0.00     0.003 C 
HETATM   23  C7  UNL     1      21.250  13.498  28.914  1.00  0.00     0.028 C 
BRANCH  20  24
HETATM   24  O4  UNL     1      20.943  10.036  26.588  1.00  0.00    -0.357 OA
ATOM     25  H4  UNL     1      20.162   9.721  26.149  1.00  0.00     0.213 HD
ENDBRANCH  20  24
ENDBRANCH   1  14
TORSDOF 4
ENDMDL
MODEL 4
REMARK VINA RESULT: -7.141078368      5.013      8.192
REMARK  4 active torsions:
REMARK  status: ('A' for Active; 'I' for Inactive)
REMARK       I    between atoms: C1_2  and  N1_3 
REMARK    1  A    between atoms: C1_2  and  C10_20 
REMARK    2  A    between atoms: N1_3  and  S1_5 
REMARK    3  A    between atoms: S1_5  and  N2_8 
REMARK    4  A    between atoms: C9_17  and  O4_18 
ROOT
HETATM    1  S1  UNL     1      24.855  13.785  19.501  1.00  0.00     0.308 S 
HETATM    2  O2  UNL     1      24.384  13.943  18.083  1.00  0.00    -0.188 OA
HETATM    3  O3  UNL     1      25.124  15.193  20.022  1.00  0.00    -0.188 OA
ENDROOT
BRANCH   1   4
HETATM    4  N1  UNL     1      23.680  13.067  20.490  1.00  0.00    -0.241 N 
HETATM    5  C1  UNL     1      23.153  11.781  20.211  1.00  0.00     0.236 C 
HETATM    6  O1  UNL     1      23.572  11.163  19.206  1.00  0.00    -0.272 OA
ATOM      7  H1  UNL     1      23.343  13.574  21.308  1.00  0.00     0.182 HD
BRANCH   5   8
HETATM    8  C10 UNL     1      22.127  11.136  21.060  1.00  0.00     0.079 C 
HETATM    9  C11 UNL     1      21.253  12.206  21.655  1.00  0.00     0.014 C 
HETATM   10  C12 UNL     1      20.348  11.585  22.654  1.00  0.00     0.001 C 
HETATM   11  C13 UNL     1      19.964  10.178  22.469  1.00  0.00     0.000 C 
HETATM   12  C14 UNL     1      20.241   9.552  21.156  1.00  0.00     0.001 C 
HETATM   13  C15 UNL     1      21.238  10.214  20.295  1.00  0.00     0.014 C 
ENDBRANCH   5   8
ENDBRANCH   1   4
BRANCH   1  14
HETATM   14  N2  UNL     1      26.362  12.961  19.527  1.00  0.00    -0.139 NA
HETATM   15  C2  UNL     1      27.491  13.831  19.432  1.00  0.00     0.142 C 
HETATM   16  C3  UNL     1      28.602  12.915  19.934  1.00  0.00     0.258 C 
HETATM   17  N3  UNL     1      27.932  11.942  20.784  1.00  0.00    -0.026 N 
HETATM   18  C4  UNL     1      28.513  11.926  22.116  1.00  0.00     0.242 C 
HETATM   19  C8  UNL     1      27.990  10.641  20.166  1.00  0.00     0.242 C 
HETATM   20  C9  UNL     1      26.541  12.346  20.824  1.00  0.00     0.420 C 
HETATM   21  C5  UNL     1      29.752  11.088  22.084  1.00  0.00     0.028 C 
HETATM   22  C6  UNL     1      29.287   9.629  22.040  1.00  0.00     0.003 C 
HETATM   23  C7  UNL     1      28.040   9.520  21.191  1.00  0.00     0.028 C 
BRANCH  20  24
HETATM   24  O4  UNL     1      26.356  13.294  21.828  1.00  0.00    -0.357 OA
ATOM     25  H4  UNL     1      25.923  12.896  22.573  1.00  0.00     0.213 HD
ENDBRANCH  20  24
ENDBRANCH   1  14
TORSDOF 4
ENDMDL
MODEL 5
REMARK VINA RESULT: -7.087387975      3.157      6.578
REMARK  4 active torsions:
REMARK  status: ('A' for Active; 'I' for Inactive)
REMARK       I    between atoms: C1_2  and  N1_3 
REMARK    1  A    between atoms: C1_2  and  C10_20 
REMARK    2  A    between atoms: N1_3  and  S1_5 
REMARK    3  A    between atoms: S1_5  and  N2_8 
REMARK    4  A    between atoms: C9_17  and  O4_18 
ROOT
HETATM    1  S1  UNL     1      19.868  11.523  26.263  1.00  0.00     0.308 S 
HETATM    2  O2  UNL     1      19.537  12.714  27.118  1.00  0.00    -0.188 OA
HETATM    3  O3  UNL     1      20.555  10.516  27.181  1.00  0.00    -0.188 OA
ENDROOT
BRANCH   1   4
HETATM    4  N1  UNL     1      18.480  10.794  25.618  1.00  0.00    -0.241 N 
HETATM    5  C1  UNL     1      17.610  11.487  24.740  1.00  0.00     0.236 C 
HETATM    6  O1  UNL     1      17.881  12.671  24.434  1.00  0.00    -0.272 OA
ATOM      7  H1  UNL     1      18.265   9.828  25.869  1.00  0.00     0.182 HD
BRANCH   5   8
HETATM    8  C10 UNL     1      16.395  10.869  24.165  1.00  0.00     0.079 C 
HETATM    9  C11 UNL     1      15.597  11.938  23.468  1.00  0.00     0.014 C 
HETATM   10  C12 UNL     1      14.290  11.368  23.058  1.00  0.00     0.001 C 
HETATM   11  C13 UNL     1      14.214   9.927  22.773  1.00  0.00     0.000 C 
HETATM   12  C14 UNL     1      15.486   9.187  22.610  1.00  0.00     0.001 C 
HETATM   13  C15 UNL     1      16.703   9.818  23.153  1.00  0.00     0.014 C 
ENDBRANCH   5   8
ENDBRANCH   1   4
BRANCH   1  14
HETATM   14  N2  UNL     1      21.022  11.962  25.071  1.00  0.00    -0.139 NA
HETATM   15  C2  UNL     1      22.373  11.902  25.533  1.00  0.00     0.142 C 
HETATM   16  C3  UNL     1      23.128  11.878  24.209  1.00  0.00     0.258 C 
HETATM   17  N3  UNL     1      22.186  11.324  23.248  1.00  0.00    -0.026 N 
HETATM   18  C4  UNL     1      22.744  10.158  22.584  1.00  0.00     0.242 C 
HETATM   19  C8  UNL     1      21.811  12.342  22.300  1.00  0.00     0.242 C 
HETATM   20  C9  UNL     1      21.004  10.977  24.011  1.00  0.00     0.420 C 
HETATM   21  C5  UNL     1      23.640  10.622  21.481  1.00  0.00     0.028 C 
HETATM   22  C6  UNL     1      22.724  11.092  20.346  1.00  0.00     0.003 C 
HETATM   23  C7  UNL     1      21.501  11.765  20.929  1.00  0.00     0.028 C 
BRANCH  20  24
HETATM   24  O4  UNL     1      21.150   9.700  24.548  1.00  0.00    -0.357 OA
ATOM     25  H4  UNL     1      20.319   9.242  24.522  1.00  0.00     0.213 HD
ENDBRANCH  20  24
ENDBRANCH   1  14
TORSDOF 4
ENDMDL
