MODEL 1
REMARK VINA RESULT: -8.047637323      0.000      0.000
REMARK  5 active torsions:
REMARK  status: ('A' for Active; 'I' for Inactive)
REMARK       I    between atoms: C1_2  and  N1_3 
REMARK    1  A    between atoms: C1_2  and  C9_16 
REMARK    2  A    between atoms: N1_3  and  C2_5 
REMARK    3  A    between atoms: C2_5  and  C3_6 
REMARK    4  A    between atoms: C2_5  and  C8_13 
REMARK    5  A    between atoms: C3_6  and  N2_7 
ROOT
HETATM    1  O1  UNL     1      40.280  64.852  39.283  1.00  0.00    -0.268 OA
HETATM    2  C1  UNL     1      40.043  65.834  40.059  1.00  0.00     0.254 C 
HETATM    3  N1  UNL     1      38.770  66.458  40.097  1.00  0.00    -0.345 N 
ATOM      4  H1  UNL     1      38.600  67.243  40.726  1.00  0.00     0.163 HD
ENDROOT
BRANCH   3   5
HETATM    5  C2  UNL     1      37.729  65.978  39.247  1.00  0.00     0.177 C 
BRANCH   5   6
HETATM    6  C3  UNL     1      37.355  66.854  38.112  1.00  0.00     0.303 C 
BRANCH   6   7
HETATM    7  N2  UNL     1      38.448  67.319  37.311  1.00  0.00     0.094 N 
HETATM    8  C4  UNL     1      38.981  66.310  36.421  1.00  0.00     0.298 C 
HETATM    9  C5  UNL     1      40.187  66.908  35.725  1.00  0.00     0.198 C 
HETATM   10  O2  UNL     1      39.949  68.208  35.288  1.00  0.00    -0.388 OA
HETATM   11  C6  UNL     1      38.595  68.355  35.085  1.00  0.00     0.198 C 
HETATM   12  C7  UNL     1      37.912  68.373  36.435  1.00  0.00     0.298 C 
ENDBRANCH   6   7
ENDBRANCH   5   6
BRANCH   5  13
HETATM   13  C8  UNL     1      36.478  65.828  40.131  1.00  0.00     0.377 C 
HETATM   14  F1  UNL     1      36.943  65.886  41.443  1.00  0.00    -0.212 F 
HETATM   15  F2  UNL     1      35.629  66.893  39.942  1.00  0.00    -0.212 F 
ENDBRANCH   5  13
ENDBRANCH   3   5
BRANCH   2  16
HETATM   16  C9  UNL     1      41.140  66.280  40.903  1.00  0.00     0.057 A 
HETATM   17  C10 UNL     1      41.444  65.695  42.112  1.00  0.00     0.044 A 
HETATM   18  C11 UNL     1      42.507  66.149  42.895  1.00  0.00     0.058 A 
HETATM   19 CL1  UNL     1      42.851  65.376  44.415  1.00  0.00    -0.082 Cl
HETATM   20  C12 UNL     1      43.254  67.197  42.445  1.00  0.00     0.079 A 
HETATM   21 CL2  UNL     1      44.610  67.810  43.399  1.00  0.00    -0.081 Cl
HETATM   22  C13 UNL     1      42.972  67.807  41.235  1.00  0.00     0.080 A 
HETATM   23 CL3  UNL     1      43.968  69.144  40.712  1.00  0.00    -0.081 Cl
HETATM   24  C14 UNL     1      41.917  67.341  40.474  1.00  0.00     0.073 A 
HETATM   25 CL4  UNL     1      41.548  68.098  38.951  1.00  0.00    -0.081 Cl
ENDBRANCH   2  16
TORSDOF 5
ENDMDL
MODEL 2
REMARK VINA RESULT: -8.037223692      0.648      1.073
REMARK  5 active torsions:
REMARK  status: ('A' for Active; 'I' for Inactive)
REMARK       I    between atoms: C1_2  and  N1_3 
REMARK    1  A    between atoms: C1_2  and  C9_16 
REMARK    2  A    between atoms: N1_3  and  C2_5 
REMARK    3  A    between atoms: C2_5  and  C3_6 
REMARK    4  A    between atoms: C2_5  and  C8_13 
REMARK    5  A    between atoms: C3_6  and  N2_7 
ROOT
HETATM    1  O1  UNL     1      40.156  65.106  39.208  1.00  0.00    -0.268 OA
HETATM    2  C1  UNL     1      39.937  66.037  40.048  1.00  0.00     0.254 C 
HETATM    3  N1  UNL     1      38.666  66.657  40.154  1.00  0.00    -0.345 N 
ATOM      4  H1  UNL     1      38.511  67.401  40.834  1.00  0.00     0.163 HD
ENDROOT
BRANCH   3   5
HETATM    5  C2  UNL     1      37.606  66.229  39.300  1.00  0.00     0.177 C 
BRANCH   5   6
HETATM    6  C3  UNL     1      36.975  67.277  38.465  1.00  0.00     0.303 C 
BRANCH   6   7
HETATM    7  N2  UNL     1      37.324  67.247  37.076  1.00  0.00     0.094 N 
HETATM    8  C4  UNL     1      38.374  68.179  36.725  1.00  0.00     0.298 C 
HETATM    9  C5  UNL     1      38.557  68.112  35.222  1.00  0.00     0.198 C 
HETATM   10  O2  UNL     1      38.564  66.802  34.753  1.00  0.00    -0.388 OA
HETATM   11  C6  UNL     1      38.981  65.979  35.774  1.00  0.00     0.198 C 
HETATM   12  C7  UNL     1      37.879  65.910  36.809  1.00  0.00     0.298 C 
ENDBRANCH   6   7
ENDBRANCH   5   6
BRANCH   5  13
HETATM   13  C8  UNL     1      36.507  65.664  40.219  1.00  0.00     0.377 C 
HETATM   14  F1  UNL     1      36.941  65.924  41.517  1.00  0.00    -0.212 F 
HETATM   15  F2  UNL     1      35.329  66.346  40.029  1.00  0.00    -0.212 F 
ENDBRANCH   5  13
ENDBRANCH   3   5
BRANCH   2  16
HETATM   16  C9  UNL     1      41.054  66.432  40.892  1.00  0.00     0.057 A 
HETATM   17  C10 UNL     1      41.355  65.806  42.082  1.00  0.00     0.044 A 
HETATM   18  C11 UNL     1      42.437  66.211  42.866  1.00  0.00     0.058 A 
HETATM   19 CL1  UNL     1      42.776  65.388  44.360  1.00  0.00    -0.082 Cl
HETATM   20  C12 UNL     1      43.206  67.251  42.436  1.00  0.00     0.079 A 
HETATM   21 CL2  UNL     1      44.588  67.803  43.392  1.00  0.00    -0.081 Cl
HETATM   22  C13 UNL     1      42.929  67.901  41.246  1.00  0.00     0.080 A 
HETATM   23 CL3  UNL     1      43.954  69.226  40.749  1.00  0.00    -0.081 Cl
HETATM   24  C14 UNL     1      41.855  67.484  40.484  1.00  0.00     0.073 A 
HETATM   25 CL4  UNL     1      41.491  68.292  38.987  1.00  0.00    -0.081 Cl
ENDBRANCH   2  16
TORSDOF 5
ENDMDL
MODEL 3
REMARK VINA RESULT: -7.537405464      3.084      4.153
REMARK  5 active torsions:
REMARK  status: ('A' for Active; 'I' for Inactive)
REMARK       I    between atoms: C1_2  and  N1_3 
REMARK    1  A    between atoms: C1_2  and  C9_16 
REMARK    2  A    between atoms: N1_3  and  C2_5 
REMARK    3  A    between atoms: C2_5  and  C3_6 
REMARK    4  A    between atoms: C2_5  and  C8_13 
REMARK    5  A    between atoms: C3_6  and  N2_7 
ROOT
HETATM    1  O1  UNL     1      39.307  67.993  39.041  1.00  0.00    -0.268 OA
HETATM    2  C1  UNL     1      40.493  67.571  38.848  1.00  0.00     0.254 C 
HETATM    3  N1  UNL     1      40.901  67.054  37.592  1.00  0.00    -0.345 N 
ATOM      4  H1  UNL     1      41.857  66.722  37.458  1.00  0.00     0.163 HD
ENDROOT
BRANCH   3   5
HETATM    5  C2  UNL     1      39.963  67.004  36.518  1.00  0.00     0.177 C 
BRANCH   5   6
HETATM    6  C3  UNL     1      39.444  65.662  36.165  1.00  0.00     0.303 C 
BRANCH   6   7
HETATM    7  N2  UNL     1      38.082  65.628  35.724  1.00  0.00     0.094 N 
HETATM    8  C4  UNL     1      37.907  66.077  34.359  1.00  0.00     0.298 C 
HETATM    9  C5  UNL     1      36.419  66.089  34.072  1.00  0.00     0.198 C 
HETATM   10  O2  UNL     1      35.784  64.946  34.546  1.00  0.00    -0.388 OA
HETATM   11  C6  UNL     1      36.708  63.927  34.598  1.00  0.00     0.198 C 
HETATM   12  C7  UNL     1      37.670  64.216  35.730  1.00  0.00     0.298 C 
ENDBRANCH   6   7
ENDBRANCH   5   6
BRANCH   5  13
HETATM   13  C8  UNL     1      40.694  67.544  35.275  1.00  0.00     0.377 C 
HETATM   14  F1  UNL     1      40.541  68.928  35.329  1.00  0.00    -0.212 F 
HETATM   15  F2  UNL     1      42.039  67.270  35.354  1.00  0.00    -0.212 F 
ENDBRANCH   5  13
ENDBRANCH   3   5
BRANCH   2  16
HETATM   16  C9  UNL     1      41.405  67.648  39.978  1.00  0.00     0.057 A 
HETATM   17  C10 UNL     1      42.418  68.576  40.064  1.00  0.00     0.044 A 
HETATM   18  C11 UNL     1      43.275  68.621  41.166  1.00  0.00     0.058 A 
HETATM   19 CL1  UNL     1      44.540  69.814  41.229  1.00  0.00    -0.082 Cl
HETATM   20  C12 UNL     1      43.097  67.720  42.173  1.00  0.00     0.079 A 
HETATM   21 CL2  UNL     1      44.155  67.734  43.591  1.00  0.00    -0.081 Cl
HETATM   22  C13 UNL     1      42.089  66.774  42.115  1.00  0.00     0.080 A 
HETATM   23 CL3  UNL     1      41.911  65.647  43.439  1.00  0.00    -0.081 Cl
HETATM   24  C14 UNL     1      41.251  66.747  41.017  1.00  0.00     0.073 A 
HETATM   25 CL4  UNL     1      39.980  65.562  40.927  1.00  0.00    -0.081 Cl
ENDBRANCH   2  16
TORSDOF 5
ENDMDL
MODEL 4
REMARK VINA RESULT: -7.536841124      3.853      7.040
REMARK  5 active torsions:
REMARK  status: ('A' for Active; 'I' for Inactive)
REMARK       I    between atoms: C1_2  and  N1_3 
REMARK    1  A    between atoms: C1_2  and  C9_16 
REMARK    2  A    between atoms: N1_3  and  C2_5 
REMARK    3  A    between atoms: C2_5  and  C3_6 
REMARK    4  A    between atoms: C2_5  and  C8_13 
REMARK    5  A    between atoms: C3_6  and  N2_7 
ROOT
HETATM    1  O1  UNL     1      37.315  64.987  38.697  1.00  0.00    -0.268 OA
HETATM    2  C1  UNL     1      38.209  64.689  37.841  1.00  0.00     0.254 C 
HETATM    3  N1  UNL     1      39.415  64.047  38.222  1.00  0.00    -0.345 N 
ATOM      4  H1  UNL     1      40.119  63.815  37.520  1.00  0.00     0.163 HD
ENDROOT
BRANCH   3   5
HETATM    5  C2  UNL     1      39.635  63.728  39.595  1.00  0.00     0.177 C 
BRANCH   5   6
HETATM    6  C3  UNL     1      40.787  64.394  40.245  1.00  0.00     0.303 C 
BRANCH   6   7
HETATM    7  N2  UNL     1      40.814  65.822  40.130  1.00  0.00     0.094 N 
HETATM    8  C4  UNL     1      39.806  66.483  40.930  1.00  0.00     0.298 C 
HETATM    9  C5  UNL     1      39.885  67.966  40.626  1.00  0.00     0.198 C 
HETATM   10  O2  UNL     1      41.198  68.425  40.589  1.00  0.00    -0.388 OA
HETATM   11  C6  UNL     1      41.967  67.600  41.379  1.00  0.00     0.198 C 
HETATM   12  C7  UNL     1      42.106  66.266  40.677  1.00  0.00     0.298 C 
ENDBRANCH   6   7
ENDBRANCH   5   6
BRANCH   5  13
HETATM   13  C8  UNL     1      39.900  62.213  39.654  1.00  0.00     0.377 C 
HETATM   14  F1  UNL     1      39.144  61.746  40.728  1.00  0.00    -0.212 F 
HETATM   15  F2  UNL     1      39.429  61.600  38.516  1.00  0.00    -0.212 F 
ENDBRANCH   5  13
ENDBRANCH   3   5
BRANCH   2  16
HETATM   16  C9  UNL     1      37.931  65.037  36.457  1.00  0.00     0.057 A 
HETATM   17  C10 UNL     1      37.301  64.183  35.579  1.00  0.00     0.044 A 
HETATM   18  C11 UNL     1      37.049  64.552  34.256  1.00  0.00     0.058 A 
HETATM   19 CL1  UNL     1      36.249  63.438  33.186  1.00  0.00    -0.082 Cl
HETATM   20  C12 UNL     1      37.440  65.788  33.833  1.00  0.00     0.079 A 
HETATM   21 CL2  UNL     1      37.144  66.304  32.168  1.00  0.00    -0.081 Cl
HETATM   22  C13 UNL     1      38.076  66.668  34.692  1.00  0.00     0.080 A 
HETATM   23 CL3  UNL     1      38.551  68.239  34.090  1.00  0.00    -0.081 Cl
HETATM   24  C14 UNL     1      38.315  66.284  35.996  1.00  0.00     0.073 A 
HETATM   25 CL4  UNL     1      39.116  67.378  37.087  1.00  0.00    -0.081 Cl
ENDBRANCH   2  16
TORSDOF 5
ENDMDL
MODEL 5
REMARK VINA RESULT: -7.388586648      2.893      6.364
REMARK  5 active torsions:
REMARK  status: ('A' for Active; 'I' for Inactive)
REMARK       I    between atoms: C1_2  and  N1_3 
REMARK    1  A    between atoms: C1_2  and  C9_16 
REMARK    2  A    between atoms: N1_3  and  C2_5 
REMARK    3  A    between atoms: C2_5  and  C3_6 
REMARK    4  A    between atoms: C2_5  and  C8_13 
REMARK    5  A    between atoms: C3_6  and  N2_7 
ROOT
HETATM    1  O1  UNL     1      37.760  68.396  39.283  1.00  0.00    -0.268 OA
HETATM    2  C1  UNL     1      38.352  67.363  38.830  1.00  0.00     0.254 C 
HETATM    3  N1  UNL     1      38.899  66.383  39.695  1.00  0.00    -0.345 N 
ATOM      4  H1  UNL     1      39.369  65.562  39.312  1.00  0.00     0.163 HD
ENDROOT
BRANCH   3   5
HETATM    5  C2  UNL     1      38.786  66.555  41.107  1.00  0.00     0.177 C 
BRANCH   5   6
HETATM    6  C3  UNL     1      40.038  66.408  41.887  1.00  0.00     0.303 C 
BRANCH   6   7
HETATM    7  N2  UNL     1      41.241  66.731  41.179  1.00  0.00     0.094 N 
HETATM    8  C4  UNL     1      41.987  67.817  41.777  1.00  0.00     0.298 C 
HETATM    9  C5  UNL     1      43.163  68.114  40.869  1.00  0.00     0.198 C 
HETATM   10  O2  UNL     1      43.796  66.954  40.433  1.00  0.00    -0.388 OA
HETATM   11  C6  UNL     1      43.570  65.963  41.362  1.00  0.00     0.198 C 
HETATM   12  C7  UNL     1      42.116  65.552  41.274  1.00  0.00     0.298 C 
ENDBRANCH   6   7
ENDBRANCH   5   6
BRANCH   5  13
HETATM   13  C8  UNL     1      37.818  65.466  41.603  1.00  0.00     0.377 C 
HETATM   14  F1  UNL     1      36.549  65.894  41.216  1.00  0.00    -0.212 F 
HETATM   15  F2  UNL     1      38.068  64.275  40.962  1.00  0.00    -0.212 F 
ENDBRANCH   5  13
ENDBRANCH   3   5
BRANCH   2  16
HETATM   16  C9  UNL     1      38.436  67.241  37.383  1.00  0.00     0.057 A 
HETATM   17  C10 UNL     1      37.386  66.814  36.602  1.00  0.00     0.044 A 
HETATM   18  C11 UNL     1      37.503  66.710  35.215  1.00  0.00     0.058 A 
HETATM   19 CL1  UNL     1      36.145  66.166  34.272  1.00  0.00    -0.082 Cl
HETATM   20  C12 UNL     1      38.689  67.040  34.629  1.00  0.00     0.079 A 
HETATM   21 CL2  UNL     1      38.889  66.926  32.876  1.00  0.00    -0.081 Cl
HETATM   22  C13 UNL     1      39.764  67.471  35.387  1.00  0.00     0.080 A 
HETATM   23 CL3  UNL     1      41.258  67.881  34.577  1.00  0.00    -0.081 Cl
HETATM   24  C14 UNL     1      39.627  67.568  36.758  1.00  0.00     0.073 A 
HETATM   25 CL4  UNL     1      40.969  68.106  37.726  1.00  0.00    -0.081 Cl
ENDBRANCH   2  16
TORSDOF 5
ENDMDL
