MODEL 1
REMARK VINA RESULT: -5.322929395      0.000      0.000
REMARK  2 active torsions:
REMARK  status: ('A' for Active; 'I' for Inactive)
REMARK    1  A    between atoms: C7_15  and  C8_16 
REMARK    2  A    between atoms: C8_16  and  C9_17 
ROOT
HETATM    1  C1  UNL     1      32.600 -15.940  36.188  1.00  0.00     0.068 C 
HETATM    2  C2  UNL     1      31.146 -15.763  36.535  1.00  0.00     0.014 A 
HETATM    3  N1  UNL     1      30.704 -15.616  37.820  1.00  0.00    -0.345 N 
ATOM      4  H1  UNL     1      31.312 -15.575  38.638  1.00  0.00     0.167 HD
HETATM    5  C3  UNL     1      29.369 -15.534  37.864  1.00  0.00     0.126 A 
HETATM    6  N2  UNL     1      28.472 -15.402  38.875  1.00  0.00    -0.293 N 
ATOM      7  H2  UNL     1      28.830 -15.332  39.827  1.00  0.00     0.172 HD
HETATM    8  C4  UNL     1      27.154 -15.358  38.696  1.00  0.00     0.328 A 
HETATM    9  O1  UNL     1      26.356 -15.233  39.690  1.00  0.00    -0.247 OA
HETATM   10  N3  UNL     1      26.686 -15.452  37.450  1.00  0.00    -0.275 N 
ATOM     11  H3  UNL     1      25.680 -15.422  37.285  1.00  0.00     0.173 HD
HETATM   12  C5  UNL     1      27.541 -15.586  36.393  1.00  0.00     0.264 A 
HETATM   13  O2  UNL     1      27.027 -15.670  35.276  1.00  0.00    -0.267 OA
HETATM   14  C6  UNL     1      28.898 -15.628  36.579  1.00  0.00     0.084 A 
HETATM   15  C7  UNL     1      30.031 -15.769  35.748  1.00  0.00    -0.014 A 
ENDROOT
BRANCH  15  16
HETATM   16  C8  UNL     1      29.929 -15.882  34.285  1.00  0.00     0.074 C 
BRANCH  16  17
HETATM   17  C9  UNL     1      30.160 -14.705  33.434  1.00  0.00     0.076 C 
HETATM   18  C10 UNL     1      29.186 -14.866  32.217  1.00  0.00     0.040 C 
HETATM   19 BR1  UNL     1      31.899 -14.660  32.541  1.00  0.00    -0.073 Br
HETATM   20 BR2  UNL     1      29.922 -12.988  34.218  1.00  0.00    -0.073 Br
ENDBRANCH  16  17
ENDBRANCH  15  16
TORSDOF 2
ENDMDL
MODEL 2
REMARK VINA RESULT: -5.318173033      0.844      1.168
REMARK  2 active torsions:
REMARK  status: ('A' for Active; 'I' for Inactive)
REMARK    1  A    between atoms: C7_15  and  C8_16 
REMARK    2  A    between atoms: C8_16  and  C9_17 
ROOT
HETATM    1  C1  UNL     1      32.601 -15.939  36.189  1.00  0.00     0.068 C 
HETATM    2  C2  UNL     1      31.147 -15.761  36.537  1.00  0.00     0.014 A 
HETATM    3  N1  UNL     1      30.705 -15.621  37.822  1.00  0.00    -0.345 N 
ATOM      4  H1  UNL     1      31.312 -15.587  38.640  1.00  0.00     0.167 HD
HETATM    5  C3  UNL     1      29.370 -15.536  37.866  1.00  0.00     0.126 A 
HETATM    6  N2  UNL     1      28.474 -15.409  38.877  1.00  0.00    -0.293 N 
ATOM      7  H2  UNL     1      28.831 -15.346  39.830  1.00  0.00     0.172 HD
HETATM    8  C4  UNL     1      27.155 -15.361  38.698  1.00  0.00     0.328 A 
HETATM    9  O1  UNL     1      26.358 -15.240  39.693  1.00  0.00    -0.247 OA
HETATM   10  N3  UNL     1      26.688 -15.446  37.452  1.00  0.00    -0.275 N 
ATOM     11  H3  UNL     1      25.682 -15.413  37.286  1.00  0.00     0.173 HD
HETATM   12  C5  UNL     1      27.543 -15.575  36.394  1.00  0.00     0.264 A 
HETATM   13  O2  UNL     1      27.030 -15.651  35.277  1.00  0.00    -0.267 OA
HETATM   14  C6  UNL     1      28.900 -15.621  36.581  1.00  0.00     0.084 A 
HETATM   15  C7  UNL     1      30.033 -15.760  35.749  1.00  0.00    -0.014 A 
ENDROOT
BRANCH  15  16
HETATM   16  C8  UNL     1      29.932 -15.864  34.285  1.00  0.00     0.074 C 
BRANCH  16  17
HETATM   17  C9  UNL     1      30.008 -14.656  33.451  1.00  0.00     0.076 C 
HETATM   18  C10 UNL     1      31.426 -14.692  32.784  1.00  0.00     0.040 C 
HETATM   19 BR1  UNL     1      30.084 -12.972  34.443  1.00  0.00    -0.073 Br
HETATM   20 BR2  UNL     1      28.679 -14.421  32.110  1.00  0.00    -0.073 Br
ENDBRANCH  16  17
ENDBRANCH  15  16
TORSDOF 2
ENDMDL
MODEL 3
REMARK VINA RESULT: -5.217633341      2.243      3.049
REMARK  2 active torsions:
REMARK  status: ('A' for Active; 'I' for Inactive)
REMARK    1  A    between atoms: C7_15  and  C8_16 
REMARK    2  A    between atoms: C8_16  and  C9_17 
ROOT
HETATM    1  C1  UNL     1      29.237 -11.806  34.190  1.00  0.00     0.068 C 
HETATM    2  C2  UNL     1      28.979 -12.815  35.278  1.00  0.00     0.014 A 
HETATM    3  N1  UNL     1      27.797 -12.882  35.960  1.00  0.00    -0.345 N 
ATOM      4  H1  UNL     1      26.987 -12.293  35.769  1.00  0.00     0.167 HD
HETATM    5  C3  UNL     1      27.843 -13.823  36.911  1.00  0.00     0.126 A 
HETATM    6  N2  UNL     1      26.955 -14.255  37.842  1.00  0.00    -0.293 N 
ATOM      7  H2  UNL     1      26.034 -13.819  37.865  1.00  0.00     0.172 HD
HETATM    8  C4  UNL     1      27.216 -15.215  38.727  1.00  0.00     0.328 A 
HETATM    9  O1  UNL     1      26.337 -15.581  39.583  1.00  0.00    -0.247 OA
HETATM   10  N3  UNL     1      28.422 -15.784  38.697  1.00  0.00    -0.275 N 
ATOM     11  H3  UNL     1      28.649 -16.521  39.365  1.00  0.00     0.173 HD
HETATM   12  C5  UNL     1      29.357 -15.390  37.782  1.00  0.00     0.264 A 
HETATM   13  O2  UNL     1      30.446 -15.963  37.825  1.00  0.00    -0.267 OA
HETATM   14  C6  UNL     1      29.084 -14.404  36.871  1.00  0.00     0.084 A 
HETATM   15  C7  UNL     1      29.793 -13.760  35.832  1.00  0.00    -0.014 A 
ENDROOT
BRANCH  15  16
HETATM   16  C8  UNL     1      31.171 -14.126  35.469  1.00  0.00     0.074 C 
BRANCH  16  17
HETATM   17  C9  UNL     1      31.419 -15.180  34.475  1.00  0.00     0.076 C 
HETATM   18  C10 UNL     1      31.994 -14.446  33.216  1.00  0.00     0.040 C 
HETATM   19 BR1  UNL     1      29.810 -16.015  33.740  1.00  0.00    -0.073 Br
HETATM   20 BR2  UNL     1      32.579 -16.605  34.967  1.00  0.00    -0.073 Br
ENDBRANCH  16  17
ENDBRANCH  15  16
TORSDOF 2
ENDMDL
MODEL 4
REMARK VINA RESULT: -5.188138626      2.087      2.985
REMARK  2 active torsions:
REMARK  status: ('A' for Active; 'I' for Inactive)
REMARK    1  A    between atoms: C7_15  and  C8_16 
REMARK    2  A    between atoms: C8_16  and  C9_17 
ROOT
HETATM    1  C1  UNL     1      29.233 -11.801  34.204  1.00  0.00     0.068 C 
HETATM    2  C2  UNL     1      28.977 -12.809  35.293  1.00  0.00     0.014 A 
HETATM    3  N1  UNL     1      27.795 -12.879  35.974  1.00  0.00    -0.345 N 
ATOM      4  H1  UNL     1      26.983 -12.292  35.782  1.00  0.00     0.167 HD
HETATM    5  C3  UNL     1      27.842 -13.819  36.926  1.00  0.00     0.126 A 
HETATM    6  N2  UNL     1      26.954 -14.253  37.856  1.00  0.00    -0.293 N 
ATOM      7  H2  UNL     1      26.032 -13.819  37.879  1.00  0.00     0.172 HD
HETATM    8  C4  UNL     1      27.217 -15.212  38.742  1.00  0.00     0.328 A 
HETATM    9  O1  UNL     1      26.339 -15.579  39.598  1.00  0.00    -0.247 OA
HETATM   10  N3  UNL     1      28.425 -15.778  38.714  1.00  0.00    -0.275 N 
ATOM     11  H3  UNL     1      28.653 -16.514  39.382  1.00  0.00     0.173 HD
HETATM   12  C5  UNL     1      29.359 -15.382  37.799  1.00  0.00     0.264 A 
HETATM   13  O2  UNL     1      30.450 -15.952  37.844  1.00  0.00    -0.267 OA
HETATM   14  C6  UNL     1      29.085 -14.396  36.887  1.00  0.00     0.084 A 
HETATM   15  C7  UNL     1      29.793 -13.751  35.848  1.00  0.00    -0.014 A 
ENDROOT
BRANCH  15  16
HETATM   16  C8  UNL     1      31.172 -14.114  35.487  1.00  0.00     0.074 C 
BRANCH  16  17
HETATM   17  C9  UNL     1      31.424 -15.089  34.416  1.00  0.00     0.076 C 
HETATM   18  C10 UNL     1      32.572 -16.014  34.948  1.00  0.00     0.040 C 
HETATM   19 BR1  UNL     1      32.236 -14.347  32.799  1.00  0.00    -0.073 Br
HETATM   20 BR2  UNL     1      29.962 -16.159  33.832  1.00  0.00    -0.073 Br
ENDBRANCH  16  17
ENDBRANCH  15  16
TORSDOF 2
ENDMDL
MODEL 5
REMARK VINA RESULT: -5.105129768      1.540      1.854
REMARK  2 active torsions:
REMARK  status: ('A' for Active; 'I' for Inactive)
REMARK    1  A    between atoms: C7_15  and  C8_16 
REMARK    2  A    between atoms: C8_16  and  C9_17 
ROOT
HETATM    1  C1  UNL     1      32.645 -15.877  36.164  1.00  0.00     0.068 C 
HETATM    2  C2  UNL     1      31.193 -15.681  36.510  1.00  0.00     0.014 A 
HETATM    3  N1  UNL     1      30.738 -15.639  37.798  1.00  0.00    -0.345 N 
ATOM      4  H1  UNL     1      31.335 -15.697  38.622  1.00  0.00     0.167 HD
HETATM    5  C3  UNL     1      29.406 -15.513  37.835  1.00  0.00     0.126 A 
HETATM    6  N2  UNL     1      28.501 -15.444  38.843  1.00  0.00    -0.293 N 
ATOM      7  H2  UNL     1      28.847 -15.477  39.802  1.00  0.00     0.172 HD
HETATM    8  C4  UNL     1      27.187 -15.337  38.655  1.00  0.00     0.328 A 
HETATM    9  O1  UNL     1      26.381 -15.276  39.648  1.00  0.00    -0.247 OA
HETATM   10  N3  UNL     1      26.734 -15.296  37.401  1.00  0.00    -0.275 N 
ATOM     11  H3  UNL     1      25.732 -15.215  37.228  1.00  0.00     0.173 HD
HETATM   12  C5  UNL     1      27.599 -15.362  36.345  1.00  0.00     0.264 A 
HETATM   13  O2  UNL     1      27.099 -15.322  35.220  1.00  0.00    -0.267 OA
HETATM   14  C6  UNL     1      28.951 -15.470  36.542  1.00  0.00     0.084 A 
HETATM   15  C7  UNL     1      30.091 -15.574  35.713  1.00  0.00    -0.014 A 
ENDROOT
BRANCH  15  16
HETATM   16  C8  UNL     1      30.006 -15.546  34.245  1.00  0.00     0.074 C 
BRANCH  16  17
HETATM   17  C9  UNL     1      29.972 -16.803  33.482  1.00  0.00     0.076 C 
HETATM   18  C10 UNL     1      29.324 -16.441  32.102  1.00  0.00     0.040 C 
HETATM   19 BR1  UNL     1      28.724 -18.146  34.161  1.00  0.00    -0.073 Br
HETATM   20 BR2  UNL     1      31.621 -17.707  33.195  1.00  0.00    -0.073 Br
ENDBRANCH  16  17
ENDBRANCH  15  16
TORSDOF 2
ENDMDL
