MODEL 1
REMARK VINA RESULT: -5.914137966      0.000      0.000
REMARK  4 active torsions:
REMARK  status: ('A' for Active; 'I' for Inactive)
REMARK    1  A    between atoms: C3_5  and  N2_6 
REMARK    2  A    between atoms: N2_6  and  C4_7 
REMARK    3  A    between atoms: N3_11  and  C8_12 
REMARK    4  A    between atoms: C8_12  and  C9_13 
ROOT
HETATM    1  C1  UNL     1      28.146 -13.112  36.263  1.00  0.00     0.064 C 
HETATM    2  C2  UNL     1      28.944 -14.170  36.491  1.00  0.00     0.101 A 
HETATM    3  N1  UNL     1      30.249 -14.209  36.291  1.00  0.00    -0.316 N 
ATOM      4  H1  UNL     1      30.806 -13.431  35.937  1.00  0.00     0.170 HD
HETATM    5  C3  UNL     1      30.755 -15.452  36.629  1.00  0.00     0.200 A 
HETATM    6  C6  UNL     1      29.629 -16.187  37.061  1.00  0.00     0.085 A 
HETATM    7  C7  UNL     1      29.705 -17.441  37.473  1.00  0.00     0.048 C 
HETATM    8  N3  UNL     1      28.580 -15.373  36.957  1.00  0.00    -0.325 N 
ENDROOT
BRANCH   8   9
HETATM    9  C8  UNL     1      27.232 -15.763  37.310  1.00  0.00     0.188 C 
BRANCH   9  10
HETATM   10  C9  UNL     1      26.891 -15.393  38.716  1.00  0.00     0.029 A 
HETATM   11  C10 UNL     1      25.669 -15.013  39.231  1.00  0.00     0.048 A 
HETATM   12  C11 UNL     1      25.793 -14.759  40.581  1.00  0.00     0.046 A 
HETATM   13 BR1  UNL     1      24.445 -14.200  41.812  1.00  0.00    -0.048 Br
HETATM   14  C12 UNL     1      27.131 -14.995  40.891  1.00  0.00     0.097 A 
HETATM   15 BR2  UNL     1      27.972 -14.826  42.605  1.00  0.00    -0.030 Br
HETATM   16  N4  UNL     1      27.745 -15.369  39.752  1.00  0.00    -0.351 N 
ATOM     17  H4  UNL     1      28.735 -15.605  39.685  1.00  0.00     0.166 HD
ENDBRANCH   9  10
ENDBRANCH   8   9
BRANCH   5  18
HETATM   18  N2  UNL     1      31.916 -15.794  36.555  1.00  0.00    -0.429 NA
BRANCH  18  19
HETATM   19  C4  UNL     1      33.176 -16.166  36.476  1.00  0.00     0.216 C 
HETATM   20  C5  UNL     1      33.286 -17.592  35.868  1.00  0.00     0.041 C 
ENDBRANCH  18  19
ENDBRANCH   5  18
TORSDOF 4
ENDMDL
MODEL 2
REMARK VINA RESULT: -5.872182848      3.701      5.973
REMARK  4 active torsions:
REMARK  status: ('A' for Active; 'I' for Inactive)
REMARK    1  A    between atoms: C3_5  and  N2_6 
REMARK    2  A    between atoms: N2_6  and  C4_7 
REMARK    3  A    between atoms: N3_11  and  C8_12 
REMARK    4  A    between atoms: C8_12  and  C9_13 
ROOT
HETATM    1  C1  UNL     1      30.567 -15.632  36.594  1.00  0.00     0.064 C 
HETATM    2  C2  UNL     1      29.440 -15.619  37.328  1.00  0.00     0.101 A 
HETATM    3  N1  UNL     1      29.367 -15.390  38.626  1.00  0.00    -0.316 N 
ATOM      4  H1  UNL     1      30.167 -15.194  39.227  1.00  0.00     0.170 HD
HETATM    5  C3  UNL     1      28.053 -15.454  39.057  1.00  0.00     0.200 A 
HETATM    6  C6  UNL     1      27.311 -15.747  37.892  1.00  0.00     0.085 A 
HETATM    7  C7  UNL     1      25.997 -15.889  37.894  1.00  0.00     0.048 C 
HETATM    8  N3  UNL     1      28.190 -15.834  36.894  1.00  0.00    -0.325 N 
ENDROOT
BRANCH   8   9
HETATM    9  C8  UNL     1      27.814 -16.124  35.526  1.00  0.00     0.188 C 
BRANCH   9  10
HETATM   10  C9  UNL     1      27.629 -14.880  34.720  1.00  0.00     0.029 A 
HETATM   11  C10 UNL     1      27.385 -14.764  33.368  1.00  0.00     0.048 A 
HETATM   12  C11 UNL     1      27.279 -13.431  33.028  1.00  0.00     0.046 A 
HETATM   13 BR1  UNL     1      26.949 -12.666  31.311  1.00  0.00    -0.048 Br
HETATM   14  C12 UNL     1      27.466 -12.721  34.214  1.00  0.00     0.097 A 
HETATM   15 BR2  UNL     1      27.443 -10.818  34.442  1.00  0.00    -0.030 Br
HETATM   16  N4  UNL     1      27.670 -13.624  35.192  1.00  0.00    -0.351 N 
ATOM     17  H4  UNL     1      27.836 -13.383  36.169  1.00  0.00     0.166 HD
ENDBRANCH   9  10
ENDBRANCH   8   9
BRANCH   5  18
HETATM   18  N2  UNL     1      27.667 -15.288  40.195  1.00  0.00    -0.429 NA
BRANCH  18  19
HETATM   19  C4  UNL     1      27.247 -15.108  41.429  1.00  0.00     0.216 C 
HETATM   20  C5  UNL     1      25.740 -14.725  41.441  1.00  0.00     0.041 C 
ENDBRANCH  18  19
ENDBRANCH   5  18
TORSDOF 4
ENDMDL
MODEL 3
REMARK VINA RESULT: -5.647928699      3.768      6.105
REMARK  4 active torsions:
REMARK  status: ('A' for Active; 'I' for Inactive)
REMARK    1  A    between atoms: C3_5  and  N2_6 
REMARK    2  A    between atoms: N2_6  and  C4_7 
REMARK    3  A    between atoms: N3_11  and  C8_12 
REMARK    4  A    between atoms: C8_12  and  C9_13 
ROOT
HETATM    1  C1  UNL     1      30.654 -15.788  36.716  1.00  0.00     0.064 C 
HETATM    2  C2  UNL     1      29.492 -15.749  37.392  1.00  0.00     0.101 A 
HETATM    3  N1  UNL     1      29.349 -15.425  38.664  1.00  0.00    -0.316 N 
ATOM      4  H1  UNL     1      30.114 -15.163  39.286  1.00  0.00     0.170 HD
HETATM    5  C3  UNL     1      28.018 -15.490  39.035  1.00  0.00     0.200 A 
HETATM    6  C6  UNL     1      27.341 -15.888  37.862  1.00  0.00     0.085 A 
HETATM    7  C7  UNL     1      26.032 -16.064  37.811  1.00  0.00     0.048 C 
HETATM    8  N3  UNL     1      28.270 -16.028  36.916  1.00  0.00    -0.325 N 
ENDROOT
BRANCH   8   9
HETATM    9  C8  UNL     1      27.969 -16.429  35.559  1.00  0.00     0.188 C 
BRANCH   9  10
HETATM   10  C9  UNL     1      27.655 -15.260  34.685  1.00  0.00     0.029 A 
HETATM   11  C10 UNL     1      27.922 -13.926  34.909  1.00  0.00     0.048 A 
HETATM   12  C11 UNL     1      27.463 -13.176  33.845  1.00  0.00     0.046 A 
HETATM   13 BR1  UNL     1      27.554 -11.285  33.601  1.00  0.00    -0.048 Br
HETATM   14  C12 UNL     1      26.903 -14.087  32.952  1.00  0.00     0.097 A 
HETATM   15 BR2  UNL     1      26.082 -13.700  31.264  1.00  0.00    -0.030 Br
HETATM   16  N4  UNL     1      27.039 -15.313  33.493  1.00  0.00    -0.351 N 
ATOM     17  H4  UNL     1      26.715 -16.174  33.052  1.00  0.00     0.166 HD
ENDBRANCH   9  10
ENDBRANCH   8   9
BRANCH   5  18
HETATM   18  N2  UNL     1      27.571 -15.248  40.137  1.00  0.00    -0.429 NA
BRANCH  18  19
HETATM   19  C4  UNL     1      27.087 -14.987  41.333  1.00  0.00     0.216 C 
HETATM   20  C5  UNL     1      25.590 -14.582  41.237  1.00  0.00     0.041 C 
ENDBRANCH  18  19
ENDBRANCH   5  18
TORSDOF 4
ENDMDL
MODEL 4
REMARK VINA RESULT: -5.504023563      1.242      2.549
REMARK  4 active torsions:
REMARK  status: ('A' for Active; 'I' for Inactive)
REMARK    1  A    between atoms: C3_5  and  N2_6 
REMARK    2  A    between atoms: N2_6  and  C4_7 
REMARK    3  A    between atoms: N3_11  and  C8_12 
REMARK    4  A    between atoms: C8_12  and  C9_13 
ROOT
HETATM    1  C1  UNL     1      28.503 -18.126  36.950  1.00  0.00     0.064 C 
HETATM    2  C2  UNL     1      29.074 -16.945  36.653  1.00  0.00     0.101 A 
HETATM    3  N1  UNL     1      30.338 -16.761  36.317  1.00  0.00    -0.316 N 
ATOM      4  H1  UNL     1      31.034 -17.504  36.245  1.00  0.00     0.170 HD
HETATM    5  C3  UNL     1      30.586 -15.421  36.078  1.00  0.00     0.200 A 
HETATM    6  C6  UNL     1      29.345 -14.785  36.299  1.00  0.00     0.085 A 
HETATM    7  C7  UNL     1      29.173 -13.481  36.168  1.00  0.00     0.048 C 
HETATM    8  N3  UNL     1      28.483 -15.742  36.638  1.00  0.00    -0.325 N 
ENDROOT
BRANCH   8   9
HETATM    9  C8  UNL     1      27.091 -15.487  36.945  1.00  0.00     0.188 C 
BRANCH   9  10
HETATM   10  C9  UNL     1      26.874 -15.244  38.402  1.00  0.00     0.029 A 
HETATM   11  C10 UNL     1      27.787 -15.331  39.432  1.00  0.00     0.048 A 
HETATM   12  C11 UNL     1      27.170 -15.025  40.627  1.00  0.00     0.046 A 
HETATM   13 BR1  UNL     1      27.930 -14.981  42.378  1.00  0.00    -0.048 Br
HETATM   14  C12 UNL     1      25.843 -14.742  40.308  1.00  0.00     0.097 A 
HETATM   15 BR2  UNL     1      24.441 -14.244  41.515  1.00  0.00    -0.030 Br
HETATM   16  N4  UNL     1      25.714 -14.886  38.975  1.00  0.00    -0.351 N 
ATOM     17  H4  UNL     1      24.842 -14.740  38.464  1.00  0.00     0.166 HD
ENDBRANCH   9  10
ENDBRANCH   8   9
BRANCH   5  18
HETATM   18  N2  UNL     1      31.651 -14.940  35.752  1.00  0.00    -0.429 NA
BRANCH  18  19
HETATM   19  C4  UNL     1      32.807 -14.418  35.400  1.00  0.00     0.216 C 
HETATM   20  C5  UNL     1      33.879 -14.679  36.494  1.00  0.00     0.041 C 
ENDBRANCH  18  19
ENDBRANCH   5  18
TORSDOF 4
ENDMDL
MODEL 5
REMARK VINA RESULT: -5.455114739      4.435      6.260
REMARK  4 active torsions:
REMARK  status: ('A' for Active; 'I' for Inactive)
REMARK    1  A    between atoms: C3_5  and  N2_6 
REMARK    2  A    between atoms: N2_6  and  C4_7 
REMARK    3  A    between atoms: N3_11  and  C8_12 
REMARK    4  A    between atoms: C8_12  and  C9_13 
ROOT
HETATM    1  C1  UNL     1      28.308 -13.233  34.963  1.00  0.00     0.064 C 
HETATM    2  C2  UNL     1      28.128 -14.103  35.972  1.00  0.00     0.101 A 
HETATM    3  N1  UNL     1      27.410 -13.887  37.058  1.00  0.00    -0.316 N 
ATOM      4  H1  UNL     1      26.903 -13.024  37.258  1.00  0.00     0.170 HD
HETATM    5  C3  UNL     1      27.440 -14.993  37.889  1.00  0.00     0.200 A 
HETATM    6  C6  UNL     1      28.252 -15.926  37.208  1.00  0.00     0.085 A 
HETATM    7  C7  UNL     1      28.525 -17.127  37.688  1.00  0.00     0.048 C 
HETATM    8  N3  UNL     1      28.633 -15.341  36.073  1.00  0.00    -0.325 N 
ENDROOT
BRANCH   8   9
HETATM    9  C8  UNL     1      29.483 -15.982  35.093  1.00  0.00     0.188 C 
BRANCH   9  10
HETATM   10  C9  UNL     1      28.740 -16.991  34.281  1.00  0.00     0.029 A 
HETATM   11  C10 UNL     1      27.628 -16.802  33.487  1.00  0.00     0.048 A 
HETATM   12  C11 UNL     1      27.260 -18.000  32.910  1.00  0.00     0.046 A 
HETATM   13 BR1  UNL     1      25.806 -18.349  31.724  1.00  0.00    -0.048 Br
HETATM   14  C12 UNL     1      28.180 -18.941  33.371  1.00  0.00     0.097 A 
HETATM   15 BR2  UNL     1      28.236 -20.810  32.949  1.00  0.00    -0.030 Br
HETATM   16  N4  UNL     1      29.040 -18.296  34.182  1.00  0.00    -0.351 N 
ATOM     17  H4  UNL     1      29.822 -18.743  34.661  1.00  0.00     0.166 HD
ENDBRANCH   9  10
ENDBRANCH   8   9
BRANCH   5  18
HETATM   18  N2  UNL     1      26.877 -15.098  38.959  1.00  0.00    -0.429 NA
BRANCH  18  19
HETATM   19  C4  UNL     1      26.266 -15.213  40.119  1.00  0.00     0.216 C 
HETATM   20  C5  UNL     1      27.287 -15.102  41.285  1.00  0.00     0.041 C 
ENDBRANCH  18  19
ENDBRANCH   5  18
TORSDOF 4
ENDMDL
