MODEL 1
REMARK VINA RESULT: -5.760726984      0.000      0.000
REMARK  3 active torsions:
REMARK  status: ('A' for Active; 'I' for Inactive)
REMARK    1  A    between atoms: N2_6  and  C4_8 
REMARK    2  A    between atoms: C4_8  and  C5_9 
REMARK    3  A    between atoms: C5_9  and  N3_10 
ROOT
HETATM    1  C1  UNL     1      31.773 -15.704  36.600  1.00  0.00     0.044 C 
HETATM    2  C2  UNL     1      30.486 -15.648  36.758  1.00  0.00     0.053 A 
HETATM    3  N1  UNL     1      29.957 -15.517  38.113  1.00  0.00    -0.192 N 
ATOM      4  H1  UNL     1      30.603 -15.472  38.901  1.00  0.00     0.184 HD
HETATM    5  C3  UNL     1      28.574 -15.452  38.348  1.00  0.00     0.679 A 
HETATM    6  N2  UNL     1      28.087 -15.336  39.543  1.00  0.00    -0.224 N 
ATOM      7  H2  UNL     1      28.735 -15.292  40.330  1.00  0.00     0.177 HD
HETATM    8  N4  UNL     1      27.669 -15.512  37.289  1.00  0.00    -0.191 N 
ATOM      9  H4  UNL     1      26.669 -15.463  37.482  1.00  0.00     0.184 HD
HETATM   10  C6  UNL     1      28.114 -15.639  35.947  1.00  0.00     0.064 A 
HETATM   11  C7  UNL     1      27.136 -15.689  34.966  1.00  0.00     0.050 A 
HETATM   12  C8  UNL     1      27.523 -15.811  33.657  1.00  0.00     0.014 A 
HETATM   13 BR1  UNL     1      26.202 -15.885  32.272  1.00  0.00    -0.051 Br
HETATM   14  C9  UNL     1      28.858 -15.878  33.380  1.00  0.00     0.039 A 
HETATM   15  C10 UNL     1      29.844 -15.827  34.384  1.00  0.00     0.027 A 
HETATM   16 BR2  UNL     1      31.660 -15.933  33.824  1.00  0.00    -0.050 Br
HETATM   17  C11 UNL     1      29.477 -15.704  35.698  1.00  0.00     0.035 A 
ENDROOT
BRANCH   6  18
HETATM   18  C4  UNL     1      26.679 -15.268  39.813  1.00  0.00     0.165 C 
BRANCH  18  19
HETATM   19  C5  UNL     1      26.472 -15.106  41.313  1.00  0.00     0.249 C 
BRANCH  19  20
HETATM   20  N3  UNL     1      27.740 -15.032  42.011  1.00  0.00    -0.078 N 
ATOM     21  H33 UNL     1      27.998 -14.067  42.219  1.00  0.00     0.274 HD
ATOM     22  H32 UNL     1      27.663 -15.382  42.966  1.00  0.00     0.274 HD
ATOM     23  H31 UNL     1      28.476 -15.514  41.493  1.00  0.00     0.274 HD
ENDBRANCH  19  20
ENDBRANCH  18  19
ENDBRANCH   6  18
TORSDOF 3
ENDMDL
MODEL 2
REMARK VINA RESULT: -5.615232579      2.003      2.041
REMARK  3 active torsions:
REMARK  status: ('A' for Active; 'I' for Inactive)
REMARK    1  A    between atoms: N2_6  and  C4_8 
REMARK    2  A    between atoms: C4_8  and  C5_9 
REMARK    3  A    between atoms: C5_9  and  N3_10 
ROOT
HETATM    1  C1  UNL     1      31.992 -15.660  36.543  1.00  0.00     0.044 C 
HETATM    2  C2  UNL     1      30.788 -15.214  36.733  1.00  0.00     0.053 A 
HETATM    3  N1  UNL     1      30.066 -15.652  37.925  1.00  0.00    -0.192 N 
ATOM      4  H1  UNL     1      30.517 -16.292  38.578  1.00  0.00     0.184 HD
HETATM    5  C3  UNL     1      28.761 -15.203  38.186  1.00  0.00     0.679 A 
HETATM    6  N2  UNL     1      28.105 -15.580  39.238  1.00  0.00    -0.224 N 
ATOM      7  H2  UNL     1      28.557 -16.222  39.889  1.00  0.00     0.177 HD
HETATM    8  N4  UNL     1      28.121 -14.327  37.310  1.00  0.00    -0.191 N 
ATOM      9  H4  UNL     1      27.173 -14.014  37.518  1.00  0.00     0.184 HD
HETATM   10  C6  UNL     1      28.765 -13.862  36.133  1.00  0.00     0.064 A 
HETATM   11  C7  UNL     1      28.045 -12.994  35.328  1.00  0.00     0.050 A 
HETATM   12  C8  UNL     1      28.631 -12.521  34.182  1.00  0.00     0.014 A 
HETATM   13 BR1  UNL     1      27.669 -11.320  33.042  1.00  0.00    -0.051 Br
HETATM   14  C9  UNL     1      29.899 -12.930  33.887  1.00  0.00     0.039 A 
HETATM   15  C10 UNL     1      30.622 -13.813  34.711  1.00  0.00     0.027 A 
HETATM   16 BR2  UNL     1      32.380 -14.281  34.152  1.00  0.00    -0.050 Br
HETATM   17  C11 UNL     1      30.055 -14.295  35.861  1.00  0.00     0.035 A 
ENDROOT
BRANCH   6  18
HETATM   18  C4  UNL     1      26.770 -15.138  39.529  1.00  0.00     0.165 C 
BRANCH  18  19
HETATM   19  C5  UNL     1      26.543 -15.220  41.032  1.00  0.00     0.249 C 
BRANCH  19  20
HETATM   20  N3  UNL     1      27.779 -15.015  41.761  1.00  0.00    -0.078 N 
ATOM     21  H33 UNL     1      27.887 -15.693  42.515  1.00  0.00     0.274 HD
ATOM     22  H32 UNL     1      28.591 -15.273  41.201  1.00  0.00     0.274 HD
ATOM     23  H31 UNL     1      27.850 -14.057  42.105  1.00  0.00     0.274 HD
ENDBRANCH  19  20
ENDBRANCH  18  19
ENDBRANCH   6  18
TORSDOF 3
ENDMDL
MODEL 3
REMARK VINA RESULT: -5.556600086      1.391      3.441
REMARK  3 active torsions:
REMARK  status: ('A' for Active; 'I' for Inactive)
REMARK    1  A    between atoms: N2_6  and  C4_8 
REMARK    2  A    between atoms: C4_8  and  C5_9 
REMARK    3  A    between atoms: C5_9  and  N3_10 
ROOT
HETATM    1  C1  UNL     1      27.084 -15.663  34.565  1.00  0.00     0.044 C 
HETATM    2  C2  UNL     1      27.686 -15.619  35.714  1.00  0.00     0.053 A 
HETATM    3  N1  UNL     1      26.874 -15.453  36.917  1.00  0.00    -0.192 N 
ATOM      4  H1  UNL     1      25.861 -15.377  36.832  1.00  0.00     0.184 HD
HETATM    5  C3  UNL     1      27.467 -15.398  38.189  1.00  0.00     0.679 A 
HETATM    6  N2  UNL     1      26.763 -15.251  39.267  1.00  0.00    -0.224 N 
ATOM      7  H2  UNL     1      25.750 -15.174  39.179  1.00  0.00     0.177 HD
HETATM    8  N4  UNL     1      28.850 -15.501  38.334  1.00  0.00    -0.191 N 
ATOM      9  H4  UNL     1      29.260 -15.458  39.267  1.00  0.00     0.184 HD
HETATM   10  C6  UNL     1      29.699 -15.664  37.207  1.00  0.00     0.064 A 
HETATM   11  C7  UNL     1      31.059 -15.756  37.457  1.00  0.00     0.050 A 
HETATM   12  C8  UNL     1      31.913 -15.914  36.396  1.00  0.00     0.014 A 
HETATM   13 BR1  UNL     1      33.799 -16.045  36.699  1.00  0.00    -0.051 Br
HETATM   14  C9  UNL     1      31.381 -15.973  35.140  1.00  0.00     0.039 A 
HETATM   15  C10 UNL     1      29.998 -15.877  34.897  1.00  0.00     0.027 A 
HETATM   16 BR2  UNL     1      29.426 -15.978  33.085  1.00  0.00    -0.050 Br
HETATM   17  C11 UNL     1      29.129 -15.720  35.944  1.00  0.00     0.035 A 
ENDROOT
BRANCH   6  18
HETATM   18  C4  UNL     1      27.343 -15.192  40.579  1.00  0.00     0.165 C 
BRANCH  18  19
HETATM   19  C5  UNL     1      26.242 -14.897  41.589  1.00  0.00     0.249 C 
BRANCH  19  20
HETATM   20  N3  UNL     1      26.302 -15.813  42.711  1.00  0.00    -0.078 N 
ATOM     21  H33 UNL     1      25.474 -16.409  42.753  1.00  0.00     0.274 HD
ATOM     22  H32 UNL     1      27.007 -16.536  42.567  1.00  0.00     0.274 HD
ATOM     23  H31 UNL     1      26.450 -15.314  43.588  1.00  0.00     0.274 HD
ENDBRANCH  19  20
ENDBRANCH  18  19
ENDBRANCH   6  18
TORSDOF 3
ENDMDL
MODEL 4
REMARK VINA RESULT: -5.327321115      1.404      1.443
REMARK  3 active torsions:
REMARK  status: ('A' for Active; 'I' for Inactive)
REMARK    1  A    between atoms: N2_6  and  C4_8 
REMARK    2  A    between atoms: C4_8  and  C5_9 
REMARK    3  A    between atoms: C5_9  and  N3_10 
ROOT
HETATM    1  C1  UNL     1      32.406 -15.655  36.572  1.00  0.00     0.044 C 
HETATM    2  C2  UNL     1      31.128 -15.871  36.650  1.00  0.00     0.053 A 
HETATM    3  N1  UNL     1      30.419 -15.417  37.843  1.00  0.00    -0.192 N 
ATOM      4  H1  UNL     1      30.935 -14.943  38.584  1.00  0.00     0.184 HD
HETATM    5  C3  UNL     1      29.036 -15.622  37.985  1.00  0.00     0.679 A 
HETATM    6  N2  UNL     1      28.390 -15.226  39.036  1.00  0.00    -0.224 N 
ATOM      7  H2  UNL     1      28.908 -14.753  39.776  1.00  0.00     0.177 HD
HETATM    8  N4  UNL     1      28.306 -16.266  36.986  1.00  0.00    -0.191 N 
ATOM      9  H4  UNL     1      27.303 -16.404  37.110  1.00  0.00     0.184 HD
HETATM   10  C6  UNL     1      28.933 -16.732  35.801  1.00  0.00     0.064 A 
HETATM   11  C7  UNL     1      28.121 -17.359  34.870  1.00  0.00     0.050 A 
HETATM   12  C8  UNL     1      28.687 -17.824  33.711  1.00  0.00     0.014 A 
HETATM   13 BR1  UNL     1      27.598 -18.697  32.398  1.00  0.00    -0.051 Br
HETATM   14  C9  UNL     1      30.028 -17.648  33.529  1.00  0.00     0.039 A 
HETATM   15  C10 UNL     1      30.844 -17.010  34.482  1.00  0.00     0.027 A 
HETATM   16 BR2  UNL     1      32.695 -16.847  34.069  1.00  0.00    -0.050 Br
HETATM   17  C11 UNL     1      30.297 -16.538  35.645  1.00  0.00     0.035 A 
ENDROOT
BRANCH   6  18
HETATM   18  C4  UNL     1      26.978 -15.422  39.207  1.00  0.00     0.165 C 
BRANCH  18  19
HETATM   19  C5  UNL     1      26.619 -15.160  40.663  1.00  0.00     0.249 C 
BRANCH  19  20
HETATM   20  N3  UNL     1      27.805 -15.103  41.494  1.00  0.00    -0.078 N 
ATOM     21  H33 UNL     1      27.990 -14.155  41.820  1.00  0.00     0.274 HD
ATOM     22  H32 UNL     1      27.652 -15.551  42.397  1.00  0.00     0.274 HD
ATOM     23  H31 UNL     1      28.613 -15.498  41.011  1.00  0.00     0.274 HD
ENDBRANCH  19  20
ENDBRANCH  18  19
ENDBRANCH   6  18
TORSDOF 3
ENDMDL
MODEL 5
REMARK VINA RESULT: -5.305664404      3.661      5.680
REMARK  3 active torsions:
REMARK  status: ('A' for Active; 'I' for Inactive)
REMARK    1  A    between atoms: N2_6  and  C4_8 
REMARK    2  A    between atoms: C4_8  and  C5_9 
REMARK    3  A    between atoms: C5_9  and  N3_10 
ROOT
HETATM    1  C1  UNL     1      27.301 -15.643  36.362  1.00  0.00     0.044 C 
HETATM    2  C2  UNL     1      28.303 -14.880  36.046  1.00  0.00     0.053 A 
HETATM    3  N1  UNL     1      28.024 -13.525  35.580  1.00  0.00    -0.192 N 
ATOM      4  H1  UNL     1      27.057 -13.206  35.512  1.00  0.00     0.184 HD
HETATM    5  C3  UNL     1      29.066 -12.653  35.224  1.00  0.00     0.679 A 
HETATM    6  N2  UNL     1      28.837 -11.447  34.808  1.00  0.00    -0.224 N 
ATOM      7  H2  UNL     1      27.870 -11.131  34.740  1.00  0.00     0.177 HD
HETATM    8  N4  UNL     1      30.396 -13.062  35.307  1.00  0.00    -0.191 N 
ATOM      9  H4  UNL     1      31.137 -12.413  35.043  1.00  0.00     0.184 HD
HETATM   10  C6  UNL     1      30.738 -14.366  35.752  1.00  0.00     0.064 A 
HETATM   11  C7  UNL     1      32.088 -14.676  35.800  1.00  0.00     0.050 A 
HETATM   12  C8  UNL     1      32.461 -15.925  36.224  1.00  0.00     0.014 A 
HETATM   13 BR1  UNL     1      34.317 -16.394  36.304  1.00  0.00    -0.051 Br
HETATM   14  C9  UNL     1      31.483 -16.807  36.581  1.00  0.00     0.039 A 
HETATM   15  C10 UNL     1      30.114 -16.482  36.529  1.00  0.00     0.027 A 
HETATM   16 BR2  UNL     1      28.880 -17.830  37.062  1.00  0.00    -0.050 Br
HETATM   17  C11 UNL     1      29.721 -15.240  36.108  1.00  0.00     0.035 A 
ENDROOT
BRANCH   6  18
HETATM   18  C4  UNL     1      29.882 -10.535  34.437  1.00  0.00     0.165 C 
BRANCH  18  19
HETATM   19  C5  UNL     1      29.289  -9.141  34.291  1.00  0.00     0.249 C 
BRANCH  19  20
HETATM   20  N3  UNL     1      29.269  -8.444  35.562  1.00  0.00    -0.078 N 
ATOM     21  H33 UNL     1      28.411  -7.905  35.681  1.00  0.00     0.274 HD
ATOM     22  H32 UNL     1      29.157  -9.091  36.342  1.00  0.00     0.274 HD
ATOM     23  H31 UNL     1      30.098  -7.860  35.675  1.00  0.00     0.274 HD
ENDBRANCH  19  20
ENDBRANCH  18  19
ENDBRANCH   6  18
TORSDOF 3
ENDMDL
