MODEL 1
REMARK VINA RESULT: -5.487256634      0.000      0.000
REMARK  6 active torsions:
REMARK  status: ('A' for Active; 'I' for Inactive)
REMARK    1  A    between atoms: O1_1  and  C1_3 
REMARK    2  A    between atoms: C1_3  and  C2_4 
REMARK    3  A    between atoms: C2_4  and  N1_5 
REMARK    4  A    between atoms: N1_5  and  C3_7 
REMARK    5  A    between atoms: C3_7  and  N2_9 
REMARK    6  A    between atoms: N2_9  and  C4_11 
ROOT
HETATM    1  N2  UNL     1      27.876 -15.762  37.893  1.00  0.00    -0.313 N 
ATOM      2  H2  UNL     1      27.712 -16.673  37.463  1.00  0.00     0.170 HD
ENDROOT
BRANCH   1   3
HETATM    3  C3  UNL     1      28.778 -14.818  37.336  1.00  0.00     0.173 C 
HETATM    4  S1  UNL     1      28.245 -13.577  36.395  1.00  0.00    -0.041 SA
BRANCH   3   5
HETATM    5  N1  UNL     1      30.173 -14.911  37.571  1.00  0.00    -0.365 N 
ATOM      6  H1  UNL     1      30.584 -14.439  38.376  1.00  0.00     0.161 HD
BRANCH   5   7
HETATM    7  C2  UNL     1      31.007 -15.664  36.687  1.00  0.00     0.148 C 
BRANCH   7   8
HETATM    8  C1  UNL     1      32.376 -15.027  36.638  1.00  0.00     0.183 C 
BRANCH   8   9
HETATM    9  O1  UNL     1      32.835 -14.813  37.935  1.00  0.00    -0.399 OA
ATOM     10  H1  UNL     1      32.374 -14.076  38.318  1.00  0.00     0.209 HD
ENDBRANCH   8   9
ENDBRANCH   7   8
ENDBRANCH   5   7
ENDBRANCH   3   5
ENDBRANCH   1   3
BRANCH   1  11
HETATM   11  C4  UNL     1      27.265 -15.391  38.999  1.00  0.00     0.152 A 
HETATM   12  N3  UNL     1      27.758 -15.244  40.230  1.00  0.00    -0.329 N 
HETATM   13  C5  UNL     1      26.949 -14.860  41.186  1.00  0.00     0.106 A 
ATOM     14  H3  UNL     1      28.743 -15.428  40.423  1.00  0.00     0.168 HD
HETATM   15 BR1  UNL     1      27.550 -14.612  43.019  1.00  0.00    -0.029 Br
HETATM   16  C6  UNL     1      25.645 -14.630  40.867  1.00  0.00     0.089 A 
HETATM   17 BR2  UNL     1      24.198 -14.061  42.010  1.00  0.00    -0.040 Br
HETATM   18  S2  UNL     1      25.610 -14.972  39.200  1.00  0.00    -0.043 SA
ENDBRANCH   1  11
TORSDOF 6
ENDMDL
MODEL 2
REMARK VINA RESULT: -5.412870137      2.796      3.122
REMARK  6 active torsions:
REMARK  status: ('A' for Active; 'I' for Inactive)
REMARK    1  A    between atoms: O1_1  and  C1_3 
REMARK    2  A    between atoms: C1_3  and  C2_4 
REMARK    3  A    between atoms: C2_4  and  N1_5 
REMARK    4  A    between atoms: N1_5  and  C3_7 
REMARK    5  A    between atoms: C3_7  and  N2_9 
REMARK    6  A    between atoms: N2_9  and  C4_11 
ROOT
HETATM    1  N2  UNL     1      28.102 -15.203  38.309  1.00  0.00    -0.313 N 
ATOM      2  H2  UNL     1      29.010 -15.669  38.337  1.00  0.00     0.170 HD
ENDROOT
BRANCH   1   3
HETATM    3  C3  UNL     1      27.551 -14.699  37.102  1.00  0.00     0.173 C 
HETATM    4  S1  UNL     1      26.924 -15.705  35.961  1.00  0.00    -0.041 SA
BRANCH   3   5
HETATM    5  N1  UNL     1      27.523 -13.306  36.836  1.00  0.00    -0.365 N 
ATOM      6  H1  UNL     1      27.103 -12.670  37.513  1.00  0.00     0.161 HD
BRANCH   5   7
HETATM    7  C2  UNL     1      28.081 -12.789  35.626  1.00  0.00     0.148 C 
BRANCH   7   8
HETATM    8  C1  UNL     1      27.169 -11.716  35.082  1.00  0.00     0.183 C 
BRANCH   8   9
HETATM    9  O1  UNL     1      26.430 -11.162  36.124  1.00  0.00    -0.399 OA
ATOM     10  H1  UNL     1      25.751 -10.601  35.768  1.00  0.00     0.209 HD
ENDBRANCH   8   9
ENDBRANCH   7   8
ENDBRANCH   5   7
ENDBRANCH   3   5
ENDBRANCH   1   3
BRANCH   1  11
HETATM   11  C4  UNL     1      27.370 -15.033  39.390  1.00  0.00     0.152 A 
HETATM   12  N3  UNL     1      27.721 -15.134  40.674  1.00  0.00    -0.329 N 
HETATM   13  C5  UNL     1      26.810 -14.918  41.589  1.00  0.00     0.106 A 
ATOM     14  H3  UNL     1      28.677 -15.375  40.935  1.00  0.00     0.168 HD
HETATM   15 BR1  UNL     1      27.200 -15.036  43.491  1.00  0.00    -0.029 Br
HETATM   16  C6  UNL     1      25.551 -14.602  41.178  1.00  0.00     0.089 A 
HETATM   17 BR2  UNL     1      23.985 -14.224  42.241  1.00  0.00    -0.040 Br
HETATM   18  S2  UNL     1      25.704 -14.621  39.483  1.00  0.00    -0.043 SA
ENDBRANCH   1  11
TORSDOF 6
ENDMDL
MODEL 3
REMARK VINA RESULT: -5.250779159      1.224      1.224
REMARK  6 active torsions:
REMARK  status: ('A' for Active; 'I' for Inactive)
REMARK    1  A    between atoms: O1_1  and  C1_3 
REMARK    2  A    between atoms: C1_3  and  C2_4 
REMARK    3  A    between atoms: C2_4  and  N1_5 
REMARK    4  A    between atoms: N1_5  and  C3_7 
REMARK    5  A    between atoms: C3_7  and  N2_9 
REMARK    6  A    between atoms: N2_9  and  C4_11 
ROOT
HETATM    1  N2  UNL     1      27.579 -15.167  37.757  1.00  0.00    -0.313 N 
ATOM      2  H2  UNL     1      27.151 -14.777  36.917  1.00  0.00     0.170 HD
ENDROOT
BRANCH   1   3
HETATM    3  C3  UNL     1      28.792 -15.902  37.712  1.00  0.00     0.173 C 
HETATM    4  S1  UNL     1      28.799 -17.529  37.462  1.00  0.00    -0.041 SA
BRANCH   3   5
HETATM    5  N1  UNL     1      30.044 -15.259  37.883  1.00  0.00    -0.365 N 
ATOM      6  H1  UNL     1      30.381 -15.048  38.823  1.00  0.00     0.161 HD
BRANCH   5   7
HETATM    7  C2  UNL     1      30.837 -14.904  36.748  1.00  0.00     0.148 C 
BRANCH   7   8
HETATM    8  C1  UNL     1      32.228 -15.465  36.923  1.00  0.00     0.183 C 
BRANCH   8   9
HETATM    9  O1  UNL     1      32.887 -14.770  37.933  1.00  0.00    -0.399 OA
ATOM     10  H1  UNL     1      33.665 -14.357  37.579  1.00  0.00     0.209 HD
ENDBRANCH   8   9
ENDBRANCH   7   8
ENDBRANCH   5   7
ENDBRANCH   3   5
ENDBRANCH   1   3
BRANCH   1  11
HETATM   11  C4  UNL     1      27.038 -15.021  38.949  1.00  0.00     0.152 A 
HETATM   12  N3  UNL     1      27.587 -15.190  40.153  1.00  0.00    -0.329 N 
HETATM   13  C5  UNL     1      26.845 -14.984  41.212  1.00  0.00     0.106 A 
ATOM     14  H3  UNL     1      28.563 -15.472  40.246  1.00  0.00     0.168 HD
HETATM   15 BR1  UNL     1      27.532 -15.198  43.019  1.00  0.00    -0.029 Br
HETATM   16  C6  UNL     1      25.549 -14.609  41.024  1.00  0.00     0.089 A 
HETATM   17 BR2  UNL     1      24.191 -14.228  42.341  1.00  0.00    -0.040 Br
HETATM   18  S2  UNL     1      25.426 -14.559  39.327  1.00  0.00    -0.043 SA
ENDBRANCH   1  11
TORSDOF 6
ENDMDL
MODEL 4
REMARK VINA RESULT: -5.201383896      3.084      3.706
REMARK  6 active torsions:
REMARK  status: ('A' for Active; 'I' for Inactive)
REMARK    1  A    between atoms: O1_1  and  C1_3 
REMARK    2  A    between atoms: C1_3  and  C2_4 
REMARK    3  A    between atoms: C2_4  and  N1_5 
REMARK    4  A    between atoms: N1_5  and  C3_7 
REMARK    5  A    between atoms: C3_7  and  N2_9 
REMARK    6  A    between atoms: N2_9  and  C4_11 
ROOT
HETATM    1  N2  UNL     1      26.460 -15.146  37.149  1.00  0.00    -0.313 N 
ATOM      2  H2  UNL     1      25.785 -15.715  36.638  1.00  0.00     0.170 HD
ENDROOT
BRANCH   1   3
HETATM    3  C3  UNL     1      27.505 -14.445  36.491  1.00  0.00     0.173 C 
HETATM    4  S1  UNL     1      28.734 -15.245  35.742  1.00  0.00    -0.041 SA
BRANCH   3   5
HETATM    5  N1  UNL     1      27.527 -13.028  36.458  1.00  0.00    -0.365 N 
ATOM      6  H1  UNL     1      27.215 -12.497  37.272  1.00  0.00     0.161 HD
BRANCH   5   7
HETATM    7  C2  UNL     1      27.984 -12.338  35.293  1.00  0.00     0.148 C 
BRANCH   7   8
HETATM    8  C1  UNL     1      26.978 -11.274  34.923  1.00  0.00     0.183 C 
BRANCH   8   9
HETATM    9  O1  UNL     1      26.334 -10.824  36.073  1.00  0.00    -0.399 OA
ATOM     10  H1  UNL     1      25.566 -11.358  36.236  1.00  0.00     0.209 HD
ENDBRANCH   8   9
ENDBRANCH   7   8
ENDBRANCH   5   7
ENDBRANCH   3   5
ENDBRANCH   1   3
BRANCH   1  11
HETATM   11  C4  UNL     1      26.418 -15.018  38.459  1.00  0.00     0.152 A 
HETATM   12  N3  UNL     1      25.403 -14.642  39.239  1.00  0.00    -0.329 N 
HETATM   13  C5  UNL     1      25.597 -14.587  40.533  1.00  0.00     0.106 A 
ATOM     14  H3  UNL     1      24.497 -14.402  38.837  1.00  0.00     0.168 HD
HETATM   15 BR1  UNL     1      24.197 -14.052  41.772  1.00  0.00    -0.029 Br
HETATM   16  C6  UNL     1      26.829 -14.918  41.011  1.00  0.00     0.089 A 
HETATM   17 BR2  UNL     1      27.456 -14.948  42.836  1.00  0.00    -0.040 Br
HETATM   18  S2  UNL     1      27.682 -15.302  39.589  1.00  0.00    -0.043 SA
ENDBRANCH   1  11
TORSDOF 6
ENDMDL
MODEL 5
REMARK VINA RESULT: -5.140878884      4.632      6.571
REMARK  6 active torsions:
REMARK  status: ('A' for Active; 'I' for Inactive)
REMARK    1  A    between atoms: O1_1  and  C1_3 
REMARK    2  A    between atoms: C1_3  and  C2_4 
REMARK    3  A    between atoms: C2_4  and  N1_5 
REMARK    4  A    between atoms: N1_5  and  C3_7 
REMARK    5  A    between atoms: C3_7  and  N2_9 
REMARK    6  A    between atoms: N2_9  and  C4_11 
ROOT
HETATM    1  N2  UNL     1      25.712 -14.743  41.443  1.00  0.00    -0.313 N 
ATOM      2  H2  UNL     1      24.793 -14.312  41.550  1.00  0.00     0.170 HD
ENDROOT
BRANCH   1   3
HETATM    3  C3  UNL     1      26.497 -15.129  42.561  1.00  0.00     0.173 C 
HETATM    4  S1  UNL     1      27.837 -14.279  43.001  1.00  0.00    -0.041 SA
BRANCH   3   5
HETATM    5  N1  UNL     1      26.155 -16.264  43.339  1.00  0.00    -0.365 N 
ATOM      6  H1  UNL     1      25.731 -17.076  42.890  1.00  0.00     0.161 HD
BRANCH   5   7
HETATM    7  C2  UNL     1      26.401 -16.278  44.747  1.00  0.00     0.148 C 
BRANCH   7   8
HETATM    8  C1  UNL     1      25.122 -15.939  45.474  1.00  0.00     0.183 C 
BRANCH   8   9
HETATM    9  O1  UNL     1      24.885 -16.888  46.465  1.00  0.00    -0.399 OA
ATOM     10  H1  UNL     1      25.354 -17.687  46.257  1.00  0.00     0.209 HD
ENDBRANCH   8   9
ENDBRANCH   7   8
ENDBRANCH   5   7
ENDBRANCH   3   5
ENDBRANCH   1   3
BRANCH   1  11
HETATM   11  C4  UNL     1      26.242 -14.975  40.260  1.00  0.00     0.152 A 
HETATM   12  N3  UNL     1      27.523 -15.133  39.923  1.00  0.00    -0.329 N 
HETATM   13  C5  UNL     1      27.816 -15.357  38.667  1.00  0.00     0.106 A 
ATOM     14  H3  UNL     1      28.258 -15.079  40.629  1.00  0.00     0.168 HD
HETATM   15 BR1  UNL     1      29.645 -15.603  38.054  1.00  0.00    -0.029 Br
HETATM   16  C6  UNL     1      26.791 -15.418  37.772  1.00  0.00     0.089 A 
HETATM   17 BR2  UNL     1      26.859 -15.728  35.868  1.00  0.00    -0.040 Br
HETATM   18  S2  UNL     1      25.429 -15.150  38.755  1.00  0.00    -0.043 SA
ENDBRANCH   1  11
TORSDOF 6
ENDMDL
