MODEL 1
REMARK VINA RESULT: -5.395055701      0.000      0.000
REMARK  4 active torsions:
REMARK  status: ('A' for Active; 'I' for Inactive)
REMARK    1  A    between atoms: N1_4  and  C4_5 
REMARK    2  A    between atoms: C4_5  and  N2_7 
REMARK    3  A    between atoms: N2_7  and  C5_9 
REMARK    4  A    between atoms: C5_9  and  C8_12 
REMARK       I    between atoms: N3_18  and  C12_19 
ROOT
HETATM    1  C1  UNL     1      27.651 -11.480  31.606  1.00  0.00     0.034 C 
HETATM    2  C2  UNL     1      27.508 -11.935  33.065  1.00  0.00     0.101 C 
HETATM    3  C3  UNL     1      28.253 -13.218  33.194  1.00  0.00     0.150 C 
HETATM    4  N1  UNL     1      29.563 -13.044  33.910  1.00  0.00    -0.355 N 
HETATM    5  C10 UNL     1      30.203 -11.821  33.552  1.00  0.00     0.145 C 
HETATM    6  C11 UNL     1      29.419 -10.620  34.081  1.00  0.00     0.146 C 
HETATM    7  N3  UNL     1      27.996 -10.874  33.897  1.00  0.00    -0.348 N 
HETATM    8  C12 UNL     1      27.076 -10.037  34.564  1.00  0.00     0.184 C 
HETATM    9  N4  UNL     1      26.786  -8.843  34.163  1.00  0.00    -0.374 N 
ATOM     10  H41 UNL     1      26.120  -8.239  34.645  1.00  0.00     0.158 HD
ATOM     11  H42 UNL     1      27.263  -8.524  33.320  1.00  0.00     0.158 HD
HETATM   12  N5  UNL     1      26.404 -10.488  35.754  1.00  0.00    -0.064 NA
ENDROOT
BRANCH   4  13
HETATM   13  C4  UNL     1      29.936 -14.061  34.776  1.00  0.00     0.170 C 
HETATM   14  S1  UNL     1      31.642 -14.164  34.958  1.00  0.00    -0.041 SA
BRANCH  13  15
HETATM   15  N2  UNL     1      29.277 -15.008  35.538  1.00  0.00    -0.356 N 
ATOM     16  H2  UNL     1      29.362 -15.939  35.128  1.00  0.00     0.162 HD
BRANCH  15  17
HETATM   17  C5  UNL     1      28.520 -15.037  36.728  1.00  0.00     0.060 C 
HETATM   18  C6  UNL     1      29.237 -15.348  37.998  1.00  0.00     0.041 C 
HETATM   19  C7  UNL     1      27.715 -13.753  36.876  1.00  0.00     0.041 C 
BRANCH  17  20
HETATM   20  C8  UNL     1      27.413 -16.122  36.589  1.00  0.00     0.134 C 
HETATM   21  C9  UNL     1      28.005 -17.485  36.748  1.00  0.00     0.053 C 
HETATM   22 CL1  UNL     1      26.662 -15.994  34.986  1.00  0.00    -0.099 Cl
HETATM   23 CL2  UNL     1      26.183 -15.842  37.818  1.00  0.00    -0.099 Cl
ENDBRANCH  17  20
ENDBRANCH  15  17
ENDBRANCH  13  15
ENDBRANCH   4  13
TORSDOF 4
ENDMDL
MODEL 2
REMARK VINA RESULT: -5.385725238      2.191      2.486
REMARK  4 active torsions:
REMARK  status: ('A' for Active; 'I' for Inactive)
REMARK    1  A    between atoms: N1_4  and  C4_5 
REMARK    2  A    between atoms: C4_5  and  N2_7 
REMARK    3  A    between atoms: N2_7  and  C5_9 
REMARK    4  A    between atoms: C5_9  and  C8_12 
REMARK       I    between atoms: N3_18  and  C12_19 
ROOT
HETATM    1  C1  UNL     1      27.613 -11.393  31.501  1.00  0.00     0.034 C 
HETATM    2  C2  UNL     1      26.868 -11.758  32.794  1.00  0.00     0.101 C 
HETATM    3  C3  UNL     1      26.560 -13.213  32.719  1.00  0.00     0.150 C 
HETATM    4  N1  UNL     1      27.458 -14.029  33.608  1.00  0.00    -0.355 N 
HETATM    5  C10 UNL     1      28.794 -13.529  33.612  1.00  0.00     0.145 C 
HETATM    6  C11 UNL     1      28.863 -12.165  34.299  1.00  0.00     0.146 C 
HETATM    7  N3  UNL     1      27.706 -11.379  33.894  1.00  0.00    -0.348 N 
HETATM    8  C12 UNL     1      27.410 -10.203  34.616  1.00  0.00     0.184 C 
HETATM    9  N4  UNL     1      28.057  -9.096  34.462  1.00  0.00    -0.374 N 
ATOM     10  H41 UNL     1      27.843  -8.246  34.984  1.00  0.00     0.158 HD
ATOM     11  H42 UNL     1      28.811  -9.108  33.775  1.00  0.00     0.158 HD
HETATM   12  N5  UNL     1      26.346 -10.186  35.587  1.00  0.00    -0.064 NA
ENDROOT
BRANCH   4  13
HETATM   13  C4  UNL     1      26.873 -15.102  34.263  1.00  0.00     0.170 C 
HETATM   14  S1  UNL     1      25.725 -15.915  33.274  1.00  0.00    -0.041 SA
BRANCH  13  15
HETATM   15  N2  UNL     1      26.987 -15.688  35.510  1.00  0.00    -0.356 N 
ATOM     16  H2  UNL     1      26.848 -16.698  35.460  1.00  0.00     0.162 HD
BRANCH  15  17
HETATM   17  C5  UNL     1      27.243 -15.268  36.832  1.00  0.00     0.060 C 
HETATM   18  C6  UNL     1      27.487 -13.815  37.062  1.00  0.00     0.041 C 
HETATM   19  C7  UNL     1      26.157 -15.777  37.771  1.00  0.00     0.041 C 
BRANCH  17  20
HETATM   20  C8  UNL     1      28.515 -15.999  37.350  1.00  0.00     0.134 C 
HETATM   21  C9  UNL     1      28.685 -15.763  38.816  1.00  0.00     0.053 C 
HETATM   22 CL1  UNL     1      29.940 -15.384  36.489  1.00  0.00    -0.099 Cl
HETATM   23 CL2  UNL     1      28.354 -17.723  37.023  1.00  0.00    -0.099 Cl
ENDBRANCH  17  20
ENDBRANCH  15  17
ENDBRANCH  13  15
ENDBRANCH   4  13
TORSDOF 4
ENDMDL
MODEL 3
REMARK VINA RESULT: -5.313669842      4.906      6.735
REMARK  4 active torsions:
REMARK  status: ('A' for Active; 'I' for Inactive)
REMARK    1  A    between atoms: N1_4  and  C4_5 
REMARK    2  A    between atoms: C4_5  and  N2_7 
REMARK    3  A    between atoms: N2_7  and  C5_9 
REMARK    4  A    between atoms: C5_9  and  C8_12 
REMARK       I    between atoms: N3_18  and  C12_19 
ROOT
HETATM    1  C1  UNL     1      27.535 -16.997  36.428  1.00  0.00     0.034 C 
HETATM    2  C2  UNL     1      26.893 -15.686  36.905  1.00  0.00     0.101 C 
HETATM    3  C3  UNL     1      26.082 -16.015  38.110  1.00  0.00     0.150 C 
HETATM    4  N1  UNL     1      26.745 -15.560  39.381  1.00  0.00    -0.355 N 
HETATM    5  C10 UNL     1      28.158 -15.746  39.337  1.00  0.00     0.145 C 
HETATM    6  C11 UNL     1      28.800 -14.803  38.318  1.00  0.00     0.146 C 
HETATM    7  N3  UNL     1      27.952 -14.748  37.135  1.00  0.00    -0.348 N 
HETATM    8  C12 UNL     1      28.194 -13.731  36.186  1.00  0.00     0.184 C 
HETATM    9  N4  UNL     1      29.164 -13.774  35.335  1.00  0.00    -0.374 N 
ATOM     10  H41 UNL     1      29.339 -13.039  34.649  1.00  0.00     0.158 HD
ATOM     11  H42 UNL     1      29.764 -14.598  35.377  1.00  0.00     0.158 HD
HETATM   12  N5  UNL     1      27.348 -12.567  36.127  1.00  0.00    -0.064 NA
ENDROOT
BRANCH   4  13
HETATM   13  C4  UNL     1      25.912 -15.050  40.366  1.00  0.00     0.170 C 
HETATM   14  S1  UNL     1      25.001 -13.702  39.809  1.00  0.00    -0.041 SA
BRANCH  13  15
HETATM   15  N2  UNL     1      25.623 -15.359  41.682  1.00  0.00    -0.356 N 
ATOM     16  H2  UNL     1      24.719 -15.824  41.765  1.00  0.00     0.162 HD
BRANCH  15  17
HETATM   17  C5  UNL     1      26.241 -15.206  42.941  1.00  0.00     0.060 C 
HETATM   18  C6  UNL     1      26.660 -16.442  43.662  1.00  0.00     0.041 C 
HETATM   19  C7  UNL     1      27.405 -14.229  42.846  1.00  0.00     0.041 C 
BRANCH  17  20
HETATM   20  C8  UNL     1      25.253 -14.472  43.895  1.00  0.00     0.134 C 
HETATM   21  C9  UNL     1      25.841 -13.175  44.348  1.00  0.00     0.053 C 
HETATM   22 CL1  UNL     1      24.932 -15.495  45.310  1.00  0.00    -0.099 Cl
HETATM   23 CL2  UNL     1      23.739 -14.193  43.040  1.00  0.00    -0.099 Cl
ENDBRANCH  17  20
ENDBRANCH  15  17
ENDBRANCH  13  15
ENDBRANCH   4  13
TORSDOF 4
ENDMDL
MODEL 4
REMARK VINA RESULT: -5.286031838      1.834      2.005
REMARK  4 active torsions:
REMARK  status: ('A' for Active; 'I' for Inactive)
REMARK    1  A    between atoms: N1_4  and  C4_5 
REMARK    2  A    between atoms: C4_5  and  N2_7 
REMARK    3  A    between atoms: N2_7  and  C5_9 
REMARK    4  A    between atoms: C5_9  and  C8_12 
REMARK       I    between atoms: N3_18  and  C12_19 
ROOT
HETATM    1  C1  UNL     1      27.416 -11.023  31.316  1.00  0.00     0.034 C 
HETATM    2  C2  UNL     1      26.824 -11.498  32.652  1.00  0.00     0.101 C 
HETATM    3  C3  UNL     1      26.674 -12.976  32.557  1.00  0.00     0.150 C 
HETATM    4  N1  UNL     1      27.726 -13.705  33.347  1.00  0.00    -0.355 N 
HETATM    5  C10 UNL     1      28.994 -13.058  33.262  1.00  0.00     0.145 C 
HETATM    6  C11 UNL     1      28.968 -11.709  33.982  1.00  0.00     0.146 C 
HETATM    7  N3  UNL     1      27.702 -11.050  33.694  1.00  0.00    -0.348 N 
HETATM    8  C12 UNL     1      27.338  -9.931  34.473  1.00  0.00     0.184 C 
HETATM    9  N4  UNL     1      27.843  -8.755  34.302  1.00  0.00    -0.374 N 
ATOM     10  H41 UNL     1      27.580  -7.946  34.866  1.00  0.00     0.158 HD
ATOM     11  H42 UNL     1      28.536  -8.667  33.559  1.00  0.00     0.158 HD
HETATM   12  N5  UNL     1      26.361 -10.056  35.524  1.00  0.00    -0.064 NA
ENDROOT
BRANCH   4  13
HETATM   13  C4  UNL     1      27.319 -14.851  34.012  1.00  0.00     0.170 C 
HETATM   14  S1  UNL     1      26.128 -15.723  33.130  1.00  0.00    -0.041 SA
BRANCH  13  15
HETATM   15  N2  UNL     1      27.637 -15.474  35.205  1.00  0.00    -0.356 N 
ATOM     16  H2  UNL     1      27.364 -16.457  35.195  1.00  0.00     0.162 HD
BRANCH  15  17
HETATM   17  C5  UNL     1      28.235 -15.118  36.432  1.00  0.00     0.060 C 
HETATM   18  C6  UNL     1      29.724 -15.079  36.490  1.00  0.00     0.041 C 
HETATM   19  C7  UNL     1      27.651 -13.811  36.948  1.00  0.00     0.041 C 
BRANCH  17  20
HETATM   20  C8  UNL     1      27.795 -16.144  37.517  1.00  0.00     0.134 C 
HETATM   21  C9  UNL     1      28.655 -16.010  38.732  1.00  0.00     0.053 C 
HETATM   22 CL1  UNL     1      27.950 -17.789  36.869  1.00  0.00    -0.099 Cl
HETATM   23 CL2  UNL     1      26.107 -15.850  37.926  1.00  0.00    -0.099 Cl
ENDBRANCH  17  20
ENDBRANCH  15  17
ENDBRANCH  13  15
ENDBRANCH   4  13
TORSDOF 4
ENDMDL
MODEL 5
REMARK VINA RESULT: -5.279337342      1.092      1.634
REMARK  4 active torsions:
REMARK  status: ('A' for Active; 'I' for Inactive)
REMARK    1  A    between atoms: N1_4  and  C4_5 
REMARK    2  A    between atoms: C4_5  and  N2_7 
REMARK    3  A    between atoms: N2_7  and  C5_9 
REMARK    4  A    between atoms: C5_9  and  C8_12 
REMARK       I    between atoms: N3_18  and  C12_19 
ROOT
HETATM    1  C1  UNL     1      27.228 -11.176  31.576  1.00  0.00     0.034 C 
HETATM    2  C2  UNL     1      27.143 -11.426  33.089  1.00  0.00     0.101 C 
HETATM    3  C3  UNL     1      27.747 -12.764  33.341  1.00  0.00     0.150 C 
HETATM    4  N1  UNL     1      29.119 -12.660  33.950  1.00  0.00    -0.355 N 
HETATM    5  C10 UNL     1      29.863 -11.577  33.396  1.00  0.00     0.145 C 
HETATM    6  C11 UNL     1      29.258 -10.234  33.807  1.00  0.00     0.146 C 
HETATM    7  N3  UNL     1      27.807 -10.336  33.742  1.00  0.00    -0.348 N 
HETATM    8  C12 UNL     1      27.037  -9.318  34.346  1.00  0.00     0.184 C 
HETATM    9  N4  UNL     1      26.853  -8.158  33.810  1.00  0.00    -0.374 N 
ATOM     10  H41 UNL     1      26.296  -7.423  34.246  1.00  0.00     0.158 HD
ATOM     11  H42 UNL     1      27.298  -8.005  32.905  1.00  0.00     0.158 HD
HETATM   12  N5  UNL     1      26.409  -9.534  35.624  1.00  0.00    -0.064 NA
ENDROOT
BRANCH   4  13
HETATM   13  C4  UNL     1      29.439 -13.599  34.919  1.00  0.00     0.170 C 
HETATM   14  S1  UNL     1      31.137 -13.816  35.074  1.00  0.00    -0.041 SA
BRANCH  13  15
HETATM   15  N2  UNL     1      28.734 -14.399  35.799  1.00  0.00    -0.356 N 
ATOM     16  H2  UNL     1      28.702 -13.986  36.732  1.00  0.00     0.162 HD
BRANCH  15  17
HETATM   17  C5  UNL     1      28.047 -15.630  35.757  1.00  0.00     0.060 C 
HETATM   18  C6  UNL     1      26.665 -15.633  35.197  1.00  0.00     0.041 C 
HETATM   19  C7  UNL     1      28.898 -16.689  35.070  1.00  0.00     0.041 C 
BRANCH  17  20
HETATM   20  C8  UNL     1      27.918 -16.180  37.207  1.00  0.00     0.134 C 
HETATM   21  C9  UNL     1      28.936 -15.537  38.094  1.00  0.00     0.053 C 
HETATM   22 CL1  UNL     1      28.177 -17.936  37.197  1.00  0.00    -0.099 Cl
HETATM   23 CL2  UNL     1      26.293 -15.848  37.800  1.00  0.00    -0.099 Cl
ENDBRANCH  17  20
ENDBRANCH  15  17
ENDBRANCH  13  15
ENDBRANCH   4  13
TORSDOF 4
ENDMDL
