MODEL 1
REMARK VINA RESULT: -5.585478893      0.000      0.000
REMARK  3 active torsions:
REMARK  status: ('A' for Active; 'I' for Inactive)
REMARK       I    between atoms: C1_4  and  N2_5 
REMARK       I    between atoms: C1_4  and  N4_14 
REMARK    1  A    between atoms: N2_5  and  C2_7 
REMARK    2  A    between atoms: N4_14  and  C5_16 
REMARK    3  A    between atoms: C5_16  and  C6_17 
ROOT
HETATM    1  N1  UNL     1      25.731 -14.266  38.956  1.00  0.00    -0.235 N 
ATOM      2  H11 UNL     1      26.172 -13.736  38.204  1.00  0.00     0.174 HD
ATOM      3  H12 UNL     1      24.724 -14.175  39.093  1.00  0.00     0.174 HD
HETATM    4  C1  UNL     1      26.427 -15.031  39.713  1.00  0.00     0.673 C 
HETATM    5  N2  UNL     1      25.816 -15.766  40.756  1.00  0.00    -0.171 N 
ATOM      6  H2  UNL     1      25.765 -16.784  40.702  1.00  0.00     0.186 HD
HETATM    7  N4  UNL     1      27.835 -15.157  39.522  1.00  0.00    -0.226 N 
ATOM      8  H4  UNL     1      28.435 -15.278  40.337  1.00  0.00     0.177 HD
ENDROOT
BRANCH   5   9
HETATM    9  C2  UNL     1      25.313 -15.137  41.793  1.00  0.00     0.164 A 
HETATM   10  N3  UNL     1      24.084 -14.661  41.945  1.00  0.00    -0.344 N 
HETATM   11  C3  UNL     1      23.783 -14.059  43.073  1.00  0.00     0.116 A 
ATOM     12  H3  UNL     1      23.390 -14.761  41.205  1.00  0.00     0.167 HD
HETATM   13  C4  UNL     1      24.760 -13.961  44.022  1.00  0.00     0.070 A 
HETATM   14 BR1  UNL     1      24.641 -13.145  45.766  1.00  0.00    -0.042 Br
HETATM   15  S1  UNL     1      26.076 -14.737  43.260  1.00  0.00    -0.044 SA
ENDBRANCH   5   9
BRANCH   7  16
HETATM   16  C5  UNL     1      28.438 -15.119  38.206  1.00  0.00     0.149 C 
BRANCH  16  17
HETATM   17  C6  UNL     1      29.174 -16.397  37.926  1.00  0.00     0.105 C 
HETATM   18 BR2  UNL     1      28.121 -17.574  36.813  1.00  0.00    -0.095 Br
ENDBRANCH  16  17
ENDBRANCH   7  16
TORSDOF 3
ENDMDL
MODEL 2
REMARK VINA RESULT: -5.488412962      2.257      6.230
REMARK  3 active torsions:
REMARK  status: ('A' for Active; 'I' for Inactive)
REMARK       I    between atoms: C1_4  and  N2_5 
REMARK       I    between atoms: C1_4  and  N4_14 
REMARK    1  A    between atoms: N2_5  and  C2_7 
REMARK    2  A    between atoms: N4_14  and  C5_16 
REMARK    3  A    between atoms: C5_16  and  C6_17 
ROOT
HETATM    1  N1  UNL     1      27.809 -14.903  42.805  1.00  0.00    -0.235 N 
ATOM      2  H11 UNL     1      28.142 -14.396  43.626  1.00  0.00     0.174 HD
ATOM      3  H12 UNL     1      28.421 -15.600  42.381  1.00  0.00     0.174 HD
HETATM    4  C1  UNL     1      26.647 -14.670  42.320  1.00  0.00     0.673 C 
HETATM    5  N2  UNL     1      26.185 -15.373  41.182  1.00  0.00    -0.171 N 
ATOM      6  H2  UNL     1      25.412 -16.033  41.268  1.00  0.00     0.186 HD
HETATM    7  N4  UNL     1      25.792 -13.694  42.914  1.00  0.00    -0.226 N 
ATOM      8  H4  UNL     1      25.186 -13.137  42.312  1.00  0.00     0.177 HD
ENDROOT
BRANCH   5   9
HETATM    9  C2  UNL     1      26.753 -15.174  40.015  1.00  0.00     0.164 A 
HETATM   10  N3  UNL     1      28.024 -15.355  39.681  1.00  0.00    -0.344 N 
HETATM   11  C3  UNL     1      28.389 -15.095  38.447  1.00  0.00     0.116 A 
ATOM     12  H3  UNL     1      28.702 -15.688  40.367  1.00  0.00     0.167 HD
HETATM   13  C4  UNL     1      27.432 -14.652  37.580  1.00  0.00     0.070 A 
HETATM   14 BR1  UNL     1      27.639 -14.186  35.719  1.00  0.00    -0.042 Br
HETATM   15  S1  UNL     1      26.040 -14.626  38.570  1.00  0.00    -0.044 SA
ENDBRANCH   5   9
BRANCH   7  16
HETATM   16  C5  UNL     1      25.759 -13.471  44.344  1.00  0.00     0.149 C 
BRANCH  16  17
HETATM   17  C6  UNL     1      24.674 -14.288  44.980  1.00  0.00     0.105 C 
HETATM   18 BR2  UNL     1      25.327 -16.033  45.491  1.00  0.00    -0.095 Br
ENDBRANCH  16  17
ENDBRANCH   7  16
TORSDOF 3
ENDMDL
MODEL 3
REMARK VINA RESULT: -5.484390550      2.024      2.353
REMARK  3 active torsions:
REMARK  status: ('A' for Active; 'I' for Inactive)
REMARK       I    between atoms: C1_4  and  N2_5 
REMARK       I    between atoms: C1_4  and  N4_14 
REMARK    1  A    between atoms: N2_5  and  C2_7 
REMARK    2  A    between atoms: N4_14  and  C5_16 
REMARK    3  A    between atoms: C5_16  and  C6_17 
ROOT
HETATM    1  N1  UNL     1      26.886 -13.952  37.657  1.00  0.00    -0.235 N 
ATOM      2  H11 UNL     1      27.546 -13.753  36.906  1.00  0.00     0.174 HD
ATOM      3  H12 UNL     1      26.381 -13.175  38.084  1.00  0.00     0.174 HD
HETATM    4  C1  UNL     1      26.693 -15.155  38.057  1.00  0.00     0.673 C 
HETATM    5  N2  UNL     1      25.777 -15.431  39.099  1.00  0.00    -0.171 N 
ATOM      6  H2  UNL     1      24.917 -15.944  38.901  1.00  0.00     0.186 HD
HETATM    7  N4  UNL     1      27.399 -16.241  37.461  1.00  0.00    -0.226 N 
ATOM      8  H4  UNL     1      27.677 -17.029  38.046  1.00  0.00     0.177 HD
ENDROOT
BRANCH   5   9
HETATM    9  C2  UNL     1      26.035 -15.028  40.322  1.00  0.00     0.164 A 
HETATM   10  N3  UNL     1      27.191 -15.073  40.972  1.00  0.00    -0.344 N 
HETATM   11  C3  UNL     1      27.235 -14.612  42.200  1.00  0.00     0.116 A 
ATOM     12  H3  UNL     1      28.026 -15.456  40.528  1.00  0.00     0.167 HD
HETATM   13  C4  UNL     1      26.081 -14.113  42.734  1.00  0.00     0.070 A 
HETATM   14 BR1  UNL     1      25.813 -13.368  44.494  1.00  0.00    -0.042 Br
HETATM   15  S1  UNL     1      24.975 -14.324  41.451  1.00  0.00    -0.044 SA
ENDBRANCH   5   9
BRANCH   7  16
HETATM   16  C5  UNL     1      27.733 -16.260  36.053  1.00  0.00     0.149 C 
BRANCH  16  17
HETATM   17  C6  UNL     1      29.168 -16.654  35.856  1.00  0.00     0.105 C 
HETATM   18 BR2  UNL     1      30.346 -15.520  36.887  1.00  0.00    -0.095 Br
ENDBRANCH  16  17
ENDBRANCH   7  16
TORSDOF 3
ENDMDL
MODEL 4
REMARK VINA RESULT: -5.440811053      2.057      6.240
REMARK  3 active torsions:
REMARK  status: ('A' for Active; 'I' for Inactive)
REMARK       I    between atoms: C1_4  and  N2_5 
REMARK       I    between atoms: C1_4  and  N4_14 
REMARK    1  A    between atoms: N2_5  and  C2_7 
REMARK    2  A    between atoms: N4_14  and  C5_16 
REMARK    3  A    between atoms: C5_16  and  C6_17 
ROOT
HETATM    1  N1  UNL     1      25.377 -15.817  41.825  1.00  0.00    -0.235 N 
ATOM      2  H11 UNL     1      25.375 -16.279  42.735  1.00  0.00     0.174 HD
ATOM      3  H12 UNL     1      24.690 -16.108  41.128  1.00  0.00     0.174 HD
HETATM    4  C1  UNL     1      26.222 -14.891  41.563  1.00  0.00     0.673 C 
HETATM    5  N2  UNL     1      26.224 -14.250  40.302  1.00  0.00    -0.171 N 
ATOM      6  H2  UNL     1      25.957 -13.268  40.227  1.00  0.00     0.186 HD
HETATM    7  N4  UNL     1      27.182 -14.485  42.538  1.00  0.00    -0.226 N 
ATOM      8  H4  UNL     1      28.112 -14.205  42.228  1.00  0.00     0.177 HD
ENDROOT
BRANCH   5   9
HETATM    9  C2  UNL     1      26.572 -14.920  39.228  1.00  0.00     0.164 A 
HETATM   10  N3  UNL     1      25.800 -15.314  38.223  1.00  0.00    -0.344 N 
HETATM   11  C3  UNL     1      26.352 -15.980  37.235  1.00  0.00     0.116 A 
ATOM     12  H3  UNL     1      24.802 -15.105  38.218  1.00  0.00     0.167 HD
HETATM   13  C4  UNL     1      27.693 -16.225  37.305  1.00  0.00     0.070 A 
HETATM   14 BR1  UNL     1      28.795 -17.166  36.030  1.00  0.00    -0.042 Br
HETATM   15  S1  UNL     1      28.114 -15.491  38.788  1.00  0.00    -0.044 SA
ENDBRANCH   5   9
BRANCH   7  16
HETATM   16  C5  UNL     1      26.877 -14.459  43.953  1.00  0.00     0.149 C 
BRANCH  16  17
HETATM   17  C6  UNL     1      26.081 -13.235  44.298  1.00  0.00     0.105 C 
HETATM   18 BR2  UNL     1      24.562 -13.682  45.405  1.00  0.00    -0.095 Br
ENDBRANCH  16  17
ENDBRANCH   7  16
TORSDOF 3
ENDMDL
MODEL 5
REMARK VINA RESULT: -5.387047205      1.578      1.749
REMARK  3 active torsions:
REMARK  status: ('A' for Active; 'I' for Inactive)
REMARK       I    between atoms: C1_4  and  N2_5 
REMARK       I    between atoms: C1_4  and  N4_14 
REMARK    1  A    between atoms: N2_5  and  C2_7 
REMARK    2  A    between atoms: N4_14  and  C5_16 
REMARK    3  A    between atoms: C5_16  and  C6_17 
ROOT
HETATM    1  N1  UNL     1      25.879 -15.972  38.116  1.00  0.00    -0.235 N 
ATOM      2  H11 UNL     1      25.495 -15.947  37.171  1.00  0.00     0.174 HD
ATOM      3  H12 UNL     1      25.510 -16.657  38.776  1.00  0.00     0.174 HD
HETATM    4  C1  UNL     1      26.807 -15.160  38.466  1.00  0.00     0.673 C 
HETATM    5  N2  UNL     1      27.340 -15.194  39.777  1.00  0.00    -0.171 N 
ATOM      6  H2  UNL     1      28.302 -15.495  39.929  1.00  0.00     0.186 HD
HETATM    7  N4  UNL     1      27.323 -14.203  37.543  1.00  0.00    -0.226 N 
ATOM      8  H4  UNL     1      27.605 -13.286  37.889  1.00  0.00     0.177 HD
ENDROOT
BRANCH   5   9
HETATM    9  C2  UNL     1      26.593 -14.838  40.796  1.00  0.00     0.164 A 
HETATM   10  N3  UNL     1      25.317 -14.471  40.788  1.00  0.00    -0.344 N 
HETATM   11  C3  UNL     1      24.753 -14.151  41.929  1.00  0.00     0.116 A 
ATOM     12  H3  UNL     1      24.788 -14.440  39.917  1.00  0.00     0.167 HD
HETATM   13  C4  UNL     1      25.519 -14.215  43.058  1.00  0.00     0.070 A 
HETATM   14 BR1  UNL     1      24.995 -13.813  44.871  1.00  0.00    -0.042 Br
HETATM   15  S1  UNL     1      27.023 -14.734  42.439  1.00  0.00    -0.044 SA
ENDBRANCH   5   9
BRANCH   7  16
HETATM   16  C5  UNL     1      27.457 -14.492  36.131  1.00  0.00     0.149 C 
BRANCH  16  17
HETATM   17  C6  UNL     1      28.705 -15.285  35.872  1.00  0.00     0.105 C 
HETATM   18 BR2  UNL     1      28.287 -17.131  35.485  1.00  0.00    -0.095 Br
ENDBRANCH  16  17
ENDBRANCH   7  16
TORSDOF 3
ENDMDL
