MODEL 1
REMARK VINA RESULT: -7.095094875      0.000      0.000
REMARK  4 active torsions:
REMARK  status: ('A' for Active; 'I' for Inactive)
REMARK       I    between atoms: C1_4  and  N2_5 
REMARK       I    between atoms: C1_4  and  N5_16 
REMARK    1  A    between atoms: N2_5  and  C2_7 
REMARK    2  A    between atoms: N5_16  and  C5_18 
REMARK    3  A    between atoms: C5_18  and  C6_19 
REMARK    4  A    between atoms: C6_19  and  N6_20 
ROOT
HETATM    1  N1  UNL     1      -2.572 -16.237  14.050  1.00  0.00    -0.235 N 
ATOM      2  H11 UNL     1      -2.845 -16.088  15.021  1.00  0.00     0.174 HD
ATOM      3  H12 UNL     1      -1.602 -16.318  13.742  1.00  0.00     0.174 HD
HETATM    4  C1  UNL     1      -3.509 -16.327  13.168  1.00  0.00     0.673 C 
HETATM    5  N2  UNL     1      -3.129 -16.533  11.820  1.00  0.00    -0.174 N 
ATOM      6  H2  UNL     1      -3.044 -17.490  11.476  1.00  0.00     0.186 HD
HETATM    7  N5  UNL     1      -4.853 -16.214  13.595  1.00  0.00    -0.225 N 
ATOM      8  H5  UNL     1      -5.518 -16.953  13.369  1.00  0.00     0.177 HD
ENDROOT
BRANCH   5   9
HETATM    9  C2  UNL     1      -2.887 -15.556  11.006  1.00  0.00     0.155 A 
HETATM   10  N3  UNL     1      -2.781 -14.253  11.336  1.00  0.00    -0.283 N 
HETATM   11  N4  UNL     1      -2.529 -13.532  10.256  1.00  0.00    -0.291 N 
ATOM     12  H3  UNL     1      -2.882 -13.879  12.279  1.00  0.00     0.188 HD
HETATM   13  C3  UNL     1      -2.456 -14.329   9.163  1.00  0.00     0.115 A 
ATOM     14  H4  UNL     1      -2.406 -12.519  10.248  1.00  0.00     0.187 HD
HETATM   15 BR1  UNL     1      -2.114 -13.791   7.359  1.00  0.00    -0.028 Br
HETATM   16  C4  UNL     1      -2.683 -15.605   9.645  1.00  0.00     0.092 A 
HETATM   17 BR2  UNL     1      -2.712 -17.182   8.599  1.00  0.00    -0.044 Br
ENDBRANCH   5   9
BRANCH   7  18
HETATM   18  C5  UNL     1      -5.291 -15.064  14.348  1.00  0.00     0.159 C 
BRANCH  18  19
HETATM   19  C6  UNL     1      -5.971 -15.482  15.624  1.00  0.00     0.168 C 
BRANCH  19  20
HETATM   20  N6  UNL     1      -5.040 -15.483  16.722  1.00  0.00    -0.264 N 
HETATM   21  N7  UNL     1      -3.672 -15.208  16.597  1.00  0.00    -0.136 NA
HETATM   22  C7  UNL     1      -3.177 -15.038  17.937  1.00  0.00     0.144 C 
HETATM   23  C8  UNL     1      -4.111 -15.825  18.839  1.00  0.00     0.122 C 
HETATM   24  C9  UNL     1      -5.383 -15.760  18.071  1.00  0.00     0.236 C 
HETATM   25  O1  UNL     1      -6.563 -15.914  18.489  1.00  0.00    -0.272 OA
ENDBRANCH  19  20
ENDBRANCH  18  19
ENDBRANCH   7  18
TORSDOF 4
ENDMDL
MODEL 2
REMARK VINA RESULT: -6.839506118      4.385      7.386
REMARK  4 active torsions:
REMARK  status: ('A' for Active; 'I' for Inactive)
REMARK       I    between atoms: C1_4  and  N2_5 
REMARK       I    between atoms: C1_4  and  N5_16 
REMARK    1  A    between atoms: N2_5  and  C2_7 
REMARK    2  A    between atoms: N5_16  and  C5_18 
REMARK    3  A    between atoms: C5_18  and  C6_19 
REMARK    4  A    between atoms: C6_19  and  N6_20 
ROOT
HETATM    1  N1  UNL     1      -3.951 -14.987  12.569  1.00  0.00    -0.235 N 
ATOM      2  H11 UNL     1      -3.323 -14.905  11.770  1.00  0.00     0.174 HD
ATOM      3  H12 UNL     1      -4.603 -14.254  12.852  1.00  0.00     0.174 HD
HETATM    4  C1  UNL     1      -3.913 -16.078  13.255  1.00  0.00     0.673 C 
HETATM    5  N2  UNL     1      -4.785 -16.191  14.365  1.00  0.00    -0.174 N 
ATOM      6  H2  UNL     1      -5.710 -16.596  14.221  1.00  0.00     0.186 HD
HETATM    7  N5  UNL     1      -3.009 -17.093  12.863  1.00  0.00    -0.225 N 
ATOM      8  H5  UNL     1      -3.356 -18.035  12.680  1.00  0.00     0.177 HD
ENDROOT
BRANCH   5   9
HETATM    9  C2  UNL     1      -4.455 -15.801  15.554  1.00  0.00     0.155 A 
HETATM   10  N3  UNL     1      -3.210 -15.787  16.070  1.00  0.00    -0.283 N 
HETATM   11  N4  UNL     1      -3.238 -15.328  17.310  1.00  0.00    -0.291 N 
ATOM     12  H3  UNL     1      -2.369 -16.087  15.576  1.00  0.00     0.188 HD
HETATM   13  C3  UNL     1      -4.508 -15.018  17.669  1.00  0.00     0.115 A 
ATOM     14  H4  UNL     1      -2.420 -15.223  17.911  1.00  0.00     0.187 HD
HETATM   15 BR1  UNL     1      -5.097 -14.319  19.350  1.00  0.00    -0.028 Br
HETATM   16  C4  UNL     1      -5.269 -15.319  16.555  1.00  0.00     0.092 A 
HETATM   17 BR2  UNL     1      -7.145 -15.105  16.420  1.00  0.00    -0.044 Br
ENDBRANCH   5   9
BRANCH   7  18
HETATM   18  C5  UNL     1      -1.602 -16.808  12.719  1.00  0.00     0.159 C 
BRANCH  18  19
HETATM   19  C6  UNL     1      -1.100 -17.243  11.368  1.00  0.00     0.168 C 
BRANCH  19  20
HETATM   20  N6  UNL     1      -2.056 -16.921  10.341  1.00  0.00    -0.264 N 
HETATM   21  N7  UNL     1      -2.520 -15.627  10.071  1.00  0.00    -0.136 NA
HETATM   22  C7  UNL     1      -3.223 -15.710   8.818  1.00  0.00     0.144 C 
HETATM   23  C8  UNL     1      -3.693 -17.148   8.689  1.00  0.00     0.122 C 
HETATM   24  C9  UNL     1      -2.651 -17.868   9.467  1.00  0.00     0.236 C 
HETATM   25  O1  UNL     1      -2.320 -19.085   9.402  1.00  0.00    -0.272 OA
ENDBRANCH  19  20
ENDBRANCH  18  19
ENDBRANCH   7  18
TORSDOF 4
ENDMDL
MODEL 3
REMARK VINA RESULT: -6.701403958      4.419      7.412
REMARK  4 active torsions:
REMARK  status: ('A' for Active; 'I' for Inactive)
REMARK       I    between atoms: C1_4  and  N2_5 
REMARK       I    between atoms: C1_4  and  N5_16 
REMARK    1  A    between atoms: N2_5  and  C2_7 
REMARK    2  A    between atoms: N5_16  and  C5_18 
REMARK    3  A    between atoms: C5_18  and  C6_19 
REMARK    4  A    between atoms: C6_19  and  N6_20 
ROOT
HETATM    1  N1  UNL     1      -3.895 -15.018  12.523  1.00  0.00    -0.235 N 
ATOM      2  H11 UNL     1      -3.254 -14.987  11.729  1.00  0.00     0.174 HD
ATOM      3  H12 UNL     1      -4.488 -14.235  12.800  1.00  0.00     0.174 HD
HETATM    4  C1  UNL     1      -3.952 -16.109  13.208  1.00  0.00     0.673 C 
HETATM    5  N2  UNL     1      -4.841 -16.151  14.309  1.00  0.00    -0.174 N 
ATOM      6  H2  UNL     1      -5.794 -16.480  14.156  1.00  0.00     0.186 HD
HETATM    7  N5  UNL     1      -3.129 -17.193  12.824  1.00  0.00    -0.225 N 
ATOM      8  H5  UNL     1      -3.548 -18.104  12.636  1.00  0.00     0.177 HD
ENDROOT
BRANCH   5   9
HETATM    9  C2  UNL     1      -4.492 -15.789  15.502  1.00  0.00     0.155 A 
HETATM   10  N3  UNL     1      -3.240 -15.793  16.000  1.00  0.00    -0.283 N 
HETATM   11  N4  UNL     1      -3.248 -15.362  17.251  1.00  0.00    -0.291 N 
ATOM     12  H3  UNL     1      -2.408 -16.086  15.489  1.00  0.00     0.188 HD
HETATM   13  C3  UNL     1      -4.511 -15.053  17.634  1.00  0.00     0.115 A 
ATOM     14  H4  UNL     1      -2.422 -15.274  17.842  1.00  0.00     0.187 HD
HETATM   15 BR1  UNL     1      -5.073 -14.388  19.338  1.00  0.00    -0.028 Br
HETATM   16  C4  UNL     1      -5.290 -15.326  16.524  1.00  0.00     0.092 A 
HETATM   17 BR2  UNL     1      -7.165 -15.099  16.420  1.00  0.00    -0.044 Br
ENDBRANCH   5   9
BRANCH   7  18
HETATM   18  C5  UNL     1      -1.702 -17.023  12.694  1.00  0.00     0.159 C 
BRANCH  18  19
HETATM   19  C6  UNL     1      -1.244 -17.356  11.299  1.00  0.00     0.168 C 
BRANCH  19  20
HETATM   20  N6  UNL     1      -1.391 -16.218  10.429  1.00  0.00    -0.264 N 
HETATM   21  N7  UNL     1      -2.591 -15.849   9.808  1.00  0.00    -0.136 NA
HETATM   22  C7  UNL     1      -2.374 -14.531   9.273  1.00  0.00     0.144 C 
HETATM   23  C8  UNL     1      -0.878 -14.407   9.045  1.00  0.00     0.122 C 
HETATM   24  C9  UNL     1      -0.345 -15.321  10.088  1.00  0.00     0.236 C 
HETATM   25  O1  UNL     1       0.806 -15.340  10.605  1.00  0.00    -0.272 OA
ENDBRANCH  19  20
ENDBRANCH  18  19
ENDBRANCH   7  18
TORSDOF 4
ENDMDL
MODEL 4
REMARK VINA RESULT: -6.673764966      1.368      1.369
REMARK  4 active torsions:
REMARK  status: ('A' for Active; 'I' for Inactive)
REMARK       I    between atoms: C1_4  and  N2_5 
REMARK       I    between atoms: C1_4  and  N5_16 
REMARK    1  A    between atoms: N2_5  and  C2_7 
REMARK    2  A    between atoms: N5_16  and  C5_18 
REMARK    3  A    between atoms: C5_18  and  C6_19 
REMARK    4  A    between atoms: C6_19  and  N6_20 
ROOT
HETATM    1  N1  UNL     1      -2.040 -16.105  13.571  1.00  0.00    -0.235 N 
ATOM      2  H11 UNL     1      -2.273 -15.750  14.498  1.00  0.00     0.174 HD
ATOM      3  H12 UNL     1      -1.092 -16.115  13.192  1.00  0.00     0.174 HD
HETATM    4  C1  UNL     1      -3.000 -16.565  12.843  1.00  0.00     0.673 C 
HETATM    5  N2  UNL     1      -2.676 -17.058  11.557  1.00  0.00    -0.174 N 
ATOM      6  H2  UNL     1      -2.447 -18.047  11.454  1.00  0.00     0.186 HD
HETATM    7  N5  UNL     1      -4.313 -16.552  13.369  1.00  0.00    -0.225 N 
ATOM      8  H5  UNL     1      -4.852 -17.417  13.405  1.00  0.00     0.177 HD
ENDROOT
BRANCH   5   9
HETATM    9  C2  UNL     1      -2.660 -16.303  10.505  1.00  0.00     0.155 A 
HETATM   10  N3  UNL     1      -3.713 -16.019   9.713  1.00  0.00    -0.283 N 
HETATM   11  N4  UNL     1      -3.338 -15.219   8.729  1.00  0.00    -0.291 N 
ATOM     12  H3  UNL     1      -4.661 -16.370   9.852  1.00  0.00     0.188 HD
HETATM   13  C3  UNL     1      -2.015 -14.939   8.828  1.00  0.00     0.115 A 
ATOM     14  H4  UNL     1      -3.955 -14.863   8.000  1.00  0.00     0.187 HD
HETATM   15 BR1  UNL     1      -0.976 -13.833   7.662  1.00  0.00    -0.028 Br
HETATM   16  C4  UNL     1      -1.595 -15.627   9.952  1.00  0.00     0.092 A 
HETATM   17 BR2  UNL     1       0.171 -15.643  10.630  1.00  0.00    -0.044 Br
ENDBRANCH   5   9
BRANCH   7  18
HETATM   18  C5  UNL     1      -4.898 -15.325  13.855  1.00  0.00     0.159 C 
BRANCH  18  19
HETATM   19  C6  UNL     1      -5.766 -15.581  15.059  1.00  0.00     0.168 C 
BRANCH  19  20
HETATM   20  N6  UNL     1      -4.982 -15.562  16.266  1.00  0.00    -0.264 N 
HETATM   21  N7  UNL     1      -3.592 -15.391  16.302  1.00  0.00    -0.136 NA
HETATM   22  C7  UNL     1      -3.256 -15.154  17.681  1.00  0.00     0.144 C 
HETATM   23  C8  UNL     1      -4.354 -15.804  18.503  1.00  0.00     0.122 C 
HETATM   24  C9  UNL     1      -5.511 -15.711  17.574  1.00  0.00     0.236 C 
HETATM   25  O1  UNL     1      -6.743 -15.752  17.844  1.00  0.00    -0.272 OA
ENDBRANCH  19  20
ENDBRANCH  18  19
ENDBRANCH   7  18
TORSDOF 4
ENDMDL
MODEL 5
REMARK VINA RESULT: -6.640168945      4.241      7.358
REMARK  4 active torsions:
REMARK  status: ('A' for Active; 'I' for Inactive)
REMARK       I    between atoms: C1_4  and  N2_5 
REMARK       I    between atoms: C1_4  and  N5_16 
REMARK    1  A    between atoms: N2_5  and  C2_7 
REMARK    2  A    between atoms: N5_16  and  C5_18 
REMARK    3  A    between atoms: C5_18  and  C6_19 
REMARK    4  A    between atoms: C6_19  and  N6_20 
ROOT
HETATM    1  N1  UNL     1      -4.208 -15.058  12.713  1.00  0.00    -0.235 N 
ATOM      2  H11 UNL     1      -3.632 -14.921  11.883  1.00  0.00     0.174 HD
ATOM      3  H12 UNL     1      -4.929 -14.402  13.014  1.00  0.00     0.174 HD
HETATM    4  C1  UNL     1      -4.008 -16.121  13.416  1.00  0.00     0.673 C 
HETATM    5  N2  UNL     1      -4.809 -16.311  14.568  1.00  0.00    -0.174 N 
ATOM      6  H2  UNL     1      -5.684 -16.827  14.476  1.00  0.00     0.186 HD
HETATM    7  N5  UNL     1      -3.009 -17.031  12.998  1.00  0.00    -0.225 N 
ATOM      8  H5  UNL     1      -3.248 -18.011  12.849  1.00  0.00     0.177 HD
ENDROOT
BRANCH   5   9
HETATM    9  C2  UNL     1      -4.473 -15.857  15.733  1.00  0.00     0.155 A 
HETATM   10  N3  UNL     1      -3.225 -15.808  16.238  1.00  0.00    -0.283 N 
HETATM   11  N4  UNL     1      -3.248 -15.285  17.453  1.00  0.00    -0.291 N 
ATOM     12  H3  UNL     1      -2.385 -16.127  15.755  1.00  0.00     0.188 HD
HETATM   13  C3  UNL     1      -4.517 -14.965  17.804  1.00  0.00     0.115 A 
ATOM     14  H4  UNL     1      -2.427 -15.143  18.041  1.00  0.00     0.187 HD
HETATM   15 BR1  UNL     1      -5.100 -14.182  19.450  1.00  0.00    -0.028 Br
HETATM   16  C4  UNL     1      -5.284 -15.329  16.712  1.00  0.00     0.092 A 
HETATM   17 BR2  UNL     1      -7.162 -15.135  16.580  1.00  0.00    -0.044 Br
ENDBRANCH   5   9
BRANCH   7  18
HETATM   18  C5  UNL     1      -1.654 -16.585  12.781  1.00  0.00     0.159 C 
BRANCH  18  19
HETATM   19  C6  UNL     1      -1.139 -17.052  11.445  1.00  0.00     0.168 C 
BRANCH  19  20
HETATM   20  N6  UNL     1      -1.298 -16.024  10.450  1.00  0.00    -0.264 N 
HETATM   21  N7  UNL     1      -0.268 -15.179  10.016  1.00  0.00    -0.136 NA
HETATM   22  C7  UNL     1      -0.768 -14.512   8.844  1.00  0.00     0.144 C 
HETATM   23  C8  UNL     1      -2.281 -14.505   8.971  1.00  0.00     0.122 C 
HETATM   24  C9  UNL     1      -2.513 -15.733   9.777  1.00  0.00     0.236 C 
HETATM   25  O1  UNL     1      -3.566 -16.421   9.878  1.00  0.00    -0.272 OA
ENDBRANCH  19  20
ENDBRANCH  18  19
ENDBRANCH   7  18
TORSDOF 4
ENDMDL
