MODEL 1
REMARK VINA RESULT: -4.791142216      0.000      0.000
REMARK  3 active torsions:
REMARK  status: ('A' for Active; 'I' for Inactive)
REMARK       I    between atoms: C1_4  and  N3_6 
REMARK    1  A    between atoms: C8_15  and  C9_16 
REMARK    2  A    between atoms: C8_15  and  C10_18 
REMARK    3  A    between atoms: C11_20  and  O1_21 
ROOT
HETATM    1  N1  UNL     1      -1.307 -16.380  13.183  1.00  0.00    -0.374 N 
ATOM      2  H11 UNL     1      -0.969 -15.419  13.136  1.00  0.00     0.158 HD
ATOM      3  H12 UNL     1      -1.188 -16.963  14.012  1.00  0.00     0.158 HD
HETATM    4  C1  UNL     1      -1.903 -16.895  12.179  1.00  0.00     0.186 C 
HETATM    5  N2  UNL     1      -2.374 -18.233  12.244  1.00  0.00    -0.064 NA
HETATM    6  N3  UNL     1      -2.068 -16.085  11.027  1.00  0.00    -0.327 N 
HETATM    7  C2  UNL     1      -3.231 -16.171  10.208  1.00  0.00     0.158 C 
HETATM    8  C3  UNL     1      -3.114 -16.955   8.958  1.00  0.00     0.280 C 
HETATM    9  N4  UNL     1      -1.861 -17.358   8.513  1.00  0.00     0.013 N 
HETATM   10  C4  UNL     1      -1.825 -17.301   7.041  1.00  0.00     0.262 C 
HETATM   11  C5  UNL     1      -2.872 -18.357   6.672  1.00  0.00     0.048 C 
HETATM   12  C6  UNL     1      -2.685 -19.359   7.756  1.00  0.00     0.144 C 
HETATM   13  N5  UNL     1      -1.743 -18.782   8.649  1.00  0.00    -0.047 NA
HETATM   14  C7  UNL     1      -0.684 -16.876   9.083  1.00  0.00     0.275 C 
HETATM   15  C8  UNL     1      -0.485 -15.436   9.376  1.00  0.00     0.048 C 
HETATM   16  C11 UNL     1      -0.949 -15.180  10.793  1.00  0.00     0.234 C 
ENDROOT
BRANCH  16  17
HETATM   17  O1  UNL     1      -1.474 -13.900  10.947  1.00  0.00    -0.376 OA
ATOM     18  H1  UNL     1      -1.349 -13.475  10.106  1.00  0.00     0.212 HD
ENDBRANCH  16  17
BRANCH  15  19
HETATM   19  C9  UNL     1       1.035 -15.194   9.411  1.00  0.00     0.101 C 
HETATM   20 BR1  UNL     1       1.723 -15.743  11.118  1.00  0.00    -0.095 Br
ENDBRANCH  15  19
BRANCH  15  21
HETATM   21  C10 UNL     1      -1.013 -14.494   8.366  1.00  0.00     0.101 C 
HETATM   22 BR2  UNL     1       0.451 -13.531   7.549  1.00  0.00    -0.095 Br
ENDBRANCH  15  21
TORSDOF 3
ENDMDL
MODEL 2
REMARK VINA RESULT: -4.593561870      1.888      4.355
REMARK  3 active torsions:
REMARK  status: ('A' for Active; 'I' for Inactive)
REMARK       I    between atoms: C1_4  and  N3_6 
REMARK    1  A    between atoms: C8_15  and  C9_16 
REMARK    2  A    between atoms: C8_15  and  C10_18 
REMARK    3  A    between atoms: C11_20  and  O1_21 
ROOT
HETATM    1  N1  UNL     1      -1.822 -17.239   6.709  1.00  0.00    -0.374 N 
ATOM      2  H11 UNL     1      -0.838 -17.476   6.581  1.00  0.00     0.158 HD
ATOM      3  H12 UNL     1      -2.421 -16.952   5.935  1.00  0.00     0.158 HD
HETATM    4  C1  UNL     1      -2.342 -17.292   7.873  1.00  0.00     0.186 C 
HETATM    5  N2  UNL     1      -3.712 -16.962   8.052  1.00  0.00    -0.064 NA
HETATM    6  N3  UNL     1      -1.508 -17.690   8.948  1.00  0.00    -0.327 N 
HETATM    7  C2  UNL     1      -2.000 -18.474  10.031  1.00  0.00     0.158 C 
HETATM    8  C3  UNL     1      -2.329 -17.755  11.283  1.00  0.00     0.280 C 
HETATM    9  N4  UNL     1      -1.930 -16.434  11.443  1.00  0.00     0.013 N 
HETATM   10  C4  UNL     1      -1.552 -16.206  12.849  1.00  0.00     0.262 C 
HETATM   11  C5  UNL     1      -2.890 -16.435  13.562  1.00  0.00     0.048 C 
HETATM   12  C6  UNL     1      -3.858 -15.904  12.565  1.00  0.00     0.144 C 
HETATM   13  N5  UNL     1      -3.085 -15.582  11.418  1.00  0.00    -0.047 NA
HETATM   14  C7  UNL     1      -1.048 -15.816  10.559  1.00  0.00     0.275 C 
HETATM   15  C8  UNL     1       0.191 -16.482  10.091  1.00  0.00     0.048 C 
HETATM   16  C11 UNL     1      -0.133 -17.225   8.813  1.00  0.00     0.234 C 
ENDROOT
BRANCH  16  17
HETATM   17  O1  UNL     1       0.633 -18.379   8.672  1.00  0.00    -0.376 OA
ATOM     18  H1  UNL     1       1.501 -18.076   8.434  1.00  0.00     0.212 HD
ENDBRANCH  16  17
BRANCH  15  19
HETATM   19  C9  UNL     1       1.163 -15.367   9.661  1.00  0.00     0.101 C 
HETATM   20 BR1  UNL     1       0.539 -14.583   8.022  1.00  0.00    -0.095 Br
ENDBRANCH  15  19
BRANCH  15  21
HETATM   21  C10 UNL     1       0.921 -17.273  11.105  1.00  0.00     0.101 C 
HETATM   22 BR2  UNL     1       2.227 -16.152  11.986  1.00  0.00    -0.095 Br
ENDBRANCH  15  21
TORSDOF 3
ENDMDL
MODEL 3
REMARK VINA RESULT: -4.515619757      2.186      2.706
REMARK  3 active torsions:
REMARK  status: ('A' for Active; 'I' for Inactive)
REMARK       I    between atoms: C1_4  and  N3_6 
REMARK    1  A    between atoms: C8_15  and  C9_16 
REMARK    2  A    between atoms: C8_15  and  C10_18 
REMARK    3  A    between atoms: C11_20  and  O1_21 
ROOT
HETATM    1  N1  UNL     1      -1.653 -16.838  13.104  1.00  0.00    -0.374 N 
ATOM      2  H11 UNL     1      -0.638 -16.831  13.199  1.00  0.00     0.158 HD
ATOM      3  H12 UNL     1      -2.258 -17.378  13.722  1.00  0.00     0.158 HD
HETATM    4  C1  UNL     1      -2.209 -16.153  12.181  1.00  0.00     0.186 C 
HETATM    5  N2  UNL     1      -3.624 -16.162  12.048  1.00  0.00    -0.064 NA
HETATM    6  N3  UNL     1      -1.368 -15.403  11.322  1.00  0.00    -0.327 N 
HETATM    7  C2  UNL     1      -1.758 -14.132  10.810  1.00  0.00     0.158 C 
HETATM    8  C3  UNL     1      -2.272 -14.098   9.422  1.00  0.00     0.280 C 
HETATM    9  N4  UNL     1      -2.132 -15.215   8.609  1.00  0.00     0.013 N 
HETATM   10  C4  UNL     1      -1.870 -14.780   7.225  1.00  0.00     0.262 C 
HETATM   11  C5  UNL     1      -3.174 -14.051   6.886  1.00  0.00     0.048 C 
HETATM   12  C6  UNL     1      -4.176 -14.859   7.632  1.00  0.00     0.144 C 
HETATM   13  N5  UNL     1      -3.422 -15.802   8.380  1.00  0.00    -0.047 NA
HETATM   14  C7  UNL     1      -1.339 -16.300   8.974  1.00  0.00     0.275 C 
HETATM   15  C8  UNL     1       0.023 -16.124   9.534  1.00  0.00     0.048 C 
HETATM   16  C11 UNL     1      -0.098 -16.060  11.041  1.00  0.00     0.234 C 
ENDROOT
BRANCH  16  17
HETATM   17  O1  UNL     1       0.874 -15.239  11.607  1.00  0.00    -0.376 OA
ATOM     18  H1  UNL     1       1.572 -15.198  10.965  1.00  0.00     0.212 HD
ENDBRANCH  16  17
BRANCH  15  19
HETATM   19  C9  UNL     1       0.792 -17.430   9.257  1.00  0.00     0.101 C 
HETATM   20 BR1  UNL     1      -0.122 -18.422   7.891  1.00  0.00    -0.095 Br
ENDBRANCH  15  19
BRANCH  15  21
HETATM   21  C10 UNL     1       0.837 -15.050   8.926  1.00  0.00     0.101 C 
HETATM   22 BR2  UNL     1       2.610 -15.718   8.540  1.00  0.00    -0.095 Br
ENDBRANCH  15  21
TORSDOF 3
ENDMDL
MODEL 4
REMARK VINA RESULT: -4.502596519      3.241      4.454
REMARK  3 active torsions:
REMARK  status: ('A' for Active; 'I' for Inactive)
REMARK       I    between atoms: C1_4  and  N3_6 
REMARK    1  A    between atoms: C8_15  and  C9_16 
REMARK    2  A    between atoms: C8_15  and  C10_18 
REMARK    3  A    between atoms: C11_20  and  O1_21 
ROOT
HETATM    1  N1  UNL     1       2.410 -15.721  12.784  1.00  0.00    -0.374 N 
ATOM      2  H11 UNL     1       1.562 -16.125  13.179  1.00  0.00     0.158 HD
ATOM      3  H12 UNL     1       3.107 -15.241  13.354  1.00  0.00     0.158 HD
HETATM    4  C1  UNL     1       2.630 -15.807  11.529  1.00  0.00     0.186 C 
HETATM    5  N2  UNL     1       3.812 -15.245  10.978  1.00  0.00    -0.064 NA
HETATM    6  N3  UNL     1       1.662 -16.473  10.736  1.00  0.00    -0.327 N 
HETATM    7  C2  UNL     1       2.028 -17.266   9.611  1.00  0.00     0.158 C 
HETATM    8  C3  UNL     1       1.881 -16.643   8.277  1.00  0.00     0.280 C 
HETATM    9  N4  UNL     1       1.186 -15.448   8.148  1.00  0.00     0.013 N 
HETATM   10  C4  UNL     1       0.436 -15.455   6.878  1.00  0.00     0.262 C 
HETATM   11  C5  UNL     1       1.576 -15.506   5.855  1.00  0.00     0.048 C 
HETATM   12  C6  UNL     1       2.624 -14.693   6.529  1.00  0.00     0.144 C 
HETATM   13  N5  UNL     1       2.105 -14.396   7.817  1.00  0.00    -0.047 NA
HETATM   14  C7  UNL     1       0.437 -14.912   9.193  1.00  0.00     0.275 C 
HETATM   15  C8  UNL     1      -0.481 -15.744  10.009  1.00  0.00     0.048 C 
HETATM   16  C11 UNL     1       0.295 -16.264  11.199  1.00  0.00     0.234 C 
ENDROOT
BRANCH  16  17
HETATM   17  O1  UNL     1      -0.151 -17.518  11.605  1.00  0.00    -0.376 OA
ATOM     18  H1  UNL     1      -0.232 -17.462  12.550  1.00  0.00     0.212 HD
ENDBRANCH  16  17
BRANCH  15  19
HETATM   19  C9  UNL     1      -1.531 -14.792  10.610  1.00  0.00     0.101 C 
HETATM   20 BR1  UNL     1      -1.681 -13.234   9.497  1.00  0.00    -0.095 Br
ENDBRANCH  15  19
BRANCH  15  21
HETATM   21  C10 UNL     1      -1.252 -16.768   9.271  1.00  0.00     0.101 C 
HETATM   22 BR2  UNL     1      -3.111 -16.684   9.797  1.00  0.00    -0.095 Br
ENDBRANCH  15  21
TORSDOF 3
ENDMDL
MODEL 5
REMARK VINA RESULT: -4.494330598      2.720      4.352
REMARK  3 active torsions:
REMARK  status: ('A' for Active; 'I' for Inactive)
REMARK       I    between atoms: C1_4  and  N3_6 
REMARK    1  A    between atoms: C8_15  and  C9_16 
REMARK    2  A    between atoms: C8_15  and  C10_18 
REMARK    3  A    between atoms: C11_20  and  O1_21 
ROOT
HETATM    1  N1  UNL     1       1.708 -15.575   8.558  1.00  0.00    -0.374 N 
ATOM      2  H11 UNL     1       1.309 -15.420   7.632  1.00  0.00     0.158 HD
ATOM      3  H12 UNL     1       2.683 -15.839   8.697  1.00  0.00     0.158 HD
HETATM    4  C1  UNL     1       0.977 -15.442   9.595  1.00  0.00     0.186 C 
HETATM    5  N2  UNL     1       1.532 -15.658  10.885  1.00  0.00    -0.064 NA
HETATM    6  N3  UNL     1      -0.379 -15.076   9.402  1.00  0.00    -0.327 N 
HETATM    7  C2  UNL     1      -1.064 -14.220  10.312  1.00  0.00     0.158 C 
HETATM    8  C3  UNL     1      -1.960 -14.870  11.296  1.00  0.00     0.280 C 
HETATM    9  N4  UNL     1      -2.285 -16.212  11.149  1.00  0.00     0.013 N 
HETATM   10  C4  UNL     1      -3.683 -16.422  11.568  1.00  0.00     0.262 C 
HETATM   11  C5  UNL     1      -3.609 -16.065  13.056  1.00  0.00     0.048 C 
HETATM   12  C6  UNL     1      -2.250 -16.551  13.417  1.00  0.00     0.144 C 
HETATM   13  N5  UNL     1      -1.660 -16.971  12.195  1.00  0.00    -0.047 NA
HETATM   14  C7  UNL     1      -1.974 -16.926   9.995  1.00  0.00     0.275 C 
HETATM   15  C8  UNL     1      -2.218 -16.375   8.639  1.00  0.00     0.048 C 
HETATM   16  C11 UNL     1      -0.965 -15.652   8.198  1.00  0.00     0.234 C 
ENDROOT
BRANCH  16  17
HETATM   17  O1  UNL     1      -1.252 -14.567   7.374  1.00  0.00    -0.376 OA
ATOM     18  H1  UNL     1      -1.522 -14.946   6.545  1.00  0.00     0.212 HD
ENDBRANCH  16  17
BRANCH  15  19
HETATM   19  C9  UNL     1      -2.336 -17.577   7.683  1.00  0.00     0.101 C 
HETATM   20 BR1  UNL     1      -2.104 -19.202   8.681  1.00  0.00    -0.095 Br
ENDBRANCH  15  19
BRANCH  15  21
HETATM   21  C10 UNL     1      -3.473 -15.611   8.471  1.00  0.00     0.101 C 
HETATM   22 BR2  UNL     1      -4.869 -16.788   7.836  1.00  0.00    -0.095 Br
ENDBRANCH  15  21
TORSDOF 3
ENDMDL
