MODEL 1
REMARK VINA RESULT: -6.444603096      0.000      0.000
REMARK  3 active torsions:
REMARK  status: ('A' for Active; 'I' for Inactive)
REMARK       I    between atoms: C1_2  and  N3_7 
REMARK    1  A    between atoms: N2_3  and  C2_5 
REMARK    2  A    between atoms: N3_7  and  C3_9 
REMARK    3  A    between atoms: C3_9  and  C4_10 
ROOT
HETATM    1  C4  UNL     1      -1.491 -16.493  11.715  1.00  0.00     0.075 C 
HETATM    2 BR2  UNL     1      -2.282 -18.214  11.555  1.00  0.00    -0.081 Br
HETATM    3  C5  UNL     1      -1.322 -15.797  10.370  1.00  0.00     0.168 C 
HETATM    4  N4  UNL     1      -0.022 -15.125  10.553  1.00  0.00    -0.034 NA
HETATM    5  N5  UNL     1       0.771 -16.201  11.051  1.00  0.00     0.068 N 
HETATM    6  C6  UNL     1       2.023 -15.669  11.516  1.00  0.00     0.230 C 
HETATM    7  C7  UNL     1       3.080 -16.455  11.571  1.00  0.00     0.020 C 
HETATM    8  C8  UNL     1       2.948 -17.866  11.152  1.00  0.00     0.149 C 
HETATM    9  N6  UNL     1       2.149 -17.885   9.961  1.00  0.00    -0.375 N 
ATOM     10  H6  UNL     1       2.437 -18.399   9.128  1.00  0.00     0.160 HD
HETATM   11  C9  UNL     1       0.933 -17.147  10.006  1.00  0.00     0.318 C 
HETATM   12  C10 UNL     1      -0.046 -16.620  12.156  1.00  0.00     0.297 C 
ENDROOT
BRANCH   1  13
HETATM   13  C3  UNL     1      -2.301 -15.623  12.601  1.00  0.00     0.146 C 
BRANCH  13  14
HETATM   14  N3  UNL     1      -2.694 -16.328  13.792  1.00  0.00    -0.363 N 
HETATM   15  C1  UNL     1      -3.738 -15.984  14.673  1.00  0.00     0.184 C 
HETATM   16  N1  UNL     1      -5.072 -15.942  14.191  1.00  0.00    -0.064 NA
HETATM   17  N2  UNL     1      -3.544 -15.715  15.920  1.00  0.00    -0.355 N 
ATOM     18  H2  UNL     1      -2.590 -15.742  16.278  1.00  0.00     0.162 HD
ATOM     19  H3  UNL     1      -2.161 -17.166  14.023  1.00  0.00     0.162 HD
BRANCH  17  20
HETATM   20  C2  UNL     1      -4.603 -15.381  16.826  1.00  0.00     0.207 C 
HETATM   21 BR1  UNL     1      -4.370 -16.512  18.396  1.00  0.00    -0.075 Br
ENDBRANCH  17  20
ENDBRANCH  13  14
ENDBRANCH   1  13
TORSDOF 3
ENDMDL
MODEL 2
REMARK VINA RESULT: -6.127346445      1.580      1.805
REMARK  3 active torsions:
REMARK  status: ('A' for Active; 'I' for Inactive)
REMARK       I    between atoms: C1_2  and  N3_7 
REMARK    1  A    between atoms: N2_3  and  C2_5 
REMARK    2  A    between atoms: N3_7  and  C3_9 
REMARK    3  A    between atoms: C3_9  and  C4_10 
ROOT
HETATM    1  C4  UNL     1      -2.266 -16.471  11.785  1.00  0.00     0.075 C 
HETATM    2 BR2  UNL     1      -2.146 -18.249  12.447  1.00  0.00    -0.081 Br
HETATM    3  C5  UNL     1      -3.071 -16.378  10.495  1.00  0.00     0.168 C 
HETATM    4  N4  UNL     1      -2.309 -15.358   9.750  1.00  0.00    -0.034 NA
HETATM    5  N5  UNL     1      -0.982 -15.865   9.880  1.00  0.00     0.068 N 
HETATM    6  C6  UNL     1      -0.062 -14.863   9.412  1.00  0.00     0.230 C 
HETATM    7  C7  UNL     1       1.131 -15.228   8.985  1.00  0.00     0.020 C 
HETATM    8  C8  UNL     1       1.490 -16.662   8.999  1.00  0.00     0.149 C 
HETATM    9  N6  UNL     1       0.349 -17.393   8.532  1.00  0.00    -0.375 N 
ATOM     10  H6  UNL     1       0.426 -18.103   7.804  1.00  0.00     0.160 HD
HETATM   11  C9  UNL     1      -0.898 -17.073   9.141  1.00  0.00     0.318 C 
HETATM   12  C10 UNL     1      -0.907 -15.997  11.309  1.00  0.00     0.297 C 
ENDROOT
BRANCH   1  13
HETATM   13  C3  UNL     1      -2.880 -15.575  12.793  1.00  0.00     0.146 C 
BRANCH  13  14
HETATM   14  N3  UNL     1      -3.097 -16.272  14.034  1.00  0.00    -0.363 N 
HETATM   15  C1  UNL     1      -3.904 -15.851  15.109  1.00  0.00     0.184 C 
HETATM   16  N1  UNL     1      -5.296 -15.667  14.906  1.00  0.00    -0.064 NA
HETATM   17  N2  UNL     1      -3.440 -15.638  16.294  1.00  0.00    -0.355 N 
ATOM     18  H2  UNL     1      -2.441 -15.768  16.453  1.00  0.00     0.162 HD
ATOM     19  H3  UNL     1      -2.615 -17.163  14.147  1.00  0.00     0.162 HD
BRANCH  17  20
HETATM   20  C2  UNL     1      -4.258 -15.228  17.397  1.00  0.00     0.207 C 
HETATM   21 BR1  UNL     1      -4.309 -16.728  18.640  1.00  0.00    -0.075 Br
ENDBRANCH  17  20
ENDBRANCH  13  14
ENDBRANCH   1  13
TORSDOF 3
ENDMDL
MODEL 3
REMARK VINA RESULT: -5.770725673     11.330     13.365
REMARK  3 active torsions:
REMARK  status: ('A' for Active; 'I' for Inactive)
REMARK       I    between atoms: C1_2  and  N3_7 
REMARK    1  A    between atoms: N2_3  and  C2_5 
REMARK    2  A    between atoms: N3_7  and  C3_9 
REMARK    3  A    between atoms: C3_9  and  C4_10 
ROOT
HETATM    1  C4  UNL     1      -8.373 -13.970   3.623  1.00  0.00     0.075 C 
HETATM    2 BR2  UNL     1      -6.647 -13.200   3.420  1.00  0.00    -0.081 Br
HETATM    3  C5  UNL     1      -8.863 -14.655   2.354  1.00  0.00     0.168 C 
HETATM    4  N4  UNL     1     -10.298 -14.311   2.375  1.00  0.00    -0.034 NA
HETATM    5  N5  UNL     1     -10.235 -12.905   2.603  1.00  0.00     0.068 N 
HETATM    6  C6  UNL     1     -11.561 -12.429   2.893  1.00  0.00     0.230 C 
HETATM    7  C7  UNL     1     -11.857 -11.163   2.674  1.00  0.00     0.020 C 
HETATM    8  C8  UNL     1     -10.814 -10.265   2.134  1.00  0.00     0.149 C 
HETATM    9  N6  UNL     1     -10.118 -10.987   1.109  1.00  0.00    -0.375 N 
ATOM     10  H6  UNL     1      -9.948 -10.584   0.187  1.00  0.00     0.160 HD
HETATM   11  C9  UNL     1      -9.675 -12.296   1.450  1.00  0.00     0.318 C 
HETATM   12  C10 UNL     1      -9.416 -12.882   3.783  1.00  0.00     0.297 C 
ENDROOT
BRANCH   1  13
HETATM   13  C3  UNL     1      -8.380 -14.958   4.728  1.00  0.00     0.146 C 
BRANCH  13  14
HETATM   14  N3  UNL     1      -8.657 -16.281   4.233  1.00  0.00    -0.363 N 
HETATM   15  C1  UNL     1      -8.675 -17.476   4.978  1.00  0.00     0.184 C 
HETATM   16  N1  UNL     1      -9.601 -17.621   6.042  1.00  0.00    -0.064 NA
HETATM   17  N2  UNL     1      -7.891 -18.469   4.729  1.00  0.00    -0.355 N 
ATOM     18  H2  UNL     1      -7.220 -18.378   3.965  1.00  0.00     0.162 HD
ATOM     19  H3  UNL     1      -8.863 -16.361   3.237  1.00  0.00     0.162 HD
BRANCH  17  20
HETATM   20  C2  UNL     1      -7.914 -19.695   5.471  1.00  0.00     0.207 C 
HETATM   21 BR1  UNL     1      -6.299 -19.718   6.560  1.00  0.00    -0.075 Br
ENDBRANCH  17  20
ENDBRANCH  13  14
ENDBRANCH   1  13
TORSDOF 3
ENDMDL
MODEL 4
REMARK VINA RESULT: -5.670454274      2.651      3.693
REMARK  3 active torsions:
REMARK  status: ('A' for Active; 'I' for Inactive)
REMARK       I    between atoms: C1_2  and  N3_7 
REMARK    1  A    between atoms: N2_3  and  C2_5 
REMARK    2  A    between atoms: N3_7  and  C3_9 
REMARK    3  A    between atoms: C3_9  and  C4_10 
ROOT
HETATM    1  C4  UNL     1      -1.278 -16.103  10.921  1.00  0.00     0.075 C 
HETATM    2 BR2  UNL     1       0.452 -15.395  10.572  1.00  0.00    -0.081 Br
HETATM    3  C5  UNL     1      -1.244 -17.576  11.304  1.00  0.00     0.168 C 
HETATM    4  N4  UNL     1      -2.454 -18.081  10.629  1.00  0.00    -0.034 NA
HETATM    5  N5  UNL     1      -2.274 -17.547   9.318  1.00  0.00     0.068 N 
HETATM    6  C6  UNL     1      -3.490 -17.739   8.576  1.00  0.00     0.230 C 
HETATM    7  C7  UNL     1      -3.444 -17.780   7.258  1.00  0.00     0.020 C 
HETATM    8  C8  UNL     1      -2.140 -17.627   6.580  1.00  0.00     0.149 C 
HETATM    9  N6  UNL     1      -1.182 -18.399   7.317  1.00  0.00    -0.375 N 
ATOM     10  H6  UNL     1      -0.550 -19.054   6.857  1.00  0.00     0.160 HD
HETATM   11  C9  UNL     1      -1.162 -18.199   8.726  1.00  0.00     0.318 C 
HETATM   12  C10 UNL     1      -2.088 -16.159   9.641  1.00  0.00     0.297 C 
ENDROOT
BRANCH   1  13
HETATM   13  C3  UNL     1      -1.946 -15.346  12.006  1.00  0.00     0.146 C 
BRANCH  13  14
HETATM   14  N3  UNL     1      -2.294 -16.214  13.099  1.00  0.00    -0.363 N 
HETATM   15  C1  UNL     1      -3.400 -16.086  13.962  1.00  0.00     0.184 C 
HETATM   16  N1  UNL     1      -4.713 -16.143  13.426  1.00  0.00    -0.064 NA
HETATM   17  N2  UNL     1      -3.281 -15.933  15.237  1.00  0.00    -0.355 N 
ATOM     18  H2  UNL     1      -2.342 -15.891  15.634  1.00  0.00     0.162 HD
ATOM     19  H3  UNL     1      -1.675 -17.007  13.267  1.00  0.00     0.162 HD
BRANCH  17  20
HETATM   20  C2  UNL     1      -4.401 -15.819  16.123  1.00  0.00     0.207 C 
HETATM   21 BR1  UNL     1      -3.688 -15.286  17.857  1.00  0.00    -0.075 Br
ENDBRANCH  17  20
ENDBRANCH  13  14
ENDBRANCH   1  13
TORSDOF 3
ENDMDL
MODEL 5
REMARK VINA RESULT: -5.634374617      2.334      3.148
REMARK  3 active torsions:
REMARK  status: ('A' for Active; 'I' for Inactive)
REMARK       I    between atoms: C1_2  and  N3_7 
REMARK    1  A    between atoms: N2_3  and  C2_5 
REMARK    2  A    between atoms: N3_7  and  C3_9 
REMARK    3  A    between atoms: C3_9  and  C4_10 
ROOT
HETATM    1  C4  UNL     1      -2.203 -15.556  11.301  1.00  0.00     0.075 C 
HETATM    2 BR2  UNL     1      -1.524 -13.935  10.576  1.00  0.00    -0.081 Br
HETATM    3  C5  UNL     1      -1.129 -16.384  11.994  1.00  0.00     0.168 C 
HETATM    4  N4  UNL     1      -1.529 -17.752  11.616  1.00  0.00    -0.034 NA
HETATM    5  N5  UNL     1      -1.700 -17.603  10.208  1.00  0.00     0.068 N 
HETATM    6  C6  UNL     1      -2.327 -18.792   9.696  1.00  0.00     0.230 C 
HETATM    7  C7  UNL     1      -2.168 -19.113   8.426  1.00  0.00     0.020 C 
HETATM    8  C8  UNL     1      -1.346 -18.239   7.563  1.00  0.00     0.149 C 
HETATM    9  N6  UNL     1      -0.188 -17.859   8.318  1.00  0.00    -0.375 N 
ATOM     10  H6  UNL     1       0.754 -17.938   7.934  1.00  0.00     0.160 HD
HETATM   11  C9  UNL     1      -0.425 -17.366   9.632  1.00  0.00     0.318 C 
HETATM   12  C10 UNL     1      -2.615 -16.496  10.186  1.00  0.00     0.297 C 
ENDROOT
BRANCH   1  13
HETATM   13  C3  UNL     1      -3.290 -15.282  12.270  1.00  0.00     0.146 C 
BRANCH  13  14
HETATM   14  N3  UNL     1      -3.123 -16.067  13.465  1.00  0.00    -0.363 N 
HETATM   15  C1  UNL     1      -3.924 -16.025  14.623  1.00  0.00     0.184 C 
HETATM   16  N1  UNL     1      -5.300 -16.356  14.532  1.00  0.00    -0.064 NA
HETATM   17  N2  UNL     1      -3.460 -15.712  15.786  1.00  0.00    -0.355 N 
ATOM     18  H2  UNL     1      -2.471 -15.472  15.864  1.00  0.00     0.162 HD
ATOM     19  H3  UNL     1      -2.343 -16.723  13.474  1.00  0.00     0.162 HD
BRANCH  17  20
HETATM   20  C2  UNL     1      -4.264 -15.684  16.972  1.00  0.00     0.207 C 
HETATM   21 BR1  UNL     1      -3.166 -14.885  18.370  1.00  0.00    -0.075 Br
ENDBRANCH  17  20
ENDBRANCH  13  14
ENDBRANCH   1  13
TORSDOF 3
ENDMDL
