MODEL 1
REMARK VINA RESULT: -6.416443350      0.000      0.000
REMARK  5 active torsions:
REMARK  status: ('A' for Active; 'I' for Inactive)
REMARK    1  A    between atoms: C3_3  and  N1_4 
REMARK    2  A    between atoms: N1_4  and  C4_6 
REMARK    3  A    between atoms: C5_9  and  C6_10 
REMARK    4  A    between atoms: C6_10  and  N3_11 
REMARK    5  A    between atoms: C11_21  and  N6_22 
ROOT
HETATM    1  C1  UNL     1      -3.879 -15.350  16.892  1.00  0.00     0.014 C 
HETATM    2  C2  UNL     1      -4.505 -15.726  15.927  1.00  0.00    -0.097 C 
HETATM    3  C3  UNL     1      -5.251 -16.175  14.733  1.00  0.00     0.231 C 
ENDROOT
BRANCH   3   4
HETATM    4  N1  UNL     1      -4.816 -15.482  13.555  1.00  0.00    -0.215 N 
ATOM      5  H1  UNL     1      -5.382 -14.700  13.225  1.00  0.00     0.178 HD
BRANCH   4   6
HETATM    6  C4  UNL     1      -3.766 -15.781  12.893  1.00  0.00     0.694 A 
HETATM    7  N2  UNL     1      -3.183 -14.875  12.061  1.00  0.00    -0.178 N 
HETATM    8  C5  UNL     1      -2.059 -15.186  11.349  1.00  0.00     0.135 A 
ATOM      9  H2  UNL     1      -3.594 -13.946  11.968  1.00  0.00     0.185 HD
HETATM   10  N5  UNL     1      -1.556 -16.404  11.500  1.00  0.00    -0.174 N 
HETATM   11  C10 UNL     1      -0.373 -16.829  10.836  1.00  0.00     0.177 C 
HETATM   12  C11 UNL     1      -2.138 -17.321  12.335  1.00  0.00     0.693 A 
HETATM   13  N7  UNL     1      -3.241 -17.010  13.031  1.00  0.00    -0.022 N 
ATOM     14  H7  UNL     1      -3.673 -17.693  13.654  1.00  0.00     0.203 HD
BRANCH   8  15
HETATM   15  C6  UNL     1      -1.436 -14.184  10.480  1.00  0.00     0.227 C 
BRANCH  15  16
HETATM   16  N3  UNL     1      -2.298 -13.578   9.515  1.00  0.00    -0.277 N 
HETATM   17  N4  UNL     1      -2.891 -12.379   9.688  1.00  0.00    -0.307 N 
HETATM   18  C7  UNL     1      -3.647 -12.061   8.638  1.00  0.00     0.129 A 
ATOM     19  H4  UNL     1      -2.775 -11.793  10.515  1.00  0.00     0.186 HD
HETATM   20  C8  UNL     1      -3.537 -13.097   7.748  1.00  0.00     0.063 A 
HETATM   21 BR1  UNL     1      -4.355 -13.300   6.038  1.00  0.00    -0.046 Br
HETATM   22  C9  UNL     1      -2.687 -14.022   8.333  1.00  0.00     0.116 A 
HETATM   23 BR2  UNL     1      -2.183 -15.656   7.504  1.00  0.00    -0.028 Br
ENDBRANCH  15  16
ENDBRANCH   8  15
BRANCH  12  24
HETATM   24  N6  UNL     1      -1.629 -18.497  12.463  1.00  0.00    -0.234 N 
ATOM     25  H62 UNL     1      -0.719 -18.597  12.912  1.00  0.00     0.174 HD
ATOM     26  H61 UNL     1      -2.133 -19.314  12.119  1.00  0.00     0.174 HD
ENDBRANCH  12  24
ENDBRANCH   4   6
ENDBRANCH   3   4
TORSDOF 5
ENDMDL
MODEL 2
REMARK VINA RESULT: -6.373777353      2.246      2.638
REMARK  5 active torsions:
REMARK  status: ('A' for Active; 'I' for Inactive)
REMARK    1  A    between atoms: C3_3  and  N1_4 
REMARK    2  A    between atoms: N1_4  and  C4_6 
REMARK    3  A    between atoms: C5_9  and  C6_10 
REMARK    4  A    between atoms: C6_10  and  N3_11 
REMARK    5  A    between atoms: C11_21  and  N6_22 
ROOT
HETATM    1  C1  UNL     1      -5.485 -15.421  16.360  1.00  0.00     0.014 C 
HETATM    2  C2  UNL     1      -5.077 -15.705  15.257  1.00  0.00    -0.097 C 
HETATM    3  C3  UNL     1      -4.555 -16.058  13.920  1.00  0.00     0.231 C 
ENDROOT
BRANCH   3   4
HETATM    4  N1  UNL     1      -3.123 -16.137  13.923  1.00  0.00    -0.215 N 
ATOM      5  H1  UNL     1      -2.639 -15.989  14.809  1.00  0.00     0.178 HD
BRANCH   4   6
HETATM    6  C4  UNL     1      -2.415 -16.380  12.889  1.00  0.00     0.694 A 
HETATM    7  N2  UNL     1      -2.978 -16.897  11.763  1.00  0.00    -0.178 N 
HETATM    8  C5  UNL     1      -2.228 -17.160  10.651  1.00  0.00     0.135 A 
ATOM      9  H2  UNL     1      -3.979 -17.091  11.749  1.00  0.00     0.185 HD
HETATM   10  N5  UNL     1      -0.930 -16.892  10.710  1.00  0.00    -0.174 N 
HETATM   11  C10 UNL     1      -0.059 -17.094   9.606  1.00  0.00     0.177 C 
HETATM   12  C11 UNL     1      -0.357 -16.372  11.840  1.00  0.00     0.693 A 
HETATM   13  N7  UNL     1      -1.099 -16.116  12.928  1.00  0.00    -0.022 N 
ATOM     14  H7  UNL     1      -0.670 -15.728  13.769  1.00  0.00     0.203 HD
BRANCH   8  15
HETATM   15  C6  UNL     1      -2.863 -17.692   9.442  1.00  0.00     0.227 C 
BRANCH  15  16
HETATM   16  N3  UNL     1      -3.572 -16.740   8.645  1.00  0.00    -0.277 N 
HETATM   17  N4  UNL     1      -3.321 -15.415   8.662  1.00  0.00    -0.307 N 
HETATM   18  C7  UNL     1      -4.135 -14.763   7.832  1.00  0.00     0.129 A 
ATOM     19  H4  UNL     1      -2.603 -14.971   9.234  1.00  0.00     0.186 HD
HETATM   20  C8  UNL     1      -4.945 -15.705   7.254  1.00  0.00     0.063 A 
HETATM   21 BR1  UNL     1      -6.336 -15.468   5.973  1.00  0.00    -0.046 Br
HETATM   22  C9  UNL     1      -4.561 -16.925   7.788  1.00  0.00     0.116 A 
HETATM   23 BR2  UNL     1      -5.362 -18.580   7.310  1.00  0.00    -0.028 Br
ENDBRANCH  15  16
ENDBRANCH   8  15
BRANCH  12  24
HETATM   24  N6  UNL     1       0.905 -16.121  11.871  1.00  0.00    -0.234 N 
ATOM     25  H62 UNL     1       1.282 -15.401  11.255  1.00  0.00     0.174 HD
ATOM     26  H61 UNL     1       1.516 -16.637  12.504  1.00  0.00     0.174 HD
ENDBRANCH  12  24
ENDBRANCH   4   6
ENDBRANCH   3   4
TORSDOF 5
ENDMDL
MODEL 3
REMARK VINA RESULT: -6.352594207      2.876      4.728
REMARK  5 active torsions:
REMARK  status: ('A' for Active; 'I' for Inactive)
REMARK    1  A    between atoms: C3_3  and  N1_4 
REMARK    2  A    between atoms: N1_4  and  C4_6 
REMARK    3  A    between atoms: C5_9  and  C6_10 
REMARK    4  A    between atoms: C6_10  and  N3_11 
REMARK    5  A    between atoms: C11_21  and  N6_22 
ROOT
HETATM    1  C1  UNL     1      -4.226 -15.576  16.850  1.00  0.00     0.014 C 
HETATM    2  C2  UNL     1      -4.243 -15.767  15.656  1.00  0.00    -0.097 C 
HETATM    3  C3  UNL     1      -4.240 -16.009  14.197  1.00  0.00     0.231 C 
ENDROOT
BRANCH   3   4
HETATM    4  N1  UNL     1      -2.902 -16.125  13.691  1.00  0.00    -0.215 N 
ATOM      5  H1  UNL     1      -2.158 -16.335  14.356  1.00  0.00     0.178 HD
BRANCH   4   6
HETATM    6  C4  UNL     1      -2.585 -15.984  12.463  1.00  0.00     0.694 A 
HETATM    7  N2  UNL     1      -1.337 -15.577  12.107  1.00  0.00    -0.178 N 
HETATM    8  C5  UNL     1      -0.988 -15.422  10.794  1.00  0.00     0.135 A 
ATOM      9  H2  UNL     1      -0.648 -15.383  12.833  1.00  0.00     0.185 HD
HETATM   10  N5  UNL     1      -1.913 -15.685   9.880  1.00  0.00    -0.174 N 
HETATM   11  C10 UNL     1      -1.655 -15.591   8.486  1.00  0.00     0.177 C 
HETATM   12  C11 UNL     1      -3.171 -16.095  10.232  1.00  0.00     0.693 A 
HETATM   13  N7  UNL     1      -3.507 -16.245  11.522  1.00  0.00    -0.022 N 
ATOM     14  H7  UNL     1      -4.445 -16.550  11.783  1.00  0.00     0.203 HD
BRANCH   8  15
HETATM   15  C6  UNL     1       0.371 -15.008  10.436  1.00  0.00     0.227 C 
BRANCH  15  16
HETATM   16  N3  UNL     1       1.419 -15.874  10.878  1.00  0.00    -0.277 N 
HETATM   17  N4  UNL     1       2.123 -15.678  12.012  1.00  0.00    -0.307 N 
HETATM   18  C7  UNL     1       3.044 -16.628  12.174  1.00  0.00     0.129 A 
ATOM     19  H4  UNL     1       1.971 -14.905  12.659  1.00  0.00     0.186 HD
HETATM   20  C8  UNL     1       2.928 -17.474  11.102  1.00  0.00     0.063 A 
HETATM   21 BR1  UNL     1       3.934 -19.043  10.700  1.00  0.00    -0.046 Br
HETATM   22  C9  UNL     1       1.904 -16.968  10.318  1.00  0.00     0.116 A 
HETATM   23 BR2  UNL     1       1.321 -17.778   8.702  1.00  0.00    -0.028 Br
ENDBRANCH  15  16
ENDBRANCH   8  15
BRANCH  12  24
HETATM   24  N6  UNL     1      -4.050 -16.343   9.325  1.00  0.00    -0.234 N 
ATOM     25  H62 UNL     1      -3.886 -16.016   8.373  1.00  0.00     0.174 HD
ATOM     26  H61 UNL     1      -4.898 -16.860   9.558  1.00  0.00     0.174 HD
ENDBRANCH  12  24
ENDBRANCH   4   6
ENDBRANCH   3   4
TORSDOF 5
ENDMDL
MODEL 4
REMARK VINA RESULT: -6.330349961      3.068      4.254
REMARK  5 active torsions:
REMARK  status: ('A' for Active; 'I' for Inactive)
REMARK    1  A    between atoms: C3_3  and  N1_4 
REMARK    2  A    between atoms: N1_4  and  C4_6 
REMARK    3  A    between atoms: C5_9  and  C6_10 
REMARK    4  A    between atoms: C6_10  and  N3_11 
REMARK    5  A    between atoms: C11_21  and  N6_22 
ROOT
HETATM    1  C1  UNL     1      -5.386 -15.453  16.127  1.00  0.00     0.014 C 
HETATM    2  C2  UNL     1      -4.979 -15.753  15.028  1.00  0.00    -0.097 C 
HETATM    3  C3  UNL     1      -4.459 -16.128  13.696  1.00  0.00     0.231 C 
ENDROOT
BRANCH   3   4
HETATM    4  N1  UNL     1      -3.042 -16.350  13.733  1.00  0.00    -0.215 N 
ATOM      5  H1  UNL     1      -2.603 -16.481  14.645  1.00  0.00     0.178 HD
BRANCH   4   6
HETATM    6  C4  UNL     1      -2.295 -16.395  12.699  1.00  0.00     0.694 A 
HETATM    7  N2  UNL     1      -2.821 -16.642  11.468  1.00  0.00    -0.178 N 
HETATM    8  C5  UNL     1      -2.030 -16.692  10.355  1.00  0.00     0.135 A 
ATOM      9  H2  UNL     1      -3.825 -16.793  11.375  1.00  0.00     0.185 HD
HETATM   10  N5  UNL     1      -0.729 -16.488  10.519  1.00  0.00    -0.174 N 
HETATM   11  C10 UNL     1       0.186 -16.484   9.432  1.00  0.00     0.177 C 
HETATM   12  C11 UNL     1      -0.193 -16.239  11.755  1.00  0.00     0.693 A 
HETATM   13  N7  UNL     1      -0.975 -16.192  12.843  1.00  0.00    -0.022 N 
ATOM     14  H7  UNL     1      -0.575 -16.006  13.763  1.00  0.00     0.203 HD
BRANCH   8  15
HETATM   15  C6  UNL     1      -2.624 -16.933   9.038  1.00  0.00     0.227 C 
BRANCH  15  16
HETATM   16  N3  UNL     1      -2.774 -18.305   8.667  1.00  0.00    -0.277 N 
HETATM   17  N4  UNL     1      -1.923 -19.280   9.046  1.00  0.00    -0.307 N 
HETATM   18  C7  UNL     1      -2.295 -20.461   8.551  1.00  0.00     0.129 A 
ATOM     19  H4  UNL     1      -1.103 -19.134   9.634  1.00  0.00     0.186 HD
HETATM   20  C8  UNL     1      -3.435 -20.239   7.824  1.00  0.00     0.063 A 
HETATM   21 BR1  UNL     1      -4.495 -21.487   6.847  1.00  0.00    -0.046 Br
HETATM   22  C9  UNL     1      -3.700 -18.882   7.922  1.00  0.00     0.116 A 
HETATM   23 BR2  UNL     1      -5.191 -18.041   7.099  1.00  0.00    -0.028 Br
ENDBRANCH  15  16
ENDBRANCH   8  15
BRANCH  12  24
HETATM   24  N6  UNL     1       1.073 -16.046  11.887  1.00  0.00    -0.234 N 
ATOM     25  H62 UNL     1       1.577 -15.551  11.151  1.00  0.00     0.174 HD
ATOM     26  H61 UNL     1       1.561 -16.384  12.715  1.00  0.00     0.174 HD
ENDBRANCH  12  24
ENDBRANCH   4   6
ENDBRANCH   3   4
TORSDOF 5
ENDMDL
MODEL 5
REMARK VINA RESULT: -6.317448678      1.370      1.729
REMARK  5 active torsions:
REMARK  status: ('A' for Active; 'I' for Inactive)
REMARK    1  A    between atoms: C3_3  and  N1_4 
REMARK    2  A    between atoms: N1_4  and  C4_6 
REMARK    3  A    between atoms: C5_9  and  C6_10 
REMARK    4  A    between atoms: C6_10  and  N3_11 
REMARK    5  A    between atoms: C11_21  and  N6_22 
ROOT
HETATM    1  C1  UNL     1      -5.496 -15.420  16.406  1.00  0.00     0.014 C 
HETATM    2  C2  UNL     1      -5.118 -15.700  15.291  1.00  0.00    -0.097 C 
HETATM    3  C3  UNL     1      -4.632 -16.050  13.940  1.00  0.00     0.231 C 
ENDROOT
BRANCH   3   4
HETATM    4  N1  UNL     1      -3.199 -16.106  13.899  1.00  0.00    -0.215 N 
ATOM      5  H1  UNL     1      -2.701 -16.208  14.782  1.00  0.00     0.178 HD
BRANCH   4   6
HETATM    6  C4  UNL     1      -2.509 -16.037  12.827  1.00  0.00     0.694 A 
HETATM    7  N2  UNL     1      -3.105 -15.804  11.626  1.00  0.00    -0.178 N 
HETATM    8  C5  UNL     1      -2.374 -15.728  10.474  1.00  0.00     0.135 A 
ATOM      9  H2  UNL     1      -4.116 -15.684  11.585  1.00  0.00     0.185 HD
HETATM   10  N5  UNL     1      -1.060 -15.889  10.570  1.00  0.00    -0.174 N 
HETATM   11  C10 UNL     1      -0.196 -15.799   9.446  1.00  0.00     0.177 C 
HETATM   12  C11 UNL     1      -0.454 -16.124  11.776  1.00  0.00     0.693 A 
HETATM   13  N7  UNL     1      -1.177 -16.197  12.903  1.00  0.00    -0.022 N 
ATOM     14  H7  UNL     1      -0.725 -16.372  13.801  1.00  0.00     0.203 HD
BRANCH   8  15
HETATM   15  C6  UNL     1      -3.036 -15.450   9.197  1.00  0.00     0.227 C 
BRANCH  15  16
HETATM   16  N3  UNL     1      -3.134 -14.070   8.837  1.00  0.00    -0.277 N 
HETATM   17  N4  UNL     1      -2.920 -13.055   9.699  1.00  0.00    -0.307 N 
HETATM   18  C7  UNL     1      -3.088 -11.875   9.102  1.00  0.00     0.129 A 
ATOM     19  H4  UNL     1      -2.664 -13.175  10.679  1.00  0.00     0.186 HD
HETATM   20  C8  UNL     1      -3.423 -12.139   7.800  1.00  0.00     0.063 A 
HETATM   21 BR1  UNL     1      -3.803 -10.915   6.388  1.00  0.00    -0.046 Br
HETATM   22  C9  UNL     1      -3.440 -13.519   7.676  1.00  0.00     0.116 A 
HETATM   23 BR2  UNL     1      -3.837 -14.423   6.053  1.00  0.00    -0.028 Br
ENDBRANCH  15  16
ENDBRANCH   8  15
BRANCH  12  24
HETATM   24  N6  UNL     1       0.822 -16.277  11.842  1.00  0.00    -0.234 N 
ATOM     25  H62 UNL     1       1.423 -15.675  11.278  1.00  0.00     0.174 HD
ATOM     26  H61 UNL     1       1.224 -16.990  12.450  1.00  0.00     0.174 HD
ENDBRANCH  12  24
ENDBRANCH   4   6
ENDBRANCH   3   4
TORSDOF 5
ENDMDL
