MODEL 1
REMARK VINA RESULT: -7.411947646      0.000      0.000
REMARK  4 active torsions:
REMARK  status: ('A' for Active; 'I' for Inactive)
REMARK    1  A    between atoms: N3_8  and  C4_10 
REMARK    2  A    between atoms: C4_10  and  C5_14 
REMARK    3  A    between atoms: C5_14  and  C6_15 
REMARK    4  A    between atoms: C6_15  and  N5_16 
ROOT
HETATM    1  C4  UNL     1      26.722 -15.101  39.698  1.00  0.00     0.078 C 
HETATM    2  N4  UNL     1      27.791 -15.419  40.340  1.00  0.00    -0.389 N 
ATOM      3  H41 UNL     1      28.603 -15.722  39.801  1.00  0.00     0.157 HD
ATOM      4  H42 UNL     1      27.861 -15.379  41.356  1.00  0.00     0.157 HD
ENDROOT
BRANCH   1   5
HETATM    5  N3  UNL     1      25.600 -14.682  40.442  1.00  0.00    -0.317 N 
HETATM    6  C3  UNL     1      25.461 -14.962  41.688  1.00  0.00     0.201 A 
HETATM    7  N2  UNL     1      24.413 -14.627  42.584  1.00  0.00    -0.269 N 
HETATM    8  N7  UNL     1      26.399 -15.710  42.443  1.00  0.00    -0.312 N 
HETATM    9  N1  UNL     1      24.686 -15.143  43.841  1.00  0.00    -0.283 N 
ATOM     10  H2  UNL     1      23.583 -14.088  42.339  1.00  0.00     0.190 HD
HETATM   11  C2  UNL     1      25.927 -15.823  43.762  1.00  0.00     0.112 A 
ATOM     12  H1  UNL     1      24.100 -15.051  44.670  1.00  0.00     0.188 HD
HETATM   13  C1  UNL     1      26.553 -16.464  44.759  1.00  0.00     0.065 C 
ATOM     14  H7  UNL     1      27.271 -16.102  42.088  1.00  0.00     0.170 HD
ATOM     15  H3  UNL     1      24.875 -14.137  39.975  1.00  0.00     0.170 HD
ENDBRANCH   1   5
BRANCH   1  16
HETATM   16  C5  UNL     1      26.621 -15.159  38.216  1.00  0.00     0.098 C 
BRANCH  16  17
HETATM   17  C6  UNL     1      27.664 -16.130  37.733  1.00  0.00     0.155 C 
BRANCH  17  18
HETATM   18  N5  UNL     1      28.704 -15.462  36.957  1.00  0.00    -0.301 N 
HETATM   19  C7  UNL     1      29.965 -15.946  36.906  1.00  0.00     0.129 A 
HETATM   20  C8  UNL     1      30.971 -15.353  36.191  1.00  0.00     0.030 A 
HETATM   21 BR1  UNL     1      32.756 -16.021  36.107  1.00  0.00    -0.050 Br
HETATM   22  C9  UNL     1      30.698 -14.202  35.483  1.00  0.00     0.059 A 
HETATM   23  C10 UNL     1      29.402 -13.724  35.548  1.00  0.00     0.095 A 
HETATM   24 BR2  UNL     1      29.010 -12.119  34.564  1.00  0.00    -0.030 Br
HETATM   25  N6  UNL     1      28.464 -14.355  36.269  1.00  0.00    -0.292 N 
ATOM     26  H6  UNL     1      27.521 -13.965  36.288  1.00  0.00     0.188 HD
ENDBRANCH  17  18
ENDBRANCH  16  17
ENDBRANCH   1  16
TORSDOF 4
ENDMDL
MODEL 2
REMARK VINA RESULT: -7.379909370      1.590      1.893
REMARK  4 active torsions:
REMARK  status: ('A' for Active; 'I' for Inactive)
REMARK    1  A    between atoms: N3_8  and  C4_10 
REMARK    2  A    between atoms: C4_10  and  C5_14 
REMARK    3  A    between atoms: C5_14  and  C6_15 
REMARK    4  A    between atoms: C6_15  and  N5_16 
ROOT
HETATM    1  C4  UNL     1      26.686 -15.059  40.985  1.00  0.00     0.078 C 
HETATM    2  N4  UNL     1      27.920 -15.342  41.221  1.00  0.00    -0.389 N 
ATOM      3  H41 UNL     1      28.415 -15.932  40.553  1.00  0.00     0.157 HD
ATOM      4  H42 UNL     1      28.419 -15.000  42.042  1.00  0.00     0.157 HD
ENDROOT
BRANCH   1   5
HETATM    5  N3  UNL     1      26.003 -14.243  41.908  1.00  0.00    -0.317 N 
HETATM    6  C3  UNL     1      25.726 -14.637  43.099  1.00  0.00     0.201 A 
HETATM    7  N2  UNL     1      25.055 -13.961  44.149  1.00  0.00    -0.269 N 
HETATM    8  N7  UNL     1      26.069 -15.915  43.611  1.00  0.00    -0.312 N 
HETATM    9  N1  UNL     1      24.982 -14.778  45.266  1.00  0.00    -0.283 N 
ATOM     10  H2  UNL     1      24.681 -13.013  44.091  1.00  0.00     0.190 HD
HETATM   11  C2  UNL     1      25.614 -16.003  44.938  1.00  0.00     0.112 A 
ATOM     12  H1  UNL     1      24.552 -14.541  46.159  1.00  0.00     0.188 HD
HETATM   13  C1  UNL     1      25.760 -17.068  45.740  1.00  0.00     0.065 C 
ATOM     14  H7  UNL     1      26.562 -16.647  43.101  1.00  0.00     0.170 HD
ATOM     15  H3  UNL     1      25.718 -13.306  41.621  1.00  0.00     0.170 HD
ENDBRANCH   1   5
BRANCH   1  16
HETATM   16  C5  UNL     1      25.958 -15.557  39.788  1.00  0.00     0.098 C 
BRANCH  16  17
HETATM   17  C6  UNL     1      26.129 -14.530  38.701  1.00  0.00     0.155 C 
BRANCH  17  18
HETATM   18  N5  UNL     1      27.229 -14.871  37.805  1.00  0.00    -0.301 N 
HETATM   19  C7  UNL     1      27.659 -16.146  37.673  1.00  0.00     0.129 A 
HETATM   20  C8  UNL     1      28.685 -16.512  36.845  1.00  0.00     0.030 A 
HETATM   21 BR1  UNL     1      29.307 -18.305  36.645  1.00  0.00    -0.050 Br
HETATM   22  C9  UNL     1      29.323 -15.542  36.103  1.00  0.00     0.059 A 
HETATM   23  C10 UNL     1      28.867 -14.244  36.252  1.00  0.00     0.095 A 
HETATM   24 BR2  UNL     1      29.749 -12.882  35.221  1.00  0.00    -0.030 Br
HETATM   25  N6  UNL     1      27.855 -13.954  37.082  1.00  0.00    -0.292 N 
ATOM     26  H6  UNL     1      27.553 -12.983  37.160  1.00  0.00     0.188 HD
ENDBRANCH  17  18
ENDBRANCH  16  17
ENDBRANCH   1  16
TORSDOF 4
ENDMDL
MODEL 3
REMARK VINA RESULT: -7.378058598      1.594      2.220
REMARK  4 active torsions:
REMARK  status: ('A' for Active; 'I' for Inactive)
REMARK    1  A    between atoms: N3_8  and  C4_10 
REMARK    2  A    between atoms: C4_10  and  C5_14 
REMARK    3  A    between atoms: C5_14  and  C6_15 
REMARK    4  A    between atoms: C6_15  and  N5_16 
ROOT
HETATM    1  C4  UNL     1      26.798 -15.270  40.129  1.00  0.00     0.078 C 
HETATM    2  N4  UNL     1      27.836 -15.294  40.889  1.00  0.00    -0.389 N 
ATOM      3  H41 UNL     1      28.701 -15.681  40.511  1.00  0.00     0.157 HD
ATOM      4  H42 UNL     1      27.830 -14.943  41.847  1.00  0.00     0.157 HD
ENDROOT
BRANCH   1   5
HETATM    5  N3  UNL     1      25.604 -14.735  40.651  1.00  0.00    -0.317 N 
HETATM    6  C3  UNL     1      25.259 -14.895  41.878  1.00  0.00     0.201 A 
HETATM    7  N2  UNL     1      24.110 -14.434  42.569  1.00  0.00    -0.269 N 
HETATM    8  N7  UNL     1      26.026 -15.616  42.829  1.00  0.00    -0.312 N 
HETATM    9  N1  UNL     1      24.157 -14.848  43.890  1.00  0.00    -0.283 N 
ATOM     10  H2  UNL     1      23.360 -13.880  42.154  1.00  0.00     0.190 HD
HETATM   11  C2  UNL     1      25.353 -15.588  44.063  1.00  0.00     0.112 A 
ATOM     12  H1  UNL     1      23.458 -14.655  44.608  1.00  0.00     0.188 HD
HETATM   13  C1  UNL     1      25.780 -16.167  45.194  1.00  0.00     0.065 C 
ATOM     14  H7  UNL     1      26.917 -16.078  42.648  1.00  0.00     0.170 HD
ATOM     15  H3  UNL     1      24.991 -14.201  40.033  1.00  0.00     0.170 HD
ENDBRANCH   1   5
BRANCH   1  16
HETATM   16  C5  UNL     1      26.807 -15.781  38.733  1.00  0.00     0.098 C 
BRANCH  16  17
HETATM   17  C6  UNL     1      27.574 -14.792  37.898  1.00  0.00     0.155 C 
BRANCH  17  18
HETATM   18  N5  UNL     1      28.502 -15.458  36.990  1.00  0.00    -0.301 N 
HETATM   19  C7  UNL     1      28.060 -16.258  35.994  1.00  0.00     0.129 A 
HETATM   20  C8  UNL     1      28.893 -16.902  35.120  1.00  0.00     0.030 A 
HETATM   21 BR1  UNL     1      28.289 -18.035  33.709  1.00  0.00    -0.050 Br
HETATM   22  C9  UNL     1      30.255 -16.736  35.250  1.00  0.00     0.059 A 
HETATM   23  C10 UNL     1      30.687 -15.913  36.275  1.00  0.00     0.095 A 
HETATM   24 BR2  UNL     1      32.585 -15.673  36.466  1.00  0.00    -0.030 Br
HETATM   25  N6  UNL     1      29.815 -15.312  37.097  1.00  0.00    -0.292 N 
ATOM     26  H6  UNL     1      30.179 -14.714  37.839  1.00  0.00     0.188 HD
ENDBRANCH  17  18
ENDBRANCH  16  17
ENDBRANCH   1  16
TORSDOF 4
ENDMDL
MODEL 4
REMARK VINA RESULT: -7.370703254      0.735      2.172
REMARK  4 active torsions:
REMARK  status: ('A' for Active; 'I' for Inactive)
REMARK    1  A    between atoms: N3_8  and  C4_10 
REMARK    2  A    between atoms: C4_10  and  C5_14 
REMARK    3  A    between atoms: C5_14  and  C6_15 
REMARK    4  A    between atoms: C6_15  and  N5_16 
ROOT
HETATM    1  C4  UNL     1      26.909 -15.138  39.921  1.00  0.00     0.078 C 
HETATM    2  N4  UNL     1      27.830 -15.385  40.786  1.00  0.00    -0.389 N 
ATOM      3  H41 UNL     1      28.740 -15.694  40.445  1.00  0.00     0.157 HD
ATOM      4  H42 UNL     1      27.688 -15.284  41.791  1.00  0.00     0.157 HD
ENDROOT
BRANCH   1   5
HETATM    5  N3  UNL     1      25.652 -14.711  40.393  1.00  0.00    -0.317 N 
HETATM    6  C3  UNL     1      25.287 -14.871  41.615  1.00  0.00     0.201 A 
HETATM    7  N2  UNL     1      24.076 -14.508  42.258  1.00  0.00    -0.269 N 
HETATM    8  N7  UNL     1      26.092 -15.485  42.608  1.00  0.00    -0.312 N 
HETATM    9  N1  UNL     1      24.123 -14.878  43.593  1.00  0.00    -0.283 N 
ATOM     10  H2  UNL     1      23.289 -14.044  41.806  1.00  0.00     0.190 HD
HETATM   11  C2  UNL     1      25.381 -15.490  43.821  1.00  0.00     0.112 A 
ATOM     12  H1  UNL     1      23.387 -14.736  44.284  1.00  0.00     0.188 HD
HETATM   13  C1  UNL     1      25.828 -15.991  44.981  1.00  0.00     0.065 C 
ATOM     14  H7  UNL     1      27.029 -15.859  42.467  1.00  0.00     0.170 HD
ATOM     15  H3  UNL     1      25.009 -14.258  39.742  1.00  0.00     0.170 HD
ENDBRANCH   1   5
BRANCH   1  16
HETATM   16  C5  UNL     1      27.115 -15.285  38.456  1.00  0.00     0.098 C 
BRANCH  16  17
HETATM   17  C6  UNL     1      28.379 -16.077  38.259  1.00  0.00     0.155 C 
BRANCH  17  18
HETATM   18  N5  UNL     1      29.276 -15.432  37.305  1.00  0.00    -0.301 N 
HETATM   19  C7  UNL     1      28.871 -14.381  36.559  1.00  0.00     0.129 A 
HETATM   20  C8  UNL     1      29.677 -13.745  35.653  1.00  0.00     0.030 A 
HETATM   21 BR1  UNL     1      29.123 -12.260  34.591  1.00  0.00    -0.050 Br
HETATM   22  C9  UNL     1      30.970 -14.189  35.483  1.00  0.00     0.059 A 
HETATM   23  C10 UNL     1      31.365 -15.266  36.257  1.00  0.00     0.095 A 
HETATM   24 BR2  UNL     1      33.168 -15.895  36.028  1.00  0.00    -0.030 Br
HETATM   25  N6  UNL     1      30.523 -15.843  37.126  1.00  0.00    -0.292 N 
ATOM     26  H6  UNL     1      30.858 -16.634  37.675  1.00  0.00     0.188 HD
ENDBRANCH  17  18
ENDBRANCH  16  17
ENDBRANCH   1  16
TORSDOF 4
ENDMDL
MODEL 5
REMARK VINA RESULT: -7.352465124      1.518      2.698
REMARK  4 active torsions:
REMARK  status: ('A' for Active; 'I' for Inactive)
REMARK    1  A    between atoms: N3_8  and  C4_10 
REMARK    2  A    between atoms: C4_10  and  C5_14 
REMARK    3  A    between atoms: C5_14  and  C6_15 
REMARK    4  A    between atoms: C6_15  and  N5_16 
ROOT
HETATM    1  C4  UNL     1      26.976 -15.326  38.555  1.00  0.00     0.078 C 
HETATM    2  N4  UNL     1      26.038 -14.451  38.449  1.00  0.00    -0.389 N 
ATOM      3  H41 UNL     1      25.482 -14.444  37.594  1.00  0.00     0.157 HD
ATOM      4  H42 UNL     1      25.828 -13.771  39.180  1.00  0.00     0.157 HD
ENDROOT
BRANCH   1   5
HETATM    5  N3  UNL     1      27.744 -15.337  39.737  1.00  0.00    -0.317 N 
HETATM    6  C3  UNL     1      27.219 -15.167  40.897  1.00  0.00     0.201 A 
HETATM    7  N2  UNL     1      27.828 -15.148  42.178  1.00  0.00    -0.269 N 
HETATM    8  N7  UNL     1      25.834 -14.954  41.118  1.00  0.00    -0.312 N 
HETATM    9  N1  UNL     1      26.868 -14.933  43.153  1.00  0.00    -0.283 N 
ATOM     10  H2  UNL     1      28.825 -15.274  42.355  1.00  0.00     0.190 HD
HETATM   11  C2  UNL     1      25.616 -14.810  42.499  1.00  0.00     0.112 A 
ATOM     12  H1  UNL     1      27.031 -14.874  44.158  1.00  0.00     0.188 HD
HETATM   13  C1  UNL     1      24.428 -14.594  43.080  1.00  0.00     0.065 C 
ATOM     14  H7  UNL     1      25.117 -14.911  40.395  1.00  0.00     0.170 HD
ATOM     15  H3  UNL     1      28.751 -15.484  39.669  1.00  0.00     0.170 HD
ENDBRANCH   1   5
BRANCH   1  16
HETATM   16  C5  UNL     1      27.281 -16.318  37.491  1.00  0.00     0.098 C 
BRANCH  16  17
HETATM   17  C6  UNL     1      28.741 -16.666  37.608  1.00  0.00     0.155 C 
BRANCH  17  18
HETATM   18  N5  UNL     1      29.551 -15.920  36.650  1.00  0.00    -0.301 N 
HETATM   19  C7  UNL     1      29.005 -15.375  35.541  1.00  0.00     0.129 A 
HETATM   20  C8  UNL     1      29.726 -14.667  34.616  1.00  0.00     0.030 A 
HETATM   21 BR1  UNL     1      28.974 -13.890  33.045  1.00  0.00    -0.050 Br
HETATM   22  C9  UNL     1      31.079 -14.495  34.815  1.00  0.00     0.059 A 
HETATM   23  C10 UNL     1      31.618 -15.061  35.957  1.00  0.00     0.095 A 
HETATM   24 BR2  UNL     1      33.505 -14.826  36.244  1.00  0.00    -0.030 Br
HETATM   25  N6  UNL     1      30.853 -15.742  36.821  1.00  0.00    -0.292 N 
ATOM     26  H6  UNL     1      31.294 -16.142  37.650  1.00  0.00     0.188 HD
ENDBRANCH  17  18
ENDBRANCH  16  17
ENDBRANCH   1  16
TORSDOF 4
ENDMDL
