MODEL 1
REMARK VINA RESULT: -7.055158550      0.000      0.000
REMARK  6 active torsions:
REMARK  status: ('A' for Active; 'I' for Inactive)
REMARK    1  A    between atoms: C2_2  and  N1_3 
REMARK    2  A    between atoms: C2_2  and  N2_7 
REMARK    3  A    between atoms: N2_7  and  C3_10 
REMARK    4  A    between atoms: C3_10  and  C5_12 
REMARK       I    between atoms: C5_12  and  N3_14 
REMARK    5  A    between atoms: C6_16  and  N4_17 
REMARK    6  A    between atoms: N4_17  and  C7_19 
ROOT
HETATM    1  C5  UNL     1      26.000 -14.951  41.377  1.00  0.00     0.253 C 
HETATM    2  O1  UNL     1      24.877 -14.457  41.140  1.00  0.00    -0.271 OA
HETATM    3  N3  UNL     1      26.677 -15.714  40.401  1.00  0.00    -0.321 N 
ATOM      4  H3  UNL     1      26.508 -16.718  40.344  1.00  0.00     0.169 HD
HETATM    5  C6  UNL     1      27.496 -15.169  39.591  1.00  0.00     0.200 C 
ENDROOT
BRANCH   1   6
HETATM    6  C3  UNL     1      26.724 -14.786  42.686  1.00  0.00     0.275 C 
HETATM    7  C4  UNL     1      26.717 -16.136  43.353  1.00  0.00     0.050 C 
BRANCH   6   8
HETATM    8  N2  UNL     1      26.132 -13.777  43.516  1.00  0.00    -0.034 N 
ATOM      9  H22 UNL     1      25.708 -13.027  42.970  1.00  0.00     0.280 HD
ATOM     10  H21 UNL     1      26.831 -13.220  44.007  1.00  0.00     0.280 HD
BRANCH   8  11
HETATM   11  C2  UNL     1      25.197 -14.394  44.416  1.00  0.00     0.377 C 
HETATM   12  C1  UNL     1      24.998 -13.606  45.682  1.00  0.00     0.071 C 
BRANCH  11  13
HETATM   13  N1  UNL     1      23.894 -14.622  43.815  1.00  0.00    -0.051 N 
ATOM     14  H13 UNL     1      23.206 -13.921  44.090  1.00  0.00     0.276 HD
ATOM     15  H12 UNL     1      23.884 -14.438  42.811  1.00  0.00     0.276 HD
ATOM     16  H11 UNL     1      23.601 -15.572  44.043  1.00  0.00     0.276 HD
ENDBRANCH  11  13
ENDBRANCH   8  11
ENDBRANCH   6   8
ENDBRANCH   1   6
BRANCH   5  17
HETATM   17  N4  UNL     1      28.167 -15.948  38.620  1.00  0.00    -0.188 N 
ATOM     18  H4  UNL     1      28.104 -16.964  38.683  1.00  0.00     0.185 HD
BRANCH  17  19
HETATM   19  C7  UNL     1      28.852 -15.434  37.659  1.00  0.00     0.685 A 
HETATM   20  N5  UNL     1      30.159 -15.622  37.414  1.00  0.00    -0.182 N 
HETATM   21  C8  UNL     1      30.494 -14.912  36.325  1.00  0.00     0.130 A 
ATOM     22  H5  UNL     1      30.789 -16.206  37.962  1.00  0.00     0.185 HD
HETATM   23 BR1  UNL     1      32.214 -14.818  35.535  1.00  0.00    -0.028 Br
HETATM   24  C9  UNL     1      29.368 -14.257  35.872  1.00  0.00     0.130 A 
HETATM   25 BR2  UNL     1      29.251 -13.107  34.363  1.00  0.00    -0.028 Br
HETATM   26  N6  UNL     1      28.388 -14.605  36.718  1.00  0.00    -0.182 N 
ATOM     27  H6  UNL     1      27.422 -14.283  36.653  1.00  0.00     0.185 HD
ENDBRANCH  17  19
ENDBRANCH   5  17
TORSDOF 6
ENDMDL
MODEL 2
REMARK VINA RESULT: -7.045118614      0.044      1.477
REMARK  6 active torsions:
REMARK  status: ('A' for Active; 'I' for Inactive)
REMARK    1  A    between atoms: C2_2  and  N1_3 
REMARK    2  A    between atoms: C2_2  and  N2_7 
REMARK    3  A    between atoms: N2_7  and  C3_10 
REMARK    4  A    between atoms: C3_10  and  C5_12 
REMARK       I    between atoms: C5_12  and  N3_14 
REMARK    5  A    between atoms: C6_16  and  N4_17 
REMARK    6  A    between atoms: N4_17  and  C7_19 
ROOT
HETATM    1  C5  UNL     1      26.003 -14.953  41.381  1.00  0.00     0.253 C 
HETATM    2  O1  UNL     1      24.881 -14.459  41.140  1.00  0.00    -0.271 OA
HETATM    3  N3  UNL     1      26.682 -15.719  40.408  1.00  0.00    -0.321 N 
ATOM      4  H3  UNL     1      26.512 -16.723  40.353  1.00  0.00     0.169 HD
HETATM    5  C6  UNL     1      27.502 -15.176  39.598  1.00  0.00     0.200 C 
ENDROOT
BRANCH   1   6
HETATM    6  C3  UNL     1      26.724 -14.785  42.691  1.00  0.00     0.275 C 
HETATM    7  C4  UNL     1      26.718 -16.135  43.360  1.00  0.00     0.050 C 
BRANCH   6   8
HETATM    8  N2  UNL     1      26.130 -13.776  43.518  1.00  0.00    -0.034 N 
ATOM      9  H22 UNL     1      25.704 -13.028  42.971  1.00  0.00     0.280 HD
ATOM     10  H21 UNL     1      26.828 -13.217  44.009  1.00  0.00     0.280 HD
BRANCH   8  11
HETATM   11  C2  UNL     1      25.195 -14.393  44.419  1.00  0.00     0.377 C 
HETATM   12  C1  UNL     1      24.992 -13.601  45.682  1.00  0.00     0.071 C 
BRANCH  11  13
HETATM   13  N1  UNL     1      23.894 -14.627  43.818  1.00  0.00    -0.051 N 
ATOM     14  H13 UNL     1      23.434 -15.458  44.188  1.00  0.00     0.276 HD
ATOM     15  H12 UNL     1      23.196 -13.942  44.109  1.00  0.00     0.276 HD
ATOM     16  H11 UNL     1      24.013 -14.662  42.806  1.00  0.00     0.276 HD
ENDBRANCH  11  13
ENDBRANCH   8  11
ENDBRANCH   6   8
ENDBRANCH   1   6
BRANCH   5  17
HETATM   17  N4  UNL     1      28.175 -15.958  38.630  1.00  0.00    -0.188 N 
ATOM     18  H4  UNL     1      28.130 -16.974  38.709  1.00  0.00     0.185 HD
BRANCH  17  19
HETATM   19  C7  UNL     1      28.840 -15.446  37.655  1.00  0.00     0.685 A 
HETATM   20  N5  UNL     1      28.359 -14.656  36.681  1.00  0.00    -0.182 N 
HETATM   21  C8  UNL     1      29.368 -14.335  35.856  1.00  0.00     0.130 A 
ATOM     22  H5  UNL     1      27.390 -14.352  36.585  1.00  0.00     0.185 HD
HETATM   23 BR1  UNL     1      29.249 -13.237  34.316  1.00  0.00    -0.028 Br
HETATM   24  C9  UNL     1      30.517 -14.940  36.321  1.00  0.00     0.130 A 
HETATM   25 BR2  UNL     1      32.250 -14.834  35.549  1.00  0.00    -0.028 Br
HETATM   26  N6  UNL     1      30.147 -15.609  37.423  1.00  0.00    -0.182 N 
ATOM     27  H6  UNL     1      30.775 -16.165  38.004  1.00  0.00     0.185 HD
ENDBRANCH  17  19
ENDBRANCH   5  17
TORSDOF 6
ENDMDL
MODEL 3
REMARK VINA RESULT: -6.987430898      1.955      2.109
REMARK  6 active torsions:
REMARK  status: ('A' for Active; 'I' for Inactive)
REMARK    1  A    between atoms: C2_2  and  N1_3 
REMARK    2  A    between atoms: C2_2  and  N2_7 
REMARK    3  A    between atoms: N2_7  and  C3_10 
REMARK    4  A    between atoms: C3_10  and  C5_12 
REMARK       I    between atoms: C5_12  and  N3_14 
REMARK    5  A    between atoms: C6_16  and  N4_17 
REMARK    6  A    between atoms: N4_17  and  C7_19 
ROOT
HETATM    1  C5  UNL     1      27.573 -15.599  42.398  1.00  0.00     0.253 C 
HETATM    2  O1  UNL     1      28.131 -16.662  42.740  1.00  0.00    -0.271 OA
HETATM    3  N3  UNL     1      27.639 -15.142  41.064  1.00  0.00    -0.321 N 
ATOM      4  H3  UNL     1      28.418 -14.551  40.774  1.00  0.00     0.169 HD
HETATM    5  C6  UNL     1      26.741 -15.456  40.216  1.00  0.00     0.200 C 
ENDROOT
BRANCH   1   6
HETATM    6  C3  UNL     1      26.795 -14.723  43.344  1.00  0.00     0.275 C 
HETATM    7  C4  UNL     1      27.756 -13.679  43.850  1.00  0.00     0.050 C 
BRANCH   6   8
HETATM    8  N2  UNL     1      26.201 -15.468  44.416  1.00  0.00    -0.034 N 
ATOM      9  H22 UNL     1      26.779 -15.463  45.256  1.00  0.00     0.280 HD
ATOM     10  H21 UNL     1      26.208 -16.472  44.241  1.00  0.00     0.280 HD
BRANCH   8  11
HETATM   11  C2  UNL     1      24.877 -14.967  44.662  1.00  0.00     0.377 C 
HETATM   12  C1  UNL     1      24.876 -13.666  45.419  1.00  0.00     0.071 C 
BRANCH  11  13
HETATM   13  N1  UNL     1      24.101 -14.785  43.448  1.00  0.00    -0.051 N 
ATOM     14  H13 UNL     1      23.544 -13.931  43.461  1.00  0.00     0.276 HD
ATOM     15  H12 UNL     1      24.681 -14.558  42.640  1.00  0.00     0.276 HD
ATOM     16  H11 UNL     1      23.535 -15.621  43.304  1.00  0.00     0.276 HD
ENDBRANCH  11  13
ENDBRANCH   8  11
ENDBRANCH   6   8
ENDBRANCH   1   6
BRANCH   5  17
HETATM   17  N4  UNL     1      26.822 -14.989  38.883  1.00  0.00    -0.188 N 
ATOM     18  H4  UNL     1      26.188 -14.246  38.589  1.00  0.00     0.185 HD
BRANCH  17  19
HETATM   19  C7  UNL     1      27.658 -15.459  38.025  1.00  0.00     0.685 A 
HETATM   20  N5  UNL     1      28.979 -15.224  37.979  1.00  0.00    -0.182 N 
HETATM   21  C8  UNL     1      29.494 -15.894  36.936  1.00  0.00     0.130 A 
ATOM     22  H5  UNL     1      29.502 -14.634  38.626  1.00  0.00     0.185 HD
HETATM   23 BR1  UNL     1      31.315 -15.919  36.409  1.00  0.00    -0.028 Br
HETATM   24  C9  UNL     1      28.470 -16.570  36.307  1.00  0.00     0.130 A 
HETATM   25 BR2  UNL     1      28.615 -17.683  34.773  1.00  0.00    -0.028 Br
HETATM   26  N6  UNL     1      27.365 -16.275  37.007  1.00  0.00    -0.182 N 
ATOM     27  H6  UNL     1      26.431 -16.625  36.793  1.00  0.00     0.185 HD
ENDBRANCH  17  19
ENDBRANCH   5  17
TORSDOF 6
ENDMDL
MODEL 4
REMARK VINA RESULT: -6.957133875      1.692      2.236
REMARK  6 active torsions:
REMARK  status: ('A' for Active; 'I' for Inactive)
REMARK    1  A    between atoms: C2_2  and  N1_3 
REMARK    2  A    between atoms: C2_2  and  N2_7 
REMARK    3  A    between atoms: N2_7  and  C3_10 
REMARK    4  A    between atoms: C3_10  and  C5_12 
REMARK       I    between atoms: C5_12  and  N3_14 
REMARK    5  A    between atoms: C6_16  and  N4_17 
REMARK    6  A    between atoms: N4_17  and  C7_19 
ROOT
HETATM    1  C5  UNL     1      27.462 -15.586  42.330  1.00  0.00     0.253 C 
HETATM    2  O1  UNL     1      28.097 -16.613  42.646  1.00  0.00    -0.271 OA
HETATM    3  N3  UNL     1      27.334 -15.199  40.978  1.00  0.00    -0.321 N 
ATOM      4  H3  UNL     1      28.046 -14.602  40.557  1.00  0.00     0.169 HD
HETATM    5  C6  UNL     1      26.343 -15.584  40.275  1.00  0.00     0.200 C 
ENDROOT
BRANCH   1   6
HETATM    6  C3  UNL     1      26.786 -14.683  43.327  1.00  0.00     0.275 C 
HETATM    7  C4  UNL     1      27.831 -13.707  43.799  1.00  0.00     0.050 C 
BRANCH   6   8
HETATM    8  N2  UNL     1      26.203 -15.411  44.417  1.00  0.00    -0.034 N 
ATOM      9  H22 UNL     1      26.787 -15.389  45.253  1.00  0.00     0.280 HD
ATOM     10  H21 UNL     1      26.213 -16.418  44.260  1.00  0.00     0.280 HD
BRANCH   8  11
HETATM   11  C2  UNL     1      24.878 -14.911  44.664  1.00  0.00     0.377 C 
HETATM   12  C1  UNL     1      24.877 -13.597  45.397  1.00  0.00     0.071 C 
BRANCH  11  13
HETATM   13  N1  UNL     1      24.092 -14.754  43.453  1.00  0.00    -0.051 N 
ATOM     14  H13 UNL     1      23.632 -13.846  43.397  1.00  0.00     0.276 HD
ATOM     15  H12 UNL     1      24.670 -14.667  42.616  1.00  0.00     0.276 HD
ATOM     16  H11 UNL     1      23.436 -15.533  43.397  1.00  0.00     0.276 HD
ENDBRANCH  11  13
ENDBRANCH   8  11
ENDBRANCH   6   8
ENDBRANCH   1   6
BRANCH   5  17
HETATM   17  N4  UNL     1      26.229 -15.187  38.922  1.00  0.00    -0.188 N 
ATOM     18  H4  UNL     1      25.328 -14.843  38.590  1.00  0.00     0.185 HD
BRANCH  17  19
HETATM   19  C7  UNL     1      27.210 -15.240  38.091  1.00  0.00     0.685 A 
HETATM   20  N5  UNL     1      27.754 -14.209  37.423  1.00  0.00    -0.182 N 
HETATM   21  C8  UNL     1      28.752 -14.678  36.656  1.00  0.00     0.130 A 
ATOM     22  H5  UNL     1      27.458 -13.236  37.486  1.00  0.00     0.185 HD
HETATM   23 BR1  UNL     1      29.859 -13.653  35.509  1.00  0.00    -0.028 Br
HETATM   24  C9  UNL     1      28.840 -16.041  36.846  1.00  0.00     0.130 A 
HETATM   25 BR2  UNL     1      30.072 -17.227  36.018  1.00  0.00    -0.028 Br
HETATM   26  N6  UNL     1      27.878 -16.341  37.732  1.00  0.00    -0.182 N 
ATOM     27  H6  UNL     1      27.683 -17.279  38.082  1.00  0.00     0.185 HD
ENDBRANCH  17  19
ENDBRANCH   5  17
TORSDOF 6
ENDMDL
MODEL 5
REMARK VINA RESULT: -6.953274117      1.682      1.927
REMARK  6 active torsions:
REMARK  status: ('A' for Active; 'I' for Inactive)
REMARK    1  A    between atoms: C2_2  and  N1_3 
REMARK    2  A    between atoms: C2_2  and  N2_7 
REMARK    3  A    between atoms: N2_7  and  C3_10 
REMARK    4  A    between atoms: C3_10  and  C5_12 
REMARK       I    between atoms: C5_12  and  N3_14 
REMARK    5  A    between atoms: C6_16  and  N4_17 
REMARK    6  A    between atoms: N4_17  and  C7_19 
ROOT
HETATM    1  C5  UNL     1      27.467 -15.594  42.326  1.00  0.00     0.253 C 
HETATM    2  O1  UNL     1      28.106 -16.618  42.645  1.00  0.00    -0.271 OA
HETATM    3  N3  UNL     1      27.345 -15.208  40.973  1.00  0.00    -0.321 N 
ATOM      4  H3  UNL     1      28.057 -14.608  40.557  1.00  0.00     0.169 HD
HETATM    5  C6  UNL     1      26.360 -15.596  40.264  1.00  0.00     0.200 C 
ENDROOT
BRANCH   1   6
HETATM    6  C3  UNL     1      26.782 -14.694  43.319  1.00  0.00     0.275 C 
HETATM    7  C4  UNL     1      27.816 -13.704  43.787  1.00  0.00     0.050 C 
BRANCH   6   8
HETATM    8  N2  UNL     1      26.207 -15.423  44.412  1.00  0.00    -0.034 N 
ATOM      9  H22 UNL     1      26.794 -15.397  45.246  1.00  0.00     0.280 HD
ATOM     10  H21 UNL     1      26.222 -16.431  44.256  1.00  0.00     0.280 HD
BRANCH   8  11
HETATM   11  C2  UNL     1      24.881 -14.930  44.664  1.00  0.00     0.377 C 
HETATM   12  C1  UNL     1      24.876 -13.623  45.410  1.00  0.00     0.071 C 
BRANCH  11  13
HETATM   13  N1  UNL     1      24.094 -14.764  43.454  1.00  0.00    -0.051 N 
ATOM     14  H13 UNL     1      23.145 -15.124  43.549  1.00  0.00     0.276 HD
ATOM     15  H12 UNL     1      23.853 -13.789  43.272  1.00  0.00     0.276 HD
ATOM     16  H11 UNL     1      24.604 -15.194  42.683  1.00  0.00     0.276 HD
ENDBRANCH  11  13
ENDBRANCH   8  11
ENDBRANCH   6   8
ENDBRANCH   1   6
BRANCH   5  17
HETATM   17  N4  UNL     1      26.253 -15.200  38.911  1.00  0.00    -0.188 N 
ATOM     18  H4  UNL     1      25.355 -14.849  38.576  1.00  0.00     0.185 HD
BRANCH  17  19
HETATM   19  C7  UNL     1      27.235 -15.261  38.082  1.00  0.00     0.685 A 
HETATM   20  N5  UNL     1      27.918 -16.361  37.725  1.00  0.00    -0.182 N 
HETATM   21  C8  UNL     1      28.866 -16.006  36.843  1.00  0.00     0.130 A 
ATOM     22  H5  UNL     1      27.745 -17.306  38.067  1.00  0.00     0.185 HD
HETATM   23 BR1  UNL     1      30.113 -17.167  36.012  1.00  0.00    -0.028 Br
HETATM   24  C9  UNL     1      28.779 -14.646  36.638  1.00  0.00     0.130 A 
HETATM   25 BR2  UNL     1      29.872 -13.596  35.491  1.00  0.00    -0.028 Br
HETATM   26  N6  UNL     1      27.768 -14.231  37.416  1.00  0.00    -0.182 N 
ATOM     27  H6  UNL     1      27.450 -13.265  37.490  1.00  0.00     0.185 HD
ENDBRANCH  17  19
ENDBRANCH   5  17
TORSDOF 6
ENDMDL
