MODEL 1
REMARK VINA RESULT: -7.340083503      0.000      0.000
REMARK  6 active torsions:
REMARK  status: ('A' for Active; 'I' for Inactive)
REMARK       I    between atoms: C1_2  and  N1_3 
REMARK    1  A    between atoms: C1_2  and  C4_8 
REMARK    2  A    between atoms: N1_3  and  C2_5 
REMARK    3  A    between atoms: C2_5  and  C3_6 
REMARK    4  A    between atoms: C10_15  and  N2_16 
REMARK    5  A    between atoms: N2_16  and  C11_19 
REMARK    6  A    between atoms: C11_19  and  C12_20 
ROOT
HETATM    1  C4  UNL     1      -2.014  37.659 102.114  1.00  0.00     0.109 C 
HETATM    2  C5  UNL     1      -2.180  36.449 103.005  1.00  0.00     0.023 C 
HETATM    3  C6  UNL     1      -2.314  35.287 102.041  1.00  0.00     0.022 C 
HETATM    4  C7  UNL     1      -0.977  34.781 101.578  1.00  0.00     0.033 C 
HETATM    5  C8  UNL     1      -0.260  35.650 100.628  1.00  0.00     0.168 C 
HETATM    6  O2  UNL     1      -0.808  36.837 100.299  1.00  0.00    -0.383 OA
HETATM    7  C9  UNL     1      -2.076  37.124 100.676  1.00  0.00     0.165 C 
HETATM    8  C10 UNL     1      -2.977  35.939 100.872  1.00  0.00     0.219 C 
ENDROOT
BRANCH   8   9
HETATM    9  N2  UNL     1      -3.202  35.138  99.733  1.00  0.00    -0.068 N 
ATOM     10  H22 UNL     1      -2.376  34.611  99.454  1.00  0.00     0.277 HD
ATOM     11  H21 UNL     1      -3.814  34.345  99.927  1.00  0.00     0.277 HD
BRANCH   9  12
HETATM   12  C11 UNL     1      -3.708  35.987  98.671  1.00  0.00     0.237 C 
BRANCH  12  13
HETATM   13  C12 UNL     1      -4.715  35.347  97.785  1.00  0.00     0.014 C 
HETATM   14  C13 UNL     1      -5.435  36.487  97.051  1.00  0.00     0.034 C 
HETATM   15  C14 UNL     1      -6.844  36.068  96.657  1.00  0.00     0.232 C 
HETATM   16  N3  UNL     1      -7.608  36.069  97.904  1.00  0.00    -0.075 N 
HETATM   17  C15 UNL     1      -6.960  35.326  98.942  1.00  0.00     0.232 C 
ATOM     18  H32 UNL     1      -7.815  37.020  98.207  1.00  0.00     0.277 HD
ATOM     19  H31 UNL     1      -8.560  35.734  97.752  1.00  0.00     0.277 HD
HETATM   20  C16 UNL     1      -5.763  34.534  98.466  1.00  0.00     0.034 C 
ENDBRANCH  12  13
ENDBRANCH   9  12
ENDBRANCH   8   9
BRANCH   1  21
HETATM   21  C1  UNL     1      -0.771  38.396 102.394  1.00  0.00     0.224 C 
HETATM   22  O1  UNL     1      -0.148  38.109 103.439  1.00  0.00    -0.273 OA
HETATM   23  N1  UNL     1      -0.255  39.391 101.558  1.00  0.00    -0.358 N 
ATOM     24  H1  UNL     1      -0.764  39.618 100.704  1.00  0.00     0.162 HD
BRANCH  23  25
HETATM   25  C2  UNL     1       0.951  40.108 101.840  1.00  0.00     0.153 C 
BRANCH  25  26
HETATM   26  C3  UNL     1       2.191  39.508 101.260  1.00  0.00     0.241 C 
HETATM   27  F1  UNL     1       2.817  40.374 100.380  1.00  0.00    -0.254 F 
ENDBRANCH  25  26
ENDBRANCH  23  25
ENDBRANCH   1  21
TORSDOF 6
ENDMDL
MODEL 2
REMARK VINA RESULT: -7.295156134      2.500      3.167
REMARK  6 active torsions:
REMARK  status: ('A' for Active; 'I' for Inactive)
REMARK       I    between atoms: C1_2  and  N1_3 
REMARK    1  A    between atoms: C1_2  and  C4_8 
REMARK    2  A    between atoms: N1_3  and  C2_5 
REMARK    3  A    between atoms: C2_5  and  C3_6 
REMARK    4  A    between atoms: C10_15  and  N2_16 
REMARK    5  A    between atoms: N2_16  and  C11_19 
REMARK    6  A    between atoms: C11_19  and  C12_20 
ROOT
HETATM    1  C4  UNL     1       0.035  36.722 100.668  1.00  0.00     0.109 C 
HETATM    2  C5  UNL     1      -0.773  37.813 101.333  1.00  0.00     0.023 C 
HETATM    3  C6  UNL     1      -2.206  37.329 101.244  1.00  0.00     0.022 C 
HETATM    4  C7  UNL     1      -2.549  36.378 102.357  1.00  0.00     0.033 C 
HETATM    5  C8  UNL     1      -1.956  35.033 102.252  1.00  0.00     0.168 C 
HETATM    6  O2  UNL     1      -1.116  34.776 101.228  1.00  0.00    -0.383 OA
HETATM    7  C9  UNL     1      -0.989  35.669 100.219  1.00  0.00     0.165 C 
HETATM    8  C10 UNL     1      -2.183  36.544  99.974  1.00  0.00     0.219 C 
ENDROOT
BRANCH   8   9
HETATM    9  N2  UNL     1      -3.372  35.881  99.607  1.00  0.00    -0.068 N 
ATOM     10  H22 UNL     1      -3.735  35.286 100.351  1.00  0.00     0.277 HD
ATOM     11  H21 UNL     1      -4.168  36.514  99.534  1.00  0.00     0.277 HD
BRANCH   9  12
HETATM   12  C11 UNL     1      -3.126  35.150  98.378  1.00  0.00     0.237 C 
BRANCH  12  13
HETATM   13  C12 UNL     1      -4.285  35.083  97.448  1.00  0.00     0.014 C 
HETATM   14  C13 UNL     1      -4.865  36.502  97.375  1.00  0.00     0.034 C 
HETATM   15  C14 UNL     1      -6.347  36.460  97.034  1.00  0.00     0.232 C 
HETATM   16  N3  UNL     1      -7.009  35.996  98.253  1.00  0.00    -0.075 N 
HETATM   17  C15 UNL     1      -6.414  34.804  98.777  1.00  0.00     0.232 C 
ATOM     18  H32 UNL     1      -7.040  36.733  98.958  1.00  0.00     0.277 HD
ATOM     19  H31 UNL     1      -8.011  35.872  98.103  1.00  0.00     0.277 HD
HETATM   20  C16 UNL     1      -5.397  34.177  97.852  1.00  0.00     0.034 C 
ENDBRANCH  12  13
ENDBRANCH   9  12
ENDBRANCH   8   9
BRANCH   1  21
HETATM   21  C1  UNL     1       1.069  36.169 101.556  1.00  0.00     0.224 C 
HETATM   22  O1  UNL     1       1.275  36.752 102.642  1.00  0.00    -0.273 OA
HETATM   23  N1  UNL     1       1.826  35.033 101.251  1.00  0.00    -0.358 N 
ATOM     24  H1  UNL     1       1.650  34.558 100.366  1.00  0.00     0.162 HD
BRANCH  23  25
HETATM   25  C2  UNL     1       2.835  34.505 102.117  1.00  0.00     0.153 C 
BRANCH  25  26
HETATM   26  C3  UNL     1       2.370  33.427 103.043  1.00  0.00     0.241 C 
HETATM   27  F1  UNL     1       1.099  32.986 102.719  1.00  0.00    -0.254 F 
ENDBRANCH  25  26
ENDBRANCH  23  25
ENDBRANCH   1  21
TORSDOF 6
ENDMDL
MODEL 3
REMARK VINA RESULT: -7.169622757      0.934      1.287
REMARK  6 active torsions:
REMARK  status: ('A' for Active; 'I' for Inactive)
REMARK       I    between atoms: C1_2  and  N1_3 
REMARK    1  A    between atoms: C1_2  and  C4_8 
REMARK    2  A    between atoms: N1_3  and  C2_5 
REMARK    3  A    between atoms: C2_5  and  C3_6 
REMARK    4  A    between atoms: C10_15  and  N2_16 
REMARK    5  A    between atoms: N2_16  and  C11_19 
REMARK    6  A    between atoms: C11_19  and  C12_20 
ROOT
HETATM    1  C4  UNL     1      -1.944  37.622 102.447  1.00  0.00     0.109 C 
HETATM    2  C5  UNL     1      -1.959  36.305 103.188  1.00  0.00     0.023 C 
HETATM    3  C6  UNL     1      -2.262  35.273 102.120  1.00  0.00     0.022 C 
HETATM    4  C7  UNL     1      -1.027  34.856 101.373  1.00  0.00     0.033 C 
HETATM    5  C8  UNL     1      -0.482  35.852 100.433  1.00  0.00     0.168 C 
HETATM    6  O2  UNL     1      -1.074  37.061 100.360  1.00  0.00    -0.383 OA
HETATM    7  C9  UNL     1      -2.256  37.273 100.984  1.00  0.00     0.165 C 
HETATM    8  C10 UNL     1      -3.114  36.057 101.177  1.00  0.00     0.219 C 
ENDROOT
BRANCH   8   9
HETATM    9  N2  UNL     1      -3.536  35.404 100.000  1.00  0.00    -0.068 N 
ATOM     10  H22 UNL     1      -3.197  35.861  99.154  1.00  0.00     0.277 HD
ATOM     11  H21 UNL     1      -3.077  34.503  99.865  1.00  0.00     0.277 HD
BRANCH   9  12
HETATM   12  C11 UNL     1      -4.982  35.294 100.033  1.00  0.00     0.237 C 
BRANCH  12  13
HETATM   13  C12 UNL     1      -5.594  34.717  98.806  1.00  0.00     0.014 C 
HETATM   14  C13 UNL     1      -4.439  34.447  97.831  1.00  0.00     0.034 C 
HETATM   15  C14 UNL     1      -4.929  34.495  96.392  1.00  0.00     0.232 C 
HETATM   16  N3  UNL     1      -5.151  35.913  96.109  1.00  0.00    -0.075 N 
HETATM   17  C15 UNL     1      -5.958  36.548  97.106  1.00  0.00     0.232 C 
ATOM     18  H32 UNL     1      -4.268  36.406  95.982  1.00  0.00     0.277 HD
ATOM     19  H31 UNL     1      -5.547  36.044  95.177  1.00  0.00     0.277 HD
HETATM   20  C16 UNL     1      -6.575  35.583  98.094  1.00  0.00     0.034 C 
ENDBRANCH  12  13
ENDBRANCH   9  12
ENDBRANCH   8   9
BRANCH   1  21
HETATM   21  C1  UNL     1      -0.669  38.339 102.601  1.00  0.00     0.224 C 
HETATM   22  O1  UNL     1       0.085  37.990 103.534  1.00  0.00    -0.273 OA
HETATM   23  N1  UNL     1      -0.261  39.383 101.765  1.00  0.00    -0.358 N 
ATOM     24  H1  UNL     1      -0.877  39.661 101.001  1.00  0.00     0.162 HD
BRANCH  23  25
HETATM   25  C2  UNL     1       0.978  40.081 101.925  1.00  0.00     0.153 C 
BRANCH  25  26
HETATM   26  C3  UNL     1       2.153  39.442 101.256  1.00  0.00     0.241 C 
HETATM   27  F1  UNL     1       2.881  40.357 100.515  1.00  0.00    -0.254 F 
ENDBRANCH  25  26
ENDBRANCH  23  25
ENDBRANCH   1  21
TORSDOF 6
ENDMDL
MODEL 4
REMARK VINA RESULT: -7.075165191      2.822      3.711
REMARK  6 active torsions:
REMARK  status: ('A' for Active; 'I' for Inactive)
REMARK       I    between atoms: C1_2  and  N1_3 
REMARK    1  A    between atoms: C1_2  and  C4_8 
REMARK    2  A    between atoms: N1_3  and  C2_5 
REMARK    3  A    between atoms: C2_5  and  C3_6 
REMARK    4  A    between atoms: C10_15  and  N2_16 
REMARK    5  A    between atoms: N2_16  and  C11_19 
REMARK    6  A    between atoms: C11_19  and  C12_20 
ROOT
HETATM    1  C4  UNL     1      -0.191  35.945 100.585  1.00  0.00     0.109 C 
HETATM    2  C5  UNL     1      -0.549  37.409 100.695  1.00  0.00     0.023 C 
HETATM    3  C6  UNL     1      -1.975  37.412 101.208  1.00  0.00     0.022 C 
HETATM    4  C7  UNL     1      -2.036  37.270 102.703  1.00  0.00     0.033 C 
HETATM    5  C8  UNL     1      -1.716  35.932 103.231  1.00  0.00     0.168 C 
HETATM    6  O2  UNL     1      -1.335  34.971 102.365  1.00  0.00    -0.383 OA
HETATM    7  C9  UNL     1      -1.446  35.180 101.032  1.00  0.00     0.165 C 
HETATM    8  C10 UNL     1      -2.512  36.151 100.615  1.00  0.00     0.219 C 
ENDROOT
BRANCH   8   9
HETATM    9  N2  UNL     1      -3.836  35.797 100.949  1.00  0.00    -0.068 N 
ATOM     10  H22 UNL     1      -3.880  35.089 101.682  1.00  0.00     0.277 HD
ATOM     11  H21 UNL     1      -4.327  36.541 101.444  1.00  0.00     0.277 HD
BRANCH   9  12
HETATM   12  C11 UNL     1      -4.518  35.388  99.736  1.00  0.00     0.237 C 
BRANCH  12  13
HETATM   13  C12 UNL     1      -3.772  35.655  98.478  1.00  0.00     0.014 C 
HETATM   14  C13 UNL     1      -4.689  36.521  97.604  1.00  0.00     0.034 C 
HETATM   15  C14 UNL     1      -4.374  36.321  96.129  1.00  0.00     0.232 C 
HETATM   16  N3  UNL     1      -4.909  35.000  95.799  1.00  0.00    -0.075 N 
HETATM   17  C15 UNL     1      -4.473  33.990  96.715  1.00  0.00     0.232 C 
ATOM     18  H32 UNL     1      -5.926  35.021  95.731  1.00  0.00     0.277 HD
ATOM     19  H31 UNL     1      -4.687  34.744  94.836  1.00  0.00     0.277 HD
HETATM   20  C16 UNL     1      -3.401  34.459  97.671  1.00  0.00     0.034 C 
ENDBRANCH  12  13
ENDBRANCH   9  12
ENDBRANCH   8   9
BRANCH   1  21
HETATM   21  C1  UNL     1       1.000  35.598 101.377  1.00  0.00     0.224 C 
HETATM   22  O1  UNL     1       1.726  36.533 101.774  1.00  0.00    -0.273 OA
HETATM   23  N1  UNL     1       1.356  34.286 101.705  1.00  0.00    -0.358 N 
ATOM     24  H1  UNL     1       0.757  33.526 101.383  1.00  0.00     0.162 HD
BRANCH  23  25
HETATM   25  C2  UNL     1       2.519  33.954 102.470  1.00  0.00     0.153 C 
BRANCH  25  26
HETATM   26  C3  UNL     1       2.255  33.157 103.707  1.00  0.00     0.241 C 
HETATM   27  F1  UNL     1       0.933  33.253 104.106  1.00  0.00    -0.254 F 
ENDBRANCH  25  26
ENDBRANCH  23  25
ENDBRANCH   1  21
TORSDOF 6
ENDMDL
MODEL 5
REMARK VINA RESULT: -7.067125826      1.169      1.633
REMARK  6 active torsions:
REMARK  status: ('A' for Active; 'I' for Inactive)
REMARK       I    between atoms: C1_2  and  N1_3 
REMARK    1  A    between atoms: C1_2  and  C4_8 
REMARK    2  A    between atoms: N1_3  and  C2_5 
REMARK    3  A    between atoms: C2_5  and  C3_6 
REMARK    4  A    between atoms: C10_15  and  N2_16 
REMARK    5  A    between atoms: N2_16  and  C11_19 
REMARK    6  A    between atoms: C11_19  and  C12_20 
ROOT
HETATM    1  C4  UNL     1      -1.464  37.156 102.928  1.00  0.00     0.109 C 
HETATM    2  C5  UNL     1      -1.305  35.691 103.263  1.00  0.00     0.023 C 
HETATM    3  C6  UNL     1      -1.928  34.965 102.087  1.00  0.00     0.022 C 
HETATM    4  C7  UNL     1      -0.967  34.822 100.940  1.00  0.00     0.033 C 
HETATM    5  C8  UNL     1      -0.682  36.057 100.188  1.00  0.00     0.168 C 
HETATM    6  O2  UNL     1      -1.236  37.212 100.610  1.00  0.00    -0.383 OA
HETATM    7  C9  UNL     1      -2.187  37.192 101.573  1.00  0.00     0.165 C 
HETATM    8  C10 UNL     1      -2.989  35.927 101.666  1.00  0.00     0.219 C 
ENDROOT
BRANCH   8   9
HETATM    9  N2  UNL     1      -3.746  35.589 100.525  1.00  0.00    -0.068 N 
ATOM     10  H22 UNL     1      -3.684  36.293  99.790  1.00  0.00     0.277 HD
ATOM     11  H21 UNL     1      -3.344  34.809 100.005  1.00  0.00     0.277 HD
BRANCH   9  12
HETATM   12  C11 UNL     1      -5.112  35.336 100.942  1.00  0.00     0.237 C 
BRANCH  12  13
HETATM   13  C12 UNL     1      -6.154  35.837 100.006  1.00  0.00     0.014 C 
HETATM   14  C13 UNL     1      -7.399  34.970 100.237  1.00  0.00     0.034 C 
HETATM   15  C14 UNL     1      -8.254  34.910  98.980  1.00  0.00     0.232 C 
HETATM   16  N3  UNL     1      -7.524  34.038  98.060  1.00  0.00    -0.075 N 
HETATM   17  C15 UNL     1      -6.154  34.424  97.914  1.00  0.00     0.232 C 
ATOM     18  H32 UNL     1      -7.603  33.060  98.340  1.00  0.00     0.277 HD
ATOM     19  H31 UNL     1      -7.991  33.986  97.154  1.00  0.00     0.277 HD
HETATM   20  C16 UNL     1      -5.825  35.752  98.555  1.00  0.00     0.034 C 
ENDBRANCH  12  13
ENDBRANCH   9  12
ENDBRANCH   8   9
BRANCH   1  21
HETATM   21  C1  UNL     1      -0.177  37.869 102.905  1.00  0.00     0.224 C 
HETATM   22  O1  UNL     1       0.810  37.304 103.422  1.00  0.00    -0.273 OA
HETATM   23  N1  UNL     1      -0.003  39.136 102.338  1.00  0.00    -0.358 N 
ATOM     24  H1  UNL     1      -0.811  39.591 101.912  1.00  0.00     0.162 HD
BRANCH  23  25
HETATM   25  C2  UNL     1       1.249  39.827 102.325  1.00  0.00     0.153 C 
BRANCH  25  26
HETATM   26  C3  UNL     1       2.129  39.516 101.158  1.00  0.00     0.241 C 
HETATM   27  F1  UNL     1       2.857  40.622 100.754  1.00  0.00    -0.254 F 
ENDBRANCH  25  26
ENDBRANCH  23  25
ENDBRANCH   1  21
TORSDOF 6
ENDMDL
