MODEL 1
REMARK VINA RESULT: -7.229281002      0.000      0.000
REMARK  10 active torsions:
REMARK  status: ('A' for Active; 'I' for Inactive)
REMARK    1  A    between atoms: C2_2  and  O1_4 
REMARK    2  A    between atoms: O1_4  and  C3_5 
REMARK    3  A    between atoms: C8_12  and  C9_13 
REMARK    4  A    between atoms: C9_13  and  C10_14 
REMARK    5  A    between atoms: C10_14  and  C11_15 
REMARK    6  A    between atoms: C11_15  and  C12_16 
REMARK    7  A    between atoms: C12_16  and  N2_17 
REMARK    8  A    between atoms: N2_17  and  C13_19 
REMARK    9  A    between atoms: C13_19  and  N3_21 
REMARK   10  A    between atoms: N3_21  and  N4_23 
ROOT
HETATM    1  C9  UNL     1      -2.644  35.534 103.365  1.00  0.00     0.017 C 
ENDROOT
BRANCH   1   2
HETATM    2  C8  UNL     1      -2.853  35.406 101.906  1.00  0.00     0.107 C 
HETATM    3  C3  UNL     1      -2.267  36.613 101.137  1.00  0.00     0.139 C 
HETATM    4  C4  UNL     1      -2.139  36.083  99.708  1.00  0.00     0.053 C 
HETATM    5  C5  UNL     1      -3.511  36.003  99.121  1.00  0.00     0.128 C 
HETATM    6  N1  UNL     1      -4.476  35.452 100.016  1.00  0.00    -0.356 N 
HETATM    7  C6  UNL     1      -5.729  34.969  99.472  1.00  0.00     0.152 C 
HETATM    8  C7  UNL     1      -4.255  35.362 101.441  1.00  0.00     0.226 C 
HETATM    9  O2  UNL     1      -5.275  35.259 102.133  1.00  0.00    -0.273 OA
BRANCH   3  10
HETATM   10  O1  UNL     1      -1.070  37.041 101.638  1.00  0.00    -0.351 OA
BRANCH  10  11
HETATM   11  C2  UNL     1      -1.181  38.377 102.007  1.00  0.00     0.303 C 
HETATM   12  C1  UNL     1       0.045  39.200 101.692  1.00  0.00     0.076 C 
HETATM   13  F1  UNL     1      -2.270  38.854 101.253  1.00  0.00    -0.220 F 
ENDBRANCH  10  11
ENDBRANCH   3  10
ENDBRANCH   1   2
BRANCH   1  14
HETATM   14  C10 UNL     1      -1.867  34.397 103.914  1.00  0.00     0.002 C 
BRANCH  14  15
HETATM   15  C11 UNL     1      -0.770  33.898 102.992  1.00  0.00     0.020 C 
BRANCH  15  16
HETATM   16  C12 UNL     1       0.397  33.314 103.714  1.00  0.00     0.122 C 
BRANCH  16  17
HETATM   17  N2  UNL     1       1.429  34.252 104.039  1.00  0.00    -0.366 N 
ATOM     18  H2  UNL     1       1.561  34.467 105.028  1.00  0.00     0.161 HD
BRANCH  17  19
HETATM   19  C13 UNL     1       2.274  34.903 103.137  1.00  0.00     0.185 C 
HETATM   20  S1  UNL     1       2.365  36.525 103.128  1.00  0.00    -0.040 SA
BRANCH  19  21
HETATM   21  N3  UNL     1       3.056  34.179 102.215  1.00  0.00    -0.283 N 
ATOM     22  H3  UNL     1       2.970  33.164 102.186  1.00  0.00     0.188 HD
BRANCH  21  23
HETATM   23  N4  UNL     1       3.943  34.806 101.340  1.00  0.00    -0.343 N 
ATOM     24  H42 UNL     1       3.553  35.411 100.618  1.00  0.00     0.176 HD
ATOM     25  H41 UNL     1       4.952  34.676 101.405  1.00  0.00     0.176 HD
ENDBRANCH  21  23
ENDBRANCH  19  21
ENDBRANCH  17  19
ENDBRANCH  16  17
ENDBRANCH  15  16
ENDBRANCH  14  15
ENDBRANCH   1  14
TORSDOF 10
ENDMDL
MODEL 2
REMARK VINA RESULT: -7.187317881      1.447      1.616
REMARK  10 active torsions:
REMARK  status: ('A' for Active; 'I' for Inactive)
REMARK    1  A    between atoms: C2_2  and  O1_4 
REMARK    2  A    between atoms: O1_4  and  C3_5 
REMARK    3  A    between atoms: C8_12  and  C9_13 
REMARK    4  A    between atoms: C9_13  and  C10_14 
REMARK    5  A    between atoms: C10_14  and  C11_15 
REMARK    6  A    between atoms: C11_15  and  C12_16 
REMARK    7  A    between atoms: C12_16  and  N2_17 
REMARK    8  A    between atoms: N2_17  and  C13_19 
REMARK    9  A    between atoms: C13_19  and  N3_21 
REMARK   10  A    between atoms: N3_21  and  N4_23 
ROOT
HETATM    1  C9  UNL     1      -3.448  35.427 102.920  1.00  0.00     0.017 C 
ENDROOT
BRANCH   1   2
HETATM    2  C8  UNL     1      -3.695  35.198 101.479  1.00  0.00     0.107 C 
HETATM    3  C3  UNL     1      -2.838  36.135 100.597  1.00  0.00     0.139 C 
HETATM    4  C4  UNL     1      -2.855  35.439  99.235  1.00  0.00     0.053 C 
HETATM    5  C5  UNL     1      -4.211  35.634  98.635  1.00  0.00     0.128 C 
HETATM    6  N1  UNL     1      -5.273  35.434  99.565  1.00  0.00    -0.356 N 
HETATM    7  C6  UNL     1      -6.610  35.216  99.053  1.00  0.00     0.152 C 
HETATM    8  C7  UNL     1      -5.068  35.447 100.996  1.00  0.00     0.226 C 
HETATM    9  O2  UNL     1      -6.077  35.671 101.676  1.00  0.00    -0.273 OA
BRANCH   3  10
HETATM   10  O1  UNL     1      -1.568  36.310 101.071  1.00  0.00    -0.351 OA
BRANCH  10  11
HETATM   11  C2  UNL     1      -1.177  37.625 100.852  1.00  0.00     0.303 C 
HETATM   12  C1  UNL     1      -1.647  38.587 101.915  1.00  0.00     0.076 C 
HETATM   13  F1  UNL     1       0.231  37.573 100.860  1.00  0.00    -0.220 F 
ENDBRANCH  10  11
ENDBRANCH   3  10
ENDBRANCH   1   2
BRANCH   1  14
HETATM   14  C10 UNL     1      -3.166  34.163 103.640  1.00  0.00     0.002 C 
BRANCH  14  15
HETATM   15  C11 UNL     1      -1.793  34.115 104.286  1.00  0.00     0.020 C 
BRANCH  15  16
HETATM   16  C12 UNL     1      -0.683  33.895 103.315  1.00  0.00     0.122 C 
BRANCH  16  17
HETATM   17  N2  UNL     1       0.278  34.955 103.257  1.00  0.00    -0.366 N 
ATOM     18  H2  UNL     1      -0.084  35.907 103.315  1.00  0.00     0.161 HD
BRANCH  17  19
HETATM   19  C13 UNL     1       1.662  34.815 103.128  1.00  0.00     0.185 C 
HETATM   20  S1  UNL     1       2.363  34.946 101.669  1.00  0.00    -0.040 SA
BRANCH  19  21
HETATM   21  N3  UNL     1       2.477  34.552 104.247  1.00  0.00    -0.283 N 
ATOM     22  H3  UNL     1       2.760  35.328 104.844  1.00  0.00     0.188 HD
BRANCH  21  23
HETATM   23  N4  UNL     1       2.909  33.265 104.564  1.00  0.00    -0.343 N 
ATOM     24  H42 UNL     1       2.272  32.490 104.385  1.00  0.00     0.176 HD
ATOM     25  H41 UNL     1       3.831  33.084 104.963  1.00  0.00     0.176 HD
ENDBRANCH  21  23
ENDBRANCH  19  21
ENDBRANCH  17  19
ENDBRANCH  16  17
ENDBRANCH  15  16
ENDBRANCH  14  15
ENDBRANCH   1  14
TORSDOF 10
ENDMDL
MODEL 3
REMARK VINA RESULT: -6.996626743      2.145      2.379
REMARK  10 active torsions:
REMARK  status: ('A' for Active; 'I' for Inactive)
REMARK    1  A    between atoms: C2_2  and  O1_4 
REMARK    2  A    between atoms: O1_4  and  C3_5 
REMARK    3  A    between atoms: C8_12  and  C9_13 
REMARK    4  A    between atoms: C9_13  and  C10_14 
REMARK    5  A    between atoms: C10_14  and  C11_15 
REMARK    6  A    between atoms: C11_15  and  C12_16 
REMARK    7  A    between atoms: C12_16  and  N2_17 
REMARK    8  A    between atoms: N2_17  and  C13_19 
REMARK    9  A    between atoms: C13_19  and  N3_21 
REMARK   10  A    between atoms: N3_21  and  N4_23 
ROOT
HETATM    1  C9  UNL     1      -3.120  35.604 102.257  1.00  0.00     0.017 C 
ENDROOT
BRANCH   1   2
HETATM    2  C8  UNL     1      -3.711  35.210 100.959  1.00  0.00     0.107 C 
HETATM    3  C3  UNL     1      -3.136  36.047  99.793  1.00  0.00     0.139 C 
HETATM    4  C4  UNL     1      -3.469  35.200  98.563  1.00  0.00     0.053 C 
HETATM    5  C5  UNL     1      -4.937  35.316  98.307  1.00  0.00     0.128 C 
HETATM    6  N1  UNL     1      -5.726  35.216  99.492  1.00  0.00    -0.356 N 
HETATM    7  C6  UNL     1      -7.139  34.931  99.361  1.00  0.00     0.152 C 
HETATM    8  C7  UNL     1      -5.170  35.393 100.814  1.00  0.00     0.226 C 
HETATM    9  O2  UNL     1      -5.984  35.686 101.698  1.00  0.00    -0.273 OA
BRANCH   3  10
HETATM   10  O1  UNL     1      -1.795  36.283  99.909  1.00  0.00    -0.351 OA
BRANCH  10  11
HETATM   11  C2  UNL     1      -1.098  35.321  99.188  1.00  0.00     0.303 C 
HETATM   12  C1  UNL     1       0.051  35.876  98.382  1.00  0.00     0.076 C 
HETATM   13  F1  UNL     1      -0.598  34.446 100.172  1.00  0.00    -0.220 F 
ENDBRANCH  10  11
ENDBRANCH   3  10
ENDBRANCH   1   2
BRANCH   1  14
HETATM   14  C10 UNL     1      -3.171  34.499 103.245  1.00  0.00     0.002 C 
BRANCH  14  15
HETATM   15  C11 UNL     1      -1.928  34.388 104.109  1.00  0.00     0.020 C 
BRANCH  15  16
HETATM   16  C12 UNL     1      -0.704  34.003 103.349  1.00  0.00     0.122 C 
BRANCH  16  17
HETATM   17  N2  UNL     1       0.306  35.017 103.291  1.00  0.00    -0.366 N 
ATOM     18  H2  UNL     1      -0.012  35.986 103.328  1.00  0.00     0.161 HD
BRANCH  17  19
HETATM   19  C13 UNL     1       1.684  34.811 103.189  1.00  0.00     0.185 C 
HETATM   20  S1  UNL     1       2.418  34.905 101.743  1.00  0.00    -0.040 SA
BRANCH  19  21
HETATM   21  N3  UNL     1       2.465  34.512 104.323  1.00  0.00    -0.283 N 
ATOM     22  H3  UNL     1       2.686  35.259 104.981  1.00  0.00     0.188 HD
BRANCH  21  23
HETATM   23  N4  UNL     1       2.945  33.228 104.576  1.00  0.00    -0.343 N 
ATOM     24  H42 UNL     1       2.325  32.570 105.048  1.00  0.00     0.176 HD
ATOM     25  H41 UNL     1       3.885  32.936 104.305  1.00  0.00     0.176 HD
ENDBRANCH  21  23
ENDBRANCH  19  21
ENDBRANCH  17  19
ENDBRANCH  16  17
ENDBRANCH  15  16
ENDBRANCH  14  15
ENDBRANCH   1  14
TORSDOF 10
ENDMDL
MODEL 4
REMARK VINA RESULT: -6.948677169      2.193      3.759
REMARK  10 active torsions:
REMARK  status: ('A' for Active; 'I' for Inactive)
REMARK    1  A    between atoms: C2_2  and  O1_4 
REMARK    2  A    between atoms: O1_4  and  C3_5 
REMARK    3  A    between atoms: C8_12  and  C9_13 
REMARK    4  A    between atoms: C9_13  and  C10_14 
REMARK    5  A    between atoms: C10_14  and  C11_15 
REMARK    6  A    between atoms: C11_15  and  C12_16 
REMARK    7  A    between atoms: C12_16  and  N2_17 
REMARK    8  A    between atoms: N2_17  and  C13_19 
REMARK    9  A    between atoms: C13_19  and  N3_21 
REMARK   10  A    between atoms: N3_21  and  N4_23 
ROOT
HETATM    1  C9  UNL     1      -0.658  36.945 101.607  1.00  0.00     0.017 C 
ENDROOT
BRANCH   1   2
HETATM    2  C8  UNL     1      -1.293  36.621 100.310  1.00  0.00     0.107 C 
HETATM    3  C3  UNL     1      -2.565  35.762 100.497  1.00  0.00     0.139 C 
HETATM    4  C4  UNL     1      -3.307  35.953  99.173  1.00  0.00     0.053 C 
HETATM    5  C5  UNL     1      -2.583  35.174  98.122  1.00  0.00     0.128 C 
HETATM    6  N1  UNL     1      -1.166  35.322  98.187  1.00  0.00    -0.356 N 
HETATM    7  C6  UNL     1      -0.376  34.948  97.033  1.00  0.00     0.152 C 
HETATM    8  C7  UNL     1      -0.489  35.824  99.362  1.00  0.00     0.226 C 
HETATM    9  O2  UNL     1       0.709  35.529  99.452  1.00  0.00    -0.273 OA
BRANCH   3  10
HETATM   10  O1  UNL     1      -3.320  36.144 101.570  1.00  0.00    -0.351 OA
BRANCH  10  11
HETATM   11  C2  UNL     1      -4.001  35.037 102.065  1.00  0.00     0.303 C 
HETATM   12  C1  UNL     1      -3.571  34.627 103.453  1.00  0.00     0.076 C 
HETATM   13  F1  UNL     1      -5.349  35.446 102.096  1.00  0.00    -0.220 F 
ENDBRANCH  10  11
ENDBRANCH   3  10
ENDBRANCH   1   2
BRANCH   1  14
HETATM   14  C10 UNL     1       0.139  38.193 101.536  1.00  0.00     0.002 C 
BRANCH  14  15
HETATM   15  C11 UNL     1       1.549  38.056 102.079  1.00  0.00     0.020 C 
BRANCH  15  16
HETATM   16  C12 UNL     1       1.641  37.198 103.295  1.00  0.00     0.122 C 
BRANCH  16  17
HETATM   17  N2  UNL     1       2.578  36.120 103.196  1.00  0.00    -0.366 N 
ATOM     18  H2  UNL     1       3.416  36.184 103.774  1.00  0.00     0.161 HD
BRANCH  17  19
HETATM   19  C13 UNL     1       2.460  34.988 102.385  1.00  0.00     0.185 C 
HETATM   20  S1  UNL     1       1.547  33.733 102.864  1.00  0.00    -0.040 SA
BRANCH  19  21
HETATM   21  N3  UNL     1       3.129  34.902 101.148  1.00  0.00    -0.283 N 
ATOM     22  H3  UNL     1       2.605  35.079 100.291  1.00  0.00     0.188 HD
BRANCH  21  23
HETATM   23  N4  UNL     1       4.483  34.584 101.056  1.00  0.00    -0.343 N 
ATOM     24  H42 UNL     1       5.072  34.764 101.869  1.00  0.00     0.176 HD
ATOM     25  H41 UNL     1       4.891  34.182 100.211  1.00  0.00     0.176 HD
ENDBRANCH  21  23
ENDBRANCH  19  21
ENDBRANCH  17  19
ENDBRANCH  16  17
ENDBRANCH  15  16
ENDBRANCH  14  15
ENDBRANCH   1  14
TORSDOF 10
ENDMDL
MODEL 5
REMARK VINA RESULT: -6.919325779      2.010      2.326
REMARK  10 active torsions:
REMARK  status: ('A' for Active; 'I' for Inactive)
REMARK    1  A    between atoms: C2_2  and  O1_4 
REMARK    2  A    between atoms: O1_4  and  C3_5 
REMARK    3  A    between atoms: C8_12  and  C9_13 
REMARK    4  A    between atoms: C9_13  and  C10_14 
REMARK    5  A    between atoms: C10_14  and  C11_15 
REMARK    6  A    between atoms: C11_15  and  C12_16 
REMARK    7  A    between atoms: C12_16  and  N2_17 
REMARK    8  A    between atoms: N2_17  and  C13_19 
REMARK    9  A    between atoms: C13_19  and  N3_21 
REMARK   10  A    between atoms: N3_21  and  N4_23 
ROOT
HETATM    1  C9  UNL     1      -2.901  35.646 102.136  1.00  0.00     0.017 C 
ENDROOT
BRANCH   1   2
HETATM    2  C8  UNL     1      -3.546  35.207 100.880  1.00  0.00     0.107 C 
HETATM    3  C3  UNL     1      -3.024  36.003  99.661  1.00  0.00     0.139 C 
HETATM    4  C4  UNL     1      -3.407  35.113  98.477  1.00  0.00     0.053 C 
HETATM    5  C5  UNL     1      -4.885  35.218  98.281  1.00  0.00     0.128 C 
HETATM    6  N1  UNL     1      -5.621  35.159  99.501  1.00  0.00    -0.356 N 
HETATM    7  C6  UNL     1      -7.039  34.868  99.441  1.00  0.00     0.152 C 
HETATM    8  C7  UNL     1      -5.010  35.383 100.791  1.00  0.00     0.226 C 
HETATM    9  O2  UNL     1      -5.786  35.706 101.699  1.00  0.00    -0.273 OA
BRANCH   3  10
HETATM   10  O1  UNL     1      -1.679  36.244  99.711  1.00  0.00    -0.351 OA
BRANCH  10  11
HETATM   11  C2  UNL     1      -1.014  35.278  98.965  1.00  0.00     0.303 C 
HETATM   12  C1  UNL     1       0.086  35.832  98.093  1.00  0.00     0.076 C 
HETATM   13  F1  UNL     1      -0.457  34.418  99.931  1.00  0.00    -0.220 F 
ENDBRANCH  10  11
ENDBRANCH   3  10
ENDBRANCH   1   2
BRANCH   1  14
HETATM   14  C10 UNL     1      -2.586  34.503 103.026  1.00  0.00     0.002 C 
BRANCH  14  15
HETATM   15  C11 UNL     1      -1.101  34.270 103.229  1.00  0.00     0.020 C 
BRANCH  15  16
HETATM   16  C12 UNL     1      -0.260  35.459 102.909  1.00  0.00     0.122 C 
BRANCH  16  17
HETATM   17  N2  UNL     1       1.116  35.336 103.287  1.00  0.00    -0.366 N 
ATOM     18  H2  UNL     1       1.434  35.916 104.063  1.00  0.00     0.161 HD
BRANCH  17  19
HETATM   19  C13 UNL     1       2.067  34.501 102.696  1.00  0.00     0.185 C 
HETATM   20  S1  UNL     1       2.526  33.132 103.440  1.00  0.00    -0.040 SA
BRANCH  19  21
HETATM   21  N3  UNL     1       2.655  34.825 101.457  1.00  0.00    -0.283 N 
ATOM     22  H3  UNL     1       2.070  35.218 100.721  1.00  0.00     0.188 HD
BRANCH  21  23
HETATM   23  N4  UNL     1       4.012  34.623 101.203  1.00  0.00    -0.343 N 
ATOM     24  H42 UNL     1       4.283  33.782 100.695  1.00  0.00     0.176 HD
ATOM     25  H41 UNL     1       4.725  35.285 101.510  1.00  0.00     0.176 HD
ENDBRANCH  21  23
ENDBRANCH  19  21
ENDBRANCH  17  19
ENDBRANCH  16  17
ENDBRANCH  15  16
ENDBRANCH  14  15
ENDBRANCH   1  14
TORSDOF 10
ENDMDL
