MODEL 1
REMARK VINA RESULT: -9.208248576      0.000      0.000
REMARK  11 active torsions:
REMARK  status: ('A' for Active; 'I' for Inactive)
REMARK    1  A    between atoms: N1_1  and  C1_5 
REMARK    2  A    between atoms: C1_5  and  C2_6 
REMARK    3  A    between atoms: C1_5  and  C4_10 
REMARK    4  A    between atoms: C2_6  and  C3_7 
REMARK    5  A    between atoms: C3_7  and  O1_8 
REMARK    6  A    between atoms: C4_10  and  O2_11 
REMARK    7  A    between atoms: C4_10  and  C5_13 
REMARK    8  A    between atoms: C7_17  and  C8_18 
REMARK    9  A    between atoms: C9_23  and  C10_24 
REMARK   10  A    between atoms: C12_26  and  O3_27 
REMARK   11  A    between atoms: N5_30  and  N6_31 
ROOT
HETATM    1  C8  UNL     1      11.931  28.601  16.966  1.00  0.00     0.209 A 
HETATM    2  N3  UNL     1      12.322  27.624  17.797  1.00  0.00    -0.275 N 
ATOM      3  H3  UNL     1      13.224  27.148  17.766  1.00  0.00     0.189 HD
HETATM    4  N4  UNL     1      11.340  27.372  18.675  1.00  0.00    -0.276 N 
ATOM      5  H4  UNL     1      11.350  26.681  19.425  1.00  0.00     0.189 HD
HETATM    6  C9  UNL     1      10.343  28.211  18.368  1.00  0.00     0.194 A 
HETATM    7  O5  UNL     1      10.730  28.928  17.344  1.00  0.00    -0.268 OA
ENDROOT
BRANCH   1   8
HETATM    8  C7  UNL     1      12.677  29.206  15.847  1.00  0.00     0.159 A 
HETATM    9  N2  UNL     1      13.016  28.622  14.694  1.00  0.00    -0.347 N 
HETATM   10  C6  UNL     1      13.682  29.518  13.960  1.00  0.00     0.117 A 
ATOM     11  H2  UNL     1      12.805  27.662  14.422  1.00  0.00     0.167 HD
HETATM   12  C5  UNL     1      13.777  30.707  14.652  1.00  0.00     0.057 A 
HETATM   13  N10 UNL     1      13.143  30.466  15.809  1.00  0.00    -0.339 N 
ATOM     14  H10 UNL     1      13.030  31.147  16.559  1.00  0.00     0.167 HD
BRANCH  12  15
HETATM   15  C4  UNL     1      14.436  31.956  14.198  1.00  0.00     0.199 C 
BRANCH  15  16
HETATM   16  C1  UNL     1      13.723  32.498  12.979  1.00  0.00     0.220 C 
BRANCH  16  17
HETATM   17  N1  UNL     1      14.289  33.776  12.601  1.00  0.00    -0.072 N 
ATOM     18  H13 UNL     1      13.578  34.449  12.312  1.00  0.00     0.274 HD
ATOM     19  H12 UNL     1      14.654  34.294  13.401  1.00  0.00     0.274 HD
ATOM     20  H11 UNL     1      14.994  33.619  11.882  1.00  0.00     0.274 HD
ENDBRANCH  16  17
BRANCH  16  21
HETATM   21  C2  UNL     1      12.259  32.674  13.200  1.00  0.00     0.062 C 
BRANCH  21  22
HETATM   22  C3  UNL     1      11.872  34.120  13.435  1.00  0.00     0.166 C 
BRANCH  22  23
HETATM   23  O1  UNL     1      11.956  34.456  14.784  1.00  0.00    -0.401 OA
ATOM     24  H1  UNL     1      11.331  35.134  15.012  1.00  0.00     0.209 HD
ENDBRANCH  22  23
ENDBRANCH  21  22
ENDBRANCH  16  21
ENDBRANCH  15  16
BRANCH  15  25
HETATM   25  O2  UNL     1      14.426  32.848  15.253  1.00  0.00    -0.387 OA
ATOM     26  H2  UNL     1      15.210  32.786  15.786  1.00  0.00     0.210 HD
ENDBRANCH  15  25
ENDBRANCH  12  15
ENDBRANCH   1   8
BRANCH   6  27
HETATM   27  C10 UNL     1       9.056  28.340  19.027  1.00  0.00     0.117 A 
HETATM   28  C11 UNL     1       7.947  27.739  18.661  1.00  0.00     0.065 A 
HETATM   29  C12 UNL     1       7.912  26.906  17.578  1.00  0.00     0.098 A 
HETATM   30  C15 UNL     1       6.765  27.918  19.346  1.00  0.00     0.135 A 
HETATM   31  C13 UNL     1       6.713  26.300  17.238  1.00  0.00     0.157 A 
HETATM   32  N5  UNL     1       5.567  26.471  17.900  1.00  0.00    -0.234 N 
HETATM   33  C14 UNL     1       5.590  27.290  18.969  1.00  0.00     0.294 A 
HETATM   34  O4  UNL     1       4.506  27.449  19.592  1.00  0.00    -0.264 OA
HETATM   35  N7  UNL     1       6.680  28.687  20.392  1.00  0.00    -0.280 N 
HETATM   36  N8  UNL     1       7.784  29.363  20.860  1.00  0.00    -0.242 N 
ATOM     37  H7  UNL     1       5.785  28.790  20.870  1.00  0.00     0.188 HD
HETATM   38  N9  UNL     1       8.989  29.200  20.186  1.00  0.00    -0.281 N 
ATOM     39  H8  UNL     1       7.721  29.967  21.681  1.00  0.00     0.208 HD
ATOM     40  H9  UNL     1       9.825  29.688  20.508  1.00  0.00     0.188 HD
BRANCH  29  41
HETATM   41  O3  UNL     1       9.040  26.661  16.826  1.00  0.00    -0.358 OA
ATOM     42  H3  UNL     1       9.625  25.942  17.032  1.00  0.00     0.217 HD
ENDBRANCH  29  41
BRANCH  32  43
HETATM   43  N6  UNL     1       4.373  25.839  17.523  1.00  0.00    -0.336 N 
ATOM     44  H62 UNL     1       4.315  25.343  16.634  1.00  0.00     0.177 HD
ATOM     45  H61 UNL     1       3.536  25.849  18.107  1.00  0.00     0.177 HD
ENDBRANCH  32  43
ENDBRANCH   6  27
TORSDOF 11
ENDMDL
MODEL 2
REMARK VINA RESULT: -9.130289261      2.096      2.477
REMARK  11 active torsions:
REMARK  status: ('A' for Active; 'I' for Inactive)
REMARK    1  A    between atoms: N1_1  and  C1_5 
REMARK    2  A    between atoms: C1_5  and  C2_6 
REMARK    3  A    between atoms: C1_5  and  C4_10 
REMARK    4  A    between atoms: C2_6  and  C3_7 
REMARK    5  A    between atoms: C3_7  and  O1_8 
REMARK    6  A    between atoms: C4_10  and  O2_11 
REMARK    7  A    between atoms: C4_10  and  C5_13 
REMARK    8  A    between atoms: C7_17  and  C8_18 
REMARK    9  A    between atoms: C9_23  and  C10_24 
REMARK   10  A    between atoms: C12_26  and  O3_27 
REMARK   11  A    between atoms: N5_30  and  N6_31 
ROOT
HETATM    1  C8  UNL     1      11.267  30.385  16.517  1.00  0.00     0.209 A 
HETATM    2  N3  UNL     1      11.923  29.293  16.934  1.00  0.00    -0.275 N 
ATOM      3  H3  UNL     1      12.859  29.016  16.637  1.00  0.00     0.189 HD
HETATM    4  N4  UNL     1      11.155  28.622  17.805  1.00  0.00    -0.276 N 
ATOM      5  H4  UNL     1      11.388  27.754  18.288  1.00  0.00     0.189 HD
HETATM    6  C9  UNL     1      10.019  29.322  17.914  1.00  0.00     0.194 A 
HETATM    7  O5  UNL     1      10.120  30.366  17.131  1.00  0.00    -0.268 OA
ENDROOT
BRANCH   1   8
HETATM    8  C7  UNL     1      11.716  31.416  15.562  1.00  0.00     0.159 A 
HETATM    9  N2  UNL     1      11.835  32.727  15.787  1.00  0.00    -0.347 N 
HETATM   10  C6  UNL     1      12.272  33.300  14.661  1.00  0.00     0.117 A 
ATOM     11  H2  UNL     1      11.630  33.207  16.664  1.00  0.00     0.167 HD
HETATM   12  C5  UNL     1      12.437  32.339  13.686  1.00  0.00     0.057 A 
HETATM   13  N10 UNL     1      12.082  31.194  14.288  1.00  0.00    -0.339 N 
ATOM     14  H10 UNL     1      12.089  30.279  13.839  1.00  0.00     0.167 HD
BRANCH  12  15
HETATM   15  C4  UNL     1      12.904  32.549  12.294  1.00  0.00     0.199 C 
BRANCH  15  16
HETATM   16  C1  UNL     1      12.638  31.309  11.471  1.00  0.00     0.220 C 
BRANCH  16  17
HETATM   17  N1  UNL     1      13.800  30.986  10.670  1.00  0.00    -0.072 N 
ATOM     18  H13 UNL     1      13.553  30.575   9.770  1.00  0.00     0.274 HD
ATOM     19  H12 UNL     1      14.275  31.818  10.318  1.00  0.00     0.274 HD
ATOM     20  H11 UNL     1      14.415  30.387  11.219  1.00  0.00     0.274 HD
ENDBRANCH  16  17
BRANCH  16  21
HETATM   21  C2  UNL     1      11.464  31.463  10.563  1.00  0.00     0.062 C 
BRANCH  21  22
HETATM   22  C3  UNL     1      11.862  31.568   9.105  1.00  0.00     0.166 C 
BRANCH  22  23
HETATM   23  O1  UNL     1      12.151  32.884   8.752  1.00  0.00    -0.401 OA
ATOM     24  H1  UNL     1      12.836  33.248   9.301  1.00  0.00     0.209 HD
ENDBRANCH  22  23
ENDBRANCH  21  22
ENDBRANCH  16  21
ENDBRANCH  15  16
BRANCH  15  25
HETATM   25  O2  UNL     1      12.256  33.662  11.793  1.00  0.00    -0.387 OA
ATOM     26  H2  UNL     1      12.817  34.429  11.773  1.00  0.00     0.210 HD
ENDBRANCH  15  25
ENDBRANCH  12  15
ENDBRANCH   1   8
BRANCH   6  27
HETATM   27  C10 UNL     1       8.865  29.019  18.741  1.00  0.00     0.117 A 
HETATM   28  C11 UNL     1       7.835  28.290  18.376  1.00  0.00     0.065 A 
HETATM   29  C12 UNL     1       7.762  27.731  17.131  1.00  0.00     0.098 A 
HETATM   30  C15 UNL     1       6.778  28.051  19.227  1.00  0.00     0.135 A 
HETATM   31  C13 UNL     1       6.651  26.972  16.801  1.00  0.00     0.157 A 
HETATM   32  N5  UNL     1       5.625  26.739  17.624  1.00  0.00    -0.234 N 
HETATM   33  C14 UNL     1       5.687  27.283  18.854  1.00  0.00     0.294 A 
HETATM   34  O4  UNL     1       4.718  27.061  19.628  1.00  0.00    -0.264 OA
HETATM   35  N7  UNL     1       6.740  28.530  20.436  1.00  0.00    -0.280 N 
HETATM   36  N8  UNL     1       7.770  29.307  20.918  1.00  0.00    -0.242 N 
ATOM     37  H7  UNL     1       5.939  28.327  21.033  1.00  0.00     0.188 HD
HETATM   38  N9  UNL     1       8.848  29.564  20.078  1.00  0.00    -0.281 N 
ATOM     39  H8  UNL     1       7.742  29.684  21.866  1.00  0.00     0.208 HD
ATOM     40  H9  UNL     1       9.626  30.136  20.406  1.00  0.00     0.188 HD
BRANCH  29  41
HETATM   41  O3  UNL     1       8.767  27.911  16.205  1.00  0.00    -0.358 OA
ATOM     42  H3  UNL     1       9.188  27.172  15.783  1.00  0.00     0.217 HD
ENDBRANCH  29  41
BRANCH  32  43
HETATM   43  N6  UNL     1       4.517  25.964  17.252  1.00  0.00    -0.336 N 
ATOM     44  H62 UNL     1       3.718  26.400  16.792  1.00  0.00     0.177 HD
ATOM     45  H61 UNL     1       4.466  24.959  17.421  1.00  0.00     0.177 HD
ENDBRANCH  32  43
ENDBRANCH   6  27
TORSDOF 11
ENDMDL
MODEL 3
REMARK VINA RESULT: -9.119837828      1.557      1.865
REMARK  11 active torsions:
REMARK  status: ('A' for Active; 'I' for Inactive)
REMARK    1  A    between atoms: N1_1  and  C1_5 
REMARK    2  A    between atoms: C1_5  and  C2_6 
REMARK    3  A    between atoms: C1_5  and  C4_10 
REMARK    4  A    between atoms: C2_6  and  C3_7 
REMARK    5  A    between atoms: C3_7  and  O1_8 
REMARK    6  A    between atoms: C4_10  and  O2_11 
REMARK    7  A    between atoms: C4_10  and  C5_13 
REMARK    8  A    between atoms: C7_17  and  C8_18 
REMARK    9  A    between atoms: C9_23  and  C10_24 
REMARK   10  A    between atoms: C12_26  and  O3_27 
REMARK   11  A    between atoms: N5_30  and  N6_31 
ROOT
HETATM    1  C8  UNL     1      11.656  29.615  16.736  1.00  0.00     0.209 A 
HETATM    2  N3  UNL     1      12.129  28.470  17.247  1.00  0.00    -0.275 N 
ATOM      3  H3  UNL     1      13.033  28.051  17.024  1.00  0.00     0.189 HD
HETATM    4  N4  UNL     1      11.226  27.960  18.099  1.00  0.00    -0.276 N 
ATOM      5  H4  UNL     1      11.309  27.097  18.636  1.00  0.00     0.189 HD
HETATM    6  C9  UNL     1      10.195  28.813  18.101  1.00  0.00     0.194 A 
HETATM    7  O5  UNL     1      10.485  29.788  17.276  1.00  0.00    -0.268 OA
ENDROOT
BRANCH   1   8
HETATM    8  C7  UNL     1      12.298  30.520  15.764  1.00  0.00     0.159 A 
HETATM    9  N2  UNL     1      13.413  30.292  15.064  1.00  0.00    -0.347 N 
HETATM   10  C6  UNL     1      13.645  31.365  14.301  1.00  0.00     0.117 A 
ATOM     11  H2  UNL     1      13.986  29.449  15.105  1.00  0.00     0.167 HD
HETATM   12  C5  UNL     1      12.661  32.306  14.512  1.00  0.00     0.057 A 
HETATM   13  N10 UNL     1      11.853  31.741  15.421  1.00  0.00    -0.339 N 
ATOM     14  H10 UNL     1      11.015  32.179  15.802  1.00  0.00     0.167 HD
BRANCH  12  15
HETATM   15  C4  UNL     1      12.543  33.637  13.867  1.00  0.00     0.199 C 
BRANCH  15  16
HETATM   16  C1  UNL     1      11.773  33.512  12.571  1.00  0.00     0.220 C 
BRANCH  16  17
HETATM   17  N1  UNL     1      10.795  32.450  12.676  1.00  0.00    -0.072 N 
ATOM     18  H13 UNL     1      10.946  31.710  11.990  1.00  0.00     0.274 HD
ATOM     19  H12 UNL     1      10.918  31.887  13.518  1.00  0.00     0.274 HD
ATOM     20  H11 UNL     1       9.864  32.859  12.611  1.00  0.00     0.274 HD
ENDBRANCH  16  17
BRANCH  16  21
HETATM   21  C2  UNL     1      12.656  33.231  11.402  1.00  0.00     0.062 C 
BRANCH  21  22
HETATM   22  C3  UNL     1      12.393  31.873  10.785  1.00  0.00     0.166 C 
BRANCH  22  23
HETATM   23  O1  UNL     1      11.520  31.967   9.703  1.00  0.00    -0.401 OA
ATOM     24  H1  UNL     1      11.043  31.156   9.571  1.00  0.00     0.209 HD
ENDBRANCH  22  23
ENDBRANCH  21  22
ENDBRANCH  16  21
ENDBRANCH  15  16
BRANCH  15  25
HETATM   25  O2  UNL     1      11.930  34.490  14.764  1.00  0.00    -0.387 OA
ATOM     26  H2  UNL     1      12.480  35.230  14.994  1.00  0.00     0.210 HD
ENDBRANCH  15  25
ENDBRANCH  12  15
ENDBRANCH   1   8
BRANCH   6  27
HETATM   27  C10 UNL     1       8.965  28.717  18.865  1.00  0.00     0.117 A 
HETATM   28  C11 UNL     1       7.891  28.052  18.505  1.00  0.00     0.065 A 
HETATM   29  C12 UNL     1       7.842  27.365  17.324  1.00  0.00     0.098 A 
HETATM   30  C15 UNL     1       6.763  28.014  19.294  1.00  0.00     0.135 A 
HETATM   31  C13 UNL     1       6.682  26.682  16.996  1.00  0.00     0.157 A 
HETATM   32  N5  UNL     1       5.587  26.643  17.759  1.00  0.00    -0.234 N 
HETATM   33  C14 UNL     1       5.625  27.316  18.924  1.00  0.00     0.294 A 
HETATM   34  O4  UNL     1       4.590  27.277  19.642  1.00  0.00    -0.264 OA
HETATM   35  N7  UNL     1       6.696  28.629  20.438  1.00  0.00    -0.280 N 
HETATM   36  N8  UNL     1       7.767  29.355  20.911  1.00  0.00    -0.242 N 
ATOM     37  H7  UNL     1       5.842  28.573  20.991  1.00  0.00     0.188 HD
HETATM   38  N9  UNL     1       8.918  29.411  20.132  1.00  0.00    -0.281 N 
ATOM     39  H8  UNL     1       7.718  29.839  21.808  1.00  0.00     0.208 HD
ATOM     40  H9  UNL     1       9.727  29.940  20.454  1.00  0.00     0.188 HD
BRANCH  29  41
HETATM   41  O3  UNL     1       8.917  27.342  16.463  1.00  0.00    -0.358 OA
ATOM     42  H3  UNL     1       9.067  28.044  15.841  1.00  0.00     0.217 HD
ENDBRANCH  29  41
BRANCH  32  43
HETATM   43  N6  UNL     1       4.432  25.939  17.389  1.00  0.00    -0.336 N 
ATOM     44  H62 UNL     1       4.504  24.982  17.044  1.00  0.00     0.177 HD
ATOM     45  H61 UNL     1       3.497  26.345  17.448  1.00  0.00     0.177 HD
ENDBRANCH  32  43
ENDBRANCH   6  27
TORSDOF 11
ENDMDL
MODEL 4
REMARK VINA RESULT: -9.107566998      2.143      2.542
REMARK  11 active torsions:
REMARK  status: ('A' for Active; 'I' for Inactive)
REMARK    1  A    between atoms: N1_1  and  C1_5 
REMARK    2  A    between atoms: C1_5  and  C2_6 
REMARK    3  A    between atoms: C1_5  and  C4_10 
REMARK    4  A    between atoms: C2_6  and  C3_7 
REMARK    5  A    between atoms: C3_7  and  O1_8 
REMARK    6  A    between atoms: C4_10  and  O2_11 
REMARK    7  A    between atoms: C4_10  and  C5_13 
REMARK    8  A    between atoms: C7_17  and  C8_18 
REMARK    9  A    between atoms: C9_23  and  C10_24 
REMARK   10  A    between atoms: C12_26  and  O3_27 
REMARK   11  A    between atoms: N5_30  and  N6_31 
ROOT
HETATM    1  C8  UNL     1      11.206  30.389  16.523  1.00  0.00     0.209 A 
HETATM    2  N3  UNL     1      11.879  29.311  16.950  1.00  0.00    -0.275 N 
ATOM      3  H3  UNL     1      12.817  29.043  16.651  1.00  0.00     0.189 HD
HETATM    4  N4  UNL     1      11.123  28.641  17.833  1.00  0.00    -0.276 N 
ATOM      5  H4  UNL     1      11.371  27.782  18.325  1.00  0.00     0.189 HD
HETATM    6  C9  UNL     1       9.979  29.328  17.939  1.00  0.00     0.194 A 
HETATM    7  O5  UNL     1      10.063  30.363  17.143  1.00  0.00    -0.268 OA
ENDROOT
BRANCH   1   8
HETATM    8  C7  UNL     1      11.637  31.414  15.553  1.00  0.00     0.159 A 
HETATM    9  N2  UNL     1      11.817  32.717  15.783  1.00  0.00    -0.347 N 
HETATM   10  C6  UNL     1      12.208  33.286  14.639  1.00  0.00     0.117 A 
ATOM     11  H2  UNL     1      11.680  33.194  16.674  1.00  0.00     0.167 HD
HETATM   12  C5  UNL     1      12.282  32.332  13.647  1.00  0.00     0.057 A 
HETATM   13  N10 UNL     1      11.921  31.193  14.258  1.00  0.00    -0.339 N 
ATOM     14  H10 UNL     1      11.868  30.283  13.801  1.00  0.00     0.167 HD
BRANCH  12  15
HETATM   15  C4  UNL     1      12.675  32.540  12.232  1.00  0.00     0.199 C 
BRANCH  15  16
HETATM   16  C1  UNL     1      12.006  31.506  11.355  1.00  0.00     0.220 C 
BRANCH  16  17
HETATM   17  N1  UNL     1      12.354  31.730   9.968  1.00  0.00    -0.072 N 
ATOM     18  H13 UNL     1      13.151  31.167   9.669  1.00  0.00     0.274 HD
ATOM     19  H12 UNL     1      11.662  31.347   9.324  1.00  0.00     0.274 HD
ATOM     20  H11 UNL     1      12.507  32.729   9.830  1.00  0.00     0.274 HD
ENDBRANCH  16  17
BRANCH  16  21
HETATM   21  C2  UNL     1      10.519  31.523  11.480  1.00  0.00     0.062 C 
BRANCH  21  22
HETATM   22  C3  UNL     1       9.835  30.666  10.434  1.00  0.00     0.166 C 
BRANCH  22  23
HETATM   23  O1  UNL     1       8.511  31.057  10.244  1.00  0.00    -0.401 OA
ATOM     24  H1  UNL     1       8.031  30.418   9.731  1.00  0.00     0.209 HD
ENDBRANCH  22  23
ENDBRANCH  21  22
ENDBRANCH  16  21
ENDBRANCH  15  16
BRANCH  15  25
HETATM   25  O2  UNL     1      12.328  33.831  11.882  1.00  0.00    -0.387 OA
ATOM     26  H2  UNL     1      12.694  34.089  11.043  1.00  0.00     0.210 HD
ENDBRANCH  15  25
ENDBRANCH  12  15
ENDBRANCH   1   8
BRANCH   6  27
HETATM   27  C10 UNL     1       8.834  29.019  18.775  1.00  0.00     0.117 A 
HETATM   28  C11 UNL     1       7.800  28.292  18.418  1.00  0.00     0.065 A 
HETATM   29  C12 UNL     1       7.716  27.739  17.170  1.00  0.00     0.098 A 
HETATM   30  C15 UNL     1       6.752  28.048  19.277  1.00  0.00     0.135 A 
HETATM   31  C13 UNL     1       6.602  26.981  16.848  1.00  0.00     0.157 A 
HETATM   32  N5  UNL     1       5.585  26.743  17.680  1.00  0.00    -0.234 N 
HETATM   33  C14 UNL     1       5.658  27.282  18.911  1.00  0.00     0.294 A 
HETATM   34  O4  UNL     1       4.696  27.055  19.694  1.00  0.00    -0.264 OA
HETATM   35  N7  UNL     1       6.725  28.521  20.489  1.00  0.00    -0.280 N 
HETATM   36  N8  UNL     1       7.759  29.297  20.965  1.00  0.00    -0.242 N 
ATOM     37  H7  UNL     1       5.930  28.315  21.093  1.00  0.00     0.188 HD
HETATM   38  N9  UNL     1       8.829  29.558  20.116  1.00  0.00    -0.281 N 
ATOM     39  H8  UNL     1       7.741  29.669  21.915  1.00  0.00     0.208 HD
ATOM     40  H9  UNL     1       9.609  30.129  20.439  1.00  0.00     0.188 HD
BRANCH  29  41
HETATM   41  O3  UNL     1       8.711  27.924  16.236  1.00  0.00    -0.358 OA
ATOM     42  H3  UNL     1       9.614  27.695  16.424  1.00  0.00     0.217 HD
ENDBRANCH  29  41
BRANCH  32  43
HETATM   43  N6  UNL     1       4.473  25.969  17.314  1.00  0.00    -0.336 N 
ATOM     44  H62 UNL     1       4.532  24.951  17.328  1.00  0.00     0.177 HD
ATOM     45  H61 UNL     1       3.586  26.381  17.027  1.00  0.00     0.177 HD
ENDBRANCH  32  43
ENDBRANCH   6  27
TORSDOF 11
ENDMDL
MODEL 5
REMARK VINA RESULT: -9.013462052      1.875      2.461
REMARK  11 active torsions:
REMARK  status: ('A' for Active; 'I' for Inactive)
REMARK    1  A    between atoms: N1_1  and  C1_5 
REMARK    2  A    between atoms: C1_5  and  C2_6 
REMARK    3  A    between atoms: C1_5  and  C4_10 
REMARK    4  A    between atoms: C2_6  and  C3_7 
REMARK    5  A    between atoms: C3_7  and  O1_8 
REMARK    6  A    between atoms: C4_10  and  O2_11 
REMARK    7  A    between atoms: C4_10  and  C5_13 
REMARK    8  A    between atoms: C7_17  and  C8_18 
REMARK    9  A    between atoms: C9_23  and  C10_24 
REMARK   10  A    between atoms: C12_26  and  O3_27 
REMARK   11  A    between atoms: N5_30  and  N6_31 
ROOT
HETATM    1  C8  UNL     1      11.352  30.382  16.647  1.00  0.00     0.209 A 
HETATM    2  N3  UNL     1      11.943  29.225  16.980  1.00  0.00    -0.275 N 
ATOM      3  H3  UNL     1      12.859  28.914  16.656  1.00  0.00     0.189 HD
HETATM    4  N4  UNL     1      11.138  28.542  17.808  1.00  0.00    -0.276 N 
ATOM      5  H4  UNL     1      11.320  27.629  18.226  1.00  0.00     0.189 HD
HETATM    6  C9  UNL     1      10.047  29.299  17.975  1.00  0.00     0.194 A 
HETATM    7  O5  UNL     1      10.209  30.388  17.268  1.00  0.00    -0.268 OA
ENDROOT
BRANCH   1   8
HETATM    8  C7  UNL     1      11.859  31.449  15.764  1.00  0.00     0.159 A 
HETATM    9  N2  UNL     1      11.222  32.566  15.400  1.00  0.00    -0.347 N 
HETATM   10  C6  UNL     1      12.034  33.259  14.596  1.00  0.00     0.117 A 
ATOM     11  H2  UNL     1      10.282  32.841  15.685  1.00  0.00     0.167 HD
HETATM   12  C5  UNL     1      13.221  32.576  14.435  1.00  0.00     0.057 A 
HETATM   13  N10 UNL     1      13.067  31.467  15.174  1.00  0.00    -0.339 N 
ATOM     14  H10 UNL     1      13.770  30.736  15.274  1.00  0.00     0.167 HD
BRANCH  12  15
HETATM   15  C4  UNL     1      14.391  32.994  13.624  1.00  0.00     0.199 C 
BRANCH  15  16
HETATM   16  C1  UNL     1      14.927  31.811  12.849  1.00  0.00     0.220 C 
BRANCH  16  17
HETATM   17  N1  UNL     1      16.303  31.557  13.222  1.00  0.00    -0.072 N 
ATOM     18  H13 UNL     1      16.400  31.289  14.201  1.00  0.00     0.274 HD
ATOM     19  H12 UNL     1      16.670  30.701  12.805  1.00  0.00     0.274 HD
ATOM     20  H11 UNL     1      16.860  32.378  12.983  1.00  0.00     0.274 HD
ENDBRANCH  16  17
BRANCH  16  21
HETATM   21  C2  UNL     1      14.865  32.015  11.373  1.00  0.00     0.062 C 
BRANCH  21  22
HETATM   22  C3  UNL     1      15.800  31.094  10.616  1.00  0.00     0.166 C 
BRANCH  22  23
HETATM   23  O1  UNL     1      17.004  31.728  10.315  1.00  0.00    -0.401 OA
ATOM     24  H1  UNL     1      17.585  31.155   9.829  1.00  0.00     0.209 HD
ENDBRANCH  22  23
ENDBRANCH  21  22
ENDBRANCH  16  21
ENDBRANCH  15  16
BRANCH  15  25
HETATM   25  O2  UNL     1      13.986  34.025  12.797  1.00  0.00    -0.387 OA
ATOM     26  H2  UNL     1      13.419  34.644  13.242  1.00  0.00     0.210 HD
ENDBRANCH  15  25
ENDBRANCH  12  15
ENDBRANCH   1   8
BRANCH   6  27
HETATM   27  C10 UNL     1       8.880  29.008  18.788  1.00  0.00     0.117 A 
HETATM   28  C11 UNL     1       7.847  28.289  18.411  1.00  0.00     0.065 A 
HETATM   29  C12 UNL     1       7.785  27.730  17.165  1.00  0.00     0.098 A 
HETATM   30  C15 UNL     1       6.778  28.061  19.249  1.00  0.00     0.135 A 
HETATM   31  C13 UNL     1       6.670  26.982  16.823  1.00  0.00     0.157 A 
HETATM   32  N5  UNL     1       5.632  26.760  17.633  1.00  0.00    -0.234 N 
HETATM   33  C14 UNL     1       5.684  27.304  18.863  1.00  0.00     0.294 A 
HETATM   34  O4  UNL     1       4.704  27.092  19.625  1.00  0.00    -0.264 OA
HETATM   35  N7  UNL     1       6.730  28.541  20.457  1.00  0.00    -0.280 N 
HETATM   36  N8  UNL     1       7.761  29.309  20.952  1.00  0.00    -0.242 N 
ATOM     37  H7  UNL     1       5.919  28.347  21.044  1.00  0.00     0.188 HD
HETATM   38  N9  UNL     1       8.852  29.554  20.125  1.00  0.00    -0.281 N 
ATOM     39  H8  UNL     1       7.726  29.687  21.899  1.00  0.00     0.208 HD
ATOM     40  H9  UNL     1       9.631  30.119  20.462  1.00  0.00     0.188 HD
BRANCH  29  41
HETATM   41  O3  UNL     1       8.802  27.900  16.252  1.00  0.00    -0.358 OA
ATOM     42  H3  UNL     1       9.707  27.984  16.530  1.00  0.00     0.217 HD
ENDBRANCH  29  41
BRANCH  32  43
HETATM   43  N6  UNL     1       4.521  25.995  17.247  1.00  0.00    -0.336 N 
ATOM     44  H62 UNL     1       3.986  26.251  16.418  1.00  0.00     0.177 HD
ATOM     45  H61 UNL     1       4.211  25.174  17.767  1.00  0.00     0.177 HD
ENDBRANCH  32  43
ENDBRANCH   6  27
TORSDOF 11
ENDMDL
