MODEL 1
REMARK VINA RESULT: -8.314997616      0.000      0.000
REMARK  10 active torsions:
REMARK  status: ('A' for Active; 'I' for Inactive)
REMARK    1  A    between atoms: O1_2  and  N1_3 
REMARK    2  A    between atoms: N1_3  and  N2_4 
REMARK       I    between atoms: N2_4  and  C2_6 
REMARK       I    between atoms: C2_6  and  N3_8 
REMARK    3  A    between atoms: N3_8  and  S1_10 
REMARK    4  A    between atoms: S1_10  and  C3_12 
REMARK    5  A    between atoms: N4_14  and  O4_16 
REMARK    6  A    between atoms: C5_20  and  C6_21 
REMARK    7  A    between atoms: C6_21  and  O6_23 
REMARK    8  A    between atoms: O6_23  and  C7_24 
REMARK    9  A    between atoms: C8_29  and  N8_30 
REMARK   10  A    between atoms: C9_35  and  N11_36 
ROOT
HETATM    1  C3  UNL     1      13.584  29.203  15.528  1.00  0.00     0.199 C 
HETATM    2  C4  UNL     1      14.223  29.954  16.632  1.00  0.00     0.118 C 
HETATM    3  N4  UNL     1      15.320  29.640  17.282  1.00  0.00    -0.256 N 
ATOM      4  H4  UNL     1      15.691  30.218  18.036  1.00  0.00     0.195 HD
HETATM    5  N5  UNL     1      13.402  31.120  16.844  1.00  0.00    -0.361 N 
ATOM      6  H5  UNL     1      13.245  31.593  17.733  1.00  0.00     0.161 HD
HETATM    7  C5  UNL     1      12.854  31.490  15.588  1.00  0.00     0.211 C 
HETATM    8  C8  UNL     1      12.864  30.259  14.724  1.00  0.00     0.186 C 
ENDROOT
BRANCH   1   9
HETATM    9  S1  UNL     1      12.495  27.952  16.131  1.00  0.00     0.132 S 
HETATM   10  O3  UNL     1      13.021  26.560  15.953  1.00  0.00    -0.234 OA
BRANCH   9  11
HETATM   11  N3  UNL     1      11.797  28.283  17.666  1.00  0.00    -0.256 N 
HETATM   12  C2  UNL     1      10.533  28.833  17.877  1.00  0.00     0.345 C 
HETATM   13  N2  UNL     1      10.035  29.066  19.177  1.00  0.00    -0.229 N 
HETATM   14  O2  UNL     1       9.822  29.122  16.879  1.00  0.00    -0.245 OA
ATOM     15  H2  UNL     1      10.635  28.825  19.966  1.00  0.00     0.189 HD
ATOM     16  H3  UNL     1      12.353  28.059  18.491  1.00  0.00     0.181 HD
BRANCH  13  17
HETATM   17  N1  UNL     1       8.786  29.599  19.456  1.00  0.00     0.025 NA
BRANCH  17  18
HETATM   18  O1  UNL     1       8.336  29.213  20.642  1.00  0.00    -0.272 OA
HETATM   19  C1  UNL     1       8.905  28.079  21.165  1.00  0.00     0.234 C 
ENDBRANCH  17  18
ENDBRANCH  13  17
ENDBRANCH   9  11
ENDBRANCH   1   9
BRANCH   8  20
HETATM   20  N8  UNL     1      13.548  30.533  13.472  1.00  0.00    -0.196 N 
HETATM   21  N9  UNL     1      14.546  31.381  13.309  1.00  0.00    -0.211 N 
HETATM   22  N10 UNL     1      14.932  31.390  12.052  1.00  0.00    -0.115 N 
ATOM     23  H9  UNL     1      14.957  31.946  14.050  1.00  0.00     0.210 HD
HETATM   24  C9  UNL     1      14.153  30.519  11.396  1.00  0.00     0.707 A 
ATOM     25  H10 UNL     1      15.682  31.954  11.653  1.00  0.00     0.207 HD
HETATM   26  N12 UNL     1      13.307  30.002  12.290  1.00  0.00    -0.113 N 
ATOM     27  H12 UNL     1      12.589  29.305  12.090  1.00  0.00     0.207 HD
BRANCH  24  28
HETATM   28  N11 UNL     1      14.216  30.232  10.111  1.00  0.00    -0.232 N 
ATOM     29 2H11 UNL     1      14.997  30.418   9.481  1.00  0.00     0.174 HD
ATOM     30 1H11 UNL     1      13.488  29.781   9.557  1.00  0.00     0.174 HD
ENDBRANCH  24  28
ENDBRANCH   8  20
BRANCH   3  31
HETATM   31  O4  UNL     1      15.943  28.468  16.875  1.00  0.00    -0.288 OA
ATOM     32  H4  UNL     1      15.430  27.675  16.976  1.00  0.00     0.244 HD
ENDBRANCH   3  31
BRANCH   7  33
HETATM   33  C6  UNL     1      11.492  32.071  15.633  1.00  0.00     0.291 C 
HETATM   34  O5  UNL     1      10.869  32.156  16.701  1.00  0.00    -0.262 OA
BRANCH  33  35
HETATM   35  O6  UNL     1      10.928  32.513  14.451  1.00  0.00    -0.247 OA
BRANCH  35  36
HETATM   36  C7  UNL     1      11.528  33.460  13.618  1.00  0.00     0.232 C 
HETATM   37  N6  UNL     1      11.742  34.626  13.927  1.00  0.00    -0.367 N 
ATOM     38  H62 UNL     1      11.459  34.918  14.862  1.00  0.00     0.159 HD
ATOM     39  H61 UNL     1      12.180  35.319  13.318  1.00  0.00     0.159 HD
HETATM   40  N7  UNL     1      11.932  33.045  12.283  1.00  0.00    -0.056 NA
ENDBRANCH  35  36
ENDBRANCH  33  35
ENDBRANCH   7  33
TORSDOF 10
ENDMDL
MODEL 2
REMARK VINA RESULT: -8.269782669      3.149      5.363
REMARK  10 active torsions:
REMARK  status: ('A' for Active; 'I' for Inactive)
REMARK    1  A    between atoms: O1_2  and  N1_3 
REMARK    2  A    between atoms: N1_3  and  N2_4 
REMARK       I    between atoms: N2_4  and  C2_6 
REMARK       I    between atoms: C2_6  and  N3_8 
REMARK    3  A    between atoms: N3_8  and  S1_10 
REMARK    4  A    between atoms: S1_10  and  C3_12 
REMARK    5  A    between atoms: N4_14  and  O4_16 
REMARK    6  A    between atoms: C5_20  and  C6_21 
REMARK    7  A    between atoms: C6_21  and  O6_23 
REMARK    8  A    between atoms: O6_23  and  C7_24 
REMARK    9  A    between atoms: C8_29  and  N8_30 
REMARK   10  A    between atoms: C9_35  and  N11_36 
ROOT
HETATM    1  C3  UNL     1      11.027  28.144  16.127  1.00  0.00     0.199 C 
HETATM    2  C4  UNL     1      11.631  27.414  17.266  1.00  0.00     0.118 C 
HETATM    3  N4  UNL     1      12.685  26.632  17.244  1.00  0.00    -0.256 N 
ATOM      4  H4  UNL     1      13.033  26.165  18.081  1.00  0.00     0.195 HD
HETATM    5  N5  UNL     1      10.833  27.751  18.418  1.00  0.00    -0.361 N 
ATOM      6  H5  UNL     1      10.644  27.146  19.218  1.00  0.00     0.161 HD
HETATM    7  C5  UNL     1      10.359  29.076  18.238  1.00  0.00     0.211 C 
HETATM    8  C8  UNL     1      10.378  29.352  16.759  1.00  0.00     0.186 C 
ENDROOT
BRANCH   1   9
HETATM    9  S1  UNL     1       9.875  27.142  15.243  1.00  0.00     0.132 S 
HETATM   10  O3  UNL     1      10.309  25.714  15.096  1.00  0.00    -0.234 OA
BRANCH   9  11
HETATM   11  N3  UNL     1       8.232  27.367  15.692  1.00  0.00    -0.256 N 
HETATM   12  C2  UNL     1       7.617  26.814  16.814  1.00  0.00     0.345 C 
HETATM   13  N2  UNL     1       6.259  27.058  17.111  1.00  0.00    -0.229 N 
HETATM   14  O2  UNL     1       8.298  26.082  17.580  1.00  0.00    -0.245 OA
ATOM     15  H2  UNL     1       5.732  27.652  16.471  1.00  0.00     0.189 HD
ATOM     16  H3  UNL     1       7.658  27.955  15.087  1.00  0.00     0.181 HD
BRANCH  13  17
HETATM   17  N1  UNL     1       5.592  26.547  18.214  1.00  0.00     0.025 NA
BRANCH  17  18
HETATM   18  O1  UNL     1       5.656  27.366  19.255  1.00  0.00    -0.272 OA
HETATM   19  C1  UNL     1       4.648  28.291  19.361  1.00  0.00     0.234 C 
ENDBRANCH  17  18
ENDBRANCH  13  17
ENDBRANCH   9  11
ENDBRANCH   1   9
BRANCH   8  20
HETATM   20  N8  UNL     1      11.130  30.565  16.487  1.00  0.00    -0.196 N 
HETATM   21  N9  UNL     1      12.232  30.942  17.106  1.00  0.00    -0.211 N 
HETATM   22  N10 UNL     1      12.657  32.087  16.620  1.00  0.00    -0.115 N 
ATOM     23  H9  UNL     1      12.689  30.421  17.854  1.00  0.00     0.210 HD
HETATM   24  C9  UNL     1      11.794  32.449  15.659  1.00  0.00     0.707 A 
ATOM     25  H10 UNL     1      13.485  32.603  16.917  1.00  0.00     0.207 HD
HETATM   26  N12 UNL     1      10.862  31.496  15.594  1.00  0.00    -0.113 N 
ATOM     27  H12 UNL     1      10.068  31.489  14.953  1.00  0.00     0.207 HD
BRANCH  24  28
HETATM   28  N11 UNL     1      11.861  33.540  14.922  1.00  0.00    -0.232 N 
ATOM     29 2H11 UNL     1      11.077  34.054  14.521  1.00  0.00     0.174 HD
ATOM     30 1H11 UNL     1      12.712  34.030  14.645  1.00  0.00     0.174 HD
ENDBRANCH  24  28
ENDBRANCH   8  20
BRANCH   3  31
HETATM   31  O4  UNL     1      13.295  26.482  16.007  1.00  0.00    -0.288 OA
ATOM     32  H4  UNL     1      14.244  26.456  16.017  1.00  0.00     0.244 HD
ENDBRANCH   3  31
BRANCH   7  33
HETATM   33  C6  UNL     1       9.012  29.352  18.791  1.00  0.00     0.291 C 
HETATM   34  O5  UNL     1       8.041  29.537  18.044  1.00  0.00    -0.262 OA
BRANCH  33  35
HETATM   35  O6  UNL     1       8.865  29.404  20.164  1.00  0.00    -0.247 OA
BRANCH  35  36
HETATM   36  C7  UNL     1       8.629  28.278  20.957  1.00  0.00     0.232 C 
HETATM   37  N6  UNL     1       8.124  27.235  20.557  1.00  0.00    -0.367 N 
ATOM     38  H62 UNL     1       7.861  27.196  19.573  1.00  0.00     0.159 HD
ATOM     39  H61 UNL     1       7.952  26.413  21.136  1.00  0.00     0.159 HD
HETATM   40  N7  UNL     1       9.004  28.334  22.362  1.00  0.00    -0.056 NA
ENDBRANCH  35  36
ENDBRANCH  33  35
ENDBRANCH   7  33
TORSDOF 10
ENDMDL
MODEL 3
REMARK VINA RESULT: -8.134379957      4.080      8.001
REMARK  10 active torsions:
REMARK  status: ('A' for Active; 'I' for Inactive)
REMARK    1  A    between atoms: O1_2  and  N1_3 
REMARK    2  A    between atoms: N1_3  and  N2_4 
REMARK       I    between atoms: N2_4  and  C2_6 
REMARK       I    between atoms: C2_6  and  N3_8 
REMARK    3  A    between atoms: N3_8  and  S1_10 
REMARK    4  A    between atoms: S1_10  and  C3_12 
REMARK    5  A    between atoms: N4_14  and  O4_16 
REMARK    6  A    between atoms: C5_20  and  C6_21 
REMARK    7  A    between atoms: C6_21  and  O6_23 
REMARK    8  A    between atoms: O6_23  and  C7_24 
REMARK    9  A    between atoms: C8_29  and  N8_30 
REMARK   10  A    between atoms: C9_35  and  N11_36 
ROOT
HETATM    1  C3  UNL     1      10.410  24.687  16.866  1.00  0.00     0.199 C 
HETATM    2  C4  UNL     1       9.003  25.133  16.980  1.00  0.00     0.118 C 
HETATM    3  N4  UNL     1       7.999  24.816  16.195  1.00  0.00    -0.256 N 
ATOM      4  H4  UNL     1       7.056  25.172  16.348  1.00  0.00     0.195 HD
HETATM    5  N5  UNL     1       8.949  25.978  18.146  1.00  0.00    -0.361 N 
ATOM      6  H5  UNL     1       8.335  26.781  18.280  1.00  0.00     0.161 HD
HETATM    7  C5  UNL     1       9.905  25.489  19.073  1.00  0.00     0.211 C 
HETATM    8  C8  UNL     1      10.929  24.719  18.284  1.00  0.00     0.186 C 
ENDROOT
BRANCH   1   9
HETATM    9  S1  UNL     1      11.340  25.723  15.782  1.00  0.00     0.132 S 
HETATM   10  O3  UNL     1      10.751  25.840  14.409  1.00  0.00    -0.234 OA
BRANCH   9  11
HETATM   11  N3  UNL     1      11.874  27.200  16.481  1.00  0.00    -0.256 N 
HETATM   12  C2  UNL     1      11.089  28.338  16.663  1.00  0.00     0.345 C 
HETATM   13  N2  UNL     1      11.609  29.509  17.254  1.00  0.00    -0.229 N 
HETATM   14  O2  UNL     1       9.886  28.311  16.294  1.00  0.00    -0.245 OA
ATOM     15  H2  UNL     1      12.588  29.503  17.540  1.00  0.00     0.189 HD
ATOM     16  H3  UNL     1      12.846  27.248  16.788  1.00  0.00     0.181 HD
BRANCH  13  17
HETATM   17  N1  UNL     1      10.882  30.669  17.472  1.00  0.00     0.025 NA
BRANCH  17  18
HETATM   18  O1  UNL     1      11.636  31.755  17.365  1.00  0.00    -0.272 OA
HETATM   19  C1  UNL     1      11.970  32.136  16.090  1.00  0.00     0.234 C 
ENDBRANCH  17  18
ENDBRANCH  13  17
ENDBRANCH   9  11
ENDBRANCH   1   9
BRANCH   8  20
HETATM   20  N8  UNL     1      11.075  23.379  18.828  1.00  0.00    -0.196 N 
HETATM   21  N9  UNL     1      10.800  22.256  18.193  1.00  0.00    -0.211 N 
HETATM   22  N10 UNL     1      11.042  21.225  18.971  1.00  0.00    -0.115 N 
ATOM     23  H9  UNL     1      10.452  22.197  17.237  1.00  0.00     0.210 HD
HETATM   24  C9  UNL     1      11.484  21.710  20.140  1.00  0.00     0.707 A 
ATOM     25  H10 UNL     1      10.916  20.241  18.732  1.00  0.00     0.207 HD
HETATM   26  N12 UNL     1      11.498  23.040  20.030  1.00  0.00    -0.113 N 
ATOM     27  H12 UNL     1      11.789  23.691  20.760  1.00  0.00     0.207 HD
BRANCH  24  28
HETATM   28  N11 UNL     1      11.838  21.002  21.194  1.00  0.00    -0.232 N 
ATOM     29 2H11 UNL     1      11.652  20.012  21.356  1.00  0.00     0.174 HD
ATOM     30 1H11 UNL     1      12.353  21.344  22.006  1.00  0.00     0.174 HD
ENDBRANCH  24  28
ENDBRANCH   8  20
BRANCH   3  31
HETATM   31  O4  UNL     1       8.306  23.964  15.144  1.00  0.00    -0.288 OA
ATOM     32  H4  UNL     1       8.489  24.386  14.313  1.00  0.00     0.244 HD
ENDBRANCH   3  31
BRANCH   7  33
HETATM   33  C6  UNL     1      10.572  26.518  19.905  1.00  0.00     0.291 C 
HETATM   34  O5  UNL     1      11.440  26.207  20.733  1.00  0.00    -0.262 OA
BRANCH  33  35
HETATM   35  O6  UNL     1      10.198  27.839  19.740  1.00  0.00    -0.247 OA
BRANCH  35  36
HETATM   36  C7  UNL     1       9.214  28.463  20.511  1.00  0.00     0.232 C 
HETATM   37  N6  UNL     1       8.893  28.123  21.643  1.00  0.00    -0.367 N 
ATOM     38  H62 UNL     1       9.387  27.325  22.045  1.00  0.00     0.159 HD
ATOM     39  H61 UNL     1       8.175  28.579  22.206  1.00  0.00     0.159 HD
HETATM   40  N7  UNL     1       8.510  29.601  19.938  1.00  0.00    -0.056 NA
ENDBRANCH  35  36
ENDBRANCH  33  35
ENDBRANCH   7  33
TORSDOF 10
ENDMDL
MODEL 4
REMARK VINA RESULT: -8.081186666      2.248      6.411
REMARK  10 active torsions:
REMARK  status: ('A' for Active; 'I' for Inactive)
REMARK    1  A    between atoms: O1_2  and  N1_3 
REMARK    2  A    between atoms: N1_3  and  N2_4 
REMARK       I    between atoms: N2_4  and  C2_6 
REMARK       I    between atoms: C2_6  and  N3_8 
REMARK    3  A    between atoms: N3_8  and  S1_10 
REMARK    4  A    between atoms: S1_10  and  C3_12 
REMARK    5  A    between atoms: N4_14  and  O4_16 
REMARK    6  A    between atoms: C5_20  and  C6_21 
REMARK    7  A    between atoms: C6_21  and  O6_23 
REMARK    8  A    between atoms: O6_23  and  C7_24 
REMARK    9  A    between atoms: C8_29  and  N8_30 
REMARK   10  A    between atoms: C9_35  and  N11_36 
ROOT
HETATM    1  C3  UNL     1      10.614  27.493  17.414  1.00  0.00     0.199 C 
HETATM    2  C4  UNL     1      10.046  27.404  16.050  1.00  0.00     0.118 C 
HETATM    3  N4  UNL     1       9.649  26.323  15.420  1.00  0.00    -0.256 N 
ATOM      4  H4  UNL     1       9.268  26.353  14.474  1.00  0.00     0.195 HD
HETATM    5  N5  UNL     1       9.999  28.756  15.552  1.00  0.00    -0.361 N 
ATOM      6  H5  UNL     1      10.110  29.045  14.580  1.00  0.00     0.161 HD
HETATM    7  C5  UNL     1       9.770  29.612  16.660  1.00  0.00     0.211 C 
HETATM    8  C8  UNL     1      10.236  28.877  17.887  1.00  0.00     0.186 C 
ENDROOT
BRANCH   1   9
HETATM    9  S1  UNL     1      12.359  27.231  17.416  1.00  0.00     0.132 S 
HETATM   10  O3  UNL     1      12.792  26.058  16.591  1.00  0.00    -0.234 OA
BRANCH   9  11
HETATM   11  N3  UNL     1      13.301  28.655  17.219  1.00  0.00    -0.256 N 
HETATM   12  C2  UNL     1      13.515  29.322  16.014  1.00  0.00     0.345 C 
HETATM   13  N2  UNL     1      14.300  30.493  15.945  1.00  0.00    -0.229 N 
HETATM   14  O2  UNL     1      12.988  28.865  14.966  1.00  0.00    -0.245 OA
ATOM     15  H2  UNL     1      14.717  30.837  16.810  1.00  0.00     0.189 HD
ATOM     16  H3  UNL     1      13.740  29.045  18.054  1.00  0.00     0.181 HD
BRANCH  13  17
HETATM   17  N1  UNL     1      14.543  31.208  14.782  1.00  0.00     0.025 NA
BRANCH  17  18
HETATM   18  O1  UNL     1      14.836  32.477  15.033  1.00  0.00    -0.272 OA
HETATM   19  C1  UNL     1      15.305  33.211  13.973  1.00  0.00     0.234 C 
ENDBRANCH  17  18
ENDBRANCH  13  17
ENDBRANCH   9  11
ENDBRANCH   1   9
BRANCH   8  20
HETATM   20  N8  UNL     1       9.172  28.830  18.876  1.00  0.00    -0.196 N 
HETATM   21  N9  UNL     1       9.297  29.123  20.156  1.00  0.00    -0.211 N 
HETATM   22  N10 UNL     1       8.144  28.977  20.770  1.00  0.00    -0.115 N 
ATOM     23  H9  UNL     1      10.163  29.420  20.605  1.00  0.00     0.210 HD
HETATM   24  C9  UNL     1       7.257  28.577  19.847  1.00  0.00     0.707 A 
ATOM     25  H10 UNL     1       7.958  29.136  21.760  1.00  0.00     0.207 HD
HETATM   26  N12 UNL     1       7.912  28.493  18.687  1.00  0.00    -0.113 N 
ATOM     27  H12 UNL     1       7.501  28.214  17.796  1.00  0.00     0.207 HD
BRANCH  24  28
HETATM   28  N11 UNL     1       5.981  28.317  20.054  1.00  0.00    -0.232 N 
ATOM     29 2H11 UNL     1       5.523  27.409  19.980  1.00  0.00     0.174 HD
ATOM     30 1H11 UNL     1       5.263  28.992  20.318  1.00  0.00     0.174 HD
ENDBRANCH  24  28
ENDBRANCH   8  20
BRANCH   3  31
HETATM   31  O4  UNL     1       9.780  25.135  16.125  1.00  0.00    -0.288 OA
ATOM     32  H4  UNL     1       9.427  24.364  15.699  1.00  0.00     0.244 HD
ENDBRANCH   3  31
BRANCH   7  33
HETATM   33  C6  UNL     1      10.419  30.941  16.585  1.00  0.00     0.291 C 
HETATM   34  O5  UNL     1      11.182  31.331  17.480  1.00  0.00    -0.262 OA
BRANCH  33  35
HETATM   35  O6  UNL     1      10.150  31.742  15.491  1.00  0.00    -0.247 OA
BRANCH  35  36
HETATM   36  C7  UNL     1      11.140  32.396  14.753  1.00  0.00     0.232 C 
HETATM   37  N6  UNL     1      11.866  33.281  15.188  1.00  0.00    -0.367 N 
ATOM     38  H62 UNL     1      11.731  33.554  16.162  1.00  0.00     0.159 HD
ATOM     39  H61 UNL     1      12.589  33.759  14.649  1.00  0.00     0.159 HD
HETATM   40  N7  UNL     1      11.332  32.008  13.364  1.00  0.00    -0.056 NA
ENDBRANCH  35  36
ENDBRANCH  33  35
ENDBRANCH   7  33
TORSDOF 10
ENDMDL
MODEL 5
REMARK VINA RESULT: -8.052016360      2.269      3.295
REMARK  10 active torsions:
REMARK  status: ('A' for Active; 'I' for Inactive)
REMARK    1  A    between atoms: O1_2  and  N1_3 
REMARK    2  A    between atoms: N1_3  and  N2_4 
REMARK       I    between atoms: N2_4  and  C2_6 
REMARK       I    between atoms: C2_6  and  N3_8 
REMARK    3  A    between atoms: N3_8  and  S1_10 
REMARK    4  A    between atoms: S1_10  and  C3_12 
REMARK    5  A    between atoms: N4_14  and  O4_16 
REMARK    6  A    between atoms: C5_20  and  C6_21 
REMARK    7  A    between atoms: C6_21  and  O6_23 
REMARK    8  A    between atoms: O6_23  and  C7_24 
REMARK    9  A    between atoms: C8_29  and  N8_30 
REMARK   10  A    between atoms: C9_35  and  N11_36 
ROOT
HETATM    1  C3  UNL     1      12.784  31.109  15.027  1.00  0.00     0.199 C 
HETATM    2  C4  UNL     1      12.005  32.308  15.414  1.00  0.00     0.118 C 
HETATM    3  N4  UNL     1      11.879  32.824  16.615  1.00  0.00    -0.256 N 
ATOM      4  H4  UNL     1      11.317  33.657  16.792  1.00  0.00     0.195 HD
HETATM    5  N5  UNL     1      11.421  32.810  14.196  1.00  0.00    -0.361 N 
ATOM      6  H5  UNL     1      10.524  33.287  14.109  1.00  0.00     0.161 HD
HETATM    7  C5  UNL     1      12.322  32.520  13.139  1.00  0.00     0.211 C 
HETATM    8  C8  UNL     1      13.171  31.362  13.590  1.00  0.00     0.186 C 
ENDROOT
BRANCH   1   9
HETATM    9  S1  UNL     1      11.847  29.627  15.224  1.00  0.00     0.132 S 
HETATM   10  O3  UNL     1      12.333  28.491  14.376  1.00  0.00    -0.234 OA
BRANCH   9  11
HETATM   11  N3  UNL     1      11.475  29.221  16.853  1.00  0.00    -0.256 N 
HETATM   12  C2  UNL     1      10.320  29.599  17.536  1.00  0.00     0.345 C 
HETATM   13  N2  UNL     1      10.092  29.214  18.874  1.00  0.00    -0.229 N 
HETATM   14  O2  UNL     1       9.461  30.297  16.936  1.00  0.00    -0.245 OA
ATOM     15  H2  UNL     1      10.808  28.652  19.335  1.00  0.00     0.189 HD
ATOM     16  H3  UNL     1      12.155  28.657  17.361  1.00  0.00     0.181 HD
BRANCH  13  17
HETATM   17  N1  UNL     1       8.963  29.548  19.607  1.00  0.00     0.025 NA
BRANCH  17  18
HETATM   18  O1  UNL     1       8.945  28.947  20.789  1.00  0.00    -0.272 OA
HETATM   19  C1  UNL     1       9.436  27.666  20.826  1.00  0.00     0.234 C 
ENDBRANCH  17  18
ENDBRANCH  13  17
ENDBRANCH   9  11
ENDBRANCH   1   9
BRANCH   8  20
HETATM   20  N8  UNL     1      14.580  31.699  13.469  1.00  0.00    -0.196 N 
HETATM   21  N9  UNL     1      15.579  30.838  13.467  1.00  0.00    -0.211 N 
HETATM   22  N10 UNL     1      16.724  31.473  13.343  1.00  0.00    -0.115 N 
ATOM     23  H9  UNL     1      15.479  29.827  13.551  1.00  0.00     0.210 HD
HETATM   24  C9  UNL     1      16.440  32.781  13.262  1.00  0.00     0.707 A 
ATOM     25  H10 UNL     1      17.652  31.050  13.313  1.00  0.00     0.207 HD
HETATM   26  N12 UNL     1      15.113  32.897  13.341  1.00  0.00    -0.113 N 
ATOM     27  H12 UNL     1      14.594  33.775  13.308  1.00  0.00     0.207 HD
BRANCH  24  28
HETATM   28  N11 UNL     1      17.312  33.761  13.130  1.00  0.00    -0.232 N 
ATOM     29 2H11 UNL     1      18.329  33.681  13.154  1.00  0.00     0.174 HD
ATOM     30 1H11 UNL     1      17.094  34.746  12.983  1.00  0.00     0.174 HD
ENDBRANCH  24  28
ENDBRANCH   8  20
BRANCH   3  31
HETATM   31  O4  UNL     1      12.559  32.163  17.627  1.00  0.00    -0.288 OA
ATOM     32  H4  UNL     1      12.116  32.131  18.466  1.00  0.00     0.244 HD
ENDBRANCH   3  31
BRANCH   7  33
HETATM   33  C6  UNL     1      11.696  32.213  11.832  1.00  0.00     0.291 C 
HETATM   34  O5  UNL     1      12.241  32.540  10.769  1.00  0.00    -0.262 OA
BRANCH  33  35
HETATM   35  O6  UNL     1      10.480  31.555  11.826  1.00  0.00    -0.247 OA
BRANCH  35  36
HETATM   36  C7  UNL     1      10.027  30.785  10.751  1.00  0.00     0.232 C 
HETATM   37  N6  UNL     1      10.664  29.885  10.218  1.00  0.00    -0.367 N 
ATOM     38  H62 UNL     1      11.593  29.690  10.593  1.00  0.00     0.159 HD
ATOM     39  H61 UNL     1      10.333  29.323   9.433  1.00  0.00     0.159 HD
HETATM   40  N7  UNL     1       8.702  31.063  10.216  1.00  0.00    -0.056 NA
ENDBRANCH  35  36
ENDBRANCH  33  35
ENDBRANCH   7  33
TORSDOF 10
ENDMDL
