MODEL 1
REMARK VINA RESULT: -7.769922286      0.000      0.000
REMARK  11 active torsions:
REMARK  status: ('A' for Active; 'I' for Inactive)
REMARK    1  A    between atoms: C2_2  and  O1_6 
REMARK    2  A    between atoms: O1_6  and  C3_7 
REMARK    3  A    between atoms: C3_7  and  C4_8 
REMARK    4  A    between atoms: C3_7  and  C5_11 
REMARK    5  A    between atoms: C4_8  and  O2_9 
REMARK    6  A    between atoms: C5_11  and  O3_12 
REMARK    7  A    between atoms: O3_12  and  N2_13 
REMARK    8  A    between atoms: N6_22  and  O4_24 
REMARK    9  A    between atoms: C10_27  and  N7_28 
REMARK   10  A    between atoms: C10_27  and  N8_32 
REMARK   11  A    between atoms: N8_32  and  C11_34 
ROOT
HETATM    1  N2  UNL     1       8.924  27.248  17.076  1.00  0.00    -0.117 NA
HETATM    2  C6  UNL     1       8.031  26.722  18.124  1.00  0.00     0.207 C 
HETATM    3  N3  UNL     1       6.640  27.099  17.933  1.00  0.00    -0.344 N 
ATOM      4  H3  UNL     1       6.242  27.087  16.994  1.00  0.00     0.163 HD
HETATM    5  C7  UNL     1       5.815  27.487  19.042  1.00  0.00     0.191 C 
HETATM    6  N4  UNL     1       4.418  27.253  19.028  1.00  0.00    -0.063 NA
HETATM    7  N5  UNL     1       6.380  28.058  20.058  1.00  0.00    -0.318 N 
ATOM      8  H5  UNL     1       5.824  28.347  20.863  1.00  0.00     0.169 HD
HETATM    9  C8  UNL     1       7.773  28.275  20.037  1.00  0.00     0.117 C 
HETATM   10  N6  UNL     1       8.270  29.142  20.865  1.00  0.00    -0.256 N 
ATOM     11  H6  UNL     1       9.277  29.304  20.857  1.00  0.00     0.195 HD
HETATM   12  C9  UNL     1       8.722  27.586  19.139  1.00  0.00     0.170 C 
HETATM   13  C10 UNL     1       9.109  28.413  17.911  1.00  0.00     0.305 C 
ENDROOT
BRANCH  13  14
HETATM   14  N7  UNL     1       8.136  29.421  17.569  1.00  0.00    -0.035 N 
ATOM     15  H73 UNL     1       7.849  29.360  16.592  1.00  0.00     0.279 HD
ATOM     16  H72 UNL     1       7.230  29.241  18.001  1.00  0.00     0.279 HD
ATOM     17  H71 UNL     1       8.496  30.345  17.806  1.00  0.00     0.279 HD
ENDBRANCH  13  14
BRANCH  13  18
HETATM   18  N8  UNL     1      10.429  28.931  18.008  1.00  0.00    -0.176 N 
ATOM     19  H8  UNL     1      10.958  28.691  18.846  1.00  0.00     0.181 HD
BRANCH  18  20
HETATM   20  C11 UNL     1      11.075  29.744  17.056  1.00  0.00     0.677 C 
HETATM   21  N9  UNL     1      11.662  30.823  17.432  1.00  0.00    -0.225 N 
HETATM   22  C12 UNL     1      12.391  31.812  16.619  1.00  0.00     0.157 C 
ATOM     23  H9  UNL     1      11.618  31.023  18.431  1.00  0.00     0.177 HD
HETATM   24  C13 UNL     1      11.642  32.211  15.392  1.00  0.00     0.140 C 
HETATM   25  N10 UNL     1      11.733  31.175  14.352  1.00  0.00    -0.384 N 
HETATM   26  C14 UNL     1      11.460  29.927  14.508  1.00  0.00     0.193 C 
ATOM     27  H10 UNL     1      12.040  31.472  13.426  1.00  0.00     0.160 HD
HETATM   28  N11 UNL     1      11.010  29.274  15.717  1.00  0.00    -0.189 N 
ATOM     29  H11 UNL     1      10.589  28.353  15.592  1.00  0.00     0.184 HD
ENDBRANCH  18  20
ENDBRANCH  13  18
BRANCH   1  30
HETATM   30  O3  UNL     1       8.185  27.440  15.963  1.00  0.00    -0.295 OA
BRANCH  30  31
HETATM   31  C5  UNL     1       8.576  26.605  14.920  1.00  0.00     0.229 C 
BRANCH  31  32
HETATM   32  C3  UNL     1       7.385  25.908  14.329  1.00  0.00     0.179 C 
BRANCH  32  33
HETATM   33  O1  UNL     1       6.419  26.691  13.750  1.00  0.00    -0.330 OA
BRANCH  33  34
HETATM   34  C2  UNL     1       5.876  26.550  12.509  1.00  0.00     0.108 C 
HETATM   35  C1  UNL     1       4.724  25.588  12.265  1.00  0.00     0.097 C 
HETATM   36  N1  UNL     1       6.326  27.226  11.531  1.00  0.00    -0.384 N 
ATOM     37  H12 UNL     1       5.919  27.120  10.602  1.00  0.00     0.157 HD
ATOM     38  H11 UNL     1       7.099  27.871  11.695  1.00  0.00     0.157 HD
ENDBRANCH  33  34
ENDBRANCH  32  33
BRANCH  32  39
HETATM   39  C4  UNL     1       6.901  24.720  15.126  1.00  0.00     0.198 C 
BRANCH  39  40
HETATM   40  O2  UNL     1       5.829  25.188  15.912  1.00  0.00    -0.398 OA
ATOM     41  H2  UNL     1       5.331  24.419  16.162  1.00  0.00     0.209 HD
ENDBRANCH  39  40
ENDBRANCH  32  39
ENDBRANCH  31  32
ENDBRANCH  30  31
ENDBRANCH   1  30
BRANCH  10  42
HETATM   42  O4  UNL     1       7.502  29.843  21.743  1.00  0.00    -0.288 OA
ATOM     43  H4  UNL     1       7.831  30.591  22.229  1.00  0.00     0.244 HD
ENDBRANCH  10  42
TORSDOF 11
ENDMDL
MODEL 2
REMARK VINA RESULT: -7.713949847      3.239      6.863
REMARK  11 active torsions:
REMARK  status: ('A' for Active; 'I' for Inactive)
REMARK    1  A    between atoms: C2_2  and  O1_6 
REMARK    2  A    between atoms: O1_6  and  C3_7 
REMARK    3  A    between atoms: C3_7  and  C4_8 
REMARK    4  A    between atoms: C3_7  and  C5_11 
REMARK    5  A    between atoms: C4_8  and  O2_9 
REMARK    6  A    between atoms: C5_11  and  O3_12 
REMARK    7  A    between atoms: O3_12  and  N2_13 
REMARK    8  A    between atoms: N6_22  and  O4_24 
REMARK    9  A    between atoms: C10_27  and  N7_28 
REMARK   10  A    between atoms: C10_27  and  N8_32 
REMARK   11  A    between atoms: N8_32  and  C11_34 
ROOT
HETATM    1  N2  UNL     1      11.231  28.485  15.607  1.00  0.00    -0.117 NA
HETATM    2  C6  UNL     1      11.892  29.202  14.502  1.00  0.00     0.207 C 
HETATM    3  N3  UNL     1      13.306  29.443  14.740  1.00  0.00    -0.344 N 
ATOM      4  H3  UNL     1      13.873  28.712  15.169  1.00  0.00     0.163 HD
HETATM    5  C7  UNL     1      13.918  30.691  14.383  1.00  0.00     0.191 C 
HETATM    6  N4  UNL     1      15.285  30.754  14.013  1.00  0.00    -0.063 NA
HETATM    7  N5  UNL     1      13.190  31.762  14.407  1.00  0.00    -0.318 N 
ATOM      8  H5  UNL     1      13.594  32.666  14.160  1.00  0.00     0.169 HD
HETATM    9  C8  UNL     1      11.835  31.663  14.780  1.00  0.00     0.117 C 
HETATM   10  N6  UNL     1      11.219  32.746  15.143  1.00  0.00    -0.256 N 
ATOM     11  H6  UNL     1      10.237  32.683  15.413  1.00  0.00     0.195 HD
HETATM   12  C9  UNL     1      11.051  30.411  14.789  1.00  0.00     0.170 C 
HETATM   13  C10 UNL     1      10.929  29.778  16.177  1.00  0.00     0.305 C 
ENDROOT
BRANCH  13  14
HETATM   14  N7  UNL     1      11.982  30.173  17.081  1.00  0.00    -0.035 N 
ATOM     15  H73 UNL     1      11.912  29.698  17.981  1.00  0.00     0.279 HD
ATOM     16  H72 UNL     1      12.891  29.810  16.792  1.00  0.00     0.279 HD
ATOM     17  H71 UNL     1      11.990  31.188  17.182  1.00  0.00     0.279 HD
ENDBRANCH  13  14
BRANCH  13  18
HETATM   18  N8  UNL     1       9.633  29.949  16.733  1.00  0.00    -0.176 N 
ATOM     19  H8  UNL     1       9.138  30.808  16.494  1.00  0.00     0.181 HD
BRANCH  18  20
HETATM   20  C11 UNL     1       8.967  29.044  17.582  1.00  0.00     0.677 C 
HETATM   21  N9  UNL     1       8.374  28.018  17.083  1.00  0.00    -0.225 N 
HETATM   22  C12 UNL     1       7.625  26.954  17.774  1.00  0.00     0.157 C 
ATOM     23  H9  UNL     1       8.430  27.928  16.069  1.00  0.00     0.177 HD
HETATM   24  C13 UNL     1       6.651  27.491  18.770  1.00  0.00     0.140 C 
HETATM   25  N10 UNL     1       7.332  27.918  20.002  1.00  0.00    -0.384 N 
HETATM   26  C14 UNL     1       8.337  28.719  20.067  1.00  0.00     0.193 C 
ATOM     27  H10 UNL     1       6.975  27.548  20.882  1.00  0.00     0.160 HD
HETATM   28  N11 UNL     1       9.013  29.367  18.965  1.00  0.00    -0.189 N 
ATOM     29  H11 UNL     1       9.601  30.162  19.213  1.00  0.00     0.184 HD
ENDBRANCH  18  20
ENDBRANCH  13  18
BRANCH   1  30
HETATM   30  O3  UNL     1      12.173  27.767  16.254  1.00  0.00    -0.295 OA
BRANCH  30  31
HETATM   31  C5  UNL     1      11.934  26.398  16.184  1.00  0.00     0.229 C 
BRANCH  31  32
HETATM   32  C3  UNL     1      11.620  25.848  17.545  1.00  0.00     0.179 C 
BRANCH  32  33
HETATM   33  O1  UNL     1      10.594  24.943  17.637  1.00  0.00    -0.330 OA
BRANCH  33  34
HETATM   34  C2  UNL     1      10.660  23.665  18.105  1.00  0.00     0.108 C 
HETATM   35  C1  UNL     1       9.672  22.609  17.635  1.00  0.00     0.097 C 
HETATM   36  N1  UNL     1      11.553  23.335  18.946  1.00  0.00    -0.384 N 
ATOM     37  H12 UNL     1      11.603  22.378  19.296  1.00  0.00     0.157 HD
ATOM     38  H11 UNL     1      12.216  24.044  19.262  1.00  0.00     0.157 HD
ENDBRANCH  33  34
ENDBRANCH  32  33
BRANCH  32  39
HETATM   39  C4  UNL     1      11.734  26.855  18.665  1.00  0.00     0.198 C 
BRANCH  39  40
HETATM   40  O2  UNL     1      13.108  27.146  18.788  1.00  0.00    -0.398 OA
ATOM     41  H2  UNL     1      13.237  27.431  19.685  1.00  0.00     0.209 HD
ENDBRANCH  39  40
ENDBRANCH  32  39
ENDBRANCH  31  32
ENDBRANCH  30  31
ENDBRANCH   1  30
BRANCH  10  42
HETATM   42  O4  UNL     1      11.829  33.962  15.178  1.00  0.00    -0.288 OA
ATOM     43  H4  UNL     1      11.514  34.679  15.716  1.00  0.00     0.244 HD
ENDBRANCH  10  42
TORSDOF 11
ENDMDL
MODEL 3
REMARK VINA RESULT: -7.679882350      1.061      1.567
REMARK  11 active torsions:
REMARK  status: ('A' for Active; 'I' for Inactive)
REMARK    1  A    between atoms: C2_2  and  O1_6 
REMARK    2  A    between atoms: O1_6  and  C3_7 
REMARK    3  A    between atoms: C3_7  and  C4_8 
REMARK    4  A    between atoms: C3_7  and  C5_11 
REMARK    5  A    between atoms: C4_8  and  O2_9 
REMARK    6  A    between atoms: C5_11  and  O3_12 
REMARK    7  A    between atoms: O3_12  and  N2_13 
REMARK    8  A    between atoms: N6_22  and  O4_24 
REMARK    9  A    between atoms: C10_27  and  N7_28 
REMARK   10  A    between atoms: C10_27  and  N8_32 
REMARK   11  A    between atoms: N8_32  and  C11_34 
ROOT
HETATM    1  N2  UNL     1       8.891  27.233  17.026  1.00  0.00    -0.117 NA
HETATM    2  C6  UNL     1       7.992  26.708  18.068  1.00  0.00     0.207 C 
HETATM    3  N3  UNL     1       6.605  27.104  17.883  1.00  0.00    -0.344 N 
ATOM      4  H3  UNL     1       6.207  27.106  16.944  1.00  0.00     0.163 HD
HETATM    5  C7  UNL     1       5.786  27.491  18.996  1.00  0.00     0.191 C 
HETATM    6  N4  UNL     1       4.386  27.276  18.981  1.00  0.00    -0.063 NA
HETATM    7  N5  UNL     1       6.359  28.045  20.017  1.00  0.00    -0.318 N 
ATOM      8  H5  UNL     1       5.807  28.333  20.825  1.00  0.00     0.169 HD
HETATM    9  C8  UNL     1       7.754  28.244  19.998  1.00  0.00     0.117 C 
HETATM   10  N6  UNL     1       8.263  29.096  20.834  1.00  0.00    -0.256 N 
ATOM     11  H6  UNL     1       9.272  29.246  20.827  1.00  0.00     0.195 HD
HETATM   12  C9  UNL     1       8.693  27.552  19.092  1.00  0.00     0.170 C 
HETATM   13  C10 UNL     1       9.091  28.386  17.872  1.00  0.00     0.305 C 
ENDROOT
BRANCH  13  14
HETATM   14  N7  UNL     1       8.130  29.410  17.541  1.00  0.00    -0.035 N 
ATOM     15  H73 UNL     1       7.366  29.048  16.970  1.00  0.00     0.279 HD
ATOM     16  H72 UNL     1       7.584  29.700  18.352  1.00  0.00     0.279 HD
ATOM     17  H71 UNL     1       8.602  30.197  17.096  1.00  0.00     0.279 HD
ENDBRANCH  13  14
BRANCH  13  18
HETATM   18  N8  UNL     1      10.417  28.886  17.974  1.00  0.00    -0.176 N 
ATOM     19  H8  UNL     1      10.950  28.617  18.800  1.00  0.00     0.181 HD
BRANCH  18  20
HETATM   20  C11 UNL     1      11.066  29.718  17.039  1.00  0.00     0.677 C 
HETATM   21  N9  UNL     1      11.649  30.791  17.438  1.00  0.00    -0.225 N 
HETATM   22  C12 UNL     1      12.380  31.797  16.646  1.00  0.00     0.157 C 
ATOM     23  H9  UNL     1      11.600  30.973  18.440  1.00  0.00     0.177 HD
HETATM   24  C13 UNL     1      11.634  32.217  15.424  1.00  0.00     0.140 C 
HETATM   25  N10 UNL     1      11.732  31.200  14.365  1.00  0.00    -0.384 N 
HETATM   26  C14 UNL     1      11.461  29.949  14.496  1.00  0.00     0.193 C 
ATOM     27  H10 UNL     1      12.042  31.514  13.446  1.00  0.00     0.160 HD
HETATM   28  N11 UNL     1      11.007  29.273  15.692  1.00  0.00    -0.189 N 
ATOM     29  H11 UNL     1      10.589  28.354  15.548  1.00  0.00     0.184 HD
ENDBRANCH  18  20
ENDBRANCH  13  18
BRANCH   1  30
HETATM   30  O3  UNL     1       8.153  27.445  15.915  1.00  0.00    -0.295 OA
BRANCH  30  31
HETATM   31  C5  UNL     1       8.371  26.473  14.943  1.00  0.00     0.229 C 
BRANCH  31  32
HETATM   32  C3  UNL     1       7.080  26.090  14.282  1.00  0.00     0.179 C 
BRANCH  32  33
HETATM   33  O1  UNL     1       6.539  24.874  14.613  1.00  0.00    -0.330 OA
BRANCH  33  34
HETATM   34  C2  UNL     1       5.228  24.591  14.854  1.00  0.00     0.108 C 
HETATM   35  C1  UNL     1       4.664  24.642  16.265  1.00  0.00     0.097 C 
HETATM   36  N1  UNL     1       4.453  24.280  13.897  1.00  0.00    -0.384 N 
ATOM     37  H12 UNL     1       3.471  24.068  14.077  1.00  0.00     0.157 HD
ATOM     38  H11 UNL     1       4.831  24.246  12.950  1.00  0.00     0.157 HD
ENDBRANCH  33  34
ENDBRANCH  32  33
BRANCH  32  39
HETATM   39  C4  UNL     1       6.977  26.502  12.832  1.00  0.00     0.198 C 
BRANCH  39  40
HETATM   40  O2  UNL     1       5.694  27.066  12.678  1.00  0.00    -0.398 OA
ATOM     41  H2  UNL     1       5.513  27.056  11.745  1.00  0.00     0.209 HD
ENDBRANCH  39  40
ENDBRANCH  32  39
ENDBRANCH  31  32
ENDBRANCH  30  31
ENDBRANCH   1  30
BRANCH  10  42
HETATM   42  O4  UNL     1       7.505  29.798  21.720  1.00  0.00    -0.288 OA
ATOM     43  H4  UNL     1       7.661  29.780  22.657  1.00  0.00     0.244 HD
ENDBRANCH  10  42
TORSDOF 11
ENDMDL
MODEL 4
REMARK VINA RESULT: -7.674328571      3.096      6.785
REMARK  11 active torsions:
REMARK  status: ('A' for Active; 'I' for Inactive)
REMARK    1  A    between atoms: C2_2  and  O1_6 
REMARK    2  A    between atoms: O1_6  and  C3_7 
REMARK    3  A    between atoms: C3_7  and  C4_8 
REMARK    4  A    between atoms: C3_7  and  C5_11 
REMARK    5  A    between atoms: C4_8  and  O2_9 
REMARK    6  A    between atoms: C5_11  and  O3_12 
REMARK    7  A    between atoms: O3_12  and  N2_13 
REMARK    8  A    between atoms: N6_22  and  O4_24 
REMARK    9  A    between atoms: C10_27  and  N7_28 
REMARK   10  A    between atoms: C10_27  and  N8_32 
REMARK   11  A    between atoms: N8_32  and  C11_34 
ROOT
HETATM    1  N2  UNL     1      10.491  27.731  16.480  1.00  0.00    -0.117 NA
HETATM    2  C6  UNL     1      11.549  28.379  15.685  1.00  0.00     0.207 C 
HETATM    3  N3  UNL     1      12.827  28.442  16.376  1.00  0.00    -0.344 N 
ATOM      4  H3  UNL     1      13.140  27.640  16.923  1.00  0.00     0.163 HD
HETATM    5  C7  UNL     1      13.656  29.611  16.302  1.00  0.00     0.191 C 
HETATM    6  N4  UNL     1      15.067  29.513  16.393  1.00  0.00    -0.063 NA
HETATM    7  N5  UNL     1      13.083  30.763  16.150  1.00  0.00    -0.318 N 
ATOM      8  H5  UNL     1      13.641  31.615  16.095  1.00  0.00     0.169 HD
HETATM    9  C8  UNL     1      11.677  30.824  16.064  1.00  0.00     0.117 C 
HETATM   10  N6  UNL     1      11.100  31.968  16.270  1.00  0.00    -0.256 N 
ATOM     11  H6  UNL     1      10.083  32.021  16.208  1.00  0.00     0.195 HD
HETATM   12  C9  UNL     1      10.799  29.678  15.754  1.00  0.00     0.170 C 
HETATM   13  C10 UNL     1      10.166  29.042  16.993  1.00  0.00     0.305 C 
ENDROOT
BRANCH  13  14
HETATM   14  N7  UNL     1      10.906  29.290  18.206  1.00  0.00    -0.035 N 
ATOM     15  H73 UNL     1      10.999  28.450  18.777  1.00  0.00     0.279 HD
ATOM     16  H72 UNL     1      11.895  29.456  18.024  1.00  0.00     0.279 HD
ATOM     17  H71 UNL     1      10.477  30.059  18.722  1.00  0.00     0.279 HD
ENDBRANCH  13  14
BRANCH  13  18
HETATM   18  N8  UNL     1       8.786  29.361  17.114  1.00  0.00    -0.176 N 
ATOM     19  H8  UNL     1       8.487  30.264  16.746  1.00  0.00     0.181 HD
BRANCH  18  20
HETATM   20  C11 UNL     1       7.792  28.547  17.693  1.00  0.00     0.677 C 
HETATM   21  N9  UNL     1       7.079  27.782  16.947  1.00  0.00    -0.225 N 
HETATM   22  C12 UNL     1       5.998  26.859  17.332  1.00  0.00     0.157 C 
ATOM     23  H9  UNL     1       7.291  27.818  15.950  1.00  0.00     0.177 HD
HETATM   24  C13 UNL     1       5.012  27.485  18.262  1.00  0.00     0.140 C 
HETATM   25  N10 UNL     1       5.544  27.556  19.632  1.00  0.00    -0.384 N 
HETATM   26  C14 UNL     1       6.678  28.060  19.973  1.00  0.00     0.193 C 
ATOM     27  H10 UNL     1       4.963  27.173  20.376  1.00  0.00     0.160 HD
HETATM   28  N11 UNL     1       7.667  28.659  19.103  1.00  0.00    -0.189 N 
ATOM     29  H11 UNL     1       8.368  29.238  19.565  1.00  0.00     0.184 HD
ENDBRANCH  18  20
ENDBRANCH  13  18
BRANCH   1  30
HETATM   30  O3  UNL     1      11.087  26.893  17.354  1.00  0.00    -0.295 OA
BRANCH  30  31
HETATM   31  C5  UNL     1      10.272  25.817  17.694  1.00  0.00     0.229 C 
BRANCH  31  32
HETATM   32  C3  UNL     1      10.772  25.152  18.943  1.00  0.00     0.179 C 
BRANCH  32  33
HETATM   33  O1  UNL     1      10.162  23.983  19.322  1.00  0.00    -0.330 OA
BRANCH  33  34
HETATM   34  C2  UNL     1      10.750  22.770  19.516  1.00  0.00     0.108 C 
HETATM   35  C1  UNL     1       9.941  21.578  20.001  1.00  0.00     0.097 C 
HETATM   36  N1  UNL     1      11.991  22.616  19.291  1.00  0.00    -0.384 N 
ATOM     37  H12 UNL     1      12.431  21.707  19.436  1.00  0.00     0.157 HD
ATOM     38  H11 UNL     1      12.534  23.416  18.965  1.00  0.00     0.157 HD
ENDBRANCH  33  34
ENDBRANCH  32  33
BRANCH  32  39
HETATM   39  C4  UNL     1      11.144  26.109  20.051  1.00  0.00     0.198 C 
BRANCH  39  40
HETATM   40  O2  UNL     1      10.128  27.085  20.080  1.00  0.00    -0.398 OA
ATOM     41  H2  UNL     1       9.585  26.878  20.831  1.00  0.00     0.209 HD
ENDBRANCH  39  40
ENDBRANCH  32  39
ENDBRANCH  31  32
ENDBRANCH  30  31
ENDBRANCH   1  30
BRANCH  10  42
HETATM   42  O4  UNL     1      11.797  33.100  16.564  1.00  0.00    -0.288 OA
ATOM     43  H4  UNL     1      11.386  33.956  16.619  1.00  0.00     0.244 HD
ENDBRANCH  10  42
TORSDOF 11
ENDMDL
MODEL 5
REMARK VINA RESULT: -7.582195763      3.730      6.080
REMARK  11 active torsions:
REMARK  status: ('A' for Active; 'I' for Inactive)
REMARK    1  A    between atoms: C2_2  and  O1_6 
REMARK    2  A    between atoms: O1_6  and  C3_7 
REMARK    3  A    between atoms: C3_7  and  C4_8 
REMARK    4  A    between atoms: C3_7  and  C5_11 
REMARK    5  A    between atoms: C4_8  and  O2_9 
REMARK    6  A    between atoms: C5_11  and  O3_12 
REMARK    7  A    between atoms: O3_12  and  N2_13 
REMARK    8  A    between atoms: N6_22  and  O4_24 
REMARK    9  A    between atoms: C10_27  and  N7_28 
REMARK   10  A    between atoms: C10_27  and  N8_32 
REMARK   11  A    between atoms: N8_32  and  C11_34 
ROOT
HETATM    1  N2  UNL     1      10.630  28.630  15.741  1.00  0.00    -0.117 NA
HETATM    2  C6  UNL     1       9.670  28.230  16.786  1.00  0.00     0.207 C 
HETATM    3  N3  UNL     1       9.495  29.238  17.819  1.00  0.00    -0.344 N 
ATOM      4  H3  UNL     1       9.447  30.222  17.555  1.00  0.00     0.163 HD
HETATM    5  C7  UNL     1       9.388  28.874  19.203  1.00  0.00     0.191 C 
HETATM    6  N4  UNL     1       8.632  29.660  20.108  1.00  0.00    -0.063 NA
HETATM    7  N5  UNL     1      10.002  27.808  19.607  1.00  0.00    -0.318 N 
ATOM      8  H5  UNL     1       9.948  27.520  20.585  1.00  0.00     0.169 HD
HETATM    9  C8  UNL     1      10.746  27.050  18.680  1.00  0.00     0.117 C 
HETATM   10  N6  UNL     1      11.626  26.215  19.138  1.00  0.00    -0.256 N 
ATOM     11  H6  UNL     1      12.168  25.662  18.474  1.00  0.00     0.195 HD
HETATM   12  C9  UNL     1      10.599  27.132  17.213  1.00  0.00     0.170 C 
HETATM   13  C10 UNL     1      11.659  28.009  16.543  1.00  0.00     0.305 C 
ENDROOT
BRANCH  13  14
HETATM   14  N7  UNL     1      12.242  28.983  17.432  1.00  0.00    -0.035 N 
ATOM     15  H73 UNL     1      12.423  28.597  18.359  1.00  0.00     0.279 HD
ATOM     16  H72 UNL     1      13.203  29.209  17.176  1.00  0.00     0.279 HD
ATOM     17  H71 UNL     1      11.651  29.814  17.471  1.00  0.00     0.279 HD
ENDBRANCH  13  14
BRANCH  13  18
HETATM   18  N8  UNL     1      12.634  27.240  15.853  1.00  0.00    -0.176 N 
ATOM     19  H8  UNL     1      12.973  26.398  16.318  1.00  0.00     0.181 HD
BRANCH  18  20
HETATM   20  C11 UNL     1      13.178  27.529  14.585  1.00  0.00     0.677 C 
HETATM   21  N9  UNL     1      14.265  28.208  14.497  1.00  0.00    -0.225 N 
HETATM   22  C12 UNL     1      15.003  28.622  13.291  1.00  0.00     0.157 C 
ATOM     23  H9  UNL     1      14.675  28.500  15.384  1.00  0.00     0.177 HD
HETATM   24  C13 UNL     1      14.115  29.217  12.250  1.00  0.00     0.140 C 
HETATM   25  N10 UNL     1      13.367  28.176  11.529  1.00  0.00    -0.384 N 
HETATM   26  C14 UNL     1      12.658  27.248  12.070  1.00  0.00     0.193 C 
ATOM     27  H10 UNL     1      13.416  28.189  10.510  1.00  0.00     0.160 HD
HETATM   28  N11 UNL     1      12.438  27.025  13.482  1.00  0.00    -0.189 N 
ATOM     29  H11 UNL     1      11.647  26.426  13.717  1.00  0.00     0.184 HD
ENDBRANCH  18  20
ENDBRANCH  13  18
BRANCH   1  30
HETATM   30  O3  UNL     1      10.656  29.979  15.700  1.00  0.00    -0.295 OA
BRANCH  30  31
HETATM   31  C5  UNL     1      11.176  30.461  14.502  1.00  0.00     0.229 C 
BRANCH  31  32
HETATM   32  C3  UNL     1      12.278  31.445  14.764  1.00  0.00     0.179 C 
BRANCH  32  33
HETATM   33  O1  UNL     1      13.387  30.988  15.429  1.00  0.00    -0.330 OA
BRANCH  33  34
HETATM   34  C2  UNL     1      14.531  31.676  15.698  1.00  0.00     0.108 C 
HETATM   35  C1  UNL     1      15.484  32.075  14.583  1.00  0.00     0.097 C 
HETATM   36  N1  UNL     1      14.820  31.997  16.893  1.00  0.00    -0.384 N 
ATOM     37  H12 UNL     1      15.676  32.513  17.095  1.00  0.00     0.157 HD
ATOM     38  H11 UNL     1      14.180  31.730  17.642  1.00  0.00     0.157 HD
ENDBRANCH  33  34
ENDBRANCH  32  33
BRANCH  32  39
HETATM   39  C4  UNL     1      11.800  32.832  15.124  1.00  0.00     0.198 C 
BRANCH  39  40
HETATM   40  O2  UNL     1      11.693  32.855  16.529  1.00  0.00    -0.398 OA
ATOM     41  H2  UNL     1      11.534  33.761  16.766  1.00  0.00     0.209 HD
ENDBRANCH  39  40
ENDBRANCH  32  39
ENDBRANCH  31  32
ENDBRANCH  30  31
ENDBRANCH   1  30
BRANCH  10  42
HETATM   42  O4  UNL     1      11.857  26.046  20.469  1.00  0.00    -0.288 OA
ATOM     43  H4  UNL     1      12.092  25.206  20.847  1.00  0.00     0.244 HD
ENDBRANCH  10  42
TORSDOF 11
ENDMDL
