MODEL 1
REMARK VINA RESULT: -7.668901038      0.000      0.000
REMARK  10 active torsions:
REMARK  status: ('A' for Active; 'I' for Inactive)
REMARK    1  A    between atoms: C4_7  and  N4_8 
REMARK    2  A    between atoms: C5_14  and  N7_15 
REMARK    3  A    between atoms: N7_15  and  C6_16 
REMARK    4  A    between atoms: N7_15  and  N12_33 
REMARK    5  A    between atoms: C6_16  and  C7_17 
REMARK       I    between atoms: C7_17  and  N8_19 
REMARK    6  A    between atoms: N8_19  and  C8_21 
REMARK    7  A    between atoms: C8_21  and  C9_22 
REMARK    8  A    between atoms: C9_22  and  N9_23 
REMARK    9  A    between atoms: N9_23  and  C10_25 
REMARK   10  A    between atoms: N12_33  and  N13_34 
ROOT
HETATM    1  N7  UNL     1      12.337  27.237  16.721  1.00  0.00    -0.097 N 
ENDROOT
BRANCH   1   2
HETATM    2  C5  UNL     1      12.546  28.550  16.227  1.00  0.00     0.728 A 
HETATM    3  N6  UNL     1      11.658  29.564  16.139  1.00  0.00    -0.107 N 
HETATM    4  N5  UNL     1      12.194  30.647  15.614  1.00  0.00    -0.053 N 
ATOM      5  H6  UNL     1      10.688  29.498  16.443  1.00  0.00     0.207 HD
HETATM    6  C4  UNL     1      11.733  31.888  15.323  1.00  0.00     0.167 A 
HETATM    7  C14 UNL     1      13.472  30.315  15.356  1.00  0.00     0.723 A 
HETATM    8  C3  UNL     1      12.542  32.850  14.759  1.00  0.00     0.134 A 
HETATM    9  C2  UNL     1      13.848  32.495  14.501  1.00  0.00     0.162 A 
HETATM   10  N3  UNL     1      12.050  34.164  14.452  1.00  0.00    -0.095 NA
HETATM   11  N1  UNL     1      14.281  31.259  14.798  1.00  0.00    -0.170 N 
HETATM   12  N2  UNL     1      14.696  33.477  13.918  1.00  0.00    -0.080 NA
HETATM   13  C1  UNL     1      15.656  30.887  14.525  1.00  0.00     0.177 C 
HETATM   14  N14 UNL     1      13.698  29.042  15.724  1.00  0.00    -0.018 N 
ATOM     15  H14 UNL     1      14.581  28.539  15.640  1.00  0.00     0.203 HD
BRANCH   6  16
HETATM   16  N4  UNL     1      10.496  32.188  15.579  1.00  0.00    -0.382 N 
ATOM     17  H42 UNL     1      10.193  33.160  15.527  1.00  0.00     0.157 HD
ATOM     18  H41 UNL     1       9.853  31.436  15.829  1.00  0.00     0.157 HD
ENDBRANCH   6  16
ENDBRANCH   1   2
BRANCH   1  19
HETATM   19  C6  UNL     1      12.253  26.997  18.127  1.00  0.00     0.268 C 
BRANCH  19  20
HETATM   20  C7  UNL     1      10.901  27.031  18.709  1.00  0.00     0.237 C 
HETATM   21  O1  UNL     1       9.922  27.292  17.914  1.00  0.00    -0.272 OA
HETATM   22  N8  UNL     1      10.642  26.797  20.077  1.00  0.00    -0.358 N 
ATOM     23  H8  UNL     1      11.432  26.596  20.690  1.00  0.00     0.162 HD
BRANCH  22  24
HETATM   24  C8  UNL     1       9.314  26.825  20.656  1.00  0.00     0.143 C 
BRANCH  24  25
HETATM   25  C9  UNL     1       8.922  28.173  21.203  1.00  0.00     0.157 C 
BRANCH  25  26
HETATM   26  N9  UNL     1       8.269  28.939  20.157  1.00  0.00    -0.225 N 
ATOM     27  H9  UNL     1       8.608  29.875  19.935  1.00  0.00     0.177 HD
BRANCH  26  28
HETATM   28  C10 UNL     1       7.158  28.403  19.435  1.00  0.00     0.669 C 
HETATM   29  N10 UNL     1       6.075  28.184  20.057  1.00  0.00    -0.227 N 
HETATM   30  C11 UNL     1       4.902  27.651  19.439  1.00  0.00     0.139 C 
ATOM     31  H10 UNL     1       6.040  28.400  21.053  1.00  0.00     0.177 HD
HETATM   32  C12 UNL     1       4.924  27.686  17.927  1.00  0.00     0.040 C 
HETATM   33  C13 UNL     1       6.287  27.207  17.457  1.00  0.00     0.139 C 
HETATM   34  N11 UNL     1       7.250  28.117  18.048  1.00  0.00    -0.227 N 
ATOM     35  H11 UNL     1       7.980  28.544  17.477  1.00  0.00     0.177 HD
ENDBRANCH  26  28
ENDBRANCH  25  26
ENDBRANCH  24  25
ENDBRANCH  22  24
ENDBRANCH  19  20
ENDBRANCH   1  19
BRANCH   1  36
HETATM   36  N12 UNL     1      12.214  26.188  15.821  1.00  0.00    -0.012 NA
BRANCH  36  37
HETATM   37  N13 UNL     1      11.043  26.221  15.075  1.00  0.00    -0.328 N 
ATOM     38 2H13 UNL     1      11.049  26.275  14.057  1.00  0.00     0.174 HD
ATOM     39 1H13 UNL     1      10.194  26.186  15.639  1.00  0.00     0.174 HD
ENDBRANCH  36  37
ENDBRANCH   1  36
TORSDOF 10
ENDMDL
MODEL 2
REMARK VINA RESULT: -7.623221196      2.308      2.963
REMARK  10 active torsions:
REMARK  status: ('A' for Active; 'I' for Inactive)
REMARK    1  A    between atoms: C4_7  and  N4_8 
REMARK    2  A    between atoms: C5_14  and  N7_15 
REMARK    3  A    between atoms: N7_15  and  C6_16 
REMARK    4  A    between atoms: N7_15  and  N12_33 
REMARK    5  A    between atoms: C6_16  and  C7_17 
REMARK       I    between atoms: C7_17  and  N8_19 
REMARK    6  A    between atoms: N8_19  and  C8_21 
REMARK    7  A    between atoms: C8_21  and  C9_22 
REMARK    8  A    between atoms: C9_22  and  N9_23 
REMARK    9  A    between atoms: N9_23  and  C10_25 
REMARK   10  A    between atoms: N12_33  and  N13_34 
ROOT
HETATM    1  N7  UNL     1      10.637  27.431  18.208  1.00  0.00    -0.097 N 
ENDROOT
BRANCH   1   2
HETATM    2  C5  UNL     1      11.151  28.539  17.489  1.00  0.00     0.728 A 
HETATM    3  N6  UNL     1      10.478  29.594  16.981  1.00  0.00    -0.107 N 
HETATM    4  N5  UNL     1      11.276  30.437  16.356  1.00  0.00    -0.053 N 
ATOM      5  H6  UNL     1       9.471  29.723  17.070  1.00  0.00     0.207 HD
HETATM    6  C4  UNL     1      11.091  31.607  15.699  1.00  0.00     0.167 A 
HETATM    7  C14 UNL     1      12.506  29.902  16.469  1.00  0.00     0.723 A 
HETATM    8  C3  UNL     1      12.140  32.292  15.125  1.00  0.00     0.134 A 
HETATM    9  C2  UNL     1      13.394  31.732  15.249  1.00  0.00     0.162 A 
HETATM   10  N3  UNL     1      11.940  33.532  14.428  1.00  0.00    -0.095 NA
HETATM   11  N1  UNL     1      13.550  30.571  15.905  1.00  0.00    -0.170 N 
HETATM   12  N2  UNL     1      14.487  32.427  14.661  1.00  0.00    -0.080 NA
HETATM   13  C1  UNL     1      14.870  29.983  16.034  1.00  0.00     0.177 C 
HETATM   14  N14 UNL     1      12.443  28.748  17.156  1.00  0.00    -0.018 N 
ATOM     15  H14 UNL     1      13.229  28.140  17.384  1.00  0.00     0.203 HD
BRANCH   6  16
HETATM   16  N4  UNL     1       9.896  32.105  15.600  1.00  0.00    -0.382 N 
ATOM     17  H42 UNL     1       9.741  33.088  15.822  1.00  0.00     0.157 HD
ATOM     18  H41 UNL     1       9.135  31.494  15.301  1.00  0.00     0.157 HD
ENDBRANCH   6  16
ENDBRANCH   1   2
BRANCH   1  19
HETATM   19  C6  UNL     1      10.088  27.605  19.515  1.00  0.00     0.268 C 
BRANCH  19  20
HETATM   20  C7  UNL     1       8.732  28.177  19.576  1.00  0.00     0.237 C 
HETATM   21  O1  UNL     1       8.635  29.449  19.756  1.00  0.00    -0.272 OA
HETATM   22  N8  UNL     1       7.560  27.401  19.448  1.00  0.00    -0.358 N 
ATOM     23  H8  UNL     1       7.659  26.396  19.310  1.00  0.00     0.162 HD
BRANCH  22  24
HETATM   24  C8  UNL     1       6.223  27.957  19.502  1.00  0.00     0.143 C 
BRANCH  24  25
HETATM   25  C9  UNL     1       5.435  27.759  18.233  1.00  0.00     0.157 C 
BRANCH  25  26
HETATM   26  N9  UNL     1       4.647  26.546  18.346  1.00  0.00    -0.225 N 
ATOM     27  H9  UNL     1       4.100  26.379  19.190  1.00  0.00     0.177 HD
BRANCH  26  28
HETATM   28  C10 UNL     1       4.626  25.580  17.292  1.00  0.00     0.669 C 
HETATM   29  N10 UNL     1       3.595  24.857  17.147  1.00  0.00    -0.227 N 
HETATM   30  C11 UNL     1       3.461  23.862  16.130  1.00  0.00     0.139 C 
ATOM     31  H10 UNL     1       2.817  24.994  17.792  1.00  0.00     0.177 HD
HETATM   32  C12 UNL     1       4.490  23.960  15.025  1.00  0.00     0.040 C 
HETATM   33  C13 UNL     1       5.852  24.191  15.657  1.00  0.00     0.139 C 
HETATM   34  N11 UNL     1       5.731  25.423  16.415  1.00  0.00    -0.227 N 
ATOM     35  H11 UNL     1       6.427  26.162  16.319  1.00  0.00     0.177 HD
ENDBRANCH  26  28
ENDBRANCH  25  26
ENDBRANCH  24  25
ENDBRANCH  22  24
ENDBRANCH  19  20
ENDBRANCH   1  19
BRANCH   1  36
HETATM   36  N12 UNL     1      10.674  26.171  17.625  1.00  0.00    -0.012 NA
BRANCH  36  37
HETATM   37  N13 UNL     1      11.530  25.282  18.261  1.00  0.00    -0.328 N 
ATOM     38 2H13 UNL     1      11.749  25.356  19.255  1.00  0.00     0.174 HD
ATOM     39 1H13 UNL     1      11.910  24.562  17.646  1.00  0.00     0.174 HD
ENDBRANCH  36  37
ENDBRANCH   1  36
TORSDOF 10
ENDMDL
MODEL 3
REMARK VINA RESULT: -7.573397012      1.928      2.646
REMARK  10 active torsions:
REMARK  status: ('A' for Active; 'I' for Inactive)
REMARK    1  A    between atoms: C4_7  and  N4_8 
REMARK    2  A    between atoms: C5_14  and  N7_15 
REMARK    3  A    between atoms: N7_15  and  C6_16 
REMARK    4  A    between atoms: N7_15  and  N12_33 
REMARK    5  A    between atoms: C6_16  and  C7_17 
REMARK       I    between atoms: C7_17  and  N8_19 
REMARK    6  A    between atoms: N8_19  and  C8_21 
REMARK    7  A    between atoms: C8_21  and  C9_22 
REMARK    8  A    between atoms: C9_22  and  N9_23 
REMARK    9  A    between atoms: N9_23  and  C10_25 
REMARK   10  A    between atoms: N12_33  and  N13_34 
ROOT
HETATM    1  N7  UNL     1      10.792  29.381  16.770  1.00  0.00    -0.097 N 
ENDROOT
BRANCH   1   2
HETATM    2  C5  UNL     1      11.138  30.199  15.664  1.00  0.00     0.728 A 
HETATM    3  N6  UNL     1      11.349  31.532  15.641  1.00  0.00    -0.107 N 
HETATM    4  N5  UNL     1      11.641  31.967  14.432  1.00  0.00    -0.053 N 
ATOM      5  H6  UNL     1      11.289  32.132  16.463  1.00  0.00     0.207 HD
HETATM    6  C4  UNL     1      11.927  33.182  13.904  1.00  0.00     0.167 A 
HETATM    7  C14 UNL     1      11.617  30.871  13.651  1.00  0.00     0.723 A 
HETATM    8  C3  UNL     1      12.201  33.346  12.564  1.00  0.00     0.134 A 
HETATM    9  C2  UNL     1      12.173  32.215  11.777  1.00  0.00     0.162 A 
HETATM   10  N3  UNL     1      12.503  34.635  12.008  1.00  0.00    -0.095 NA
HETATM   11  N1  UNL     1      11.887  31.022  12.325  1.00  0.00    -0.170 N 
HETATM   12  N2  UNL     1      12.453  32.368  10.391  1.00  0.00    -0.080 NA
HETATM   13  C1  UNL     1      11.857  29.832  11.495  1.00  0.00     0.177 C 
HETATM   14  N14 UNL     1      11.312  29.789  14.389  1.00  0.00    -0.018 N 
ATOM     15  H14 UNL     1      11.228  28.832  14.047  1.00  0.00     0.203 HD
BRANCH   6  16
HETATM   16  N4  UNL     1      11.944  34.227  14.674  1.00  0.00    -0.382 N 
ATOM     17  H42 UNL     1      11.971  35.158  14.259  1.00  0.00     0.157 HD
ATOM     18  H41 UNL     1      11.931  34.089  15.685  1.00  0.00     0.157 HD
ENDBRANCH   6  16
ENDBRANCH   1   2
BRANCH   1  19
HETATM   19  C6  UNL     1      11.360  28.078  16.914  1.00  0.00     0.268 C 
BRANCH  19  20
HETATM   20  C7  UNL     1      10.760  27.224  17.954  1.00  0.00     0.237 C 
HETATM   21  O1  UNL     1      10.190  26.136  17.568  1.00  0.00    -0.272 OA
HETATM   22  N8  UNL     1      10.785  27.547  19.328  1.00  0.00    -0.358 N 
ATOM     23  H8  UNL     1      11.238  28.416  19.612  1.00  0.00     0.162 HD
BRANCH  22  24
HETATM   24  C8  UNL     1      10.201  26.710  20.357  1.00  0.00     0.143 C 
BRANCH  24  25
HETATM   25  C9  UNL     1       9.036  27.349  21.066  1.00  0.00     0.157 C 
BRANCH  25  26
HETATM   26  N9  UNL     1       8.345  28.234  20.145  1.00  0.00    -0.225 N 
ATOM     27  H9  UNL     1       8.714  29.169  19.975  1.00  0.00     0.177 HD
BRANCH  26  28
HETATM   28  C10 UNL     1       7.155  27.814  19.473  1.00  0.00     0.669 C 
HETATM   29  N10 UNL     1       7.264  27.149  18.399  1.00  0.00    -0.227 N 
HETATM   30  C11 UNL     1       6.146  26.677  17.643  1.00  0.00     0.139 C 
ATOM     31  H10 UNL     1       8.200  26.939  18.055  1.00  0.00     0.177 HD
HETATM   32  C12 UNL     1       4.829  26.725  18.385  1.00  0.00     0.040 C 
HETATM   33  C13 UNL     1       4.727  28.064  19.095  1.00  0.00     0.139 C 
HETATM   34  N11 UNL     1       5.870  28.126  19.986  1.00  0.00    -0.227 N 
ATOM     35  H11 UNL     1       5.751  28.390  20.965  1.00  0.00     0.177 HD
ENDBRANCH  26  28
ENDBRANCH  25  26
ENDBRANCH  24  25
ENDBRANCH  22  24
ENDBRANCH  19  20
ENDBRANCH   1  19
BRANCH   1  36
HETATM   36  N12 UNL     1       9.893  29.864  17.712  1.00  0.00    -0.012 NA
BRANCH  36  37
HETATM   37  N13 UNL     1       8.623  30.103  17.205  1.00  0.00    -0.328 N 
ATOM     38 2H13 UNL     1       7.811  29.559  17.495  1.00  0.00     0.174 HD
ATOM     39 1H13 UNL     1       8.586  30.864  16.526  1.00  0.00     0.174 HD
ENDBRANCH  36  37
ENDBRANCH   1  36
TORSDOF 10
ENDMDL
MODEL 4
REMARK VINA RESULT: -7.543390257      2.375      7.987
REMARK  10 active torsions:
REMARK  status: ('A' for Active; 'I' for Inactive)
REMARK    1  A    between atoms: C4_7  and  N4_8 
REMARK    2  A    between atoms: C5_14  and  N7_15 
REMARK    3  A    between atoms: N7_15  and  C6_16 
REMARK    4  A    between atoms: N7_15  and  N12_33 
REMARK    5  A    between atoms: C6_16  and  C7_17 
REMARK       I    between atoms: C7_17  and  N8_19 
REMARK    6  A    between atoms: N8_19  and  C8_21 
REMARK    7  A    between atoms: C8_21  and  C9_22 
REMARK    8  A    between atoms: C9_22  and  N9_23 
REMARK    9  A    between atoms: N9_23  and  C10_25 
REMARK   10  A    between atoms: N12_33  and  N13_34 
ROOT
HETATM    1  N7  UNL     1      12.858  29.777  16.286  1.00  0.00    -0.097 N 
ENDROOT
BRANCH   1   2
HETATM    2  C5  UNL     1      11.578  29.328  16.699  1.00  0.00     0.728 A 
HETATM    3  N6  UNL     1      10.939  29.574  17.863  1.00  0.00    -0.107 N 
HETATM    4  N5  UNL     1       9.762  28.984  17.916  1.00  0.00    -0.053 N 
ATOM      5  H6  UNL     1      11.323  30.148  18.613  1.00  0.00     0.207 HD
HETATM    6  C4  UNL     1       8.771  28.925  18.839  1.00  0.00     0.167 A 
HETATM    7  C14 UNL     1       9.642  28.337  16.742  1.00  0.00     0.723 A 
HETATM    8  C3  UNL     1       7.615  28.209  18.619  1.00  0.00     0.134 A 
HETATM    9  C2  UNL     1       7.506  27.552  17.412  1.00  0.00     0.162 A 
HETATM   10  N3  UNL     1       6.568  28.148  19.600  1.00  0.00    -0.095 NA
HETATM   11  N1  UNL     1       8.502  27.627  16.514  1.00  0.00    -0.170 N 
HETATM   12  N2  UNL     1       6.318  26.809  17.171  1.00  0.00    -0.080 NA
HETATM   13  C1  UNL     1       8.387  26.935  15.245  1.00  0.00     0.177 C 
HETATM   14  N14 UNL     1      10.740  28.539  15.993  1.00  0.00    -0.018 N 
ATOM     15  H14 UNL     1      10.910  28.164  15.060  1.00  0.00     0.203 HD
BRANCH   6  16
HETATM   16  N4  UNL     1       8.908  29.555  19.966  1.00  0.00    -0.382 N 
ATOM     17  H42 UNL     1       8.158  30.163  20.296  1.00  0.00     0.157 HD
ATOM     18  H41 UNL     1       9.769  29.426  20.497  1.00  0.00     0.157 HD
ENDBRANCH   6  16
ENDBRANCH   1   2
BRANCH   1  19
HETATM   19  C6  UNL     1      13.895  28.839  15.991  1.00  0.00     0.268 C 
BRANCH  19  20
HETATM   20  C7  UNL     1      15.151  29.407  15.473  1.00  0.00     0.237 C 
HETATM   21  O1  UNL     1      16.187  29.346  16.235  1.00  0.00    -0.272 OA
HETATM   22  N8  UNL     1      15.260  30.006  14.199  1.00  0.00    -0.358 N 
ATOM     23  H8  UNL     1      14.427  30.048  13.612  1.00  0.00     0.162 HD
BRANCH  22  24
HETATM   24  C8  UNL     1      16.493  30.563  13.680  1.00  0.00     0.143 C 
BRANCH  24  25
HETATM   25  C9  UNL     1      16.406  32.034  13.365  1.00  0.00     0.157 C 
BRANCH  25  26
HETATM   26  N9  UNL     1      15.411  32.647  14.226  1.00  0.00    -0.225 N 
ATOM     27  H9  UNL     1      15.558  32.658  15.235  1.00  0.00     0.177 HD
BRANCH  26  28
HETATM   28  C10 UNL     1      14.227  33.235  13.682  1.00  0.00     0.669 C 
HETATM   29  N10 UNL     1      13.381  33.748  14.474  1.00  0.00    -0.227 N 
HETATM   30  C11 UNL     1      12.164  34.363  14.045  1.00  0.00     0.139 C 
ATOM     31  H10 UNL     1      13.580  33.721  15.474  1.00  0.00     0.177 HD
HETATM   32  C12 UNL     1      12.111  34.668  12.564  1.00  0.00     0.040 C 
HETATM   33  C13 UNL     1      12.634  33.460  11.806  1.00  0.00     0.139 C 
HETATM   34  N11 UNL     1      13.989  33.252  12.283  1.00  0.00    -0.227 N 
ATOM     35  H11 UNL     1      14.757  33.121  11.624  1.00  0.00     0.177 HD
ENDBRANCH  26  28
ENDBRANCH  25  26
ENDBRANCH  24  25
ENDBRANCH  22  24
ENDBRANCH  19  20
ENDBRANCH   1  19
BRANCH   1  36
HETATM   36  N12 UNL     1      13.092  31.141  16.172  1.00  0.00    -0.012 NA
BRANCH  36  37
HETATM   37  N13 UNL     1      13.461  31.749  17.365  1.00  0.00    -0.328 N 
ATOM     38 2H13 UNL     1      13.450  31.251  18.255  1.00  0.00     0.174 HD
ATOM     39 1H13 UNL     1      13.738  32.726  17.261  1.00  0.00     0.174 HD
ENDBRANCH  36  37
ENDBRANCH   1  36
TORSDOF 10
ENDMDL
MODEL 5
REMARK VINA RESULT: -7.529279646      2.770      8.499
REMARK  10 active torsions:
REMARK  status: ('A' for Active; 'I' for Inactive)
REMARK    1  A    between atoms: C4_7  and  N4_8 
REMARK    2  A    between atoms: C5_14  and  N7_15 
REMARK    3  A    between atoms: N7_15  and  C6_16 
REMARK    4  A    between atoms: N7_15  and  N12_33 
REMARK    5  A    between atoms: C6_16  and  C7_17 
REMARK       I    between atoms: C7_17  and  N8_19 
REMARK    6  A    between atoms: N8_19  and  C8_21 
REMARK    7  A    between atoms: C8_21  and  C9_22 
REMARK    8  A    between atoms: C9_22  and  N9_23 
REMARK    9  A    between atoms: N9_23  and  C10_25 
REMARK   10  A    between atoms: N12_33  and  N13_34 
ROOT
HETATM    1  N7  UNL     1       8.193  28.274  19.038  1.00  0.00    -0.097 N 
ENDROOT
BRANCH   1   2
HETATM    2  C5  UNL     1       7.573  27.398  18.111  1.00  0.00     0.728 A 
HETATM    3  N6  UNL     1       6.341  26.849  18.171  1.00  0.00    -0.107 N 
HETATM    4  N5  UNL     1       6.096  26.067  17.139  1.00  0.00    -0.053 N 
ATOM      5  H6  UNL     1       5.678  27.019  18.927  1.00  0.00     0.207 HD
HETATM    6  C4  UNL     1       5.040  25.311  16.751  1.00  0.00     0.167 A 
HETATM    7  C14 UNL     1       7.213  26.117  16.390  1.00  0.00     0.723 A 
HETATM    8  C3  UNL     1       5.063  24.572  15.589  1.00  0.00     0.134 A 
HETATM    9  C2  UNL     1       6.213  24.634  14.831  1.00  0.00     0.162 A 
HETATM   10  N3  UNL     1       3.942  23.773  15.181  1.00  0.00    -0.095 NA
HETATM   11  N1  UNL     1       7.246  25.391  15.238  1.00  0.00    -0.170 N 
HETATM   12  N2  UNL     1       6.253  23.876  13.629  1.00  0.00    -0.080 NA
HETATM   13  C1  UNL     1       8.456  25.454  14.440  1.00  0.00     0.177 C 
HETATM   14  N14 UNL     1       8.118  26.923  16.970  1.00  0.00    -0.018 N 
ATOM     15  H14 UNL     1       9.049  27.138  16.613  1.00  0.00     0.203 HD
BRANCH   6  16
HETATM   16  N4  UNL     1       3.972  25.275  17.489  1.00  0.00    -0.382 N 
ATOM     17  H42 UNL     1       3.408  24.426  17.516  1.00  0.00     0.157 HD
ATOM     18  H41 UNL     1       3.722  26.106  18.027  1.00  0.00     0.157 HD
ENDBRANCH   6  16
ENDBRANCH   1   2
BRANCH   1  19
HETATM   19  C6  UNL     1       9.593  28.543  18.958  1.00  0.00     0.268 C 
BRANCH  19  20
HETATM   20  C7  UNL     1      10.019  29.430  17.862  1.00  0.00     0.237 C 
HETATM   21  O1  UNL     1       9.113  30.153  17.301  1.00  0.00    -0.272 OA
HETATM   22  N8  UNL     1      11.354  29.514  17.410  1.00  0.00    -0.358 N 
ATOM     23  H8  UNL     1      12.055  28.930  17.865  1.00  0.00     0.162 HD
BRANCH  22  24
HETATM   24  C8  UNL     1      11.782  30.387  16.336  1.00  0.00     0.143 C 
BRANCH  24  25
HETATM   25  C9  UNL     1      12.340  31.703  16.812  1.00  0.00     0.157 C 
BRANCH  25  26
HETATM   26  N9  UNL     1      11.703  32.783  16.081  1.00  0.00    -0.225 N 
ATOM     27  H9  UNL     1      10.876  33.235  16.472  1.00  0.00     0.177 HD
BRANCH  26  28
HETATM   28  C10 UNL     1      12.216  33.223  14.822  1.00  0.00     0.669 C 
HETATM   29  N10 UNL     1      13.469  33.198  14.631  1.00  0.00    -0.227 N 
HETATM   30  C11 UNL     1      14.094  33.612  13.414  1.00  0.00     0.139 C 
ATOM     31  H10 UNL     1      14.064  32.862  15.388  1.00  0.00     0.177 HD
HETATM   32  C12 UNL     1      13.144  33.761  12.247  1.00  0.00     0.040 C 
HETATM   33  C13 UNL     1      11.905  34.496  12.727  1.00  0.00     0.139 C 
HETATM   34  N11 UNL     1      11.352  33.682  13.794  1.00  0.00    -0.227 N 
ATOM     35  H11 UNL     1      10.360  33.444  13.804  1.00  0.00     0.177 HD
ENDBRANCH  26  28
ENDBRANCH  25  26
ENDBRANCH  24  25
ENDBRANCH  22  24
ENDBRANCH  19  20
ENDBRANCH   1  19
BRANCH   1  36
HETATM   36  N12 UNL     1       7.419  28.868  20.026  1.00  0.00    -0.012 NA
BRANCH  36  37
HETATM   37  N13 UNL     1       8.109  29.119  21.205  1.00  0.00    -0.328 N 
ATOM     38 2H13 UNL     1       9.015  28.695  21.405  1.00  0.00     0.174 HD
ATOM     39 1H13 UNL     1       7.627  29.759  21.837  1.00  0.00     0.174 HD
ENDBRANCH  36  37
ENDBRANCH   1  36
TORSDOF 10
ENDMDL
