MODEL 1
REMARK VINA RESULT: -7.635310415      0.000      0.000
REMARK  12 active torsions:
REMARK  status: ('A' for Active; 'I' for Inactive)
REMARK    1  A    between atoms: N1_1  and  C1_4 
REMARK    2  A    between atoms: C2_7  and  O1_8 
REMARK    3  A    between atoms: C3_10  and  C4_11 
REMARK    4  A    between atoms: C4_11  and  C5_12 
REMARK    5  A    between atoms: C7_17  and  N5_18 
REMARK    6  A    between atoms: N5_18  and  C8_20 
REMARK    7  A    between atoms: C8_20  and  S1_21 
REMARK    8  A    between atoms: S1_21  and  C9_22 
REMARK    9  A    between atoms: C9_22  and  C10_23 
REMARK   10  A    between atoms: C10_23  and  N6_24 
REMARK   11  A    between atoms: C10_23  and  C11_28 
REMARK   12  A    between atoms: C13_38  and  N10_39 
ROOT
HETATM    1  C5  UNL     1      11.725  28.997  16.631  1.00  0.00     0.030 A 
HETATM    2  C6  UNL     1      13.046  28.631  16.545  1.00  0.00     0.123 A 
HETATM    3  N3  UNL     1      13.738  29.716  16.183  1.00  0.00    -0.288 N 
ATOM      4  H3  UNL     1      14.747  29.745  16.040  1.00  0.00     0.187 HD
HETATM    5  N4  UNL     1      12.924  30.745  16.038  1.00  0.00    -0.067 N 
HETATM    6  C7  UNL     1      13.181  32.036  15.683  1.00  0.00     0.717 A 
HETATM    7  N7  UNL     1      12.133  32.856  15.621  1.00  0.00    -0.116 N 
ATOM      8  H7  UNL     1      12.296  33.827  15.358  1.00  0.00     0.207 HD
HETATM    9  N8  UNL     1      10.909  32.485  15.878  1.00  0.00    -0.227 N 
ATOM     10  H8  UNL     1      10.147  33.161  15.814  1.00  0.00     0.209 HD
HETATM   11  N9  UNL     1      10.655  31.235  16.221  1.00  0.00    -0.268 N 
ATOM     12  H9  UNL     1       9.699  30.941  16.421  1.00  0.00     0.190 HD
HETATM   13  C12 UNL     1      11.682  30.338  16.305  1.00  0.00     0.172 A 
ENDROOT
BRANCH   1  14
HETATM   14  C4  UNL     1      10.675  28.257  16.955  1.00  0.00     0.036 C 
BRANCH  14  15
HETATM   15  C3  UNL     1      10.127  28.245  18.300  1.00  0.00     0.060 A 
HETATM   16  C2  UNL     1       9.112  29.102  18.698  1.00  0.00     0.169 A 
HETATM   17  N2  UNL     1       8.628  29.062  19.952  1.00  0.00    -0.170 N 
HETATM   18  C1  UNL     1       9.117  28.183  20.874  1.00  0.00     0.679 A 
ATOM     19  H2  UNL     1       7.881  29.702  20.220  1.00  0.00     0.186 HD
HETATM   20  N11 UNL     1      10.102  27.342  20.511  1.00  0.00    -0.176 N 
HETATM   21  C13 UNL     1      10.594  27.371  19.259  1.00  0.00     0.129 A 
ATOM     22  H11 UNL     1      10.479  26.679  21.189  1.00  0.00     0.186 HD
BRANCH  16  23
HETATM   23  O1  UNL     1       8.587  30.014  17.784  1.00  0.00    -0.345 OA
ATOM     24  H1  UNL     1       8.075  29.701  17.048  1.00  0.00     0.219 HD
ENDBRANCH  16  23
BRANCH  18  25
HETATM   25  N1  UNL     1       8.666  28.131  22.081  1.00  0.00    -0.234 N 
ATOM     26  H12 UNL     1       7.658  28.184  22.233  1.00  0.00     0.174 HD
ATOM     27  H11 UNL     1       9.283  28.039  22.888  1.00  0.00     0.174 HD
ENDBRANCH  18  25
BRANCH  21  28
HETATM   28  N10 UNL     1      11.539  26.544  18.958  1.00  0.00    -0.384 N 
ATOM     29 2H10 UNL     1      11.357  25.546  19.068  1.00  0.00     0.157 HD
ATOM     30 1H10 UNL     1      12.432  26.903  18.622  1.00  0.00     0.157 HD
ENDBRANCH  21  28
ENDBRANCH  14  15
ENDBRANCH   1  14
BRANCH   6  31
HETATM   31  N5  UNL     1      14.390  32.367  15.440  1.00  0.00    -0.214 N 
ATOM     32  H5  UNL     1      15.092  32.229  16.168  1.00  0.00     0.178 HD
BRANCH  31  33
HETATM   33  C8  UNL     1      14.804  32.926  14.176  1.00  0.00     0.212 C 
BRANCH  33  34
HETATM   34  S1  UNL     1      14.590  31.706  12.876  1.00  0.00    -0.146 SA
BRANCH  34  35
HETATM   35  C9  UNL     1      13.825  32.400  11.413  1.00  0.00     0.119 C 
BRANCH  35  36
HETATM   36  C10 UNL     1      12.392  31.896  11.230  1.00  0.00     0.292 C 
BRANCH  36  37
HETATM   37  N6  UNL     1      12.473  30.458  11.046  1.00  0.00    -0.065 N 
ATOM     38  H63 UNL     1      13.380  30.070  11.307  1.00  0.00     0.275 HD
ATOM     39  H62 UNL     1      11.911  29.935  11.717  1.00  0.00     0.275 HD
ATOM     40  H61 UNL     1      12.219  30.270  10.076  1.00  0.00     0.275 HD
ENDBRANCH  36  37
BRANCH  36  41
HETATM   41  C11 UNL     1      11.556  32.248  12.397  1.00  0.00     0.205 C 
HETATM   42  O2  UNL     1      10.962  31.340  13.022  1.00  0.00    -0.646 OA
HETATM   43  O3  UNL     1      11.416  33.559  12.817  1.00  0.00    -0.646 OA
ENDBRANCH  36  41
ENDBRANCH  35  36
ENDBRANCH  34  35
ENDBRANCH  33  34
ENDBRANCH  31  33
ENDBRANCH   6  31
TORSDOF 12
ENDMDL
MODEL 2
REMARK VINA RESULT: -7.574608874      3.129      7.140
REMARK  12 active torsions:
REMARK  status: ('A' for Active; 'I' for Inactive)
REMARK    1  A    between atoms: N1_1  and  C1_4 
REMARK    2  A    between atoms: C2_7  and  O1_8 
REMARK    3  A    between atoms: C3_10  and  C4_11 
REMARK    4  A    between atoms: C4_11  and  C5_12 
REMARK    5  A    between atoms: C7_17  and  N5_18 
REMARK    6  A    between atoms: N5_18  and  C8_20 
REMARK    7  A    between atoms: C8_20  and  S1_21 
REMARK    8  A    between atoms: S1_21  and  C9_22 
REMARK    9  A    between atoms: C9_22  and  C10_23 
REMARK   10  A    between atoms: C10_23  and  N6_24 
REMARK   11  A    between atoms: C10_23  and  C11_28 
REMARK   12  A    between atoms: C13_38  and  N10_39 
ROOT
HETATM    1  C5  UNL     1      12.662  28.288  16.216  1.00  0.00     0.030 A 
HETATM    2  C6  UNL     1      12.128  27.820  15.041  1.00  0.00     0.123 A 
HETATM    3  N3  UNL     1      11.468  26.691  15.325  1.00  0.00    -0.288 N 
ATOM      4  H3  UNL     1      10.969  26.119  14.644  1.00  0.00     0.187 HD
HETATM    5  N4  UNL     1      11.558  26.427  16.614  1.00  0.00    -0.067 N 
HETATM    6  C7  UNL     1      11.049  25.394  17.346  1.00  0.00     0.717 A 
HETATM    7  N7  UNL     1      11.315  25.401  18.651  1.00  0.00    -0.116 N 
ATOM      8  H7  UNL     1      10.947  24.641  19.221  1.00  0.00     0.207 HD
HETATM    9  N8  UNL     1      12.021  26.327  19.240  1.00  0.00    -0.227 N 
ATOM     10  H8  UNL     1      12.189  26.278  20.244  1.00  0.00     0.209 HD
HETATM   11  N9  UNL     1      12.517  27.329  18.536  1.00  0.00    -0.268 N 
ATOM     12  H9  UNL     1      13.070  28.053  18.992  1.00  0.00     0.190 HD
HETATM   13  C12 UNL     1      12.284  27.386  17.190  1.00  0.00     0.172 A 
ENDROOT
BRANCH   1  14
HETATM   14  C4  UNL     1      13.393  29.373  16.424  1.00  0.00     0.036 C 
BRANCH  14  15
HETATM   15  C3  UNL     1      12.981  30.682  15.949  1.00  0.00     0.060 A 
HETATM   16  C2  UNL     1      12.077  31.474  16.641  1.00  0.00     0.169 A 
HETATM   17  N2  UNL     1      11.718  32.682  16.171  1.00  0.00    -0.170 N 
HETATM   18  C1  UNL     1      12.228  33.170  15.003  1.00  0.00     0.679 A 
ATOM     19  H2  UNL     1      11.052  33.246  16.699  1.00  0.00     0.186 HD
HETATM   20  N11 UNL     1      13.106  32.419  14.314  1.00  0.00    -0.176 N 
HETATM   21  C13 UNL     1      13.474  31.209  14.773  1.00  0.00     0.129 A 
ATOM     22  H11 UNL     1      13.495  32.769  13.438  1.00  0.00     0.186 HD
BRANCH  16  23
HETATM   23  O1  UNL     1      11.536  31.010  17.839  1.00  0.00    -0.345 OA
ATOM     24  H1  UNL     1      10.618  30.768  17.878  1.00  0.00     0.219 HD
ENDBRANCH  16  23
BRANCH  18  25
HETATM   25  N1  UNL     1      11.894  34.325  14.538  1.00  0.00    -0.234 N 
ATOM     26  H12 UNL     1      10.977  34.705  14.771  1.00  0.00     0.174 HD
ATOM     27  H11 UNL     1      12.518  34.872  13.944  1.00  0.00     0.174 HD
ENDBRANCH  18  25
BRANCH  21  28
HETATM   28  N10 UNL     1      14.321  30.526  14.078  1.00  0.00    -0.384 N 
ATOM     29 2H10 UNL     1      15.311  30.753  14.170  1.00  0.00     0.157 HD
ATOM     30 1H10 UNL     1      13.983  29.786  13.462  1.00  0.00     0.157 HD
ENDBRANCH  21  28
ENDBRANCH  14  15
ENDBRANCH   1  14
BRANCH   6  31
HETATM   31  N5  UNL     1      10.362  24.505  16.738  1.00  0.00    -0.214 N 
ATOM     32  H5  UNL     1      10.832  23.896  16.068  1.00  0.00     0.178 HD
BRANCH  31  33
HETATM   33  C8  UNL     1       8.948  24.327  16.963  1.00  0.00     0.212 C 
BRANCH  33  34
HETATM   34  S1  UNL     1       8.098  25.892  16.732  1.00  0.00    -0.146 SA
BRANCH  34  35
HETATM   35  C9  UNL     1       7.939  26.810  18.262  1.00  0.00     0.119 C 
BRANCH  35  36
HETATM   36  C10 UNL     1       8.664  28.156  18.193  1.00  0.00     0.292 C 
BRANCH  36  37
HETATM   37  N6  UNL     1       7.725  29.111  17.635  1.00  0.00    -0.065 N 
ATOM     38  H63 UNL     1       6.825  28.695  17.392  1.00  0.00     0.275 HD
ATOM     39  H62 UNL     1       7.377  29.780  18.321  1.00  0.00     0.275 HD
ATOM     40  H61 UNL     1       8.190  29.554  16.842  1.00  0.00     0.275 HD
ENDBRANCH  36  37
BRANCH  36  41
HETATM   41  C11 UNL     1       9.133  28.571  19.532  1.00  0.00     0.205 C 
HETATM   42  O2  UNL     1       9.834  27.783  20.207  1.00  0.00    -0.646 OA
HETATM   43  O3  UNL     1       8.815  29.811  20.057  1.00  0.00    -0.646 OA
ENDBRANCH  36  41
ENDBRANCH  35  36
ENDBRANCH  34  35
ENDBRANCH  33  34
ENDBRANCH  31  33
ENDBRANCH   6  31
TORSDOF 12
ENDMDL
MODEL 3
REMARK VINA RESULT: -7.490176938      2.137      2.960
REMARK  12 active torsions:
REMARK  status: ('A' for Active; 'I' for Inactive)
REMARK    1  A    between atoms: N1_1  and  C1_4 
REMARK    2  A    between atoms: C2_7  and  O1_8 
REMARK    3  A    between atoms: C3_10  and  C4_11 
REMARK    4  A    between atoms: C4_11  and  C5_12 
REMARK    5  A    between atoms: C7_17  and  N5_18 
REMARK    6  A    between atoms: N5_18  and  C8_20 
REMARK    7  A    between atoms: C8_20  and  S1_21 
REMARK    8  A    between atoms: S1_21  and  C9_22 
REMARK    9  A    between atoms: C9_22  and  C10_23 
REMARK   10  A    between atoms: C10_23  and  N6_24 
REMARK   11  A    between atoms: C10_23  and  C11_28 
REMARK   12  A    between atoms: C13_38  and  N10_39 
ROOT
HETATM    1  C5  UNL     1      11.655  27.929  16.510  1.00  0.00     0.030 A 
HETATM    2  C6  UNL     1      11.034  27.694  15.308  1.00  0.00     0.123 A 
HETATM    3  N3  UNL     1      11.723  28.351  14.369  1.00  0.00    -0.288 N 
ATOM      4  H3  UNL     1      11.494  28.360  13.375  1.00  0.00     0.187 HD
HETATM    5  N4  UNL     1      12.742  28.985  14.915  1.00  0.00    -0.067 N 
HETATM    6  C7  UNL     1      13.703  29.772  14.352  1.00  0.00     0.717 A 
HETATM    7  N7  UNL     1      14.615  30.282  15.178  1.00  0.00    -0.116 N 
ATOM      8  H7  UNL     1      15.345  30.874  14.783  1.00  0.00     0.207 HD
HETATM    9  N8  UNL     1      14.627  30.065  16.464  1.00  0.00    -0.227 N 
ATOM     10  H8  UNL     1      15.354  30.482  17.045  1.00  0.00     0.209 HD
HETATM   11  N9  UNL     1      13.698  29.304  17.015  1.00  0.00    -0.268 N 
ATOM     12  H9  UNL     1      13.703  29.134  18.020  1.00  0.00     0.190 HD
HETATM   13  C12 UNL     1      12.729  28.748  16.228  1.00  0.00     0.172 A 
ENDROOT
BRANCH   1  14
HETATM   14  C4  UNL     1      11.330  27.486  17.716  1.00  0.00     0.036 C 
BRANCH  14  15
HETATM   15  C3  UNL     1      10.018  27.720  18.294  1.00  0.00     0.060 A 
HETATM   16  C2  UNL     1       9.607  28.972  18.725  1.00  0.00     0.169 A 
HETATM   17  N2  UNL     1       8.384  29.152  19.255  1.00  0.00    -0.170 N 
HETATM   18  C1  UNL     1       7.508  28.114  19.388  1.00  0.00     0.679 A 
ATOM     19  H2  UNL     1       8.105  30.083  19.565  1.00  0.00     0.186 HD
HETATM   20  N11 UNL     1       7.885  26.889  18.977  1.00  0.00    -0.176 N 
HETATM   21  C13 UNL     1       9.105  26.696  18.444  1.00  0.00     0.129 A 
ATOM     22  H11 UNL     1       7.242  26.103  19.070  1.00  0.00     0.186 HD
BRANCH  16  23
HETATM   23  O1  UNL     1      10.474  30.056  18.606  1.00  0.00    -0.345 OA
ATOM     24  H1  UNL     1      10.200  30.828  18.125  1.00  0.00     0.219 HD
ENDBRANCH  16  23
BRANCH  18  25
HETATM   25  N1  UNL     1       6.333  28.267  19.894  1.00  0.00    -0.234 N 
ATOM     26  H12 UNL     1       6.227  28.253  20.909  1.00  0.00     0.174 HD
ATOM     27  H11 UNL     1       5.505  28.404  19.314  1.00  0.00     0.174 HD
ENDBRANCH  18  25
BRANCH  21  28
HETATM   28  N10 UNL     1       9.421  25.504  18.063  1.00  0.00    -0.384 N 
ATOM     29 2H10 UNL     1       9.975  24.928  18.697  1.00  0.00     0.157 HD
ATOM     30 1H10 UNL     1       9.111  25.170  17.150  1.00  0.00     0.157 HD
ENDBRANCH  21  28
ENDBRANCH  14  15
ENDBRANCH   1  14
BRANCH   6  31
HETATM   31  N5  UNL     1      13.663  29.963  13.089  1.00  0.00    -0.214 N 
ATOM     32  H5  UNL     1      13.788  29.163  12.469  1.00  0.00     0.178 HD
BRANCH  31  33
HETATM   33  C8  UNL     1      13.449  31.265  12.506  1.00  0.00     0.212 C 
BRANCH  33  34
HETATM   34  S1  UNL     1      11.694  31.514  12.214  1.00  0.00    -0.146 SA
BRANCH  34  35
HETATM   35  C9  UNL     1      10.859  32.199  13.643  1.00  0.00     0.119 C 
BRANCH  35  36
HETATM   36  C10 UNL     1      11.852  32.646  14.718  1.00  0.00     0.292 C 
BRANCH  36  37
HETATM   37  N6  UNL     1      11.862  34.097  14.703  1.00  0.00    -0.065 N 
ATOM     38  H63 UNL     1      12.143  34.487  13.804  1.00  0.00     0.275 HD
ATOM     39  H62 UNL     1      10.928  34.506  14.736  1.00  0.00     0.275 HD
ATOM     40  H61 UNL     1      12.458  34.396  15.476  1.00  0.00     0.275 HD
ENDBRANCH  36  37
BRANCH  36  41
HETATM   41  C11 UNL     1      11.465  32.118  16.044  1.00  0.00     0.205 C 
HETATM   42  O2  UNL     1      10.294  31.712  16.224  1.00  0.00    -0.646 OA
HETATM   43  O3  UNL     1      12.368  32.061  17.091  1.00  0.00    -0.646 OA
ENDBRANCH  36  41
ENDBRANCH  35  36
ENDBRANCH  34  35
ENDBRANCH  33  34
ENDBRANCH  31  33
ENDBRANCH   6  31
TORSDOF 12
ENDMDL
MODEL 4
REMARK VINA RESULT: -7.414988643      1.137      1.174
REMARK  12 active torsions:
REMARK  status: ('A' for Active; 'I' for Inactive)
REMARK    1  A    between atoms: N1_1  and  C1_4 
REMARK    2  A    between atoms: C2_7  and  O1_8 
REMARK    3  A    between atoms: C3_10  and  C4_11 
REMARK    4  A    between atoms: C4_11  and  C5_12 
REMARK    5  A    between atoms: C7_17  and  N5_18 
REMARK    6  A    between atoms: N5_18  and  C8_20 
REMARK    7  A    between atoms: C8_20  and  S1_21 
REMARK    8  A    between atoms: S1_21  and  C9_22 
REMARK    9  A    between atoms: C9_22  and  C10_23 
REMARK   10  A    between atoms: C10_23  and  N6_24 
REMARK   11  A    between atoms: C10_23  and  C11_28 
REMARK   12  A    between atoms: C13_38  and  N10_39 
ROOT
HETATM    1  C5  UNL     1      11.685  28.684  16.618  1.00  0.00     0.030 A 
HETATM    2  C6  UNL     1      12.888  28.092  16.318  1.00  0.00     0.123 A 
HETATM    3  N3  UNL     1      13.752  29.070  16.029  1.00  0.00    -0.288 N 
ATOM      4  H3  UNL     1      14.728  28.929  15.767  1.00  0.00     0.187 HD
HETATM    5  N4  UNL     1      13.160  30.244  16.131  1.00  0.00    -0.067 N 
HETATM    6  C7  UNL     1      13.644  31.503  15.932  1.00  0.00     0.717 A 
HETATM    7  N7  UNL     1      12.787  32.506  16.115  1.00  0.00    -0.116 N 
ATOM      8  H7  UNL     1      13.123  33.458  15.973  1.00  0.00     0.207 HD
HETATM    9  N8  UNL     1      11.542  32.339  16.468  1.00  0.00    -0.227 N 
ATOM     10  H8  UNL     1      10.935  33.148  16.594  1.00  0.00     0.209 HD
HETATM   11  N9  UNL     1      11.068  31.121  16.661  1.00  0.00    -0.268 N 
ATOM     12  H9  UNL     1      10.095  30.986  16.935  1.00  0.00     0.190 HD
HETATM   13  C12 UNL     1      11.891  30.043  16.491  1.00  0.00     0.172 A 
ENDROOT
BRANCH   1  14
HETATM   14  C4  UNL     1      10.539  28.115  16.963  1.00  0.00     0.036 C 
BRANCH  14  15
HETATM   15  C3  UNL     1      10.036  28.161  18.324  1.00  0.00     0.060 A 
HETATM   16  C2  UNL     1       9.074  29.074  18.731  1.00  0.00     0.169 A 
HETATM   17  N2  UNL     1       8.630  29.087  20.001  1.00  0.00    -0.170 N 
HETATM   18  C1  UNL     1       9.108  28.210  20.929  1.00  0.00     0.679 A 
ATOM     19  H2  UNL     1       7.922  29.768  20.275  1.00  0.00     0.186 HD
HETATM   20  N11 UNL     1      10.042  27.316  20.558  1.00  0.00    -0.176 N 
HETATM   21  C13 UNL     1      10.494  27.290  19.291  1.00  0.00     0.129 A 
ATOM     22  H11 UNL     1      10.410  26.653  21.241  1.00  0.00     0.186 HD
BRANCH  16  23
HETATM   23  O1  UNL     1       8.562  29.986  17.810  1.00  0.00    -0.345 OA
ATOM     24  H1  UNL     1       8.987  30.094  16.968  1.00  0.00     0.219 HD
ENDBRANCH  16  23
BRANCH  18  25
HETATM   25  N1  UNL     1       8.695  28.209  22.150  1.00  0.00    -0.234 N 
ATOM     26  H12 UNL     1       7.877  28.767  22.395  1.00  0.00     0.174 HD
ATOM     27  H11 UNL     1       9.159  27.668  22.881  1.00  0.00     0.174 HD
ENDBRANCH  18  25
BRANCH  21  28
HETATM   28  N10 UNL     1      11.390  26.414  18.982  1.00  0.00    -0.384 N 
ATOM     29 2H10 UNL     1      11.076  25.508  18.633  1.00  0.00     0.157 HD
ATOM     30 1H10 UNL     1      12.377  26.645  19.092  1.00  0.00     0.157 HD
ENDBRANCH  21  28
ENDBRANCH  14  15
ENDBRANCH   1  14
BRANCH   6  31
HETATM   31  N5  UNL     1      14.868  31.632  15.589  1.00  0.00    -0.214 N 
ATOM     32  H5  UNL     1      15.583  31.151  16.135  1.00  0.00     0.178 HD
BRANCH  31  33
HETATM   33  C8  UNL     1      15.279  32.431  14.461  1.00  0.00     0.212 C 
BRANCH  33  34
HETATM   34  S1  UNL     1      14.555  31.769  12.956  1.00  0.00    -0.146 SA
BRANCH  34  35
HETATM   35  C9  UNL     1      13.592  32.993  12.071  1.00  0.00     0.119 C 
BRANCH  35  36
HETATM   36  C10 UNL     1      12.396  33.476  12.894  1.00  0.00     0.292 C 
BRANCH  36  37
HETATM   37  N6  UNL     1      12.037  34.787  12.384  1.00  0.00    -0.065 N 
ATOM     38  H63 UNL     1      11.169  35.148  12.780  1.00  0.00     0.275 HD
ATOM     39  H62 UNL     1      12.651  35.529  12.719  1.00  0.00     0.275 HD
ATOM     40  H61 UNL     1      12.015  34.712  11.367  1.00  0.00     0.275 HD
ENDBRANCH  36  37
BRANCH  36  41
HETATM   41  C11 UNL     1      11.269  32.525  12.793  1.00  0.00     0.205 C 
HETATM   42  O2  UNL     1      11.008  31.998  11.687  1.00  0.00    -0.646 OA
HETATM   43  O3  UNL     1      10.494  32.202  13.893  1.00  0.00    -0.646 OA
ENDBRANCH  36  41
ENDBRANCH  35  36
ENDBRANCH  34  35
ENDBRANCH  33  34
ENDBRANCH  31  33
ENDBRANCH   6  31
TORSDOF 12
ENDMDL
MODEL 5
REMARK VINA RESULT: -7.243498791      3.046      7.705
REMARK  12 active torsions:
REMARK  status: ('A' for Active; 'I' for Inactive)
REMARK    1  A    between atoms: N1_1  and  C1_4 
REMARK    2  A    between atoms: C2_7  and  O1_8 
REMARK    3  A    between atoms: C3_10  and  C4_11 
REMARK    4  A    between atoms: C4_11  and  C5_12 
REMARK    5  A    between atoms: C7_17  and  N5_18 
REMARK    6  A    between atoms: N5_18  and  C8_20 
REMARK    7  A    between atoms: C8_20  and  S1_21 
REMARK    8  A    between atoms: S1_21  and  C9_22 
REMARK    9  A    between atoms: C9_22  and  C10_23 
REMARK   10  A    between atoms: C10_23  and  N6_24 
REMARK   11  A    between atoms: C10_23  and  C11_28 
REMARK   12  A    between atoms: C13_38  and  N10_39 
ROOT
HETATM    1  C5  UNL     1      12.128  29.293  15.675  1.00  0.00     0.030 A 
HETATM    2  C6  UNL     1      11.163  28.987  14.748  1.00  0.00     0.123 A 
HETATM    3  N3  UNL     1      10.583  27.847  15.137  1.00  0.00    -0.288 N 
ATOM      4  H3  UNL     1       9.827  27.376  14.640  1.00  0.00     0.187 HD
HETATM    5  N4  UNL     1      11.130  27.421  16.259  1.00  0.00    -0.067 N 
HETATM    6  C7  UNL     1      10.863  26.316  17.013  1.00  0.00     0.717 A 
HETATM    7  N7  UNL     1      11.598  26.153  18.112  1.00  0.00    -0.116 N 
ATOM      8  H7  UNL     1      11.419  25.335  18.694  1.00  0.00     0.207 HD
HETATM    9  N8  UNL     1      12.533  26.982  18.485  1.00  0.00    -0.227 N 
ATOM     10  H8  UNL     1      13.062  26.804  19.339  1.00  0.00     0.209 HD
HETATM   11  N9  UNL     1      12.797  28.053  17.758  1.00  0.00    -0.268 N 
ATOM     12  H9  UNL     1      13.528  28.703  18.046  1.00  0.00     0.190 HD
HETATM   13  C12 UNL     1      12.082  28.285  16.616  1.00  0.00     0.172 A 
ENDROOT
BRANCH   1  14
HETATM   14  C4  UNL     1      12.956  30.327  15.706  1.00  0.00     0.036 C 
BRANCH  14  15
HETATM   15  C3  UNL     1      12.695  31.544  14.959  1.00  0.00     0.060 A 
HETATM   16  C2  UNL     1      11.947  32.590  15.478  1.00  0.00     0.169 A 
HETATM   17  N2  UNL     1      11.725  33.704  14.757  1.00  0.00    -0.170 N 
HETATM   18  C1  UNL     1      12.225  33.844  13.496  1.00  0.00     0.679 A 
ATOM     19  H2  UNL     1      11.172  34.460  15.162  1.00  0.00     0.186 HD
HETATM   20  N11 UNL     1      12.954  32.843  12.970  1.00  0.00    -0.176 N 
HETATM   21  C13 UNL     1      13.183  31.723  13.681  1.00  0.00     0.129 A 
ATOM     22  H11 UNL     1      13.334  32.932  12.028  1.00  0.00     0.186 HD
BRANCH  16  23
HETATM   23  O1  UNL     1      11.420  32.484  16.764  1.00  0.00    -0.345 OA
ATOM     24  H1  UNL     1      11.992  32.581  17.516  1.00  0.00     0.219 HD
ENDBRANCH  16  23
BRANCH  18  25
HETATM   25  N1  UNL     1      12.022  34.904  12.790  1.00  0.00    -0.234 N 
ATOM     26  H12 UNL     1      11.527  35.690  13.212  1.00  0.00     0.174 HD
ATOM     27  H11 UNL     1      12.342  34.984  11.824  1.00  0.00     0.174 HD
ENDBRANCH  18  25
BRANCH  21  28
HETATM   28  N10 UNL     1      13.889  30.790  13.135  1.00  0.00    -0.384 N 
ATOM     29 2H10 UNL     1      14.711  30.455  13.636  1.00  0.00     0.157 HD
ATOM     30 1H10 UNL     1      13.610  30.416  12.228  1.00  0.00     0.157 HD
ENDBRANCH  21  28
ENDBRANCH  14  15
ENDBRANCH   1  14
BRANCH   6  31
HETATM   31  N5  UNL     1       9.940  25.525  16.620  1.00  0.00    -0.214 N 
ATOM     32  H5  UNL     1      10.055  25.043  15.728  1.00  0.00     0.178 HD
BRANCH  31  33
HETATM   33  C8  UNL     1       8.742  25.286  17.386  1.00  0.00     0.212 C 
BRANCH  33  34
HETATM   34  S1  UNL     1       7.801  26.810  17.526  1.00  0.00    -0.146 SA
BRANCH  34  35
HETATM   35  C9  UNL     1       7.681  27.381  19.220  1.00  0.00     0.119 C 
BRANCH  35  36
HETATM   36  C10 UNL     1       8.915  28.183  19.636  1.00  0.00     0.292 C 
BRANCH  36  37
HETATM   37  N6  UNL     1       8.476  29.550  19.848  1.00  0.00    -0.065 N 
ATOM     38  H63 UNL     1       8.787  30.190  19.117  1.00  0.00     0.275 HD
ATOM     39  H62 UNL     1       7.473  29.675  19.712  1.00  0.00     0.275 HD
ATOM     40  H61 UNL     1       8.792  29.820  20.780  1.00  0.00     0.275 HD
ENDBRANCH  36  37
BRANCH  36  41
HETATM   41  C11 UNL     1       9.528  27.613  20.854  1.00  0.00     0.205 C 
HETATM   42  O2  UNL     1      10.412  26.732  20.741  1.00  0.00    -0.646 OA
HETATM   43  O3  UNL     1       9.149  28.029  22.118  1.00  0.00    -0.646 OA
ENDBRANCH  36  41
ENDBRANCH  35  36
ENDBRANCH  34  35
ENDBRANCH  33  34
ENDBRANCH  31  33
ENDBRANCH   6  31
TORSDOF 12
ENDMDL
