MODEL 1
REMARK VINA RESULT: -6.617838876      0.000      0.000
REMARK  2 active torsions:
REMARK  status: ('A' for Active; 'I' for Inactive)
REMARK    1  A    between atoms: N1_1  and  C1_5 
REMARK    2  A    between atoms: C1_5  and  C2_6 
ROOT
HETATM    1  C2  UNL     1       6.404 -15.315 -21.342  1.00  0.00     0.147 C 
HETATM    2  C3  UNL     1       5.496 -16.038 -20.432  1.00  0.00     0.034 C 
HETATM    3  C4  UNL     1       4.110 -15.494 -20.296  1.00  0.00     0.010 C 
HETATM    4  C5  UNL     1       3.900 -14.136 -20.832  1.00  0.00     0.015 C 
HETATM    5  C6  UNL     1       2.561 -13.854 -21.408  1.00  0.00     0.007 C 
HETATM    6  C7  UNL     1       2.821 -12.780 -22.444  1.00  0.00     0.003 C 
HETATM    7  C8  UNL     1       4.315 -12.725 -22.650  1.00  0.00     0.032 C 
HETATM    8  C9  UNL     1       4.800 -13.988 -22.068  1.00  0.00     0.126 C 
HETATM    9  O1  UNL     1       6.074 -13.977 -21.555  1.00  0.00    -0.379 OA
ENDROOT
BRANCH   1  10
HETATM   10  C1  UNL     1       7.870 -15.445 -20.915  1.00  0.00     0.261 C 
BRANCH  10  11
HETATM   11  N1  UNL     1       8.055 -14.717 -19.676  1.00  0.00    -0.077 N 
ATOM     12  H13 UNL     1       7.421 -15.029 -18.941  1.00  0.00     0.274 HD
ATOM     13  H12 UNL     1       8.932 -14.951 -19.212  1.00  0.00     0.274 HD
ATOM     14  H11 UNL     1       7.967 -13.719 -19.871  1.00  0.00     0.274 HD
ENDBRANCH  10  11
ENDBRANCH   1  10
TORSDOF 2
ENDMDL
MODEL 2
REMARK VINA RESULT: -5.933628569      2.256      4.001
REMARK  2 active torsions:
REMARK  status: ('A' for Active; 'I' for Inactive)
REMARK    1  A    between atoms: N1_1  and  C1_5 
REMARK    2  A    between atoms: C1_5  and  C2_6 
ROOT
HETATM    1  C2  UNL     1       3.612 -13.521 -21.277  1.00  0.00     0.147 C 
HETATM    2  C3  UNL     1       3.193 -14.464 -20.222  1.00  0.00     0.034 C 
HETATM    3  C4  UNL     1       4.171 -15.533 -19.854  1.00  0.00     0.010 C 
HETATM    4  C5  UNL     1       5.299 -15.719 -20.785  1.00  0.00     0.015 C 
HETATM    5  C6  UNL     1       6.590 -16.137 -20.183  1.00  0.00     0.007 C 
HETATM    6  C7  UNL     1       7.637 -15.584 -21.129  1.00  0.00     0.003 C 
HETATM    7  C8  UNL     1       6.931 -14.609 -22.039  1.00  0.00     0.032 C 
HETATM    8  C9  UNL     1       5.659 -14.336 -21.349  1.00  0.00     0.126 C 
HETATM    9  O1  UNL     1       4.588 -14.010 -22.144  1.00  0.00    -0.379 OA
ENDROOT
BRANCH   1  10
HETATM   10  C1  UNL     1       2.418 -12.973 -22.066  1.00  0.00     0.261 C 
BRANCH  10  11
HETATM   11  N1  UNL     1       2.919 -12.289 -23.241  1.00  0.00    -0.077 N 
ATOM     12  H13 UNL     1       2.667 -12.764 -24.107  1.00  0.00     0.274 HD
ATOM     13  H12 UNL     1       2.434 -11.409 -23.418  1.00  0.00     0.274 HD
ATOM     14  H11 UNL     1       3.927 -12.167 -23.139  1.00  0.00     0.274 HD
ENDBRANCH  10  11
ENDBRANCH   1  10
TORSDOF 2
ENDMDL
MODEL 3
REMARK VINA RESULT: -5.856267926      2.859      4.735
REMARK  2 active torsions:
REMARK  status: ('A' for Active; 'I' for Inactive)
REMARK    1  A    between atoms: N1_1  and  C1_5 
REMARK    2  A    between atoms: C1_5  and  C2_6 
ROOT
HETATM    1  C2  UNL     1       2.414 -13.411 -21.855  1.00  0.00     0.147 C 
HETATM    2  C3  UNL     1       3.280 -12.706 -22.818  1.00  0.00     0.034 C 
HETATM    3  C4  UNL     1       4.737 -13.037 -22.777  1.00  0.00     0.010 C 
HETATM    4  C5  UNL     1       5.191 -13.784 -21.588  1.00  0.00     0.015 C 
HETATM    5  C6  UNL     1       6.304 -14.744 -21.798  1.00  0.00     0.007 C 
HETATM    6  C7  UNL     1       6.091 -15.797 -20.730  1.00  0.00     0.003 C 
HETATM    7  C8  UNL     1       4.705 -15.581 -20.174  1.00  0.00     0.032 C 
HETATM    8  C9  UNL     1       4.049 -14.726 -21.177  1.00  0.00     0.126 C 
HETATM    9  O1  UNL     1       3.068 -13.882 -20.717  1.00  0.00    -0.379 OA
ENDROOT
BRANCH   1  10
HETATM   10  C1  UNL     1       1.189 -12.578 -21.463  1.00  0.00     0.261 C 
BRANCH  10  11
HETATM   11  N1  UNL     1       0.374 -12.376 -22.644  1.00  0.00    -0.077 N 
ATOM     12  H13 UNL     1      -0.412 -11.749 -22.474  1.00  0.00     0.274 HD
ATOM     13  H12 UNL     1       0.847 -11.818 -23.355  1.00  0.00     0.274 HD
ATOM     14  H11 UNL     1       0.079 -13.288 -22.993  1.00  0.00     0.274 HD
ENDBRANCH  10  11
ENDBRANCH   1  10
TORSDOF 2
ENDMDL
MODEL 4
REMARK VINA RESULT: -4.213101953      1.246      2.166
REMARK  2 active torsions:
REMARK  status: ('A' for Active; 'I' for Inactive)
REMARK    1  A    between atoms: N1_1  and  C1_5 
REMARK    2  A    between atoms: C1_5  and  C2_6 
ROOT
HETATM    1  C2  UNL     1       6.723 -15.110 -20.489  1.00  0.00     0.147 C 
HETATM    2  C3  UNL     1       6.775 -14.219 -21.664  1.00  0.00     0.034 C 
HETATM    3  C4  UNL     1       5.463 -13.806 -22.249  1.00  0.00     0.010 C 
HETATM    4  C5  UNL     1       4.287 -14.571 -21.792  1.00  0.00     0.015 C 
HETATM    5  C6  UNL     1       3.009 -13.822 -21.696  1.00  0.00     0.007 C 
HETATM    6  C7  UNL     1       2.235 -14.547 -20.615  1.00  0.00     0.003 C 
HETATM    7  C8  UNL     1       3.212 -15.461 -19.916  1.00  0.00     0.032 C 
HETATM    8  C9  UNL     1       4.531 -14.948 -20.323  1.00  0.00     0.126 C 
HETATM    9  O1  UNL     1       5.554 -15.862 -20.376  1.00  0.00    -0.379 OA
ENDROOT
BRANCH   1  10
HETATM   10  C1  UNL     1       7.955 -16.016 -20.399  1.00  0.00     0.261 C 
BRANCH  10  11
HETATM   11  N1  UNL     1       8.769 -15.576 -19.283  1.00  0.00    -0.077 N 
ATOM     12  H13 UNL     1       9.506 -14.931 -19.568  1.00  0.00     0.274 HD
ATOM     13  H12 UNL     1       8.267 -14.946 -18.658  1.00  0.00     0.274 HD
ATOM     14  H11 UNL     1       9.132 -16.399 -18.803  1.00  0.00     0.274 HD
ENDBRANCH  10  11
ENDBRANCH   1  10
TORSDOF 2
ENDMDL
MODEL 5
REMARK VINA RESULT: -3.945930494      1.187      2.033
REMARK  2 active torsions:
REMARK  status: ('A' for Active; 'I' for Inactive)
REMARK    1  A    between atoms: N1_1  and  C1_5 
REMARK    2  A    between atoms: C1_5  and  C2_6 
ROOT
HETATM    1  C2  UNL     1       5.940 -15.119 -20.634  1.00  0.00     0.147 C 
HETATM    2  C3  UNL     1       6.451 -14.257 -21.717  1.00  0.00     0.034 C 
HETATM    3  C4  UNL     1       5.436 -13.469 -22.481  1.00  0.00     0.010 C 
HETATM    4  C5  UNL     1       4.030 -13.868 -22.281  1.00  0.00     0.015 C 
HETATM    5  C6  UNL     1       3.020 -12.782 -22.345  1.00  0.00     0.007 C 
HETATM    6  C7  UNL     1       1.892 -13.272 -21.461  1.00  0.00     0.003 C 
HETATM    7  C8  UNL     1       2.429 -14.446 -20.678  1.00  0.00     0.032 C 
HETATM    8  C9  UNL     1       3.890 -14.330 -20.822  1.00  0.00     0.126 C 
HETATM    9  O1  UNL     1       4.606 -15.501 -20.770  1.00  0.00    -0.379 OA
ENDROOT
BRANCH   1  10
HETATM   10  C1  UNL     1       6.828 -16.345 -20.406  1.00  0.00     0.261 C 
BRANCH  10  11
HETATM   11  N1  UNL     1       8.191 -15.895 -20.205  1.00  0.00    -0.077 N 
ATOM     12  H13 UNL     1       8.748 -15.941 -21.058  1.00  0.00     0.274 HD
ATOM     13  H12 UNL     1       8.252 -14.888 -20.053  1.00  0.00     0.274 HD
ATOM     14  H11 UNL     1       8.600 -16.433 -19.440  1.00  0.00     0.274 HD
ENDBRANCH  10  11
ENDBRANCH   1  10
TORSDOF 2
ENDMDL
