MODEL 1
REMARK VINA RESULT: -4.728946283      0.000      0.000
REMARK  3 active torsions:
REMARK  status: ('A' for Active; 'I' for Inactive)
REMARK    1  A    between atoms: C1_2  and  N1_3 
REMARK    2  A    between atoms: N1_3  and  C2_5 
REMARK    3  A    between atoms: C2_5  and  C3_6 
ROOT
HETATM    1  C3  UNL     1       4.490 -14.413 -20.760  1.00  0.00     0.029 C 
HETATM    2  C4  UNL     1       5.008 -13.353 -21.685  1.00  0.00     0.009 C 
HETATM    3  C5  UNL     1       4.078 -13.087 -22.847  1.00  0.00     0.028 C 
HETATM    4  C6  UNL     1       2.663 -12.856 -22.438  1.00  0.00     0.232 C 
HETATM    5  N2  UNL     1       2.293 -13.479 -21.200  1.00  0.00    -0.075 N 
ATOM      6  H21 UNL     1       1.286 -13.615 -21.111  1.00  0.00     0.277 HD
ATOM      7  H22 UNL     1       2.418 -12.865 -20.396  1.00  0.00     0.277 HD
HETATM    8  C7  UNL     1       3.039 -14.715 -21.085  1.00  0.00     0.238 C 
ENDROOT
BRANCH   1   9
HETATM    9  C2  UNL     1       5.253 -15.715 -20.864  1.00  0.00     0.126 C 
BRANCH   9  10
HETATM   10  N1  UNL     1       6.587 -15.537 -21.383  1.00  0.00    -0.390 N 
ATOM     11  H1  UNL     1       6.719 -15.521 -22.395  1.00  0.00     0.159 HD
BRANCH  10  12
HETATM   12  C1  UNL     1       7.615 -15.399 -20.625  1.00  0.00     0.165 C 
HETATM   13  S1  UNL     1       8.423 -14.718 -19.379  1.00  0.00    -0.075 SA
ENDBRANCH  10  12
ENDBRANCH   9  10
ENDBRANCH   1   9
TORSDOF 3
ENDMDL
MODEL 2
REMARK VINA RESULT: -4.427605751      1.097      1.746
REMARK  3 active torsions:
REMARK  status: ('A' for Active; 'I' for Inactive)
REMARK    1  A    between atoms: C1_2  and  N1_3 
REMARK    2  A    between atoms: N1_3  and  C2_5 
REMARK    3  A    between atoms: C2_5  and  C3_6 
ROOT
HETATM    1  C3  UNL     1       4.589 -14.049 -22.131  1.00  0.00     0.029 C 
HETATM    2  C4  UNL     1       3.589 -14.639 -21.183  1.00  0.00     0.009 C 
HETATM    3  C5  UNL     1       2.578 -13.626 -20.695  1.00  0.00     0.028 C 
HETATM    4  C6  UNL     1       1.942 -12.843 -21.792  1.00  0.00     0.232 C 
HETATM    5  N2  UNL     1       2.744 -12.717 -22.976  1.00  0.00    -0.075 N 
ATOM      6  H21 UNL     1       2.474 -11.921 -23.554  1.00  0.00     0.277 HD
ATOM      7  H22 UNL     1       2.557 -13.451 -23.660  1.00  0.00     0.277 HD
HETATM    8  C7  UNL     1       4.132 -12.669 -22.568  1.00  0.00     0.238 C 
ENDROOT
BRANCH   1   9
HETATM    9  C2  UNL     1       5.965 -13.893 -21.521  1.00  0.00     0.126 C 
BRANCH   9  10
HETATM   10  N1  UNL     1       6.780 -15.071 -21.680  1.00  0.00    -0.390 N 
ATOM     11  H1  UNL     1       6.662 -15.637 -22.521  1.00  0.00     0.159 HD
BRANCH  10  12
HETATM   12  C1  UNL     1       7.648 -15.439 -20.807  1.00  0.00     0.165 C 
HETATM   13  S1  UNL     1       8.481 -15.251 -19.414  1.00  0.00    -0.075 SA
ENDBRANCH  10  12
ENDBRANCH   9  10
ENDBRANCH   1   9
TORSDOF 3
ENDMDL
MODEL 3
REMARK VINA RESULT: -4.277255307      0.835      1.030
REMARK  3 active torsions:
REMARK  status: ('A' for Active; 'I' for Inactive)
REMARK    1  A    between atoms: C1_2  and  N1_3 
REMARK    2  A    between atoms: N1_3  and  C2_5 
REMARK    3  A    between atoms: C2_5  and  C3_6 
ROOT
HETATM    1  C3  UNL     1       4.908 -13.773 -21.345  1.00  0.00     0.029 C 
HETATM    2  C4  UNL     1       4.311 -12.593 -22.051  1.00  0.00     0.009 C 
HETATM    3  C5  UNL     1       2.984 -12.911 -22.701  1.00  0.00     0.028 C 
HETATM    4  C6  UNL     1       2.019 -13.586 -21.787  1.00  0.00     0.232 C 
HETATM    5  N2  UNL     1       2.630 -14.337 -20.727  1.00  0.00    -0.075 N 
ATOM      6  H21 UNL     1       2.013 -15.053 -20.342  1.00  0.00     0.277 HD
ATOM      7  H22 UNL     1       2.750 -13.790 -19.874  1.00  0.00     0.277 HD
HETATM    8  C7  UNL     1       3.876 -14.879 -21.227  1.00  0.00     0.238 C 
ENDROOT
BRANCH   1   9
HETATM    9  C2  UNL     1       6.105 -14.352 -22.067  1.00  0.00     0.126 C 
BRANCH   9  10
HETATM   10  N1  UNL     1       6.650 -15.509 -21.400  1.00  0.00    -0.390 N 
ATOM     11  H1  UNL     1       6.268 -16.428 -21.626  1.00  0.00     0.159 HD
BRANCH  10  12
HETATM   12  C1  UNL     1       7.595 -15.431 -20.533  1.00  0.00     0.165 C 
HETATM   13  S1  UNL     1       8.394 -14.694 -19.314  1.00  0.00    -0.075 SA
ENDBRANCH  10  12
ENDBRANCH   9  10
ENDBRANCH   1   9
TORSDOF 3
ENDMDL
MODEL 4
REMARK VINA RESULT: -3.991696068      1.107      1.641
REMARK  3 active torsions:
REMARK  status: ('A' for Active; 'I' for Inactive)
REMARK    1  A    between atoms: C1_2  and  N1_3 
REMARK    2  A    between atoms: N1_3  and  C2_5 
REMARK    3  A    between atoms: C2_5  and  C3_6 
ROOT
HETATM    1  C3  UNL     1       4.442 -14.888 -21.559  1.00  0.00     0.029 C 
HETATM    2  C4  UNL     1       3.045 -14.537 -21.142  1.00  0.00     0.009 C 
HETATM    3  C5  UNL     1       2.821 -13.044 -21.050  1.00  0.00     0.028 C 
HETATM    4  C6  UNL     1       3.268 -12.298 -22.261  1.00  0.00     0.232 C 
HETATM    5  N2  UNL     1       4.316 -12.939 -23.001  1.00  0.00    -0.075 N 
ATOM      6  H21 UNL     1       4.840 -12.291 -23.589  1.00  0.00     0.277 HD
ATOM      7  H22 UNL     1       3.964 -13.541 -23.745  1.00  0.00     0.277 HD
HETATM    8  C7  UNL     1       5.158 -13.646 -22.058  1.00  0.00     0.238 C 
ENDROOT
BRANCH   1   9
HETATM    9  C2  UNL     1       5.271 -15.459 -20.429  1.00  0.00     0.126 C 
BRANCH   9  10
HETATM   10  N1  UNL     1       6.574 -15.899 -20.864  1.00  0.00    -0.390 N 
ATOM     11  H1  UNL     1       6.632 -16.588 -21.614  1.00  0.00     0.159 HD
BRANCH  10  12
HETATM   12  C1  UNL     1       7.665 -15.458 -20.347  1.00  0.00     0.165 C 
HETATM   13  S1  UNL     1       8.507 -14.544 -19.287  1.00  0.00    -0.075 SA
ENDBRANCH  10  12
ENDBRANCH   9  10
ENDBRANCH   1   9
TORSDOF 3
ENDMDL
MODEL 5
REMARK VINA RESULT: -3.719875712      3.231      4.833
REMARK  3 active torsions:
REMARK  status: ('A' for Active; 'I' for Inactive)
REMARK    1  A    between atoms: C1_2  and  N1_3 
REMARK    2  A    between atoms: N1_3  and  C2_5 
REMARK    3  A    between atoms: C2_5  and  C3_6 
ROOT
HETATM    1  C3  UNL     1       4.299 -14.266 -21.582  1.00  0.00     0.029 C 
HETATM    2  C4  UNL     1       5.645 -14.012 -22.193  1.00  0.00     0.009 C 
HETATM    3  C5  UNL     1       6.784 -14.365 -21.263  1.00  0.00     0.028 C 
HETATM    4  C6  UNL     1       6.667 -15.725 -20.666  1.00  0.00     0.232 C 
HETATM    5  N2  UNL     1       5.322 -16.215 -20.560  1.00  0.00    -0.075 N 
ATOM      6  H21 UNL     1       5.222 -16.949 -19.858  1.00  0.00     0.277 HD
ATOM      7  H22 UNL     1       5.036 -16.763 -21.371  1.00  0.00     0.277 HD
HETATM    8  C7  UNL     1       4.456 -15.081 -20.312  1.00  0.00     0.238 C 
ENDROOT
BRANCH   1   9
HETATM    9  C2  UNL     1       3.568 -12.994 -21.211  1.00  0.00     0.126 C 
BRANCH   9  10
HETATM   10  N1  UNL     1       2.588 -12.608 -22.196  1.00  0.00    -0.390 N 
ATOM     11  H1  UNL     1       2.914 -12.253 -23.096  1.00  0.00     0.159 HD
BRANCH  10  12
HETATM   12  C1  UNL     1       1.323 -12.694 -21.989  1.00  0.00     0.165 C 
HETATM   13  S1  UNL     1      -0.214 -12.161 -22.134  1.00  0.00    -0.075 SA
ENDBRANCH  10  12
ENDBRANCH   9  10
ENDBRANCH   1   9
TORSDOF 3
ENDMDL
