MODEL 1
REMARK VINA RESULT: -6.180190438      0.000      0.000
REMARK  2 active torsions:
REMARK  status: ('A' for Active; 'I' for Inactive)
REMARK    1  A    between atoms: C3_3  and  N1_4 
REMARK    2  A    between atoms: N1_4  and  C4_7 
ROOT
HETATM    1  N1  UNL     1       6.321 -13.958 -21.463  1.00  0.00    -0.067 N 
ATOM      2  H11 UNL     1       6.908 -13.804 -22.282  1.00  0.00     0.278 HD
ATOM      3  H12 UNL     1       6.427 -13.037 -21.039  1.00  0.00     0.278 HD
ENDROOT
BRANCH   1   4
HETATM    4  C3  UNL     1       6.821 -15.027 -20.609  1.00  0.00     0.186 C 
HETATM    5  C2  UNL     1       7.938 -14.588 -19.668  1.00  0.00     0.033 C 
HETATM    6  C1  UNL     1       8.576 -15.946 -19.928  1.00  0.00     0.004 C 
HETATM    7  C9  UNL     1       7.840 -15.938 -21.263  1.00  0.00     0.033 C 
ENDBRANCH   1   4
BRANCH   1   8
HETATM    8  C4  UNL     1       4.955 -14.251 -21.811  1.00  0.00     0.190 C 
HETATM    9  C5  UNL     1       4.227 -12.923 -21.955  1.00  0.00     0.059 C 
HETATM   10  C6  UNL     1       2.833 -13.261 -22.399  1.00  0.00     0.169 C 
HETATM   11  O1  UNL     1       2.132 -14.058 -21.529  1.00  0.00    -0.391 OA
HETATM   12  C7  UNL     1       2.843 -14.585 -20.485  1.00  0.00     0.169 C 
HETATM   13  C8  UNL     1       4.220 -15.064 -20.804  1.00  0.00     0.059 C 
ENDBRANCH   1   8
TORSDOF 2
ENDMDL
MODEL 2
REMARK VINA RESULT: -5.903627985      0.453      1.500
REMARK  2 active torsions:
REMARK  status: ('A' for Active; 'I' for Inactive)
REMARK    1  A    between atoms: C3_3  and  N1_4 
REMARK    2  A    between atoms: N1_4  and  C4_7 
ROOT
HETATM    1  N1  UNL     1       6.055 -14.032 -21.882  1.00  0.00    -0.067 N 
ATOM      2  H11 UNL     1       6.051 -14.324 -22.859  1.00  0.00     0.278 HD
ATOM      3  H12 UNL     1       6.688 -13.238 -21.975  1.00  0.00     0.278 HD
ENDROOT
BRANCH   1   4
HETATM    4  C3  UNL     1       6.577 -15.062 -20.993  1.00  0.00     0.186 C 
HETATM    5  C2  UNL     1       7.560 -14.533 -19.953  1.00  0.00     0.033 C 
HETATM    6  C1  UNL     1       8.345 -15.821 -20.164  1.00  0.00     0.004 C 
HETATM    7  C9  UNL     1       7.732 -15.862 -21.559  1.00  0.00     0.033 C 
ENDBRANCH   1   4
BRANCH   1   8
HETATM    8  C4  UNL     1       4.750 -13.645 -21.416  1.00  0.00     0.190 C 
HETATM    9  C5  UNL     1       4.001 -14.919 -21.050  1.00  0.00     0.059 C 
HETATM   10  C6  UNL     1       2.679 -14.476 -20.491  1.00  0.00     0.169 C 
HETATM   11  O1  UNL     1       1.908 -13.741 -21.356  1.00  0.00    -0.391 OA
HETATM   12  C7  UNL     1       2.509 -13.355 -22.523  1.00  0.00     0.169 C 
HETATM   13  C8  UNL     1       3.929 -12.907 -22.413  1.00  0.00     0.059 C 
ENDBRANCH   1   8
TORSDOF 2
ENDMDL
MODEL 3
REMARK VINA RESULT: -5.642937373      1.305      2.100
REMARK  2 active torsions:
REMARK  status: ('A' for Active; 'I' for Inactive)
REMARK    1  A    between atoms: C3_3  and  N1_4 
REMARK    2  A    between atoms: N1_4  and  C4_7 
ROOT
HETATM    1  N1  UNL     1       4.719 -14.777 -20.319  1.00  0.00    -0.067 N 
ATOM      2  H11 UNL     1       4.847 -14.685 -19.311  1.00  0.00     0.278 HD
ATOM      3  H12 UNL     1       4.235 -15.674 -20.317  1.00  0.00     0.278 HD
ENDROOT
BRANCH   1   4
HETATM    4  C3  UNL     1       5.984 -14.826 -21.041  1.00  0.00     0.186 C 
HETATM    5  C2  UNL     1       6.493 -16.242 -21.290  1.00  0.00     0.033 C 
HETATM    6  C1  UNL     1       7.890 -15.696 -21.025  1.00  0.00     0.004 C 
HETATM    7  C9  UNL     1       7.214 -14.622 -20.180  1.00  0.00     0.033 C 
ENDBRANCH   1   4
BRANCH   1   8
HETATM    8  C4  UNL     1       3.918 -13.718 -20.873  1.00  0.00     0.190 C 
HETATM    9  C5  UNL     1       2.691 -14.360 -21.504  1.00  0.00     0.059 C 
HETATM   10  C6  UNL     1       1.838 -13.226 -21.997  1.00  0.00     0.169 C 
HETATM   11  O1  UNL     1       2.442 -12.416 -22.925  1.00  0.00    -0.391 OA
HETATM   12  C7  UNL     1       3.777 -12.628 -23.137  1.00  0.00     0.169 C 
HETATM   13  C8  UNL     1       4.597 -12.909 -21.921  1.00  0.00     0.059 C 
ENDBRANCH   1   8
TORSDOF 2
ENDMDL
MODEL 4
REMARK VINA RESULT: -5.637368047      1.254      1.587
REMARK  2 active torsions:
REMARK  status: ('A' for Active; 'I' for Inactive)
REMARK    1  A    between atoms: C3_3  and  N1_4 
REMARK    2  A    between atoms: N1_4  and  C4_7 
ROOT
HETATM    1  N1  UNL     1       4.772 -14.726 -20.234  1.00  0.00    -0.067 N 
ATOM      2  H11 UNL     1       5.042 -13.948 -19.632  1.00  0.00     0.278 HD
ATOM      3  H12 UNL     1       4.127 -15.183 -19.589  1.00  0.00     0.278 HD
ENDROOT
BRANCH   1   4
HETATM    4  C3  UNL     1       5.901 -15.575 -20.591  1.00  0.00     0.186 C 
HETATM    5  C2  UNL     1       7.214 -15.154 -19.940  1.00  0.00     0.033 C 
HETATM    6  C1  UNL     1       7.888 -15.531 -21.253  1.00  0.00     0.004 C 
HETATM    7  C9  UNL     1       6.547 -15.244 -21.921  1.00  0.00     0.033 C 
ENDBRANCH   1   4
BRANCH   1   8
HETATM    8  C4  UNL     1       4.126 -14.290 -21.444  1.00  0.00     0.190 C 
HETATM    9  C5  UNL     1       4.514 -12.836 -21.668  1.00  0.00     0.059 C 
HETATM   10  C6  UNL     1       3.895 -12.439 -22.977  1.00  0.00     0.169 C 
HETATM   11  O1  UNL     1       2.527 -12.545 -23.019  1.00  0.00    -0.391 OA
HETATM   12  C7  UNL     1       1.935 -13.162 -21.952  1.00  0.00     0.169 C 
HETATM   13  C8  UNL     1       2.640 -14.364 -21.415  1.00  0.00     0.059 C 
ENDBRANCH   1   8
TORSDOF 2
ENDMDL
MODEL 5
REMARK VINA RESULT: -5.427295415      0.923      1.928
REMARK  2 active torsions:
REMARK  status: ('A' for Active; 'I' for Inactive)
REMARK    1  A    between atoms: C3_3  and  N1_4 
REMARK    2  A    between atoms: N1_4  and  C4_7 
ROOT
HETATM    1  N1  UNL     1       6.579 -15.610 -21.557  1.00  0.00    -0.067 N 
ATOM      2  H11 UNL     1       6.289 -16.578 -21.417  1.00  0.00     0.278 HD
ATOM      3  H12 UNL     1       6.638 -15.627 -22.575  1.00  0.00     0.278 HD
ENDROOT
BRANCH   1   4
HETATM    4  C3  UNL     1       7.859 -15.312 -20.927  1.00  0.00     0.186 C 
HETATM    5  C2  UNL     1       8.345 -16.404 -19.981  1.00  0.00     0.033 C 
HETATM    6  C1  UNL     1       8.853 -15.283 -19.084  1.00  0.00     0.004 C 
HETATM    7  C9  UNL     1       7.774 -14.410 -19.713  1.00  0.00     0.033 C 
ENDBRANCH   1   4
BRANCH   1   8
HETATM    8  C4  UNL     1       5.603 -14.668 -21.077  1.00  0.00     0.190 C 
HETATM    9  C5  UNL     1       4.402 -15.465 -20.590  1.00  0.00     0.059 C 
HETATM   10  C6  UNL     1       3.441 -14.461 -20.021  1.00  0.00     0.169 C 
HETATM   11  O1  UNL     1       3.011 -13.510 -20.913  1.00  0.00    -0.391 OA
HETATM   12  C7  UNL     1       3.643 -13.488 -22.125  1.00  0.00     0.169 C 
HETATM   13  C8  UNL     1       5.121 -13.699 -22.099  1.00  0.00     0.059 C 
ENDBRANCH   1   8
TORSDOF 2
ENDMDL
