MODEL 1
REMARK VINA RESULT: -5.036190788      0.000      0.000
REMARK  2 active torsions:
REMARK  status: ('A' for Active; 'I' for Inactive)
REMARK    1  A    between atoms: C2_3  and  N2_4 
REMARK    2  A    between atoms: N2_4  and  C3_7 
ROOT
HETATM    1  N1  UNL     1       4.446 -15.917 -19.849  1.00  0.00    -0.195 NA
HETATM    2  C1  UNL     1       5.220 -15.383 -20.509  1.00  0.00     0.099 C 
HETATM    3  C2  UNL     1       6.216 -14.712 -21.340  1.00  0.00     0.213 C 
HETATM    4  C6  UNL     1       7.040 -13.747 -20.486  1.00  0.00     0.055 C 
HETATM    5  C7  UNL     1       7.833 -14.725 -19.639  1.00  0.00     0.004 C 
HETATM    6  C8  UNL     1       7.979 -15.977 -20.483  1.00  0.00     0.004 C 
HETATM    7  C9  UNL     1       7.288 -15.663 -21.807  1.00  0.00     0.055 C 
ENDROOT
BRANCH   3   8
HETATM    8  N2  UNL     1       5.553 -14.009 -22.411  1.00  0.00    -0.049 N 
ATOM      9  H22 UNL     1       6.189 -13.434 -22.962  1.00  0.00     0.279 HD
ATOM     10  H21 UNL     1       5.247 -14.628 -23.162  1.00  0.00     0.279 HD
BRANCH   8  11
HETATM   11  C3  UNL     1       4.467 -13.250 -21.829  1.00  0.00     0.188 A 
HETATM   12  C4  UNL     1       3.066 -13.492 -22.224  1.00  0.00     0.035 A 
HETATM   13  C5  UNL     1       3.778 -12.321 -22.807  1.00  0.00     0.035 A 
ENDBRANCH   8  11
ENDBRANCH   3   8
TORSDOF 2
ENDMDL
MODEL 2
REMARK VINA RESULT: -4.754355554      1.317      4.059
REMARK  2 active torsions:
REMARK  status: ('A' for Active; 'I' for Inactive)
REMARK    1  A    between atoms: C2_3  and  N2_4 
REMARK    2  A    between atoms: N2_4  and  C3_7 
ROOT
HETATM    1  N1  UNL     1       2.179 -15.467 -21.318  1.00  0.00    -0.195 NA
HETATM    2  C1  UNL     1       3.182 -14.913 -21.237  1.00  0.00     0.099 C 
HETATM    3  C2  UNL     1       4.450 -14.195 -21.140  1.00  0.00     0.213 C 
HETATM    4  C6  UNL     1       4.996 -13.914 -22.541  1.00  0.00     0.055 C 
HETATM    5  C7  UNL     1       3.998 -12.881 -23.031  1.00  0.00     0.004 C 
HETATM    6  C8  UNL     1       3.504 -12.164 -21.789  1.00  0.00     0.004 C 
HETATM    7  C9  UNL     1       4.262 -12.792 -20.623  1.00  0.00     0.055 C 
ENDROOT
BRANCH   3   8
HETATM    8  N2  UNL     1       5.387 -14.978 -20.373  1.00  0.00    -0.049 N 
ATOM      9  H22 UNL     1       5.348 -14.779 -19.374  1.00  0.00     0.279 HD
ATOM     10  H21 UNL     1       5.133 -15.965 -20.323  1.00  0.00     0.279 HD
BRANCH   8  11
HETATM   11  C3  UNL     1       6.702 -14.764 -20.938  1.00  0.00     0.188 A 
HETATM   12  C4  UNL     1       7.765 -15.780 -20.809  1.00  0.00     0.035 A 
HETATM   13  C5  UNL     1       7.793 -14.598 -19.901  1.00  0.00     0.035 A 
ENDBRANCH   8  11
ENDBRANCH   3   8
TORSDOF 2
ENDMDL
MODEL 3
REMARK VINA RESULT: -4.529791582      1.251      4.066
REMARK  2 active torsions:
REMARK  status: ('A' for Active; 'I' for Inactive)
REMARK    1  A    between atoms: C2_3  and  N2_4 
REMARK    2  A    between atoms: N2_4  and  C3_7 
ROOT
HETATM    1  N1  UNL     1       3.562 -14.730 -18.632  1.00  0.00    -0.195 NA
HETATM    2  C1  UNL     1       3.876 -14.702 -19.737  1.00  0.00     0.099 C 
HETATM    3  C2  UNL     1       4.265 -14.652 -21.144  1.00  0.00     0.213 C 
HETATM    4  C6  UNL     1       3.042 -14.900 -22.030  1.00  0.00     0.055 C 
HETATM    5  C7  UNL     1       2.260 -13.621 -21.796  1.00  0.00     0.004 C 
HETATM    6  C8  UNL     1       3.293 -12.557 -21.478  1.00  0.00     0.004 C 
HETATM    7  C9  UNL     1       4.646 -13.258 -21.571  1.00  0.00     0.055 C 
ENDROOT
BRANCH   3   8
HETATM    8  N2  UNL     1       5.287 -15.639 -21.394  1.00  0.00    -0.049 N 
ATOM      9  H22 UNL     1       5.286 -16.394 -20.708  1.00  0.00     0.279 HD
ATOM     10  H21 UNL     1       5.096 -16.208 -22.219  1.00  0.00     0.279 HD
BRANCH   8  11
HETATM   11  C3  UNL     1       6.555 -14.947 -21.469  1.00  0.00     0.188 A 
HETATM   12  C4  UNL     1       7.811 -15.676 -21.732  1.00  0.00     0.035 A 
HETATM   13  C5  UNL     1       7.499 -15.275 -20.331  1.00  0.00     0.035 A 
ENDBRANCH   8  11
ENDBRANCH   3   8
TORSDOF 2
ENDMDL
MODEL 4
REMARK VINA RESULT: -4.426424121      1.114      4.203
REMARK  2 active torsions:
REMARK  status: ('A' for Active; 'I' for Inactive)
REMARK    1  A    between atoms: C2_3  and  N2_4 
REMARK    2  A    between atoms: N2_4  and  C3_7 
ROOT
HETATM    1  N1  UNL     1       3.727 -14.743 -19.044  1.00  0.00    -0.195 NA
HETATM    2  C1  UNL     1       3.965 -14.319 -20.085  1.00  0.00     0.099 C 
HETATM    3  C2  UNL     1       4.252 -13.773 -21.409  1.00  0.00     0.213 C 
HETATM    4  C6  UNL     1       3.503 -14.576 -22.474  1.00  0.00     0.055 C 
HETATM    5  C7  UNL     1       2.072 -14.165 -22.184  1.00  0.00     0.004 C 
HETATM    6  C8  UNL     1       2.155 -12.768 -21.597  1.00  0.00     0.004 C 
HETATM    7  C9  UNL     1       3.639 -12.410 -21.599  1.00  0.00     0.055 C 
ENDROOT
BRANCH   3   8
HETATM    8  N2  UNL     1       5.674 -13.811 -21.645  1.00  0.00    -0.049 N 
ATOM      9  H22 UNL     1       5.917 -13.702 -22.630  1.00  0.00     0.279 HD
ATOM     10  H21 UNL     1       6.157 -12.983 -21.296  1.00  0.00     0.279 HD
BRANCH   8  11
HETATM   11  C3  UNL     1       6.180 -15.040 -21.074  1.00  0.00     0.188 A 
HETATM   12  C4  UNL     1       7.492 -15.088 -20.399  1.00  0.00     0.035 A 
HETATM   13  C5  UNL     1       7.390 -15.598 -21.796  1.00  0.00     0.035 A 
ENDBRANCH   8  11
ENDBRANCH   3   8
TORSDOF 2
ENDMDL
MODEL 5
REMARK VINA RESULT: -4.105540653      1.352      4.321
REMARK  2 active torsions:
REMARK  status: ('A' for Active; 'I' for Inactive)
REMARK    1  A    between atoms: C2_3  and  N2_4 
REMARK    2  A    between atoms: N2_4  and  C3_7 
ROOT
HETATM    1  N1  UNL     1       3.733 -12.128 -24.061  1.00  0.00    -0.195 NA
HETATM    2  C1  UNL     1       4.016 -12.729 -23.124  1.00  0.00     0.099 C 
HETATM    3  C2  UNL     1       4.358 -13.498 -21.930  1.00  0.00     0.213 C 
HETATM    4  C6  UNL     1       3.789 -12.810 -20.688  1.00  0.00     0.055 C 
HETATM    5  C7  UNL     1       2.303 -13.045 -20.891  1.00  0.00     0.004 C 
HETATM    6  C8  UNL     1       2.195 -14.335 -21.683  1.00  0.00     0.004 C 
HETATM    7  C9  UNL     1       3.630 -14.816 -21.883  1.00  0.00     0.055 C 
ENDROOT
BRANCH   3   8
HETATM    8  N2  UNL     1       5.792 -13.620 -21.835  1.00  0.00    -0.049 N 
ATOM      9  H22 UNL     1       6.265 -13.464 -22.725  1.00  0.00     0.279 HD
ATOM     10  H21 UNL     1       6.223 -12.853 -21.319  1.00  0.00     0.279 HD
BRANCH   8  11
HETATM   11  C3  UNL     1       6.084 -14.916 -21.262  1.00  0.00     0.188 A 
HETATM   12  C4  UNL     1       7.254 -15.121 -20.386  1.00  0.00     0.035 A 
HETATM   13  C5  UNL     1       7.344 -15.556 -21.808  1.00  0.00     0.035 A 
ENDBRANCH   8  11
ENDBRANCH   3   8
TORSDOF 2
ENDMDL
