MODEL 1
REMARK VINA RESULT: -5.209600703      0.000      0.000
REMARK  2 active torsions:
REMARK  status: ('A' for Active; 'I' for Inactive)
REMARK    1  A    between atoms: C2_2  and  C3_3 
REMARK    2  A    between atoms: C3_3  and  C4_4 
ROOT
HETATM    1  C4  UNL     1       5.582 -15.661 -21.383  1.00  0.00     0.137 C 
HETATM    2  C5  UNL     1       6.837 -15.129 -20.885  1.00  0.00     0.060 C 
HETATM    3  N1  UNL     1       7.842 -14.688 -20.480  1.00  0.00    -0.197 NA
ENDROOT
BRANCH   1   4
HETATM    4  C3  UNL     1       4.478 -14.636 -21.092  1.00  0.00    -0.008 C 
HETATM    5  C6  UNL     1       3.143 -15.181 -21.543  1.00  0.00     0.042 C 
HETATM    6  C7  UNL     1       2.427 -14.159 -22.386  1.00  0.00     0.233 C 
HETATM    7  N2  UNL     1       2.461 -12.898 -21.668  1.00  0.00    -0.075 N 
HETATM    8  C8  UNL     1       3.790 -12.333 -21.807  1.00  0.00     0.233 C 
ATOM      9  H22 UNL     1       1.727 -12.255 -21.967  1.00  0.00     0.277 HD
ATOM     10  H21 UNL     1       2.173 -12.992 -20.694  1.00  0.00     0.277 HD
HETATM   11  C9  UNL     1       4.864 -13.378 -21.773  1.00  0.00     0.042 C 
BRANCH   4  12
HETATM   12  C2  UNL     1       4.422 -14.517 -19.614  1.00  0.00    -0.026 C 
HETATM   13  C1  UNL     1       3.584 -15.122 -18.819  1.00  0.00     0.008 C 
ENDBRANCH   4  12
ENDBRANCH   1   4
TORSDOF 2
ENDMDL
MODEL 2
REMARK VINA RESULT: -3.880832839      0.835      3.686
REMARK  2 active torsions:
REMARK  status: ('A' for Active; 'I' for Inactive)
REMARK    1  A    between atoms: C2_2  and  C3_3 
REMARK    2  A    between atoms: C3_3  and  C4_4 
ROOT
HETATM    1  C4  UNL     1       2.815 -15.117 -21.698  1.00  0.00     0.137 C 
HETATM    2  C5  UNL     1       2.216 -13.840 -22.042  1.00  0.00     0.060 C 
HETATM    3  N1  UNL     1       1.745 -12.804 -22.313  1.00  0.00    -0.197 NA
ENDROOT
BRANCH   1   4
HETATM    4  C3  UNL     1       4.177 -14.847 -21.044  1.00  0.00    -0.008 C 
HETATM    5  C6  UNL     1       4.861 -13.696 -21.745  1.00  0.00     0.042 C 
HETATM    6  C7  UNL     1       6.275 -14.075 -22.098  1.00  0.00     0.233 C 
HETATM    7  N2  UNL     1       6.890 -14.634 -20.908  1.00  0.00    -0.075 N 
HETATM    8  C8  UNL     1       6.390 -15.984 -20.731  1.00  0.00     0.233 C 
ATOM      9  H22 UNL     1       7.909 -14.591 -20.935  1.00  0.00     0.277 HD
ATOM     10  H21 UNL     1       6.749 -14.051 -20.082  1.00  0.00     0.277 HD
HETATM   11  C9  UNL     1       4.943 -16.114 -21.102  1.00  0.00     0.042 C 
BRANCH   4  12
HETATM   12  C2  UNL     1       3.876 -14.398 -19.663  1.00  0.00    -0.026 C 
HETATM   13  C1  UNL     1       3.547 -15.158 -18.656  1.00  0.00     0.008 C 
ENDBRANCH   4  12
ENDBRANCH   1   4
TORSDOF 2
ENDMDL
MODEL 3
REMARK VINA RESULT: -3.623591232      1.436      4.202
REMARK  2 active torsions:
REMARK  status: ('A' for Active; 'I' for Inactive)
REMARK    1  A    between atoms: C2_2  and  C3_3 
REMARK    2  A    between atoms: C3_3  and  C4_4 
ROOT
HETATM    1  C4  UNL     1       5.747 -14.144 -22.397  1.00  0.00     0.137 C 
HETATM    2  C5  UNL     1       4.688 -13.276 -21.917  1.00  0.00     0.060 C 
HETATM    3  N1  UNL     1       3.836 -12.582 -21.516  1.00  0.00    -0.197 NA
ENDROOT
BRANCH   1   4
HETATM    4  C3  UNL     1       6.348 -14.879 -21.192  1.00  0.00    -0.008 C 
HETATM    5  C6  UNL     1       6.687 -13.886 -20.105  1.00  0.00     0.042 C 
HETATM    6  C7  UNL     1       8.096 -14.110 -19.623  1.00  0.00     0.233 C 
HETATM    7  N2  UNL     1       8.245 -15.527 -19.347  1.00  0.00    -0.075 N 
HETATM    8  C8  UNL     1       8.384 -16.224 -20.612  1.00  0.00     0.233 C 
ATOM      9  H22 UNL     1       9.011 -15.725 -18.703  1.00  0.00     0.277 HD
ATOM     10  H21 UNL     1       7.485 -15.899 -18.775  1.00  0.00     0.277 HD
HETATM   11  C9  UNL     1       7.521 -15.637 -21.688  1.00  0.00     0.042 C 
BRANCH   4  12
HETATM   12  C2  UNL     1       5.262 -15.744 -20.668  1.00  0.00    -0.026 C 
HETATM   13  C1  UNL     1       4.432 -15.448 -19.708  1.00  0.00     0.008 C 
ENDBRANCH   4  12
ENDBRANCH   1   4
TORSDOF 2
ENDMDL
MODEL 4
REMARK VINA RESULT: -3.395712072      1.251      1.684
REMARK  2 active torsions:
REMARK  status: ('A' for Active; 'I' for Inactive)
REMARK    1  A    between atoms: C2_2  and  C3_3 
REMARK    2  A    between atoms: C3_3  and  C4_4 
ROOT
HETATM    1  C4  UNL     1       6.026 -13.712 -20.689  1.00  0.00     0.137 C 
HETATM    2  C5  UNL     1       6.879 -14.733 -21.267  1.00  0.00     0.060 C 
HETATM    3  N1  UNL     1       7.556 -15.561 -21.742  1.00  0.00    -0.197 NA
ENDROOT
BRANCH   1   4
HETATM    4  C3  UNL     1       4.650 -13.798 -21.364  1.00  0.00    -0.008 C 
HETATM    5  C6  UNL     1       4.797 -13.581 -22.852  1.00  0.00     0.042 C 
HETATM    6  C7  UNL     1       3.806 -12.550 -23.323  1.00  0.00     0.233 C 
HETATM    7  N2  UNL     1       2.505 -12.919 -22.796  1.00  0.00    -0.075 N 
HETATM    8  C8  UNL     1       2.468 -12.562 -21.390  1.00  0.00     0.233 C 
ATOM      9  H22 UNL     1       1.735 -12.511 -23.326  1.00  0.00     0.277 HD
ATOM     10  H21 UNL     1       2.279 -13.901 -22.958  1.00  0.00     0.277 HD
HETATM   11  C9  UNL     1       3.780 -12.797 -20.703  1.00  0.00     0.042 C 
BRANCH   4  12
HETATM   12  C2  UNL     1       4.196 -15.198 -21.171  1.00  0.00    -0.026 C 
HETATM   13  C1  UNL     1       3.841 -15.748 -20.045  1.00  0.00     0.008 C 
ENDBRANCH   4  12
ENDBRANCH   1   4
TORSDOF 2
ENDMDL
MODEL 5
REMARK VINA RESULT: -3.346491784      1.092      2.548
REMARK  2 active torsions:
REMARK  status: ('A' for Active; 'I' for Inactive)
REMARK    1  A    between atoms: C2_2  and  C3_3 
REMARK    2  A    between atoms: C3_3  and  C4_4 
ROOT
HETATM    1  C4  UNL     1       6.448 -15.432 -21.493  1.00  0.00     0.137 C 
HETATM    2  C5  UNL     1       7.490 -14.918 -20.624  1.00  0.00     0.060 C 
HETATM    3  N1  UNL     1       8.320 -14.495 -19.917  1.00  0.00    -0.197 NA
ENDROOT
BRANCH   1   4
HETATM    4  C3  UNL     1       5.129 -14.741 -21.120  1.00  0.00    -0.008 C 
HETATM    5  C6  UNL     1       5.066 -14.531 -19.626  1.00  0.00     0.042 C 
HETATM    6  C7  UNL     1       3.750 -15.027 -19.089  1.00  0.00     0.233 C 
HETATM    7  N2  UNL     1       2.700 -14.467 -19.919  1.00  0.00    -0.075 N 
HETATM    8  C8  UNL     1       2.665 -15.204 -21.167  1.00  0.00     0.233 C 
ATOM      9  H22 UNL     1       1.795 -14.447 -19.447  1.00  0.00     0.277 HD
ATOM     10  H21 UNL     1       2.803 -13.461 -20.059  1.00  0.00     0.277 HD
HETATM   11  C9  UNL     1       4.033 -15.590 -21.645  1.00  0.00     0.042 C 
BRANCH   4  12
HETATM   12  C2  UNL     1       5.190 -13.398 -21.747  1.00  0.00    -0.026 C 
HETATM   13  C1  UNL     1       4.407 -12.944 -22.685  1.00  0.00     0.008 C 
ENDBRANCH   4  12
ENDBRANCH   1   4
TORSDOF 2
ENDMDL
