MODEL 1
REMARK VINA RESULT: -6.196671046      0.000      0.000
REMARK  2 active torsions:
REMARK  status: ('A' for Active; 'I' for Inactive)
REMARK    1  A    between atoms: C4_4  and  N1_5 
REMARK    2  A    between atoms: N1_5  and  C5_8 
ROOT
HETATM    1  N1  UNL     1       6.405 -14.675 -21.783  1.00  0.00    -0.045 N 
ATOM      2  H11 UNL     1       7.116 -14.187 -22.328  1.00  0.00     0.280 HD
ATOM      3  H12 UNL     1       6.191 -15.417 -22.448  1.00  0.00     0.280 HD
ENDROOT
BRANCH   1   4
HETATM    4  C4  UNL     1       5.259 -13.839 -21.518  1.00  0.00     0.321 C 
HETATM    5  C3  UNL     1       4.246 -14.590 -20.693  1.00  0.00     0.061 C 
HETATM    6  C2  UNL     1       2.928 -14.572 -21.448  1.00  0.00     0.006 C 
HETATM    7  C1  UNL     1       2.578 -13.103 -21.646  1.00  0.00     0.026 C 
HETATM    8  C9  UNL     1       3.656 -12.522 -22.522  1.00  0.00     0.170 C 
HETATM    9  O1  UNL     1       4.728 -13.370 -22.721  1.00  0.00    -0.359 OA
ENDBRANCH   1   4
BRANCH   1  10
HETATM   10  C5  UNL     1       6.931 -15.191 -20.552  1.00  0.00     0.189 C 
HETATM   11  C6  UNL     1       8.136 -16.109 -20.684  1.00  0.00     0.033 C 
HETATM   12  C7  UNL     1       8.604 -15.506 -19.362  1.00  0.00     0.004 C 
HETATM   13  C8  UNL     1       7.862 -14.247 -19.798  1.00  0.00     0.033 C 
ENDBRANCH   1  10
TORSDOF 2
ENDMDL
MODEL 2
REMARK VINA RESULT: -6.100306677      1.012      1.560
REMARK  2 active torsions:
REMARK  status: ('A' for Active; 'I' for Inactive)
REMARK    1  A    between atoms: C4_4  and  N1_5 
REMARK    2  A    between atoms: N1_5  and  C5_8 
ROOT
HETATM    1  N1  UNL     1       6.450 -14.017 -21.404  1.00  0.00    -0.045 N 
ATOM      2  H11 UNL     1       6.581 -13.087 -21.006  1.00  0.00     0.280 HD
ATOM      3  H12 UNL     1       7.025 -13.905 -22.238  1.00  0.00     0.280 HD
ENDROOT
BRANCH   1   4
HETATM    4  C4  UNL     1       5.069 -14.276 -21.730  1.00  0.00     0.321 C 
HETATM    5  C3  UNL     1       4.499 -13.133 -22.528  1.00  0.00     0.061 C 
HETATM    6  C2  UNL     1       3.270 -12.622 -21.795  1.00  0.00     0.006 C 
HETATM    7  C1  UNL     1       2.325 -13.811 -21.681  1.00  0.00     0.026 C 
HETATM    8  C9  UNL     1       3.025 -14.831 -20.822  1.00  0.00     0.170 C 
HETATM    9  O1  UNL     1       4.346 -14.526 -20.561  1.00  0.00    -0.359 OA
ENDBRANCH   1   4
BRANCH   1  10
HETATM   10  C5  UNL     1       6.952 -15.047 -20.540  1.00  0.00     0.189 C 
HETATM   11  C6  UNL     1       7.962 -15.997 -21.165  1.00  0.00     0.033 C 
HETATM   12  C7  UNL     1       8.614 -16.038 -19.785  1.00  0.00     0.004 C 
HETATM   13  C8  UNL     1       8.085 -14.618 -19.612  1.00  0.00     0.033 C 
ENDBRANCH   1  10
TORSDOF 2
ENDMDL
MODEL 3
REMARK VINA RESULT: -5.734835619      0.595      1.050
REMARK  2 active torsions:
REMARK  status: ('A' for Active; 'I' for Inactive)
REMARK    1  A    between atoms: C4_4  and  N1_5 
REMARK    2  A    between atoms: N1_5  and  C5_8 
ROOT
HETATM    1  N1  UNL     1       6.344 -15.493 -21.552  1.00  0.00    -0.045 N 
ATOM      2  H11 UNL     1       6.410 -15.645 -22.559  1.00  0.00     0.280 HD
ATOM      3  H12 UNL     1       6.010 -16.417 -21.283  1.00  0.00     0.280 HD
ENDROOT
BRANCH   1   4
HETATM    4  C4  UNL     1       5.396 -14.457 -21.223  1.00  0.00     0.321 C 
HETATM    5  C3  UNL     1       4.206 -15.047 -20.513  1.00  0.00     0.061 C 
HETATM    6  C2  UNL     1       2.961 -14.659 -21.293  1.00  0.00     0.006 C 
HETATM    7  C1  UNL     1       2.949 -13.137 -21.332  1.00  0.00     0.026 C 
HETATM    8  C9  UNL     1       4.168 -12.721 -22.111  1.00  0.00     0.170 C 
HETATM    9  O1  UNL     1       5.039 -13.759 -22.379  1.00  0.00    -0.359 OA
ENDBRANCH   1   4
BRANCH   1  10
HETATM   10  C5  UNL     1       7.621 -15.193 -20.971  1.00  0.00     0.189 C 
HETATM   11  C6  UNL     1       7.590 -14.318 -19.727  1.00  0.00     0.033 C 
HETATM   12  C7  UNL     1       8.790 -15.136 -19.254  1.00  0.00     0.004 C 
HETATM   13  C8  UNL     1       8.192 -16.280 -20.066  1.00  0.00     0.033 C 
ENDBRANCH   1  10
TORSDOF 2
ENDMDL
MODEL 4
REMARK VINA RESULT: -4.766312436      1.184      1.832
REMARK  2 active torsions:
REMARK  status: ('A' for Active; 'I' for Inactive)
REMARK    1  A    between atoms: C4_4  and  N1_5 
REMARK    2  A    between atoms: N1_5  and  C5_8 
ROOT
HETATM    1  N1  UNL     1       5.415 -15.599 -20.565  1.00  0.00    -0.045 N 
ATOM      2  H11 UNL     1       5.501 -16.600 -20.745  1.00  0.00     0.280 HD
ATOM      3  H12 UNL     1       5.001 -15.651 -19.634  1.00  0.00     0.280 HD
ENDROOT
BRANCH   1   4
HETATM    4  C4  UNL     1       4.539 -14.953 -21.511  1.00  0.00     0.321 C 
HETATM    5  C3  UNL     1       5.190 -13.709 -22.058  1.00  0.00     0.061 C 
HETATM    6  C2  UNL     1       4.254 -12.541 -21.795  1.00  0.00     0.006 C 
HETATM    7  C1  UNL     1       2.943 -12.892 -22.486  1.00  0.00     0.026 C 
HETATM    8  C9  UNL     1       2.410 -14.117 -21.792  1.00  0.00     0.170 C 
HETATM    9  O1  UNL     1       3.305 -14.692 -20.911  1.00  0.00    -0.359 OA
ENDBRANCH   1   4
BRANCH   1  10
HETATM   10  C5  UNL     1       6.691 -14.944 -20.549  1.00  0.00     0.189 C 
HETATM   11  C6  UNL     1       7.179 -14.482 -19.185  1.00  0.00     0.033 C 
HETATM   12  C7  UNL     1       8.579 -14.815 -19.693  1.00  0.00     0.004 C 
HETATM   13  C8  UNL     1       7.898 -15.876 -20.551  1.00  0.00     0.033 C 
ENDBRANCH   1  10
TORSDOF 2
ENDMDL
MODEL 5
REMARK VINA RESULT: -4.624846350      1.324      1.876
REMARK  2 active torsions:
REMARK  status: ('A' for Active; 'I' for Inactive)
REMARK    1  A    between atoms: C4_4  and  N1_5 
REMARK    2  A    between atoms: N1_5  and  C5_8 
ROOT
HETATM    1  N1  UNL     1       5.198 -14.744 -20.026  1.00  0.00    -0.045 N 
ATOM      2  H11 UNL     1       4.675 -15.101 -19.226  1.00  0.00     0.280 HD
ATOM      3  H12 UNL     1       5.524 -13.871 -19.614  1.00  0.00     0.280 HD
ENDROOT
BRANCH   1   4
HETATM    4  C4  UNL     1       4.348 -14.519 -21.169  1.00  0.00     0.321 C 
HETATM    5  C3  UNL     1       4.769 -13.266 -21.892  1.00  0.00     0.061 C 
HETATM    6  C2  UNL     1       3.562 -12.348 -21.973  1.00  0.00     0.006 C 
HETATM    7  C1  UNL     1       2.484 -13.136 -22.705  1.00  0.00     0.026 C 
HETATM    8  C9  UNL     1       2.150 -14.316 -21.831  1.00  0.00     0.170 C 
HETATM    9  O1  UNL     1       3.012 -14.479 -20.764  1.00  0.00    -0.359 OA
ENDBRANCH   1   4
BRANCH   1  10
HETATM   10  C5  UNL     1       6.286 -15.607 -20.386  1.00  0.00     0.189 C 
HETATM   11  C6  UNL     1       6.820 -15.442 -21.800  1.00  0.00     0.033 C 
HETATM   12  C7  UNL     1       8.186 -15.774 -21.208  1.00  0.00     0.004 C 
HETATM   13  C8  UNL     1       7.663 -15.141 -19.923  1.00  0.00     0.033 C 
ENDBRANCH   1  10
TORSDOF 2
ENDMDL
