MODEL 1
REMARK VINA RESULT: -6.899694614      0.000      0.000
REMARK  4 active torsions:
REMARK  status: ('A' for Active; 'I' for Inactive)
REMARK    1  A    between atoms: C1_2  and  C2_4 
REMARK    2  A    between atoms: C2_4  and  N2_5 
REMARK    3  A    between atoms: C2_4  and  C3_9 
REMARK       I    between atoms: C3_9  and  N3_11 
REMARK    4  A    between atoms: N3_11  and  C4_13 
ROOT
HETATM    1  C3  UNL     1      58.574  -6.090  17.458  1.00  0.00     0.275 C 
HETATM    2  O2  UNL     1      57.699  -6.614  16.724  1.00  0.00    -0.270 OA
HETATM    3  N3  UNL     1      58.714  -4.694  17.453  1.00  0.00    -0.156 N 
ATOM      4  H3  UNL     1      59.231  -4.245  16.696  1.00  0.00     0.187 HD
ENDROOT
BRANCH   3   5
HETATM    5  C4  UNL     1      58.194  -3.956  18.401  1.00  0.00     0.703 A 
HETATM    6  N4  UNL     1      57.895  -4.358  19.646  1.00  0.00    -0.128 N 
HETATM    7  N5  UNL     1      57.383  -3.368  20.358  1.00  0.00    -0.237 N 
ATOM      8  H4  UNL     1      58.044  -5.304  19.997  1.00  0.00     0.205 HD
HETATM    9  C5  UNL     1      57.360  -2.302  19.523  1.00  0.00     0.353 A 
ATOM     10  H5  UNL     1      57.071  -3.400  21.329  1.00  0.00     0.192 HD
HETATM   11  O3  UNL     1      56.922  -1.162  19.881  1.00  0.00    -0.245 OA
HETATM   12  N6  UNL     1      57.855  -2.657  18.325  1.00  0.00    -0.139 N 
ATOM     13  H6  UNL     1      57.955  -2.053  17.510  1.00  0.00     0.189 HD
ENDBRANCH   3   5
BRANCH   1  14
HETATM   14  C2  UNL     1      59.412  -6.972  18.291  1.00  0.00     0.363 C 
BRANCH  14  15
HETATM   15  C1  UNL     1      60.645  -7.407  17.624  1.00  0.00     0.271 C 
HETATM   16  N1  UNL     1      61.295  -6.700  16.592  1.00  0.00    -0.060 NA
HETATM   17  O1  UNL     1      61.174  -8.507  18.004  1.00  0.00    -0.274 OA
ENDBRANCH  14  15
BRANCH  14  18
HETATM   18  N2  UNL     1      58.668  -8.145  18.700  1.00  0.00    -0.058 N 
ATOM     19  H23 UNL     1      57.975  -8.428  18.009  1.00  0.00     0.275 HD
ATOM     20  H22 UNL     1      59.236  -8.992  18.685  1.00  0.00     0.275 HD
ATOM     21  H21 UNL     1      58.256  -7.967  19.616  1.00  0.00     0.275 HD
ENDBRANCH  14  18
ENDBRANCH   1  14
TORSDOF 4
ENDMDL
MODEL 2
REMARK VINA RESULT: -6.566378548      0.736      1.145
REMARK  4 active torsions:
REMARK  status: ('A' for Active; 'I' for Inactive)
REMARK    1  A    between atoms: C1_2  and  C2_4 
REMARK    2  A    between atoms: C2_4  and  N2_5 
REMARK    3  A    between atoms: C2_4  and  C3_9 
REMARK       I    between atoms: C3_9  and  N3_11 
REMARK    4  A    between atoms: N3_11  and  C4_13 
ROOT
HETATM    1  C3  UNL     1      58.526  -6.091  17.411  1.00  0.00     0.275 C 
HETATM    2  O2  UNL     1      57.595  -6.645  16.773  1.00  0.00    -0.270 OA
HETATM    3  N3  UNL     1      58.700  -4.704  17.284  1.00  0.00    -0.156 N 
ATOM      4  H3  UNL     1      59.183  -4.334  16.465  1.00  0.00     0.187 HD
ENDROOT
BRANCH   3   5
HETATM    5  C4  UNL     1      58.256  -3.878  18.196  1.00  0.00     0.703 A 
HETATM    6  N4  UNL     1      58.140  -2.547  18.071  1.00  0.00    -0.128 N 
HETATM    7  N5  UNL     1      57.658  -2.003  19.177  1.00  0.00    -0.237 N 
ATOM      8  H4  UNL     1      58.390  -2.022  17.233  1.00  0.00     0.205 HD
HETATM    9  C5  UNL     1      57.466  -3.038  20.029  1.00  0.00     0.353 A 
ATOM     10  H5  UNL     1      57.471  -1.016  19.351  1.00  0.00     0.192 HD
HETATM   11  O3  UNL     1      57.005  -2.879  21.205  1.00  0.00    -0.245 OA
HETATM   12  N6  UNL     1      57.830  -4.186  19.433  1.00  0.00    -0.139 N 
ATOM     13  H6  UNL     1      57.790  -5.119  19.844  1.00  0.00     0.189 HD
ENDBRANCH   3   5
BRANCH   1  14
HETATM   14  C2  UNL     1      59.388  -6.929  18.263  1.00  0.00     0.363 C 
BRANCH  14  15
HETATM   15  C1  UNL     1      60.622  -7.363  17.599  1.00  0.00     0.271 C 
HETATM   16  N1  UNL     1      61.274  -6.657  16.566  1.00  0.00    -0.060 NA
HETATM   17  O1  UNL     1      61.150  -8.463  17.979  1.00  0.00    -0.274 OA
ENDBRANCH  14  15
BRANCH  14  18
HETATM   18  N2  UNL     1      58.671  -8.099  18.722  1.00  0.00    -0.058 N 
ATOM     19  H23 UNL     1      57.671  -8.043  18.532  1.00  0.00     0.275 HD
ATOM     20  H22 UNL     1      58.874  -8.926  18.160  1.00  0.00     0.275 HD
ATOM     21  H21 UNL     1      58.873  -8.240  19.711  1.00  0.00     0.275 HD
ENDBRANCH  14  18
ENDBRANCH   1  14
TORSDOF 4
ENDMDL
MODEL 3
REMARK VINA RESULT: -6.550647378      1.508      5.396
REMARK  4 active torsions:
REMARK  status: ('A' for Active; 'I' for Inactive)
REMARK    1  A    between atoms: C1_2  and  C2_4 
REMARK    2  A    between atoms: C2_4  and  N2_5 
REMARK    3  A    between atoms: C2_4  and  C3_9 
REMARK       I    between atoms: C3_9  and  N3_11 
REMARK    4  A    between atoms: N3_11  and  C4_13 
ROOT
HETATM    1  C3  UNL     1      57.695  -4.529  17.688  1.00  0.00     0.275 C 
HETATM    2  O2  UNL     1      56.924  -4.279  16.728  1.00  0.00    -0.270 OA
HETATM    3  N3  UNL     1      58.048  -5.863  17.943  1.00  0.00    -0.156 N 
ATOM      4  H3  UNL     1      57.396  -6.465  18.447  1.00  0.00     0.187 HD
ENDROOT
BRANCH   3   5
HETATM    5  C4  UNL     1      59.197  -6.349  17.548  1.00  0.00     0.703 A 
HETATM    6  N4  UNL     1      59.990  -5.836  16.594  1.00  0.00    -0.128 N 
HETATM    7  N5  UNL     1      61.080  -6.568  16.435  1.00  0.00    -0.237 N 
ATOM      8  H4  UNL     1      59.779  -4.992  16.062  1.00  0.00     0.205 HD
HETATM    9  C5  UNL     1      60.964  -7.580  17.326  1.00  0.00     0.353 A 
ATOM     10  H5  UNL     1      61.845  -6.403  15.781  1.00  0.00     0.192 HD
HETATM   11  O3  UNL     1      61.848  -8.488  17.448  1.00  0.00    -0.245 OA
HETATM   12  N6  UNL     1      59.814  -7.451  18.009  1.00  0.00    -0.139 N 
ATOM     13  H6  UNL     1      59.473  -8.073  18.741  1.00  0.00     0.189 HD
ENDBRANCH   3   5
BRANCH   1  14
HETATM   14  C2  UNL     1      58.192  -3.403  18.500  1.00  0.00     0.363 C 
BRANCH  14  15
HETATM   15  C1  UNL     1      57.467  -3.229  19.763  1.00  0.00     0.271 C 
HETATM   16  N1  UNL     1      56.518  -2.216  20.016  1.00  0.00    -0.060 NA
HETATM   17  O1  UNL     1      57.709  -4.054  20.710  1.00  0.00    -0.274 OA
ENDBRANCH  14  15
BRANCH  14  18
HETATM   18  N2  UNL     1      58.125  -2.166  17.752  1.00  0.00    -0.058 N 
ATOM     19  H23 UNL     1      58.691  -2.190  16.905  1.00  0.00     0.275 HD
ATOM     20  H22 UNL     1      57.217  -2.026  17.310  1.00  0.00     0.275 HD
ATOM     21  H21 UNL     1      58.382  -1.396  18.370  1.00  0.00     0.275 HD
ENDBRANCH  14  18
ENDBRANCH   1  14
TORSDOF 4
ENDMDL
MODEL 4
REMARK VINA RESULT: -6.383451401      1.515      5.294
REMARK  4 active torsions:
REMARK  status: ('A' for Active; 'I' for Inactive)
REMARK    1  A    between atoms: C1_2  and  C2_4 
REMARK    2  A    between atoms: C2_4  and  N2_5 
REMARK    3  A    between atoms: C2_4  and  C3_9 
REMARK       I    between atoms: C3_9  and  N3_11 
REMARK    4  A    between atoms: N3_11  and  C4_13 
ROOT
HETATM    1  C3  UNL     1      57.426  -4.917  17.594  1.00  0.00     0.275 C 
HETATM    2  O2  UNL     1      56.863  -4.393  16.600  1.00  0.00    -0.270 OA
HETATM    3  N3  UNL     1      57.831  -6.258  17.513  1.00  0.00    -0.156 N 
ATOM      4  H3  UNL     1      57.142  -6.998  17.647  1.00  0.00     0.187 HD
ENDROOT
BRANCH   3   5
HETATM    5  C4  UNL     1      59.076  -6.578  17.269  1.00  0.00     0.703 A 
HETATM    6  N4  UNL     1      59.919  -5.924  16.454  1.00  0.00    -0.128 N 
HETATM    7  N5  UNL     1      61.107  -6.506  16.428  1.00  0.00    -0.237 N 
ATOM      8  H4  UNL     1      59.675  -5.088  15.924  1.00  0.00     0.205 HD
HETATM    9  C5  UNL     1      61.002  -7.568  17.262  1.00  0.00     0.353 A 
ATOM     10  H5  UNL     1      61.926  -6.216  15.894  1.00  0.00     0.192 HD
HETATM   11  O3  UNL     1      61.972  -8.363  17.480  1.00  0.00    -0.245 OA
HETATM   12  N6  UNL     1      59.763  -7.616  17.779  1.00  0.00    -0.139 N 
ATOM     13  H6  UNL     1      59.409  -8.311  18.435  1.00  0.00     0.189 HD
ENDBRANCH   3   5
BRANCH   1  14
HETATM   14  C2  UNL     1      57.635  -4.093  18.798  1.00  0.00     0.363 C 
BRANCH  14  15
HETATM   15  C1  UNL     1      57.608  -2.650  18.530  1.00  0.00     0.271 C 
HETATM   16  N1  UNL     1      56.669  -1.747  19.069  1.00  0.00    -0.060 NA
HETATM   17  O1  UNL     1      58.502  -2.170  17.751  1.00  0.00    -0.274 OA
ENDBRANCH  14  15
BRANCH  14  18
HETATM   18  N2  UNL     1      58.893  -4.423  19.432  1.00  0.00    -0.058 N 
ATOM     19  H23 UNL     1      59.176  -3.730  20.124  1.00  0.00     0.275 HD
ATOM     20  H22 UNL     1      58.815  -5.223  20.060  1.00  0.00     0.275 HD
ATOM     21  H21 UNL     1      59.598  -4.561  18.708  1.00  0.00     0.275 HD
ENDBRANCH  14  18
ENDBRANCH   1  14
TORSDOF 4
ENDMDL
MODEL 5
REMARK VINA RESULT: -6.299149094      2.440      3.065
REMARK  4 active torsions:
REMARK  status: ('A' for Active; 'I' for Inactive)
REMARK    1  A    between atoms: C1_2  and  C2_4 
REMARK    2  A    between atoms: C2_4  and  N2_5 
REMARK    3  A    between atoms: C2_4  and  C3_9 
REMARK       I    between atoms: C3_9  and  N3_11 
REMARK    4  A    between atoms: N3_11  and  C4_13 
ROOT
HETATM    1  C3  UNL     1      58.382  -5.016  17.773  1.00  0.00     0.275 C 
HETATM    2  O2  UNL     1      57.575  -4.209  17.246  1.00  0.00    -0.270 OA
HETATM    3  N3  UNL     1      58.999  -4.664  18.983  1.00  0.00    -0.156 N 
ATOM      4  H3  UNL     1      59.801  -4.033  18.971  1.00  0.00     0.187 HD
ENDROOT
BRANCH   3   5
HETATM    5  C4  UNL     1      58.565  -5.129  20.127  1.00  0.00     0.703 A 
HETATM    6  N4  UNL     1      57.636  -4.562  20.913  1.00  0.00    -0.128 N 
HETATM    7  N5  UNL     1      57.424  -5.286  22.000  1.00  0.00    -0.237 N 
ATOM      8  H4  UNL     1      57.156  -3.688  20.699  1.00  0.00     0.205 HD
HETATM    9  C5  UNL     1      58.255  -6.349  21.889  1.00  0.00     0.353 A 
ATOM     10  H5  UNL     1      56.773  -5.085  22.759  1.00  0.00     0.192 HD
HETATM   11  O3  UNL     1      58.316  -7.264  22.772  1.00  0.00    -0.245 OA
HETATM   12  N6  UNL     1      58.955  -6.257  20.745  1.00  0.00    -0.139 N 
ATOM     13  H6  UNL     1      59.652  -6.920  20.409  1.00  0.00     0.189 HD
ENDBRANCH   3   5
BRANCH   1  14
HETATM   14  C2  UNL     1      58.639  -6.297  17.090  1.00  0.00     0.363 C 
BRANCH  14  15
HETATM   15  C1  UNL     1      59.954  -6.870  17.400  1.00  0.00     0.271 C 
HETATM   16  N1  UNL     1      61.137  -6.615  16.675  1.00  0.00    -0.060 NA
HETATM   17  O1  UNL     1      60.040  -7.661  18.401  1.00  0.00    -0.274 OA
ENDBRANCH  14  15
BRANCH  14  18
HETATM   18  N2  UNL     1      58.527  -6.142  15.655  1.00  0.00    -0.058 N 
ATOM     19  H23 UNL     1      58.992  -5.300  15.316  1.00  0.00     0.275 HD
ATOM     20  H22 UNL     1      59.086  -6.825  15.144  1.00  0.00     0.275 HD
ATOM     21  H21 UNL     1      57.541  -6.173  15.399  1.00  0.00     0.275 HD
ENDBRANCH  14  18
ENDBRANCH   1  14
TORSDOF 4
ENDMDL
