MODEL 1
REMARK VINA RESULT: -6.203610137      0.000      0.000
REMARK  2 active torsions:
REMARK  status: ('A' for Active; 'I' for Inactive)
REMARK    1  A    between atoms: N3_4  and  N4_6 
REMARK    2  A    between atoms: C2_8  and  C3_9 
ROOT
HETATM    1  C3  UNL     1      58.905  -6.060  18.814  1.00  0.00     0.090 A 
HETATM    2  C4  UNL     1      58.862  -5.650  17.497  1.00  0.00     0.137 A 
HETATM    3  N5  UNL     1      59.248  -6.573  16.494  1.00  0.00    -0.081 NA
HETATM    4  N6  UNL     1      58.459  -4.402  17.242  1.00  0.00    -0.296 N 
ATOM      5  H6  UNL     1      58.418  -4.072  16.278  1.00  0.00     0.171 HD
HETATM    6  C5  UNL     1      58.106  -3.578  18.245  1.00  0.00     0.328 A 
HETATM    7  O1  UNL     1      57.725  -2.390  17.966  1.00  0.00    -0.247 OA
HETATM    8  N7  UNL     1      58.134  -3.941  19.541  1.00  0.00    -0.275 N 
ATOM      9  H7  UNL     1      57.862  -3.293  20.281  1.00  0.00     0.173 HD
HETATM   10  C6  UNL     1      58.539  -5.195  19.818  1.00  0.00     0.264 A 
HETATM   11  O2  UNL     1      58.575  -5.562  21.021  1.00  0.00    -0.267 OA
ENDROOT
BRANCH   1  12
HETATM   12  C2  UNL     1      59.338  -7.412  19.139  1.00  0.00     0.127 C 
HETATM   13  N4  UNL     1      58.529  -8.392  19.225  1.00  0.00    -0.309 N 
ATOM     14  H4  UNL     1      57.536  -8.227  19.061  1.00  0.00     0.186 HD
BRANCH  13  15
HETATM   15  N3  UNL     1      58.955  -9.683  19.536  1.00  0.00    -0.276 N 
HETATM   16  C1  UNL     1      58.240 -10.731  19.345  1.00  0.00     0.215 C 
HETATM   17  N1  UNL     1      56.933 -10.679  18.790  1.00  0.00    -0.065 NA
HETATM   18  N2  UNL     1      58.810 -11.990  19.713  1.00  0.00    -0.065 NA
ATOM     19  H3  UNL     1      59.885  -9.801  19.938  1.00  0.00     0.189 HD
ENDBRANCH  13  15
ENDBRANCH   1  12
TORSDOF 2
ENDMDL
MODEL 2
REMARK VINA RESULT: -6.170205684      1.026      1.026
REMARK  2 active torsions:
REMARK  status: ('A' for Active; 'I' for Inactive)
REMARK    1  A    between atoms: N3_4  and  N4_6 
REMARK    2  A    between atoms: C2_8  and  C3_9 
ROOT
HETATM    1  C3  UNL     1      58.736  -5.602  18.536  1.00  0.00     0.090 A 
HETATM    2  C4  UNL     1      58.381  -4.979  17.357  1.00  0.00     0.137 A 
HETATM    3  N5  UNL     1      58.604  -5.670  16.141  1.00  0.00    -0.081 NA
HETATM    4  N6  UNL     1      57.848  -3.757  17.430  1.00  0.00    -0.296 N 
ATOM      5  H6  UNL     1      57.577  -3.272  16.574  1.00  0.00     0.171 HD
HETATM    6  C5  UNL     1      57.664  -3.159  18.621  1.00  0.00     0.328 A 
HETATM    7  O1  UNL     1      57.151  -1.989  18.654  1.00  0.00    -0.247 OA
HETATM    8  N7  UNL     1      57.997  -3.733  19.792  1.00  0.00    -0.275 N 
ATOM      9  H7  UNL     1      57.848  -3.255  20.680  1.00  0.00     0.173 HD
HETATM   10  C6  UNL     1      58.537  -4.965  19.739  1.00  0.00     0.264 A 
HETATM   11  O2  UNL     1      58.857  -5.528  20.819  1.00  0.00    -0.267 OA
ENDROOT
BRANCH   1  12
HETATM   12  C2  UNL     1      59.321  -6.936  18.505  1.00  0.00     0.127 C 
HETATM   13  N4  UNL     1      58.844  -7.911  19.170  1.00  0.00    -0.309 N 
ATOM     14  H4  UNL     1      58.020  -7.757  19.750  1.00  0.00     0.186 HD
BRANCH  13  15
HETATM   15  N3  UNL     1      59.412  -9.185  19.133  1.00  0.00    -0.276 N 
HETATM   16  C1  UNL     1      59.086 -10.131  19.936  1.00  0.00     0.215 C 
HETATM   17  N1  UNL     1      58.105  -9.972  20.952  1.00  0.00    -0.065 NA
HETATM   18  N2  UNL     1      59.755 -11.385  19.777  1.00  0.00    -0.065 NA
ATOM     19  H3  UNL     1      60.125  -9.375  18.428  1.00  0.00     0.189 HD
ENDBRANCH  13  15
ENDBRANCH   1  12
TORSDOF 2
ENDMDL
MODEL 3
REMARK VINA RESULT: -6.146973647      2.797      5.892
REMARK  2 active torsions:
REMARK  status: ('A' for Active; 'I' for Inactive)
REMARK    1  A    between atoms: N3_4  and  N4_6 
REMARK    2  A    between atoms: C2_8  and  C3_9 
ROOT
HETATM    1  C3  UNL     1      59.179  -5.993  18.255  1.00  0.00     0.090 A 
HETATM    2  C4  UNL     1      59.649  -6.980  19.097  1.00  0.00     0.137 A 
HETATM    3  N5  UNL     1      59.179  -7.003  20.432  1.00  0.00    -0.081 NA
HETATM    4  N6  UNL     1      60.525  -7.859  18.603  1.00  0.00    -0.296 N 
ATOM      5  H6  UNL     1      60.890  -8.600  19.203  1.00  0.00     0.171 HD
HETATM    6  C5  UNL     1      60.930  -7.779  17.323  1.00  0.00     0.328 A 
HETATM    7  O1  UNL     1      61.769  -8.637  16.883  1.00  0.00    -0.247 OA
HETATM    8  N7  UNL     1      60.495  -6.832  16.472  1.00  0.00    -0.275 N 
ATOM      9  H7  UNL     1      60.820  -6.794  15.506  1.00  0.00     0.173 HD
HETATM   10  C6  UNL     1      59.612  -5.935  16.951  1.00  0.00     0.264 A 
HETATM   11  O2  UNL     1      59.186  -5.038  16.177  1.00  0.00    -0.267 OA
ENDROOT
BRANCH   1  12
HETATM   12  C2  UNL     1      58.223  -5.012  18.750  1.00  0.00     0.127 C 
HETATM   13  N4  UNL     1      58.554  -4.057  19.524  1.00  0.00    -0.309 N 
ATOM     14  H4  UNL     1      59.529  -3.972  19.812  1.00  0.00     0.186 HD
BRANCH  13  15
HETATM   15  N3  UNL     1      57.629  -3.123  19.992  1.00  0.00    -0.276 N 
HETATM   16  C1  UNL     1      57.113  -2.207  19.256  1.00  0.00     0.215 C 
HETATM   17  N1  UNL     1      57.436  -2.053  17.881  1.00  0.00    -0.065 NA
HETATM   18  N2  UNL     1      56.177  -1.321  19.875  1.00  0.00    -0.065 NA
ATOM     19  H3  UNL     1      57.348  -3.172  20.970  1.00  0.00     0.189 HD
ENDBRANCH  13  15
ENDBRANCH   1  12
TORSDOF 2
ENDMDL
MODEL 4
REMARK VINA RESULT: -6.125886209      1.383      2.109
REMARK  2 active torsions:
REMARK  status: ('A' for Active; 'I' for Inactive)
REMARK    1  A    between atoms: N3_4  and  N4_6 
REMARK    2  A    between atoms: C2_8  and  C3_9 
ROOT
HETATM    1  C3  UNL     1      58.834  -6.261  18.623  1.00  0.00     0.090 A 
HETATM    2  C4  UNL     1      58.668  -5.403  19.691  1.00  0.00     0.137 A 
HETATM    3  N5  UNL     1      58.916  -5.899  20.995  1.00  0.00    -0.081 NA
HETATM    4  N6  UNL     1      58.281  -4.151  19.435  1.00  0.00    -0.296 N 
ATOM      5  H6  UNL     1      58.150  -3.495  20.205  1.00  0.00     0.171 HD
HETATM    6  C5  UNL     1      58.063  -3.746  18.171  1.00  0.00     0.328 A 
HETATM    7  O1  UNL     1      57.694  -2.540  17.961  1.00  0.00    -0.247 OA
HETATM    8  N7  UNL     1      58.213  -4.552  17.103  1.00  0.00    -0.275 N 
ATOM      9  H7  UNL     1      58.039  -4.218  16.155  1.00  0.00     0.173 HD
HETATM   10  C6  UNL     1      58.602  -5.819  17.342  1.00  0.00     0.264 A 
HETATM   11  O2  UNL     1      58.752  -6.596  16.363  1.00  0.00    -0.267 OA
ENDROOT
BRANCH   1  12
HETATM   12  C2  UNL     1      59.255  -7.636  18.856  1.00  0.00     0.127 C 
HETATM   13  N4  UNL     1      58.480  -8.519  19.345  1.00  0.00    -0.309 N 
ATOM     14  H4  UNL     1      57.524  -8.258  19.587  1.00  0.00     0.186 HD
BRANCH  13  15
HETATM   15  N3  UNL     1      58.894  -9.834  19.563  1.00  0.00    -0.276 N 
HETATM   16  C1  UNL     1      58.170 -10.859  19.297  1.00  0.00     0.215 C 
HETATM   17  N1  UNL     1      56.863 -10.755  18.749  1.00  0.00    -0.065 NA
HETATM   18  N2  UNL     1      58.729 -12.145  19.574  1.00  0.00    -0.065 NA
ATOM     19  H3  UNL     1      59.823  -9.988  19.954  1.00  0.00     0.189 HD
ENDBRANCH  13  15
ENDBRANCH   1  12
TORSDOF 2
ENDMDL
MODEL 5
REMARK VINA RESULT: -6.108935828      2.705      5.594
REMARK  2 active torsions:
REMARK  status: ('A' for Active; 'I' for Inactive)
REMARK    1  A    between atoms: N3_4  and  N4_6 
REMARK    2  A    between atoms: C2_8  and  C3_9 
ROOT
HETATM    1  C3  UNL     1      59.203  -6.082  18.298  1.00  0.00     0.090 A 
HETATM    2  C4  UNL     1      59.650  -6.012  16.994  1.00  0.00     0.137 A 
HETATM    3  N5  UNL     1      59.149  -4.976  16.168  1.00  0.00    -0.081 NA
HETATM    4  N6  UNL     1      60.530  -6.929  16.583  1.00  0.00    -0.296 N 
ATOM      5  H6  UNL     1      60.877  -6.902  15.624  1.00  0.00     0.171 HD
HETATM    6  C5  UNL     1      60.964  -7.887  17.422  1.00  0.00     0.328 A 
HETATM    7  O1  UNL     1      61.806  -8.749  16.997  1.00  0.00    -0.247 OA
HETATM    8  N7  UNL     1      60.552  -7.988  18.700  1.00  0.00    -0.275 N 
ATOM      9  H7  UNL     1      60.897  -8.727  19.313  1.00  0.00     0.173 HD
HETATM   10  C6  UNL     1      59.664  -7.073  19.132  1.00  0.00     0.264 A 
HETATM   11  O2  UNL     1      59.261  -7.142  20.323  1.00  0.00    -0.267 OA
ENDROOT
BRANCH   1  12
HETATM   12  C2  UNL     1      58.243  -5.103  18.789  1.00  0.00     0.127 C 
HETATM   13  N4  UNL     1      58.582  -4.109  19.509  1.00  0.00    -0.309 N 
ATOM     14  H4  UNL     1      59.565  -3.990  19.754  1.00  0.00     0.186 HD
BRANCH  13  15
HETATM   15  N3  UNL     1      57.654  -3.176  19.974  1.00  0.00    -0.276 N 
HETATM   16  C1  UNL     1      57.151  -2.250  19.242  1.00  0.00     0.215 C 
HETATM   17  N1  UNL     1      57.493  -2.083  17.873  1.00  0.00    -0.065 NA
HETATM   18  N2  UNL     1      56.210  -1.367  19.857  1.00  0.00    -0.065 NA
ATOM     19  H3  UNL     1      57.359  -3.234  20.948  1.00  0.00     0.189 HD
ENDBRANCH  13  15
ENDBRANCH   1  12
TORSDOF 2
ENDMDL
