MODEL 1
REMARK VINA RESULT: -6.303873400      0.000      0.000
REMARK  2 active torsions:
REMARK  status: ('A' for Active; 'I' for Inactive)
REMARK    1  A    between atoms: C5_10  and  N3_11 
REMARK    2  A    between atoms: N3_11  and  N4_13 
ROOT
HETATM    1  C1  UNL     1      59.841  -7.679  19.018  1.00  0.00     0.047 C 
HETATM    2  C2  UNL     1      59.202  -6.696  18.407  1.00  0.00     0.079 A 
HETATM    3  N1  UNL     1      59.004  -6.792  17.073  1.00  0.00    -0.306 N 
ATOM      4  H1  UNL     1      59.341  -7.605  16.558  1.00  0.00     0.171 HD
HETATM    5  C3  UNL     1      58.360  -5.805  16.438  1.00  0.00     0.325 A 
HETATM    6  O1  UNL     1      58.153  -5.851  15.202  1.00  0.00    -0.247 OA
HETATM    7  N2  UNL     1      57.913  -4.734  17.112  1.00  0.00    -0.304 N 
ATOM      8  H2  UNL     1      57.426  -4.002  16.594  1.00  0.00     0.171 HD
HETATM    9  C4  UNL     1      58.078  -4.580  18.435  1.00  0.00     0.106 A 
HETATM   10  C5  UNL     1      57.619  -3.504  19.053  1.00  0.00     0.141 C 
HETATM   11  C7  UNL     1      58.741  -5.592  19.096  1.00  0.00     0.225 A 
HETATM   12  O2  UNL     1      58.920  -5.494  20.336  1.00  0.00    -0.283 OA
ENDROOT
BRANCH  10  13
HETATM   13  N3  UNL     1      57.758  -3.282  20.436  1.00  0.00    -0.307 N 
ATOM     14  H3  UNL     1      58.690  -3.310  20.850  1.00  0.00     0.186 HD
BRANCH  13  15
HETATM   15  N4  UNL     1      56.671  -3.026  21.253  1.00  0.00    -0.276 N 
HETATM   16  C6  UNL     1      56.481  -3.579  22.398  1.00  0.00     0.215 C 
HETATM   17  N5  UNL     1      57.392  -4.536  22.961  1.00  0.00    -0.065 NA
HETATM   18  N6  UNL     1      55.322  -3.230  23.142  1.00  0.00    -0.065 NA
ATOM     19  H4  UNL     1      55.975  -2.355  20.926  1.00  0.00     0.189 HD
ENDBRANCH  13  15
ENDBRANCH  10  13
TORSDOF 2
ENDMDL
MODEL 2
REMARK VINA RESULT: -5.991608001      2.324      3.506
REMARK  2 active torsions:
REMARK  status: ('A' for Active; 'I' for Inactive)
REMARK    1  A    between atoms: C5_10  and  N3_11 
REMARK    2  A    between atoms: N3_11  and  N4_13 
ROOT
HETATM    1  C1  UNL     1      60.799  -7.423  16.525  1.00  0.00     0.047 C 
HETATM    2  C2  UNL     1      60.296  -7.467  17.748  1.00  0.00     0.079 A 
HETATM    3  N1  UNL     1      60.431  -8.612  18.454  1.00  0.00    -0.306 N 
ATOM      4  H1  UNL     1      60.909  -9.416  18.048  1.00  0.00     0.171 HD
HETATM    5  C3  UNL     1      59.927  -8.675  19.693  1.00  0.00     0.325 A 
HETATM    6  O1  UNL     1      60.027  -9.716  20.385  1.00  0.00    -0.247 OA
HETATM    7  N2  UNL     1      59.298  -7.619  20.231  1.00  0.00    -0.304 N 
ATOM      8  H2  UNL     1      58.928  -7.705  21.178  1.00  0.00     0.171 HD
HETATM    9  C4  UNL     1      59.133  -6.456  19.582  1.00  0.00     0.106 A 
HETATM   10  C5  UNL     1      58.504  -5.444  20.158  1.00  0.00     0.141 C 
HETATM   11  C7  UNL     1      59.648  -6.383  18.305  1.00  0.00     0.225 A 
HETATM   12  O2  UNL     1      59.519  -5.314  17.656  1.00  0.00    -0.283 OA
ENDROOT
BRANCH  10  13
HETATM   13  N3  UNL     1      58.299  -4.199  19.532  1.00  0.00    -0.307 N 
ATOM     14  H3  UNL     1      58.796  -3.993  18.667  1.00  0.00     0.186 HD
BRANCH  13  15
HETATM   15  N4  UNL     1      57.441  -3.246  20.055  1.00  0.00    -0.276 N 
HETATM   16  C6  UNL     1      56.987  -2.242  19.394  1.00  0.00     0.215 C 
HETATM   17  N5  UNL     1      57.326  -1.997  18.020  1.00  0.00    -0.065 NA
HETATM   18  N6  UNL     1      56.112  -1.333  20.047  1.00  0.00    -0.065 NA
ATOM     19  H4  UNL     1      57.151  -3.348  21.028  1.00  0.00     0.189 HD
ENDBRANCH  13  15
ENDBRANCH  10  13
TORSDOF 2
ENDMDL
MODEL 3
REMARK VINA RESULT: -5.985778316      2.867      4.159
REMARK  2 active torsions:
REMARK  status: ('A' for Active; 'I' for Inactive)
REMARK    1  A    between atoms: C5_10  and  N3_11 
REMARK    2  A    between atoms: N3_11  and  N4_13 
ROOT
HETATM    1  C1  UNL     1      59.179  -8.108  23.344  1.00  0.00     0.047 C 
HETATM    2  C2  UNL     1      59.299  -8.209  22.031  1.00  0.00     0.079 A 
HETATM    3  N1  UNL     1      59.526  -9.432  21.502  1.00  0.00    -0.306 N 
ATOM      4  H1  UNL     1      59.600 -10.251  22.105  1.00  0.00     0.171 HD
HETATM    5  C3  UNL     1      59.652  -9.553  20.174  1.00  0.00     0.325 A 
HETATM    6  O1  UNL     1      59.863 -10.667  19.638  1.00  0.00    -0.247 OA
HETATM    7  N2  UNL     1      59.553  -8.479  19.376  1.00  0.00    -0.304 N 
ATOM      8  H2  UNL     1      59.654  -8.610  18.369  1.00  0.00     0.171 HD
HETATM    9  C4  UNL     1      59.328  -7.240  19.840  1.00  0.00     0.106 A 
HETATM   10  C5  UNL     1      59.240  -6.213  19.010  1.00  0.00     0.141 C 
HETATM   11  C7  UNL     1      59.199  -7.106  21.206  1.00  0.00     0.225 A 
HETATM   12  O2  UNL     1      58.987  -5.965  21.690  1.00  0.00    -0.283 OA
ENDROOT
BRANCH  10  13
HETATM   13  N3  UNL     1      59.006  -4.890  19.432  1.00  0.00    -0.307 N 
ATOM     14  H3  UNL     1      59.240  -4.628  20.390  1.00  0.00     0.186 HD
BRANCH  13  15
HETATM   15  N4  UNL     1      58.468  -3.933  18.589  1.00  0.00    -0.276 N 
HETATM   16  C6  UNL     1      57.691  -2.984  18.974  1.00  0.00     0.215 C 
HETATM   17  N5  UNL     1      57.291  -2.813  20.343  1.00  0.00    -0.065 NA
HETATM   18  N6  UNL     1      57.205  -2.064  18.007  1.00  0.00    -0.065 NA
ATOM     19  H4  UNL     1      58.705  -3.984  17.597  1.00  0.00     0.189 HD
ENDBRANCH  13  15
ENDBRANCH  10  13
TORSDOF 2
ENDMDL
MODEL 4
REMARK VINA RESULT: -5.866923321      1.748      2.543
REMARK  2 active torsions:
REMARK  status: ('A' for Active; 'I' for Inactive)
REMARK    1  A    between atoms: C5_10  and  N3_11 
REMARK    2  A    between atoms: N3_11  and  N4_13 
ROOT
HETATM    1  C1  UNL     1      57.627  -5.689  15.309  1.00  0.00     0.047 C 
HETATM    2  C2  UNL     1      58.411  -5.958  16.340  1.00  0.00     0.079 A 
HETATM    3  N1  UNL     1      59.473  -6.770  16.142  1.00  0.00    -0.306 N 
ATOM      4  H1  UNL     1      59.659  -7.161  15.219  1.00  0.00     0.171 HD
HETATM    5  C3  UNL     1      60.276  -7.054  17.175  1.00  0.00     0.325 A 
HETATM    6  O1  UNL     1      61.273  -7.803  17.039  1.00  0.00    -0.247 OA
HETATM    7  N2  UNL     1      60.036  -6.541  18.391  1.00  0.00    -0.304 N 
ATOM      8  H2  UNL     1      60.671  -6.779  19.153  1.00  0.00     0.171 HD
HETATM    9  C4  UNL     1      59.000  -5.729  18.651  1.00  0.00     0.106 A 
HETATM   10  C5  UNL     1      58.806  -5.249  19.869  1.00  0.00     0.141 C 
HETATM   11  C7  UNL     1      58.167  -5.432  17.593  1.00  0.00     0.225 A 
HETATM   12  O2  UNL     1      57.182  -4.675  17.787  1.00  0.00    -0.283 OA
ENDROOT
BRANCH  10  13
HETATM   13  N3  UNL     1      57.740  -4.393  20.208  1.00  0.00    -0.307 N 
ATOM     14  H3  UNL     1      57.201  -3.956  19.461  1.00  0.00     0.186 HD
BRANCH  13  15
HETATM   15  N4  UNL     1      57.400  -4.127  21.523  1.00  0.00    -0.276 N 
HETATM   16  C6  UNL     1      56.584  -3.202  21.886  1.00  0.00     0.215 C 
HETATM   17  N5  UNL     1      55.928  -2.333  20.950  1.00  0.00    -0.065 NA
HETATM   18  N6  UNL     1      56.318  -3.031  23.270  1.00  0.00    -0.065 NA
ATOM     19  H4  UNL     1      57.824  -4.703  22.251  1.00  0.00     0.189 HD
ENDBRANCH  13  15
ENDBRANCH  10  13
TORSDOF 2
ENDMDL
MODEL 5
REMARK VINA RESULT: -5.850862842      1.851      2.220
REMARK  2 active torsions:
REMARK  status: ('A' for Active; 'I' for Inactive)
REMARK    1  A    between atoms: C5_10  and  N3_11 
REMARK    2  A    between atoms: N3_11  and  N4_13 
ROOT
HETATM    1  C1  UNL     1      60.323  -9.761  19.835  1.00  0.00     0.047 C 
HETATM    2  C2  UNL     1      60.171  -8.581  19.257  1.00  0.00     0.079 A 
HETATM    3  N1  UNL     1      60.729  -8.387  18.042  1.00  0.00    -0.306 N 
ATOM      4  H1  UNL     1      61.251  -9.136  17.587  1.00  0.00     0.171 HD
HETATM    5  C3  UNL     1      60.585  -7.198  17.443  1.00  0.00     0.325 A 
HETATM    6  O1  UNL     1      61.085  -6.973  16.315  1.00  0.00    -0.247 OA
HETATM    7  N2  UNL     1      59.898  -6.211  18.035  1.00  0.00    -0.304 N 
ATOM      8  H2  UNL     1      59.810  -5.319  17.548  1.00  0.00     0.171 HD
HETATM    9  C4  UNL     1      59.321  -6.341  19.240  1.00  0.00     0.106 A 
HETATM   10  C5  UNL     1      58.654  -5.336  19.783  1.00  0.00     0.141 C 
HETATM   11  C7  UNL     1      59.464  -7.562  19.865  1.00  0.00     0.225 A 
HETATM   12  O2  UNL     1      58.942  -7.734  20.995  1.00  0.00    -0.283 OA
ENDROOT
BRANCH  10  13
HETATM   13  N3  UNL     1      58.026  -5.407  21.041  1.00  0.00    -0.307 N 
ATOM     14  H3  UNL     1      58.076  -6.278  21.570  1.00  0.00     0.186 HD
BRANCH  13  15
HETATM   15  N4  UNL     1      57.343  -4.333  21.585  1.00  0.00    -0.276 N 
HETATM   16  C6  UNL     1      57.001  -4.245  22.821  1.00  0.00     0.215 C 
HETATM   17  N5  UNL     1      57.295  -5.268  23.785  1.00  0.00    -0.065 NA
HETATM   18  N6  UNL     1      56.302  -3.087  23.255  1.00  0.00    -0.065 NA
ATOM     19  H4  UNL     1      57.097  -3.561  20.965  1.00  0.00     0.189 HD
ENDBRANCH  13  15
ENDBRANCH  10  13
TORSDOF 2
ENDMDL
