MODEL 1
REMARK VINA RESULT: -7.426509944      0.000      0.000
REMARK  2 active torsions:
REMARK  status: ('A' for Active; 'I' for Inactive)
REMARK       I    between atoms: C1_2  and  N2_4 
REMARK    1  A    between atoms: N2_4  and  N3_6 
REMARK    2  A    between atoms: N3_6  and  C2_8 
ROOT
HETATM    1  C2  UNL     1      58.505  -5.126  19.523  1.00  0.00     0.714 A 
HETATM    2  N4  UNL     1      57.963  -4.749  20.676  1.00  0.00    -0.128 N 
ATOM      3  H4  UNL     1      58.014  -5.385  21.471  1.00  0.00     0.205 HD
HETATM    4  N5  UNL     1      57.361  -3.582  20.838  1.00  0.00    -0.247 N 
ATOM      5  H5  UNL     1      56.962  -3.344  21.746  1.00  0.00     0.191 HD
HETATM    6  C3  UNL     1      57.265  -2.706  19.824  1.00  0.00     0.329 A 
HETATM    7  O2  UNL     1      56.714  -1.594  19.903  1.00  0.00    -0.261 OA
HETATM    8  C4  UNL     1      57.821  -3.080  18.618  1.00  0.00     0.329 A 
HETATM    9  O3  UNL     1      57.791  -2.334  17.596  1.00  0.00    -0.261 OA
HETATM   10  N6  UNL     1      58.432  -4.279  18.480  1.00  0.00    -0.149 N 
ATOM     11  H6  UNL     1      58.839  -4.542  17.582  1.00  0.00     0.188 HD
ENDROOT
BRANCH   1  12
HETATM   12  N3  UNL     1      59.073  -6.281  19.453  1.00  0.00    -0.127 N 
ATOM     13  H3  UNL     1      58.749  -7.026  20.069  1.00  0.00     0.206 HD
BRANCH  12  14
HETATM   14  N2  UNL     1      60.112  -6.546  18.567  1.00  0.00    -0.240 N 
HETATM   15  C1  UNL     1      59.845  -6.963  17.236  1.00  0.00     0.347 C 
HETATM   16  N1  UNL     1      60.902  -7.232  16.337  1.00  0.00    -0.038 NA
HETATM   17  O1  UNL     1      58.665  -7.102  16.829  1.00  0.00    -0.249 OA
ATOM     18  H2  UNL     1      61.078  -6.439  18.877  1.00  0.00     0.192 HD
ENDBRANCH  12  14
ENDBRANCH   1  12
TORSDOF 2
ENDMDL
MODEL 2
REMARK VINA RESULT: -6.915843503      0.805      1.747
REMARK  2 active torsions:
REMARK  status: ('A' for Active; 'I' for Inactive)
REMARK       I    between atoms: C1_2  and  N2_4 
REMARK    1  A    between atoms: N2_4  and  N3_6 
REMARK    2  A    between atoms: N3_6  and  C2_8 
ROOT
HETATM    1  C2  UNL     1      58.439  -4.969  19.482  1.00  0.00     0.714 A 
HETATM    2  N4  UNL     1      58.531  -4.189  18.408  1.00  0.00    -0.128 N 
ATOM      3  H4  UNL     1      59.012  -4.548  17.584  1.00  0.00     0.205 HD
HETATM    4  N5  UNL     1      58.024  -2.968  18.364  1.00  0.00    -0.247 N 
ATOM      5  H5  UNL     1      58.123  -2.414  17.513  1.00  0.00     0.191 HD
HETATM    6  C3  UNL     1      57.380  -2.446  19.420  1.00  0.00     0.329 A 
HETATM    7  O2  UNL     1      56.879  -1.308  19.449  1.00  0.00    -0.261 OA
HETATM    8  C4  UNL     1      57.274  -3.240  20.544  1.00  0.00     0.329 A 
HETATM    9  O3  UNL     1      56.688  -2.852  21.597  1.00  0.00    -0.261 OA
HETATM   10  N6  UNL     1      57.801  -4.486  20.564  1.00  0.00    -0.149 N 
ATOM     11  H6  UNL     1      57.716  -5.061  21.402  1.00  0.00     0.188 HD
ENDROOT
BRANCH   1  12
HETATM   12  N3  UNL     1      58.962  -6.146  19.440  1.00  0.00    -0.127 N 
ATOM     13  H3  UNL     1      58.589  -6.871  20.051  1.00  0.00     0.206 HD
BRANCH  12  14
HETATM   14  N2  UNL     1      60.017  -6.461  18.590  1.00  0.00    -0.240 N 
HETATM   15  C1  UNL     1      59.774  -6.947  17.278  1.00  0.00     0.347 C 
HETATM   16  N1  UNL     1      60.848  -7.266  16.416  1.00  0.00    -0.038 NA
HETATM   17  O1  UNL     1      58.602  -7.103  16.855  1.00  0.00    -0.249 OA
ATOM     18  H2  UNL     1      60.977  -6.341  18.913  1.00  0.00     0.192 HD
ENDBRANCH  12  14
ENDBRANCH   1  12
TORSDOF 2
ENDMDL
MODEL 3
REMARK VINA RESULT: -6.893521021      1.441      1.629
REMARK  2 active torsions:
REMARK  status: ('A' for Active; 'I' for Inactive)
REMARK       I    between atoms: C1_2  and  N2_4 
REMARK    1  A    between atoms: N2_4  and  N3_6 
REMARK    2  A    between atoms: N3_6  and  C2_8 
ROOT
HETATM    1  C2  UNL     1      58.682  -5.060  18.988  1.00  0.00     0.714 A 
HETATM    2  N4  UNL     1      58.209  -4.996  20.230  1.00  0.00    -0.128 N 
ATOM      3  H4  UNL     1      58.387  -5.777  20.861  1.00  0.00     0.205 HD
HETATM    4  N5  UNL     1      57.517  -3.964  20.682  1.00  0.00    -0.247 N 
ATOM      5  H5  UNL     1      57.178  -3.968  21.644  1.00  0.00     0.191 HD
HETATM    6  C3  UNL     1      57.252  -2.909  19.893  1.00  0.00     0.329 A 
HETATM    7  O2  UNL     1      56.610  -1.905  20.250  1.00  0.00    -0.261 OA
HETATM    8  C4  UNL     1      57.735  -2.955  18.601  1.00  0.00     0.329 A 
HETATM    9  O3  UNL     1      57.546  -2.018  17.772  1.00  0.00    -0.261 OA
HETATM   10  N6  UNL     1      58.440  -4.024  18.164  1.00  0.00    -0.149 N 
ATOM     11  H6  UNL     1      58.790  -4.045  17.206  1.00  0.00     0.188 HD
ENDROOT
BRANCH   1  12
HETATM   12  N3  UNL     1      59.346  -6.104  18.631  1.00  0.00    -0.127 N 
ATOM     13  H3  UNL     1      59.976  -6.036  17.832  1.00  0.00     0.206 HD
BRANCH  12  14
HETATM   14  N2  UNL     1      59.233  -7.321  19.296  1.00  0.00    -0.240 N 
HETATM   15  C1  UNL     1      60.039  -8.430  18.925  1.00  0.00     0.347 C 
HETATM   16  N1  UNL     1      59.924  -9.665  19.602  1.00  0.00    -0.038 NA
HETATM   17  O1  UNL     1      60.871  -8.337  17.989  1.00  0.00    -0.249 OA
ATOM     18  H2  UNL     1      58.564  -7.417  20.059  1.00  0.00     0.192 HD
ENDBRANCH  12  14
ENDBRANCH   1  12
TORSDOF 2
ENDMDL
MODEL 4
REMARK VINA RESULT: -6.893371406      1.733      5.273
REMARK  2 active torsions:
REMARK  status: ('A' for Active; 'I' for Inactive)
REMARK       I    between atoms: C1_2  and  N2_4 
REMARK    1  A    between atoms: N2_4  and  N3_6 
REMARK    2  A    between atoms: N3_6  and  C2_8 
ROOT
HETATM    1  C2  UNL     1      59.192  -5.783  18.752  1.00  0.00     0.714 A 
HETATM    2  N4  UNL     1      58.787  -6.549  19.761  1.00  0.00    -0.128 N 
ATOM      3  H4  UNL     1      58.141  -6.155  20.445  1.00  0.00     0.205 HD
HETATM    4  N5  UNL     1      59.186  -7.801  19.916  1.00  0.00    -0.247 N 
ATOM      5  H5  UNL     1      58.842  -8.343  20.710  1.00  0.00     0.191 HD
HETATM    6  C3  UNL     1      60.036  -8.370  19.046  1.00  0.00     0.329 A 
HETATM    7  O2  UNL     1      60.452  -9.539  19.129  1.00  0.00    -0.261 OA
HETATM    8  C4  UNL     1      60.468  -7.591  17.992  1.00  0.00     0.329 A 
HETATM    9  O3  UNL     1      61.269  -8.023  17.113  1.00  0.00    -0.261 OA
HETATM   10  N6  UNL     1      60.045  -6.313  17.857  1.00  0.00    -0.149 N 
ATOM     11  H6  UNL     1      60.372  -5.749  17.072  1.00  0.00     0.188 HD
ENDROOT
BRANCH   1  12
HETATM   12  N3  UNL     1      58.754  -4.574  18.677  1.00  0.00    -0.127 N 
ATOM     13  H3  UNL     1      58.971  -4.024  17.847  1.00  0.00     0.206 HD
BRANCH  12  14
HETATM   14  N2  UNL     1      57.995  -3.994  19.689  1.00  0.00    -0.240 N 
HETATM   15  C1  UNL     1      57.359  -2.740  19.492  1.00  0.00     0.347 C 
HETATM   16  N1  UNL     1      56.587  -2.152  20.520  1.00  0.00    -0.038 NA
HETATM   17  O1  UNL     1      57.467  -2.126  18.402  1.00  0.00    -0.249 OA
ATOM     18  H2  UNL     1      57.894  -4.476  20.582  1.00  0.00     0.192 HD
ENDBRANCH  12  14
ENDBRANCH   1  12
TORSDOF 2
ENDMDL
MODEL 5
REMARK VINA RESULT: -6.763677436      1.971      4.911
REMARK  2 active torsions:
REMARK  status: ('A' for Active; 'I' for Inactive)
REMARK       I    between atoms: C1_2  and  N2_4 
REMARK    1  A    between atoms: N2_4  and  N3_6 
REMARK    2  A    between atoms: N3_6  and  C2_8 
ROOT
HETATM    1  C2  UNL     1      58.165  -4.092  19.153  1.00  0.00     0.714 A 
HETATM    2  N4  UNL     1      59.080  -4.969  19.554  1.00  0.00    -0.128 N 
ATOM      3  H4  UNL     1      59.559  -4.805  20.439  1.00  0.00     0.205 HD
HETATM    4  N5  UNL     1      59.395  -6.046  18.854  1.00  0.00    -0.247 N 
ATOM      5  H5  UNL     1      60.106  -6.686  19.210  1.00  0.00     0.191 HD
HETATM    6  C3  UNL     1      58.796  -6.310  17.681  1.00  0.00     0.329 A 
HETATM    7  O2  UNL     1      59.042  -7.302  16.971  1.00  0.00    -0.261 OA
HETATM    8  C4  UNL     1      57.843  -5.411  17.248  1.00  0.00     0.329 A 
HETATM    9  O3  UNL     1      57.215  -5.559  16.160  1.00  0.00    -0.261 OA
HETATM   10  N6  UNL     1      57.539  -4.317  17.984  1.00  0.00    -0.149 N 
ATOM     11  H6  UNL     1      56.832  -3.661  17.651  1.00  0.00     0.188 HD
ENDROOT
BRANCH   1  12
HETATM   12  N3  UNL     1      57.919  -3.069  19.897  1.00  0.00    -0.127 N 
ATOM     13  H3  UNL     1      58.605  -2.316  19.940  1.00  0.00     0.206 HD
BRANCH  12  14
HETATM   14  N2  UNL     1      56.751  -2.956  20.644  1.00  0.00    -0.240 N 
HETATM   15  C1  UNL     1      56.630  -3.593  21.907  1.00  0.00     0.347 C 
HETATM   16  N1  UNL     1      55.443  -3.477  22.665  1.00  0.00    -0.038 NA
HETATM   17  O1  UNL     1      57.575  -4.273  22.378  1.00  0.00    -0.249 OA
ATOM     18  H2  UNL     1      55.971  -2.408  20.280  1.00  0.00     0.192 HD
ENDBRANCH  12  14
ENDBRANCH   1  12
TORSDOF 2
ENDMDL
