MODEL 1
REMARK VINA RESULT: -6.670833488      0.000      0.000
REMARK  1 active torsions:
REMARK  status: ('A' for Active; 'I' for Inactive)
REMARK       I    between atoms: C1_2  and  N2_4 
REMARK    1  A    between atoms: N2_4  and  C2_6 
ROOT
HETATM    1  C2  UNL     1      58.274  -4.175  18.993  1.00  0.00     0.694 A 
HETATM    2  N3  UNL     1      59.057  -5.188  19.357  1.00  0.00    -0.141 N 
ATOM      3  H3  UNL     1      59.650  -5.108  20.183  1.00  0.00     0.189 HD
HETATM    4  C3  UNL     1      59.061  -6.306  18.634  1.00  0.00     0.342 A 
HETATM    5  O2  UNL     1      59.801  -7.285  18.963  1.00  0.00    -0.246 OA
HETATM    6  N4  UNL     1      58.296  -6.450  17.541  1.00  0.00    -0.260 N 
ATOM      7  H4  UNL     1      58.311  -7.313  16.998  1.00  0.00     0.175 HD
HETATM    8  C4  UNL     1      57.508  -5.417  17.183  1.00  0.00     0.342 A 
HETATM    9  O3  UNL     1      56.777  -5.520  16.161  1.00  0.00    -0.246 OA
HETATM   10  N5  UNL     1      57.504  -4.290  17.914  1.00  0.00    -0.141 N 
ATOM     11  H5  UNL     1      56.904  -3.513  17.638  1.00  0.00     0.189 HD
ENDROOT
BRANCH   1  12
HETATM   12  N2  UNL     1      58.259  -3.087  19.684  1.00  0.00    -0.143 N 
HETATM   13  C1  UNL     1      57.024  -2.456  19.949  1.00  0.00     0.346 C 
HETATM   14  N1  UNL     1      56.174  -2.854  21.007  1.00  0.00    -0.039 NA
HETATM   15  O1  UNL     1      56.661  -1.506  19.222  1.00  0.00    -0.250 OA
ATOM     16  H2  UNL     1      59.129  -2.686  20.035  1.00  0.00     0.188 HD
ENDBRANCH   1  12
TORSDOF 1
ENDMDL
MODEL 2
REMARK VINA RESULT: -6.658776459      0.015      2.263
REMARK  1 active torsions:
REMARK  status: ('A' for Active; 'I' for Inactive)
REMARK       I    between atoms: C1_2  and  N2_4 
REMARK    1  A    between atoms: N2_4  and  C2_6 
ROOT
HETATM    1  C2  UNL     1      58.267  -4.170  18.986  1.00  0.00     0.694 A 
HETATM    2  N3  UNL     1      57.498  -4.280  17.906  1.00  0.00    -0.141 N 
ATOM      3  H3  UNL     1      56.895  -3.508  17.623  1.00  0.00     0.189 HD
HETATM    4  C3  UNL     1      57.521  -5.407  17.197  1.00  0.00     0.342 A 
HETATM    5  O2  UNL     1      56.794  -5.534  16.162  1.00  0.00    -0.246 OA
HETATM    6  N4  UNL     1      58.300  -6.446  17.536  1.00  0.00    -0.260 N 
ATOM      7  H4  UNL     1      58.307  -7.302  16.982  1.00  0.00     0.175 HD
HETATM    8  C4  UNL     1      59.074  -6.321  18.632  1.00  0.00     0.342 A 
HETATM    9  O3  UNL     1      59.817  -7.278  18.978  1.00  0.00    -0.246 OA
HETATM   10  N5  UNL     1      59.050  -5.183  19.345  1.00  0.00    -0.141 N 
ATOM     11  H5  UNL     1      59.640  -5.095  20.174  1.00  0.00     0.189 HD
ENDROOT
BRANCH   1  12
HETATM   12  N2  UNL     1      58.256  -3.084  19.681  1.00  0.00    -0.143 N 
HETATM   13  C1  UNL     1      57.023  -2.453  19.953  1.00  0.00     0.346 C 
HETATM   14  N1  UNL     1      56.175  -2.855  21.011  1.00  0.00    -0.039 NA
HETATM   15  O1  UNL     1      56.658  -1.500  19.231  1.00  0.00    -0.250 OA
ATOM     16  H2  UNL     1      59.127  -2.686  20.032  1.00  0.00     0.188 HD
ENDBRANCH   1  12
TORSDOF 1
ENDMDL
MODEL 3
REMARK VINA RESULT: -6.486105407      1.979      4.608
REMARK  1 active torsions:
REMARK  status: ('A' for Active; 'I' for Inactive)
REMARK       I    between atoms: C1_2  and  N2_4 
REMARK    1  A    between atoms: N2_4  and  C2_6 
ROOT
HETATM    1  C2  UNL     1      58.594  -4.999  19.319  1.00  0.00     0.694 A 
HETATM    2  N3  UNL     1      58.199  -3.830  18.820  1.00  0.00    -0.141 N 
ATOM      3  H3  UNL     1      58.437  -3.574  17.862  1.00  0.00     0.189 HD
HETATM    4  C3  UNL     1      57.491  -2.999  19.580  1.00  0.00     0.342 A 
HETATM    5  O2  UNL     1      57.103  -1.877  19.124  1.00  0.00    -0.246 OA
HETATM    6  N4  UNL     1      57.157  -3.298  20.845  1.00  0.00    -0.260 N 
ATOM      7  H4  UNL     1      56.614  -2.650  21.415  1.00  0.00     0.175 HD
HETATM    8  C4  UNL     1      57.564  -4.485  21.339  1.00  0.00     0.342 A 
HETATM    9  O3  UNL     1      57.267  -4.797  22.524  1.00  0.00    -0.246 OA
HETATM   10  N5  UNL     1      58.278  -5.323  20.570  1.00  0.00    -0.141 N 
ATOM     11  H5  UNL     1      58.581  -6.220  20.951  1.00  0.00     0.189 HD
ENDROOT
BRANCH   1  12
HETATM   12  N2  UNL     1      59.280  -5.815  18.594  1.00  0.00    -0.143 N 
HETATM   13  C1  UNL     1      58.845  -6.105  17.284  1.00  0.00     0.346 C 
HETATM   14  N1  UNL     1      59.129  -5.266  16.181  1.00  0.00    -0.039 NA
HETATM   15  O1  UNL     1      58.179  -7.144  17.082  1.00  0.00    -0.250 OA
ATOM     16  H2  UNL     1      60.128  -6.246  18.964  1.00  0.00     0.188 HD
ENDBRANCH   1  12
TORSDOF 1
ENDMDL
MODEL 4
REMARK VINA RESULT: -6.484301261      1.976      4.168
REMARK  1 active torsions:
REMARK  status: ('A' for Active; 'I' for Inactive)
REMARK       I    between atoms: C1_2  and  N2_4 
REMARK    1  A    between atoms: N2_4  and  C2_6 
ROOT
HETATM    1  C2  UNL     1      58.601  -5.009  19.331  1.00  0.00     0.694 A 
HETATM    2  N3  UNL     1      58.286  -5.338  20.581  1.00  0.00    -0.141 N 
ATOM      3  H3  UNL     1      58.587  -6.232  20.969  1.00  0.00     0.189 HD
HETATM    4  C3  UNL     1      57.575  -4.491  21.321  1.00  0.00     0.342 A 
HETATM    5  O2  UNL     1      57.262  -4.784  22.518  1.00  0.00    -0.246 OA
HETATM    6  N4  UNL     1      57.160  -3.306  20.848  1.00  0.00    -0.260 N 
ATOM      7  H4  UNL     1      56.615  -2.667  21.429  1.00  0.00     0.175 HD
HETATM    8  C4  UNL     1      57.486  -2.985  19.580  1.00  0.00     0.342 A 
HETATM    9  O3  UNL     1      57.111  -1.879  19.105  1.00  0.00    -0.246 OA
HETATM   10  N5  UNL     1      58.204  -3.841  18.835  1.00  0.00    -0.141 N 
ATOM     11  H5  UNL     1      58.448  -3.591  17.876  1.00  0.00     0.189 HD
ENDROOT
BRANCH   1  12
HETATM   12  N2  UNL     1      59.291  -5.819  18.602  1.00  0.00    -0.143 N 
HETATM   13  C1  UNL     1      58.852  -6.111  17.292  1.00  0.00     0.346 C 
HETATM   14  N1  UNL     1      59.125  -5.269  16.190  1.00  0.00    -0.039 NA
HETATM   15  O1  UNL     1      58.193  -7.154  17.092  1.00  0.00    -0.250 OA
ATOM     16  H2  UNL     1      60.143  -6.245  18.967  1.00  0.00     0.188 HD
ENDBRANCH   1  12
TORSDOF 1
ENDMDL
MODEL 5
REMARK VINA RESULT: -6.460779300      2.180      3.359
REMARK  1 active torsions:
REMARK  status: ('A' for Active; 'I' for Inactive)
REMARK       I    between atoms: C1_2  and  N2_4 
REMARK    1  A    between atoms: N2_4  and  C2_6 
ROOT
HETATM    1  C2  UNL     1      57.671  -4.452  21.110  1.00  0.00     0.694 A 
HETATM    2  N3  UNL     1      57.368  -3.346  20.434  1.00  0.00    -0.141 N 
ATOM      3  H3  UNL     1      56.852  -2.592  20.888  1.00  0.00     0.189 HD
HETATM    4  C3  UNL     1      57.743  -3.232  19.162  1.00  0.00     0.342 A 
HETATM    5  O2  UNL     1      57.465  -2.184  18.498  1.00  0.00    -0.246 OA
HETATM    6  N4  UNL     1      58.423  -4.201  18.530  1.00  0.00    -0.260 N 
ATOM      7  H4  UNL     1      58.704  -4.098  17.555  1.00  0.00     0.175 HD
HETATM    8  C4  UNL     1      58.723  -5.316  19.225  1.00  0.00     0.342 A 
HETATM    9  O3  UNL     1      59.361  -6.245  18.661  1.00  0.00    -0.246 OA
HETATM   10  N5  UNL     1      58.344  -5.429  20.509  1.00  0.00    -0.141 N 
ATOM     11  H5  UNL     1      58.576  -6.276  21.029  1.00  0.00     0.189 HD
ENDROOT
BRANCH   1  12
HETATM   12  N2  UNL     1      57.314  -4.577  22.343  1.00  0.00    -0.143 N 
HETATM   13  C1  UNL     1      56.440  -3.624  22.907  1.00  0.00     0.346 C 
HETATM   14  N1  UNL     1      55.036  -3.685  22.746  1.00  0.00    -0.039 NA
HETATM   15  O1  UNL     1      56.919  -2.683  23.576  1.00  0.00    -0.250 OA
ATOM     16  H2  UNL     1      57.660  -5.355  22.904  1.00  0.00     0.188 HD
ENDBRANCH   1  12
TORSDOF 1
ENDMDL
