MODEL 1
REMARK VINA RESULT: -5.897891916      0.000      0.000
REMARK  4 active torsions:
REMARK  status: ('A' for Active; 'I' for Inactive)
REMARK       I    between atoms: C1_4  and  N2_5 
REMARK       I    between atoms: C1_4  and  N5_11 
REMARK    1  A    between atoms: N2_5  and  N3_7 
REMARK    2  A    between atoms: N3_7  and  N4_8 
REMARK    3  A    between atoms: N5_11  and  S1_13 
REMARK    4  A    between atoms: S1_13  and  N6_14 
ROOT
HETATM    1  N1  UNL     1      59.270  -5.347  19.506  1.00  0.00    -0.233 N 
ATOM      2  H11 UNL     1      59.454  -6.270  19.115  1.00  0.00     0.174 HD
ATOM      3  H12 UNL     1      59.811  -5.002  20.299  1.00  0.00     0.174 HD
HETATM    4  C1  UNL     1      58.363  -4.568  19.042  1.00  0.00     0.699 C 
HETATM    5  N2  UNL     1      58.107  -3.284  19.585  1.00  0.00    -0.116 N 
ATOM      6  H2  UNL     1      58.736  -2.889  20.285  1.00  0.00     0.203 HD
HETATM    7  N5  UNL     1      57.608  -5.047  17.936  1.00  0.00    -0.099 N 
ATOM      8  H5  UNL     1      56.616  -4.820  17.862  1.00  0.00     0.199 HD
ENDROOT
BRANCH   5   9
HETATM    9  N3  UNL     1      56.988  -2.561  19.159  1.00  0.00    -0.015 NA
BRANCH   9  10
HETATM   10  N4  UNL     1      56.980  -1.365  19.891  1.00  0.00    -0.328 N 
ATOM     11  H42 UNL     1      57.734  -1.022  20.485  1.00  0.00     0.174 HD
ATOM     12  H41 UNL     1      56.081  -0.918  19.710  1.00  0.00     0.174 HD
ENDBRANCH   9  10
ENDBRANCH   5   9
BRANCH   7  13
HETATM   13  S1  UNL     1      58.364  -6.016  16.714  1.00  0.00     0.330 S 
HETATM   14  O1  UNL     1      57.449  -6.134  15.515  1.00  0.00    -0.182 OA
HETATM   15  O2  UNL     1      58.677  -7.363  17.303  1.00  0.00    -0.182 OA
BRANCH  13  16
HETATM   16  N6  UNL     1      59.780  -5.202  16.208  1.00  0.00    -0.311 N 
ATOM     17  H62 UNL     1      60.617  -5.649  15.834  1.00  0.00     0.170 HD
ATOM     18  H61 UNL     1      59.630  -4.202  16.349  1.00  0.00     0.170 HD
ENDBRANCH  13  16
ENDBRANCH   7  13
TORSDOF 4
ENDMDL
MODEL 2
REMARK VINA RESULT: -5.620924450      1.497      1.964
REMARK  4 active torsions:
REMARK  status: ('A' for Active; 'I' for Inactive)
REMARK       I    between atoms: C1_4  and  N2_5 
REMARK       I    between atoms: C1_4  and  N5_11 
REMARK    1  A    between atoms: N2_5  and  N3_7 
REMARK    2  A    between atoms: N3_7  and  N4_8 
REMARK    3  A    between atoms: N5_11  and  S1_13 
REMARK    4  A    between atoms: S1_13  and  N6_14 
ROOT
HETATM    1  N1  UNL     1      58.074  -2.793  18.077  1.00  0.00    -0.233 N 
ATOM      2  H11 UNL     1      58.441  -2.954  17.139  1.00  0.00     0.174 HD
ATOM      3  H12 UNL     1      57.686  -1.886  18.334  1.00  0.00     0.174 HD
HETATM    4  C1  UNL     1      58.075  -3.700  18.985  1.00  0.00     0.699 C 
HETATM    5  N2  UNL     1      57.566  -3.476  20.288  1.00  0.00    -0.116 N 
ATOM      6  H2  UNL     1      57.057  -2.617  20.499  1.00  0.00     0.203 HD
HETATM    7  N5  UNL     1      58.616  -4.966  18.628  1.00  0.00    -0.099 N 
ATOM      8  H5  UNL     1      59.145  -5.503  19.315  1.00  0.00     0.199 HD
ENDROOT
BRANCH   5   9
HETATM    9  N3  UNL     1      57.763  -4.438  21.284  1.00  0.00    -0.015 NA
BRANCH   9  10
HETATM   10  N4  UNL     1      56.725  -4.274  22.212  1.00  0.00    -0.328 N 
ATOM     11  H42 UNL     1      56.569  -3.454  22.797  1.00  0.00     0.174 HD
ATOM     12  H41 UNL     1      56.169  -5.129  22.183  1.00  0.00     0.174 HD
ENDBRANCH   9  10
ENDBRANCH   5   9
BRANCH   7  13
HETATM   13  S1  UNL     1      58.380  -5.600  17.033  1.00  0.00     0.330 S 
HETATM   14  O1  UNL     1      57.177  -4.943  16.393  1.00  0.00    -0.182 OA
HETATM   15  O2  UNL     1      58.207  -7.089  17.135  1.00  0.00    -0.182 OA
BRANCH  13  16
HETATM   16  N6  UNL     1      59.754  -5.186  16.101  1.00  0.00    -0.311 N 
ATOM     17  H62 UNL     1      60.206  -5.790  15.414  1.00  0.00     0.170 HD
ATOM     18  H61 UNL     1      60.028  -4.237  16.358  1.00  0.00     0.170 HD
ENDBRANCH  13  16
ENDBRANCH   7  13
TORSDOF 4
ENDMDL
MODEL 3
REMARK VINA RESULT: -5.484587230      1.857      2.359
REMARK  4 active torsions:
REMARK  status: ('A' for Active; 'I' for Inactive)
REMARK       I    between atoms: C1_4  and  N2_5 
REMARK       I    between atoms: C1_4  and  N5_11 
REMARK    1  A    between atoms: N2_5  and  N3_7 
REMARK    2  A    between atoms: N3_7  and  N4_8 
REMARK    3  A    between atoms: N5_11  and  S1_13 
REMARK    4  A    between atoms: S1_13  and  N6_14 
ROOT
HETATM    1  N1  UNL     1      58.046  -2.481  18.025  1.00  0.00    -0.233 N 
ATOM      2  H11 UNL     1      58.457  -2.742  17.129  1.00  0.00     0.174 HD
ATOM      3  H12 UNL     1      57.713  -1.531  18.186  1.00  0.00     0.174 HD
HETATM    4  C1  UNL     1      57.920  -3.310  18.996  1.00  0.00     0.699 C 
HETATM    5  N2  UNL     1      57.349  -2.948  20.241  1.00  0.00    -0.116 N 
ATOM      6  H2  UNL     1      56.895  -2.041  20.352  1.00  0.00     0.203 HD
HETATM    7  N5  UNL     1      58.384  -4.636  18.772  1.00  0.00    -0.099 N 
ATOM      8  H5  UNL     1      58.827  -5.154  19.532  1.00  0.00     0.199 HD
ENDROOT
BRANCH   5   9
HETATM    9  N3  UNL     1      57.409  -3.840  21.317  1.00  0.00    -0.015 NA
BRANCH   9  10
HETATM   10  N4  UNL     1      56.259  -3.617  22.088  1.00  0.00    -0.328 N 
ATOM     11  H42 UNL     1      55.769  -4.314  22.647  1.00  0.00     0.174 HD
ATOM     12  H41 UNL     1      56.019  -2.631  21.977  1.00  0.00     0.174 HD
ENDBRANCH   9  10
ENDBRANCH   5   9
BRANCH   7  13
HETATM   13  S1  UNL     1      58.202  -5.377  17.216  1.00  0.00     0.330 S 
HETATM   14  O1  UNL     1      59.313  -4.918  16.297  1.00  0.00    -0.182 OA
HETATM   15  O2  UNL     1      56.849  -5.011  16.673  1.00  0.00    -0.182 OA
BRANCH  13  16
HETATM   16  N6  UNL     1      58.364  -7.066  17.423  1.00  0.00    -0.311 N 
ATOM     17  H62 UNL     1      57.593  -7.731  17.485  1.00  0.00     0.170 HD
ATOM     18  H61 UNL     1      59.362  -7.278  17.471  1.00  0.00     0.170 HD
ENDBRANCH  13  16
ENDBRANCH   7  13
TORSDOF 4
ENDMDL
MODEL 4
REMARK VINA RESULT: -5.471641785      1.794      2.911
REMARK  4 active torsions:
REMARK  status: ('A' for Active; 'I' for Inactive)
REMARK       I    between atoms: C1_4  and  N2_5 
REMARK       I    between atoms: C1_4  and  N5_11 
REMARK    1  A    between atoms: N2_5  and  N3_7 
REMARK    2  A    between atoms: N3_7  and  N4_8 
REMARK    3  A    between atoms: N5_11  and  S1_13 
REMARK    4  A    between atoms: S1_13  and  N6_14 
ROOT
HETATM    1  N1  UNL     1      57.999  -4.168  18.711  1.00  0.00    -0.233 N 
ATOM      2  H11 UNL     1      58.171  -3.943  17.732  1.00  0.00     0.174 HD
ATOM      3  H12 UNL     1      57.327  -3.628  19.256  1.00  0.00     0.174 HD
HETATM    4  C1  UNL     1      58.601  -5.124  19.318  1.00  0.00     0.699 C 
HETATM    5  N2  UNL     1      58.361  -5.436  20.679  1.00  0.00    -0.116 N 
ATOM      6  H2  UNL     1      57.595  -4.986  21.181  1.00  0.00     0.203 HD
HETATM    7  N5  UNL     1      59.538  -5.877  18.558  1.00  0.00    -0.099 N 
ATOM      8  H5  UNL     1      60.390  -6.222  19.001  1.00  0.00     0.199 HD
ENDROOT
BRANCH   5   9
HETATM    9  N3  UNL     1      59.179  -6.363  21.332  1.00  0.00    -0.015 NA
BRANCH   9  10
HETATM   10  N4  UNL     1      59.226  -5.979  22.680  1.00  0.00    -0.328 N 
ATOM     11  H42 UNL     1      59.205  -5.022  23.030  1.00  0.00     0.174 HD
ATOM     12  H41 UNL     1      59.284  -6.838  23.227  1.00  0.00     0.174 HD
ENDBRANCH   9  10
ENDBRANCH   5   9
BRANCH   7  13
HETATM   13  S1  UNL     1      59.239  -6.214  16.885  1.00  0.00     0.330 S 
HETATM   14  O1  UNL     1      59.309  -4.932  16.084  1.00  0.00    -0.182 OA
HETATM   15  O2  UNL     1      57.890  -6.867  16.766  1.00  0.00    -0.182 OA
BRANCH  13  16
HETATM   16  N6  UNL     1      60.490  -7.241  16.330  1.00  0.00    -0.311 N 
ATOM     17  H62 UNL     1      60.368  -8.205  16.018  1.00  0.00     0.170 HD
ATOM     18  H61 UNL     1      61.363  -6.715  16.371  1.00  0.00     0.170 HD
ENDBRANCH  13  16
ENDBRANCH   7  13
TORSDOF 4
ENDMDL
MODEL 5
REMARK VINA RESULT: -5.446175535      1.206      1.508
REMARK  4 active torsions:
REMARK  status: ('A' for Active; 'I' for Inactive)
REMARK       I    between atoms: C1_4  and  N2_5 
REMARK       I    between atoms: C1_4  and  N5_11 
REMARK    1  A    between atoms: N2_5  and  N3_7 
REMARK    2  A    between atoms: N3_7  and  N4_8 
REMARK    3  A    between atoms: N5_11  and  S1_13 
REMARK    4  A    between atoms: S1_13  and  N6_14 
ROOT
HETATM    1  N1  UNL     1      59.333  -5.196  19.379  1.00  0.00    -0.233 N 
ATOM      2  H11 UNL     1      59.515  -6.089  18.922  1.00  0.00     0.174 HD
ATOM      3  H12 UNL     1      59.983  -4.826  20.073  1.00  0.00     0.174 HD
HETATM    4  C1  UNL     1      58.297  -4.486  19.120  1.00  0.00     0.699 C 
HETATM    5  N2  UNL     1      58.044  -3.244  19.754  1.00  0.00    -0.116 N 
ATOM      6  H2  UNL     1      58.758  -2.814  20.343  1.00  0.00     0.203 HD
HETATM    7  N5  UNL     1      57.391  -5.000  18.152  1.00  0.00    -0.099 N 
ATOM      8  H5  UNL     1      56.388  -4.858  18.269  1.00  0.00     0.199 HD
ENDROOT
BRANCH   5   9
HETATM    9  N3  UNL     1      56.811  -2.610  19.569  1.00  0.00    -0.015 NA
BRANCH   9  10
HETATM   10  N4  UNL     1      57.012  -1.251  19.853  1.00  0.00    -0.328 N 
ATOM     11  H42 UNL     1      56.632  -0.467  19.323  1.00  0.00     0.174 HD
ATOM     12  H41 UNL     1      57.606  -1.210  20.682  1.00  0.00     0.174 HD
ENDBRANCH   9  10
ENDBRANCH   5   9
BRANCH   7  13
HETATM   13  S1  UNL     1      57.982  -5.868  16.774  1.00  0.00     0.330 S 
HETATM   14  O1  UNL     1      58.412  -7.259  17.189  1.00  0.00    -0.182 OA
HETATM   15  O2  UNL     1      59.124  -5.092  16.179  1.00  0.00    -0.182 OA
BRANCH  13  16
HETATM   16  N6  UNL     1      56.687  -6.034  15.669  1.00  0.00    -0.311 N 
ATOM     17  H62 UNL     1      56.099  -6.861  15.569  1.00  0.00     0.170 HD
ATOM     18  H61 UNL     1      56.617  -5.164  15.141  1.00  0.00     0.170 HD
ENDBRANCH  13  16
ENDBRANCH   7  13
TORSDOF 4
ENDMDL
