MODEL 1
REMARK VINA RESULT: -6.689838718      0.000      0.000
REMARK  1 active torsions:
REMARK  status: ('A' for Active; 'I' for Inactive)
REMARK       I    between atoms: C1_4  and  N3_6 
REMARK    1  A    between atoms: N3_6  and  C2_8 
ROOT
HETATM    1  C2  UNL     1      58.945  -5.893  17.985  1.00  0.00     0.692 A 
HETATM    2  N4  UNL     1      58.868  -6.086  19.315  1.00  0.00    -0.141 N 
ATOM      3  H4  UNL     1      59.152  -6.984  19.707  1.00  0.00     0.189 HD
HETATM    4  C3  UNL     1      58.424  -5.121  20.134  1.00  0.00     0.342 A 
HETATM    5  O1  UNL     1      58.346  -5.282  21.374  1.00  0.00    -0.246 OA
HETATM    6  N5  UNL     1      58.047  -3.935  19.636  1.00  0.00    -0.260 N 
ATOM      7  H5  UNL     1      57.708  -3.191  20.245  1.00  0.00     0.175 HD
HETATM    8  C4  UNL     1      58.131  -3.761  18.312  1.00  0.00     0.342 A 
HETATM    9  O2  UNL     1      57.784  -2.653  17.791  1.00  0.00    -0.246 OA
HETATM   10  N6  UNL     1      58.568  -4.705  17.471  1.00  0.00    -0.141 N 
ATOM     11  H6  UNL     1      58.616  -4.530  16.467  1.00  0.00     0.189 HD
ENDROOT
BRANCH   1  12
HETATM   12  N3  UNL     1      59.374  -6.838  17.226  1.00  0.00    -0.163 N 
HETATM   13  C1  UNL     1      60.666  -7.373  17.459  1.00  0.00     0.200 C 
HETATM   14  N1  UNL     1      61.678  -6.761  16.982  1.00  0.00    -0.373 N 
HETATM   15  N2  UNL     1      60.786  -8.562  18.209  1.00  0.00    -0.063 NA
ATOM     16  H12 UNL     1      62.608  -7.147  17.150  1.00  0.00     0.158 HD
ATOM     17  H11 UNL     1      61.591  -5.901  16.440  1.00  0.00     0.158 HD
ATOM     18  H3  UNL     1      58.793  -7.197  16.467  1.00  0.00     0.187 HD
ENDBRANCH   1  12
TORSDOF 1
ENDMDL
MODEL 2
REMARK VINA RESULT: -6.591134479      0.228      2.274
REMARK  1 active torsions:
REMARK  status: ('A' for Active; 'I' for Inactive)
REMARK       I    between atoms: C1_4  and  N3_6 
REMARK    1  A    between atoms: N3_6  and  C2_8 
ROOT
HETATM    1  C2  UNL     1      58.903  -5.968  17.941  1.00  0.00     0.692 A 
HETATM    2  N4  UNL     1      58.535  -4.775  17.436  1.00  0.00    -0.141 N 
ATOM      3  H4  UNL     1      58.559  -4.630  16.426  1.00  0.00     0.189 HD
HETATM    4  C3  UNL     1      58.136  -3.773  18.235  1.00  0.00     0.342 A 
HETATM    5  O1  UNL     1      57.790  -2.658  17.783  1.00  0.00    -0.246 OA
HETATM    6  N5  UNL     1      58.097  -3.947  19.563  1.00  0.00    -0.260 N 
ATOM      7  H5  UNL     1      57.796  -3.196  20.184  1.00  0.00     0.175 HD
HETATM    8  C4  UNL     1      58.466  -5.138  20.047  1.00  0.00     0.342 A 
HETATM    9  O2  UNL     1      58.447  -5.351  21.301  1.00  0.00    -0.246 OA
HETATM   10  N6  UNL     1      58.868  -6.154  19.276  1.00  0.00    -0.141 N 
ATOM     11  H6  UNL     1      59.141  -7.047  19.686  1.00  0.00     0.189 HD
ENDROOT
BRANCH   1  12
HETATM   12  N3  UNL     1      59.280  -6.908  17.149  1.00  0.00    -0.163 N 
HETATM   13  C1  UNL     1      60.639  -7.312  17.162  1.00  0.00     0.200 C 
HETATM   14  N1  UNL     1      61.486  -6.636  16.488  1.00  0.00    -0.373 N 
HETATM   15  N2  UNL     1      61.007  -8.444  17.919  1.00  0.00    -0.063 NA
ATOM     16  H12 UNL     1      62.464  -6.927  16.498  1.00  0.00     0.158 HD
ATOM     17  H11 UNL     1      61.221  -5.817  15.941  1.00  0.00     0.158 HD
ATOM     18  H3  UNL     1      58.612  -7.356  16.521  1.00  0.00     0.187 HD
ENDBRANCH   1  12
TORSDOF 1
ENDMDL
MODEL 3
REMARK VINA RESULT: -6.344763161      1.914      2.420
REMARK  1 active torsions:
REMARK  status: ('A' for Active; 'I' for Inactive)
REMARK       I    between atoms: C1_4  and  N3_6 
REMARK    1  A    between atoms: N3_6  and  C2_8 
ROOT
HETATM    1  C2  UNL     1      58.457  -4.754  19.365  1.00  0.00     0.692 A 
HETATM    2  N4  UNL     1      58.146  -5.109  20.626  1.00  0.00    -0.141 N 
ATOM      3  H4  UNL     1      58.480  -6.001  20.991  1.00  0.00     0.189 HD
HETATM    4  C3  UNL     1      57.406  -4.311  21.411  1.00  0.00     0.342 A 
HETATM    5  O1  UNL     1      57.107  -4.625  22.587  1.00  0.00    -0.246 OA
HETATM    6  N5  UNL     1      56.960  -3.135  20.948  1.00  0.00    -0.260 N 
ATOM      7  H5  UNL     1      56.397  -2.518  21.533  1.00  0.00     0.175 HD
HETATM    8  C4  UNL     1      57.279  -2.799  19.693  1.00  0.00     0.342 A 
HETATM    9  O2  UNL     1      56.878  -1.694  19.208  1.00  0.00    -0.246 OA
HETATM   10  N6  UNL     1      58.014  -3.573  18.887  1.00  0.00    -0.141 N 
ATOM     11  H6  UNL     1      58.234  -3.278  17.936  1.00  0.00     0.189 HD
ENDROOT
BRANCH   1  12
HETATM   12  N3  UNL     1      59.167  -5.539  18.636  1.00  0.00    -0.163 N 
HETATM   13  C1  UNL     1      58.690  -5.903  17.352  1.00  0.00     0.200 C 
HETATM   14  N1  UNL     1      57.847  -6.856  17.258  1.00  0.00    -0.373 N 
HETATM   15  N2  UNL     1      59.163  -5.200  16.224  1.00  0.00    -0.063 NA
ATOM     16  H12 UNL     1      57.504  -7.118  16.333  1.00  0.00     0.158 HD
ATOM     17  H11 UNL     1      57.504  -7.365  18.073  1.00  0.00     0.158 HD
ATOM     18  H3  UNL     1      60.061  -5.896  18.978  1.00  0.00     0.187 HD
ENDBRANCH   1  12
TORSDOF 1
ENDMDL
MODEL 4
REMARK VINA RESULT: -6.325129040      1.904      3.297
REMARK  1 active torsions:
REMARK  status: ('A' for Active; 'I' for Inactive)
REMARK       I    between atoms: C1_4  and  N3_6 
REMARK    1  A    between atoms: N3_6  and  C2_8 
ROOT
HETATM    1  C2  UNL     1      58.475  -4.792  19.385  1.00  0.00     0.692 A 
HETATM    2  N4  UNL     1      58.035  -3.615  18.901  1.00  0.00    -0.141 N 
ATOM      3  H4  UNL     1      58.271  -3.347  17.946  1.00  0.00     0.189 HD
HETATM    4  C3  UNL     1      57.290  -2.788  19.652  1.00  0.00     0.342 A 
HETATM    5  O1  UNL     1      56.872  -1.689  19.219  1.00  0.00    -0.246 OA
HETATM    6  N5  UNL     1      56.969  -3.125  20.908  1.00  0.00    -0.260 N 
ATOM      7  H5  UNL     1      56.403  -2.508  21.492  1.00  0.00     0.175 HD
HETATM    8  C4  UNL     1      57.415  -4.298  21.372  1.00  0.00     0.342 A 
HETATM    9  O2  UNL     1      57.137  -4.662  22.559  1.00  0.00    -0.246 OA
HETATM   10  N6  UNL     1      58.158  -5.142  20.648  1.00  0.00    -0.141 N 
ATOM     11  H6  UNL     1      58.477  -6.027  21.041  1.00  0.00     0.189 HD
ENDROOT
BRANCH   1  12
HETATM   12  N3  UNL     1      59.186  -5.562  18.642  1.00  0.00    -0.163 N 
HETATM   13  C1  UNL     1      58.699  -5.920  17.359  1.00  0.00     0.200 C 
HETATM   14  N1  UNL     1      57.867  -6.883  17.266  1.00  0.00    -0.373 N 
HETATM   15  N2  UNL     1      59.151  -5.201  16.233  1.00  0.00    -0.063 NA
ATOM     16  H12 UNL     1      57.517  -7.141  16.343  1.00  0.00     0.158 HD
ATOM     17  H11 UNL     1      57.540  -7.403  18.081  1.00  0.00     0.158 HD
ATOM     18  H3  UNL     1      60.088  -5.910  18.970  1.00  0.00     0.187 HD
ENDBRANCH   1  12
TORSDOF 1
ENDMDL
MODEL 5
REMARK VINA RESULT: -6.261725887      2.337      4.294
REMARK  1 active torsions:
REMARK  status: ('A' for Active; 'I' for Inactive)
REMARK       I    between atoms: C1_4  and  N3_6 
REMARK    1  A    between atoms: N3_6  and  C2_8 
ROOT
HETATM    1  C2  UNL     1      58.357  -4.854  18.844  1.00  0.00     0.692 A 
HETATM    2  N4  UNL     1      59.286  -5.822  18.740  1.00  0.00    -0.141 N 
ATOM      3  H4  UNL     1      60.003  -5.907  19.460  1.00  0.00     0.189 HD
HETATM    4  C3  UNL     1      59.286  -6.679  17.707  1.00  0.00     0.342 A 
HETATM    5  O1  UNL     1      60.142  -7.586  17.593  1.00  0.00    -0.246 OA
HETATM    6  N5  UNL     1      58.350  -6.583  16.752  1.00  0.00    -0.260 N 
ATOM      7  H5  UNL     1      58.336  -7.227  15.961  1.00  0.00     0.175 HD
HETATM    8  C4  UNL     1      57.435  -5.615  16.873  1.00  0.00     0.342 A 
HETATM    9  O2  UNL     1      56.526  -5.483  15.992  1.00  0.00    -0.246 OA
HETATM   10  N6  UNL     1      57.410  -4.747  17.890  1.00  0.00    -0.141 N 
ATOM     11  H6  UNL     1      56.693  -4.023  17.943  1.00  0.00     0.189 HD
ENDROOT
BRANCH   1  12
HETATM   12  N3  UNL     1      58.383  -4.048  19.845  1.00  0.00    -0.163 N 
HETATM   13  C1  UNL     1      57.506  -2.934  19.854  1.00  0.00     0.200 C 
HETATM   14  N1  UNL     1      57.844  -1.882  19.215  1.00  0.00    -0.373 N 
HETATM   15  N2  UNL     1      56.292  -3.028  20.565  1.00  0.00    -0.063 NA
ATOM     16  H12 UNL     1      57.213  -1.081  19.222  1.00  0.00     0.158 HD
ATOM     17  H11 UNL     1      58.723  -1.815  18.701  1.00  0.00     0.158 HD
ATOM     18  H3  UNL     1      59.026  -4.208  20.622  1.00  0.00     0.187 HD
ENDBRANCH   1  12
TORSDOF 1
ENDMDL
