MODEL 1
REMARK VINA RESULT: -6.017518052      0.000      0.000
REMARK  3 active torsions:
REMARK  status: ('A' for Active; 'I' for Inactive)
REMARK    1  A    between atoms: N1_1  and  C1_4 
REMARK    2  A    between atoms: C3_9  and  C4_10 
REMARK    3  A    between atoms: N4_13  and  O3_14 
ROOT
HETATM    1  C1  UNL     1      60.860  -7.492  17.325  1.00  0.00     0.695 A 
HETATM    2  N2  UNL     1      60.357  -7.037  18.486  1.00  0.00    -0.153 N 
ATOM      3  H2  UNL     1      60.802  -7.329  19.357  1.00  0.00     0.187 HD
HETATM    4  C2  UNL     1      59.289  -6.209  18.551  1.00  0.00     0.295 A 
HETATM    5  O1  UNL     1      58.846  -5.804  19.647  1.00  0.00    -0.265 OA
HETATM    6  C3  UNL     1      58.691  -5.815  17.374  1.00  0.00     0.214 A 
HETATM    7  N4  UNL     1      59.198  -6.273  16.215  1.00  0.00    -0.138 N 
HETATM    8  N5  UNL     1      60.252  -7.087  16.198  1.00  0.00    -0.105 N 
ATOM      9  H5  UNL     1      60.609  -7.413  15.299  1.00  0.00     0.208 HD
ENDROOT
BRANCH   1  10
HETATM   10  N1  UNL     1      61.894  -8.293  17.293  1.00  0.00    -0.233 N 
ATOM     11  H12 UNL     1      62.587  -8.298  18.041  1.00  0.00     0.174 HD
ATOM     12  H11 UNL     1      62.044  -8.941  16.520  1.00  0.00     0.174 HD
ENDBRANCH   1  10
BRANCH   7  13
HETATM   13  O3  UNL     1      58.585  -5.865  15.060  1.00  0.00    -0.267 OA
ATOM     14  H3  UNL     1      59.112  -5.381  14.436  1.00  0.00     0.247 HD
ENDBRANCH   7  13
BRANCH   6  15
HETATM   15  C4  UNL     1      57.542  -4.927  17.378  1.00  0.00     0.291 C 
HETATM   16  N3  UNL     1      57.620  -3.606  17.895  1.00  0.00    -0.056 NA
HETATM   17  O2  UNL     1      56.428  -5.293  16.925  1.00  0.00    -0.269 OA
ENDBRANCH   6  15
TORSDOF 3
ENDMDL
MODEL 2
REMARK VINA RESULT: -5.953254199      1.728      4.453
REMARK  3 active torsions:
REMARK  status: ('A' for Active; 'I' for Inactive)
REMARK    1  A    between atoms: N1_1  and  C1_4 
REMARK    2  A    between atoms: C3_9  and  C4_10 
REMARK    3  A    between atoms: N4_13  and  O3_14 
ROOT
HETATM    1  C1  UNL     1      58.019  -3.344  18.964  1.00  0.00     0.695 A 
HETATM    2  N2  UNL     1      58.276  -3.688  17.689  1.00  0.00    -0.153 N 
ATOM      3  H2  UNL     1      58.131  -2.992  16.958  1.00  0.00     0.187 HD
HETATM    4  C2  UNL     1      58.718  -4.917  17.334  1.00  0.00     0.295 A 
HETATM    5  O1  UNL     1      58.946  -5.205  16.140  1.00  0.00    -0.265 OA
HETATM    6  C3  UNL     1      58.915  -5.855  18.323  1.00  0.00     0.214 A 
HETATM    7  N4  UNL     1      58.658  -5.506  19.597  1.00  0.00    -0.138 N 
HETATM    8  N5  UNL     1      58.224  -4.284  19.901  1.00  0.00    -0.105 N 
ATOM      9  H5  UNL     1      58.040  -4.055  20.879  1.00  0.00     0.208 HD
ENDROOT
BRANCH   1  10
HETATM   10  N1  UNL     1      57.592  -2.147  19.277  1.00  0.00    -0.233 N 
ATOM     11  H12 UNL     1      57.201  -1.521  18.575  1.00  0.00     0.174 HD
ATOM     12  H11 UNL     1      57.635  -1.799  20.235  1.00  0.00     0.174 HD
ENDBRANCH   1  10
BRANCH   7  13
HETATM   13  O3  UNL     1      58.862  -6.457  20.560  1.00  0.00    -0.267 OA
ATOM     14  H3  UNL     1      59.453  -6.236  21.270  1.00  0.00     0.247 HD
ENDBRANCH   7  13
BRANCH   6  15
HETATM   15  C4  UNL     1      59.389  -7.191  18.005  1.00  0.00     0.291 C 
HETATM   16  N3  UNL     1      60.747  -7.442  17.674  1.00  0.00    -0.056 NA
HETATM   17  O2  UNL     1      58.614  -8.181  18.009  1.00  0.00    -0.269 OA
ENDBRANCH   6  15
TORSDOF 3
ENDMDL
MODEL 3
REMARK VINA RESULT: -5.946676867      1.630      3.794
REMARK  3 active torsions:
REMARK  status: ('A' for Active; 'I' for Inactive)
REMARK    1  A    between atoms: N1_1  and  C1_4 
REMARK    2  A    between atoms: C3_9  and  C4_10 
REMARK    3  A    between atoms: N4_13  and  O3_14 
ROOT
HETATM    1  C1  UNL     1      58.078  -3.429  18.812  1.00  0.00     0.695 A 
HETATM    2  N2  UNL     1      58.332  -4.322  19.785  1.00  0.00    -0.153 N 
ATOM      3  H2  UNL     1      58.160  -4.050  20.752  1.00  0.00     0.187 HD
HETATM    4  C2  UNL     1      58.806  -5.565  19.536  1.00  0.00     0.295 A 
HETATM    5  O1  UNL     1      59.033  -6.371  20.463  1.00  0.00    -0.265 OA
HETATM    6  C3  UNL     1      59.036  -5.930  18.229  1.00  0.00     0.214 A 
HETATM    7  N4  UNL     1      58.780  -5.034  17.259  1.00  0.00    -0.138 N 
HETATM    8  N5  UNL     1      58.314  -3.820  17.549  1.00  0.00    -0.105 N 
ATOM      9  H5  UNL     1      58.130  -3.167  16.787  1.00  0.00     0.208 HD
ENDROOT
BRANCH   1  10
HETATM   10  N1  UNL     1      57.620  -2.233  19.082  1.00  0.00    -0.233 N 
ATOM     11  H12 UNL     1      57.842  -1.764  19.960  1.00  0.00     0.174 HD
ATOM     12  H11 UNL     1      57.027  -1.727  18.425  1.00  0.00     0.174 HD
ENDBRANCH   1  10
BRANCH   7  13
HETATM   13  O3  UNL     1      59.017  -5.424  15.968  1.00  0.00    -0.267 OA
ATOM     14  H3  UNL     1      58.785  -4.812  15.280  1.00  0.00     0.247 HD
ENDBRANCH   7  13
BRANCH   6  15
HETATM   15  C4  UNL     1      59.544  -7.251  17.898  1.00  0.00     0.291 C 
HETATM   16  N3  UNL     1      60.848  -7.439  17.367  1.00  0.00    -0.056 NA
HETATM   17  O2  UNL     1      58.847  -8.284  18.068  1.00  0.00    -0.269 OA
ENDBRANCH   6  15
TORSDOF 3
ENDMDL
MODEL 4
REMARK VINA RESULT: -5.693317296      2.312      3.402
REMARK  3 active torsions:
REMARK  status: ('A' for Active; 'I' for Inactive)
REMARK    1  A    between atoms: N1_1  and  C1_4 
REMARK    2  A    between atoms: C3_9  and  C4_10 
REMARK    3  A    between atoms: N4_13  and  O3_14 
ROOT
HETATM    1  C1  UNL     1      58.932  -6.094  20.871  1.00  0.00     0.695 A 
HETATM    2  N2  UNL     1      59.338  -6.977  19.941  1.00  0.00    -0.153 N 
ATOM      3  H2  UNL     1      59.805  -7.829  20.249  1.00  0.00     0.187 HD
HETATM    4  C2  UNL     1      59.154  -6.783  18.615  1.00  0.00     0.295 A 
HETATM    5  O1  UNL     1      59.543  -7.622  17.775  1.00  0.00    -0.265 OA
HETATM    6  C3  UNL     1      58.522  -5.632  18.201  1.00  0.00     0.214 A 
HETATM    7  N4  UNL     1      58.117  -4.752  19.135  1.00  0.00    -0.138 N 
HETATM    8  N5  UNL     1      58.319  -4.984  20.431  1.00  0.00    -0.105 N 
ATOM      9  H5  UNL     1      57.998  -4.294  21.111  1.00  0.00     0.208 HD
ENDROOT
BRANCH   1  10
HETATM   10  N1  UNL     1      59.125  -6.309  22.148  1.00  0.00    -0.233 N 
ATOM     11  H12 UNL     1      59.678  -7.099  22.478  1.00  0.00     0.174 HD
ATOM     12  H11 UNL     1      58.730  -5.692  22.858  1.00  0.00     0.174 HD
ENDBRANCH   1  10
BRANCH   7  13
HETATM   13  O3  UNL     1      57.491  -3.616  18.696  1.00  0.00    -0.267 OA
ATOM     14  H3  UNL     1      56.577  -3.507  18.929  1.00  0.00     0.247 HD
ENDBRANCH   7  13
BRANCH   6  15
HETATM   15  C4  UNL     1      58.294  -5.367  16.790  1.00  0.00     0.291 C 
HETATM   16  N3  UNL     1      56.991  -5.408  16.223  1.00  0.00    -0.056 NA
HETATM   17  O2  UNL     1      59.242  -5.092  16.012  1.00  0.00    -0.269 OA
ENDBRANCH   6  15
TORSDOF 3
ENDMDL
MODEL 5
REMARK VINA RESULT: -5.572271186      2.281      3.395
REMARK  3 active torsions:
REMARK  status: ('A' for Active; 'I' for Inactive)
REMARK    1  A    between atoms: N1_1  and  C1_4 
REMARK    2  A    between atoms: C3_9  and  C4_10 
REMARK    3  A    between atoms: N4_13  and  O3_14 
ROOT
HETATM    1  C1  UNL     1      58.698  -5.812  20.786  1.00  0.00     0.695 A 
HETATM    2  N2  UNL     1      58.227  -4.689  20.215  1.00  0.00    -0.153 N 
ATOM      3  H2  UNL     1      57.910  -3.932  20.820  1.00  0.00     0.187 HD
HETATM    4  C2  UNL     1      58.156  -4.519  18.875  1.00  0.00     0.295 A 
HETATM    5  O1  UNL     1      57.713  -3.463  18.376  1.00  0.00    -0.265 OA
HETATM    6  C3  UNL     1      58.586  -5.543  18.060  1.00  0.00     0.214 A 
HETATM    7  N4  UNL     1      59.057  -6.664  18.635  1.00  0.00    -0.138 N 
HETATM    8  N5  UNL     1      59.109  -6.788  19.960  1.00  0.00    -0.105 N 
ATOM      9  H5  UNL     1      59.473  -7.653  20.360  1.00  0.00     0.208 HD
ENDROOT
BRANCH   1  10
HETATM   10  N1  UNL     1      58.754  -5.948  22.086  1.00  0.00    -0.233 N 
ATOM     11  H12 UNL     1      58.208  -5.353  22.708  1.00  0.00     0.174 HD
ATOM     12  H11 UNL     1      59.345  -6.655  22.524  1.00  0.00     0.174 HD
ENDBRANCH   1  10
BRANCH   7  13
HETATM   13  O3  UNL     1      59.479  -7.665  17.801  1.00  0.00    -0.267 OA
ATOM     14  H3  UNL     1      59.731  -8.488  18.204  1.00  0.00     0.247 HD
ENDBRANCH   7  13
BRANCH   6  15
HETATM   15  C4  UNL     1      58.536  -5.420  16.613  1.00  0.00     0.291 C 
HETATM   16  N3  UNL     1      57.364  -5.738  15.876  1.00  0.00    -0.056 NA
HETATM   17  O2  UNL     1      59.531  -5.028  15.952  1.00  0.00    -0.269 OA
ENDBRANCH   6  15
TORSDOF 3
ENDMDL
