MODEL 1
REMARK VINA RESULT: -8.395089565      0.000      0.000
REMARK  14 active torsions:
REMARK  status: ('A' for Active; 'I' for Inactive)
REMARK    1  A    between atoms: O1_2  and  C2_3 
REMARK    2  A    between atoms: C5_6  and  O2_7 
REMARK    3  A    between atoms: C8_10  and  O3_11 
REMARK    4  A    between atoms: C10_14  and  O4_15 
REMARK    5  A    between atoms: C11_17  and  C12_18 
REMARK    6  A    between atoms: C13_23  and  N2_24 
REMARK    7  A    between atoms: N2_24  and  N3_26 
REMARK       I    between atoms: N4_28  and  C14_30 
REMARK    8  A    between atoms: C14_30  and  C15_32 
REMARK    9  A    between atoms: C15_32  and  C16_33 
REMARK   10  A    between atoms: C15_32  and  C17_41 
REMARK   11  A    between atoms: C16_33  and  O8_34 
REMARK   12  A    between atoms: O8_34  and  S1_35 
REMARK   13  A    between atoms: S1_35  and  N5_36 
REMARK   14  A    between atoms: C19_45  and  O13_46 
ROOT
HETATM    1  C2  UNL     1      55.741  20.251  14.670  1.00  0.00     0.082 A 
HETATM    2  C3  UNL     1      55.774  20.313  13.269  1.00  0.00     0.040 A 
HETATM    3  C4  UNL     1      54.730  19.798  12.514  1.00  0.00     0.040 A 
HETATM    4  C5  UNL     1      53.645  19.218  13.128  1.00  0.00     0.082 A 
HETATM    5  C7  UNL     1      53.605  19.155  14.502  1.00  0.00     0.047 A 
HETATM    6  C8  UNL     1      52.475  18.557  15.115  1.00  0.00     0.093 A 
HETATM    7  C9  UNL     1      52.422  18.491  16.486  1.00  0.00     0.051 A 
HETATM    8  C10 UNL     1      51.291  17.894  17.109  1.00  0.00     0.113 A 
HETATM    9  C11 UNL     1      51.202  17.812  18.469  1.00  0.00     0.145 A 
HETATM   10  N1  UNL     1      52.231  18.322  19.160  1.00  0.00    -0.333 N 
ATOM     11  H1  UNL     1      52.185  18.271  20.178  1.00  0.00     0.168 HD
HETATM   12  C13 UNL     1      53.346  18.910  18.604  1.00  0.00     0.136 A 
HETATM   13  C18 UNL     1      53.451  19.000  17.237  1.00  0.00     0.059 A 
HETATM   14  C19 UNL     1      54.579  19.595  16.638  1.00  0.00     0.094 A 
HETATM   15  C20 UNL     1      54.636  19.663  15.239  1.00  0.00     0.047 A 
ENDROOT
BRANCH  12  16
HETATM   16  N2  UNL     1      54.338  19.380  19.469  1.00  0.00    -0.270 N 
ATOM     17  H2  UNL     1      55.085  18.776  19.814  1.00  0.00     0.190 HD
BRANCH  16  18
HETATM   18  N3  UNL     1      54.243  20.765  19.846  1.00  0.00    -0.239 N 
HETATM   19  N4  UNL     1      55.273  21.222  20.430  1.00  0.00    -0.255 N 
HETATM   20  C14 UNL     1      55.222  22.605  20.826  1.00  0.00     0.253 C 
ATOM     21  H4  UNL     1      56.092  20.642  20.609  1.00  0.00     0.191 HD
HETATM   22  O7  UNL     1      54.940  22.796  22.048  1.00  0.00    -0.271 OA
ATOM     23  H3  UNL     1      53.416  21.333  19.660  1.00  0.00     0.208 HD
BRANCH  20  24
HETATM   24  C15 UNL     1      55.478  23.718  19.885  1.00  0.00     0.205 C 
BRANCH  24  25
HETATM   25  C16 UNL     1      54.251  24.061  19.067  1.00  0.00     0.217 C 
BRANCH  25  26
HETATM   26  O8  UNL     1      53.146  23.562  19.735  1.00  0.00    -0.258 OA
BRANCH  26  27
HETATM   27  S1  UNL     1      52.303  24.761  20.549  1.00  0.00     0.355 S 
HETATM   28  O9  UNL     1      53.112  26.025  20.439  1.00  0.00    -0.176 OA
HETATM   29  O10 UNL     1      50.914  24.947  20.028  1.00  0.00    -0.176 OA
BRANCH  27  30
HETATM   30  N5  UNL     1      52.268  24.338  22.231  1.00  0.00    -0.306 N 
ATOM     31  H52 UNL     1      53.034  24.478  22.890  1.00  0.00     0.171 HD
ATOM     32  H51 UNL     1      51.355  23.931  22.432  1.00  0.00     0.171 HD
ENDBRANCH  27  30
ENDBRANCH  26  27
ENDBRANCH  25  26
ENDBRANCH  24  25
BRANCH  24  33
HETATM   33  C17 UNL     1      56.616  23.310  19.015  1.00  0.00     0.188 C 
HETATM   34  O11 UNL     1      56.350  22.635  17.984  1.00  0.00    -0.647 OA
HETATM   35  O12 UNL     1      57.904  23.669  19.348  1.00  0.00    -0.647 OA
ENDBRANCH  24  33
ENDBRANCH  20  24
ENDBRANCH  16  18
ENDBRANCH  12  16
BRANCH   9  36
HETATM   36  C12 UNL     1      50.095  17.219  19.208  1.00  0.00     0.229 C 
HETATM   37  O5  UNL     1      49.545  16.142  18.786  1.00  0.00    -0.643 OA
HETATM   38  O6  UNL     1      49.578  17.731  20.351  1.00  0.00    -0.643 OA
ENDBRANCH   9  36
BRANCH  14  39
HETATM   39  O13 UNL     1      55.583  20.086  17.344  1.00  0.00    -0.359 OA
ATOM     40  H13 UNL     1      56.317  20.538  16.943  1.00  0.00     0.217 HD
ENDBRANCH  14  39
BRANCH   8  41
HETATM   41  O4  UNL     1      50.323  17.415  16.288  1.00  0.00    -0.357 OA
ATOM     42  H4  UNL     1      49.909  16.599  16.545  1.00  0.00     0.217 HD
ENDBRANCH   8  41
BRANCH   6  43
HETATM   43  O3  UNL     1      51.522  18.090  14.322  1.00  0.00    -0.359 OA
ATOM     44  H3  UNL     1      50.774  17.671  14.732  1.00  0.00     0.217 HD
ENDBRANCH   6  43
BRANCH   1  45
HETATM   45  O1  UNL     1      56.807  20.780  15.351  1.00  0.00    -0.355 OA
HETATM   46  C1  UNL     1      58.035  20.973  14.691  1.00  0.00     0.210 C 
ENDBRANCH   1  45
BRANCH   4  47
HETATM   47  O2  UNL     1      52.611  18.709  12.381  1.00  0.00    -0.355 OA
HETATM   48  C6  UNL     1      52.501  19.050  11.017  1.00  0.00     0.210 C 
ENDBRANCH   4  47
TORSDOF 14
ENDMDL
MODEL 2
REMARK VINA RESULT: -7.956748457      3.259      8.741
REMARK  14 active torsions:
REMARK  status: ('A' for Active; 'I' for Inactive)
REMARK    1  A    between atoms: O1_2  and  C2_3 
REMARK    2  A    between atoms: C5_6  and  O2_7 
REMARK    3  A    between atoms: C8_10  and  O3_11 
REMARK    4  A    between atoms: C10_14  and  O4_15 
REMARK    5  A    between atoms: C11_17  and  C12_18 
REMARK    6  A    between atoms: C13_23  and  N2_24 
REMARK    7  A    between atoms: N2_24  and  N3_26 
REMARK       I    between atoms: N4_28  and  C14_30 
REMARK    8  A    between atoms: C14_30  and  C15_32 
REMARK    9  A    between atoms: C15_32  and  C16_33 
REMARK   10  A    between atoms: C15_32  and  C17_41 
REMARK   11  A    between atoms: C16_33  and  O8_34 
REMARK   12  A    between atoms: O8_34  and  S1_35 
REMARK   13  A    between atoms: S1_35  and  N5_36 
REMARK   14  A    between atoms: C19_45  and  O13_46 
ROOT
HETATM    1  C2  UNL     1      54.948  22.850  21.466  1.00  0.00     0.082 A 
HETATM    2  C3  UNL     1      55.176  23.251  22.791  1.00  0.00     0.040 A 
HETATM    3  C4  UNL     1      56.460  23.263  23.315  1.00  0.00     0.040 A 
HETATM    4  C5  UNL     1      57.532  22.882  22.544  1.00  0.00     0.082 A 
HETATM    5  C7  UNL     1      57.318  22.489  21.243  1.00  0.00     0.047 A 
HETATM    6  C8  UNL     1      58.437  22.104  20.463  1.00  0.00     0.093 A 
HETATM    7  C9  UNL     1      58.236  21.713  19.162  1.00  0.00     0.051 A 
HETATM    8  C10 UNL     1      59.354  21.327  18.372  1.00  0.00     0.113 A 
HETATM    9  C11 UNL     1      59.194  20.934  17.074  1.00  0.00     0.145 A 
HETATM   10  N1  UNL     1      57.937  20.937  16.607  1.00  0.00    -0.333 N 
ATOM     11  H1  UNL     1      57.795  20.647  15.640  1.00  0.00     0.168 HD
HETATM   12  C13 UNL     1      56.824  21.303  17.331  1.00  0.00     0.136 A 
HETATM   13  C18 UNL     1      56.968  21.700  18.638  1.00  0.00     0.059 A 
HETATM   14  C19 UNL     1      55.848  22.079  19.404  1.00  0.00     0.094 A 
HETATM   15  C20 UNL     1      56.051  22.478  20.733  1.00  0.00     0.047 A 
ENDROOT
BRANCH  12  16
HETATM   16  N2  UNL     1      55.580  21.236  16.696  1.00  0.00    -0.270 N 
ATOM     17  H2  UNL     1      55.077  22.075  16.405  1.00  0.00     0.190 HD
BRANCH  16  18
HETATM   18  N3  UNL     1      55.052  19.917  16.475  1.00  0.00    -0.239 N 
HETATM   19  N4  UNL     1      54.317  19.482  17.414  1.00  0.00    -0.255 N 
HETATM   20  C14 UNL     1      53.767  18.165  17.236  1.00  0.00     0.253 C 
ATOM     21  H4  UNL     1      54.126  20.036  18.248  1.00  0.00     0.191 HD
HETATM   22  O7  UNL     1      54.392  17.243  17.844  1.00  0.00    -0.271 OA
ATOM     23  H3  UNL     1      55.252  19.375  15.635  1.00  0.00     0.208 HD
BRANCH  20  24
HETATM   24  C15 UNL     1      52.567  17.901  16.411  1.00  0.00     0.205 C 
BRANCH  24  25
HETATM   25  C16 UNL     1      52.584  18.688  15.118  1.00  0.00     0.217 C 
BRANCH  25  26
HETATM   26  O8  UNL     1      53.676  18.263  14.380  1.00  0.00    -0.258 OA
BRANCH  26  27
HETATM   27  S1  UNL     1      54.328  19.494  13.448  1.00  0.00     0.355 S 
HETATM   28  O9  UNL     1      53.867  20.795  14.045  1.00  0.00    -0.176 OA
HETATM   29  O10 UNL     1      55.819  19.424  13.359  1.00  0.00    -0.176 OA
BRANCH  27  30
HETATM   30  N5  UNL     1      53.622  19.396  11.866  1.00  0.00    -0.306 N 
ATOM     31  H52 UNL     1      53.189  20.172  11.365  1.00  0.00     0.171 HD
ATOM     32  H51 UNL     1      53.719  18.435  11.539  1.00  0.00     0.171 HD
ENDBRANCH  27  30
ENDBRANCH  26  27
ENDBRANCH  25  26
ENDBRANCH  24  25
BRANCH  24  33
HETATM   33  C17 UNL     1      51.377  18.241  17.240  1.00  0.00     0.188 C 
HETATM   34  O11 UNL     1      51.518  19.120  18.132  1.00  0.00    -0.647 OA
HETATM   35  O12 UNL     1      50.176  17.602  17.019  1.00  0.00    -0.647 OA
ENDBRANCH  24  33
ENDBRANCH  20  24
ENDBRANCH  16  18
ENDBRANCH  12  16
BRANCH   9  36
HETATM   36  C12 UNL     1      60.265  20.515  16.180  1.00  0.00     0.229 C 
HETATM   37  O5  UNL     1      60.097  19.510  15.403  1.00  0.00    -0.643 OA
HETATM   38  O6  UNL     1      61.474  21.123  16.098  1.00  0.00    -0.643 OA
ENDBRANCH   9  36
BRANCH  14  39
HETATM   39  O13 UNL     1      54.618  22.069  18.921  1.00  0.00    -0.359 OA
ATOM     40  H13 UNL     1      53.914  22.582  19.300  1.00  0.00     0.217 HD
ENDBRANCH  14  39
BRANCH   8  41
HETATM   41  O4  UNL     1      60.570  21.367  18.973  1.00  0.00    -0.357 OA
ATOM     42  H4  UNL     1      61.330  21.287  18.408  1.00  0.00     0.217 HD
ENDBRANCH   8  41
BRANCH   6  43
HETATM   43  O3  UNL     1      59.630  22.144  21.039  1.00  0.00    -0.359 OA
ATOM     44  H3  UNL     1      59.960  21.341  21.424  1.00  0.00     0.217 HD
ENDBRANCH   6  43
BRANCH   1  45
HETATM   45  O1  UNL     1      53.654  22.863  21.015  1.00  0.00    -0.355 OA
HETATM   46  C1  UNL     1      52.859  24.010  21.200  1.00  0.00     0.210 C 
ENDBRANCH   1  45
BRANCH   4  47
HETATM   47  O2  UNL     1      58.804  22.894  23.062  1.00  0.00    -0.355 OA
HETATM   48  C6  UNL     1      59.081  23.658  24.216  1.00  0.00     0.210 C 
ENDBRANCH   4  47
TORSDOF 14
ENDMDL
MODEL 3
REMARK VINA RESULT: -7.815340046      1.868      2.676
REMARK  14 active torsions:
REMARK  status: ('A' for Active; 'I' for Inactive)
REMARK    1  A    between atoms: O1_2  and  C2_3 
REMARK    2  A    between atoms: C5_6  and  O2_7 
REMARK    3  A    between atoms: C8_10  and  O3_11 
REMARK    4  A    between atoms: C10_14  and  O4_15 
REMARK    5  A    between atoms: C11_17  and  C12_18 
REMARK    6  A    between atoms: C13_23  and  N2_24 
REMARK    7  A    between atoms: N2_24  and  N3_26 
REMARK       I    between atoms: N4_28  and  C14_30 
REMARK    8  A    between atoms: C14_30  and  C15_32 
REMARK    9  A    between atoms: C15_32  and  C16_33 
REMARK   10  A    between atoms: C15_32  and  C17_41 
REMARK   11  A    between atoms: C16_33  and  O8_34 
REMARK   12  A    between atoms: O8_34  and  S1_35 
REMARK   13  A    between atoms: S1_35  and  N5_36 
REMARK   14  A    between atoms: C19_45  and  O13_46 
ROOT
HETATM    1  C2  UNL     1      55.796  20.333  14.537  1.00  0.00     0.082 A 
HETATM    2  C3  UNL     1      55.843  20.348  13.135  1.00  0.00     0.040 A 
HETATM    3  C4  UNL     1      54.819  19.788  12.387  1.00  0.00     0.040 A 
HETATM    4  C5  UNL     1      53.739  19.208  13.007  1.00  0.00     0.082 A 
HETATM    5  C7  UNL     1      53.683  19.189  14.382  1.00  0.00     0.047 A 
HETATM    6  C8  UNL     1      52.558  18.590  15.002  1.00  0.00     0.093 A 
HETATM    7  C9  UNL     1      52.490  18.569  16.374  1.00  0.00     0.051 A 
HETATM    8  C10 UNL     1      51.364  17.971  17.004  1.00  0.00     0.113 A 
HETATM    9  C11 UNL     1      51.259  17.933  18.365  1.00  0.00     0.145 A 
HETATM   10  N1  UNL     1      52.271  18.486  19.050  1.00  0.00    -0.333 N 
ATOM     11  H1  UNL     1      52.213  18.468  20.068  1.00  0.00     0.168 HD
HETATM   12  C13 UNL     1      53.380  19.077  18.486  1.00  0.00     0.136 A 
HETATM   13  C18 UNL     1      53.500  19.123  17.119  1.00  0.00     0.059 A 
HETATM   14  C19 UNL     1      54.623  19.720  16.513  1.00  0.00     0.094 A 
HETATM   15  C20 UNL     1      54.695  19.742  15.113  1.00  0.00     0.047 A 
ENDROOT
BRANCH  12  16
HETATM   16  N2  UNL     1      54.352  19.596  19.347  1.00  0.00    -0.270 N 
ATOM     17  H2  UNL     1      55.117  19.023  19.707  1.00  0.00     0.190 HD
BRANCH  16  18
HETATM   18  N3  UNL     1      54.212  20.983  19.696  1.00  0.00    -0.239 N 
HETATM   19  N4  UNL     1      55.037  21.757  19.121  1.00  0.00    -0.255 N 
HETATM   20  C14 UNL     1      54.933  23.155  19.441  1.00  0.00     0.253 C 
ATOM     21  H4  UNL     1      55.737  21.406  18.467  1.00  0.00     0.191 HD
HETATM   22  O7  UNL     1      55.769  23.565  20.303  1.00  0.00    -0.271 OA
ATOM     23  H3  UNL     1      53.506  21.319  20.352  1.00  0.00     0.208 HD
BRANCH  20  24
HETATM   24  C15 UNL     1      53.932  24.049  18.817  1.00  0.00     0.205 C 
BRANCH  24  25
HETATM   25  C16 UNL     1      54.478  24.735  17.583  1.00  0.00     0.217 C 
BRANCH  25  26
HETATM   26  O8  UNL     1      54.877  23.752  16.695  1.00  0.00    -0.258 OA
BRANCH  26  27
HETATM   27  S1  UNL     1      54.878  24.293  15.108  1.00  0.00     0.355 S 
HETATM   28  O9  UNL     1      56.313  24.493  14.708  1.00  0.00    -0.176 OA
HETATM   29  O10 UNL     1      54.170  23.359  14.179  1.00  0.00    -0.176 OA
BRANCH  27  30
HETATM   30  N5  UNL     1      54.130  25.858  15.079  1.00  0.00    -0.306 N 
ATOM     31  H52 UNL     1      53.577  26.233  14.308  1.00  0.00     0.171 HD
ATOM     32  H51 UNL     1      54.343  26.324  15.961  1.00  0.00     0.171 HD
ENDBRANCH  27  30
ENDBRANCH  26  27
ENDBRANCH  25  26
ENDBRANCH  24  25
BRANCH  24  33
HETATM   33  C17 UNL     1      53.515  25.037  19.850  1.00  0.00     0.188 C 
HETATM   34  O11 UNL     1      53.789  26.249  19.644  1.00  0.00    -0.647 OA
HETATM   35  O12 UNL     1      52.854  24.614  20.983  1.00  0.00    -0.647 OA
ENDBRANCH  24  33
ENDBRANCH  20  24
ENDBRANCH  16  18
ENDBRANCH  12  16
BRANCH   9  36
HETATM   36  C12 UNL     1      50.156  17.343  19.111  1.00  0.00     0.229 C 
HETATM   37  O5  UNL     1      49.404  16.465  18.559  1.00  0.00    -0.643 OA
HETATM   38  O6  UNL     1      49.845  17.658  20.392  1.00  0.00    -0.643 OA
ENDBRANCH   9  36
BRANCH  14  39
HETATM   39  O13 UNL     1      55.609  20.254  17.213  1.00  0.00    -0.359 OA
ATOM     40  H13 UNL     1      56.361  19.752  17.505  1.00  0.00     0.217 HD
ENDBRANCH  14  39
BRANCH   8  41
HETATM   41  O4  UNL     1      50.414  17.446  16.189  1.00  0.00    -0.357 OA
ATOM     42  H4  UNL     1      49.923  16.706  16.526  1.00  0.00     0.217 HD
ENDBRANCH   8  41
BRANCH   6  43
HETATM   43  O3  UNL     1      51.623  18.078  14.215  1.00  0.00    -0.359 OA
ATOM     44  H3  UNL     1      50.930  17.575  14.625  1.00  0.00     0.217 HD
ENDBRANCH   6  43
BRANCH   1  45
HETATM   45  O1  UNL     1      56.842  20.905  15.212  1.00  0.00    -0.355 OA
HETATM   46  C1  UNL     1      58.132  20.890  14.648  1.00  0.00     0.210 C 
ENDBRANCH   1  45
BRANCH   4  47
HETATM   47  O2  UNL     1      52.724  18.653  12.267  1.00  0.00    -0.355 OA
HETATM   48  C6  UNL     1      52.446  19.154  10.977  1.00  0.00     0.210 C 
ENDBRANCH   4  47
TORSDOF 14
ENDMDL
MODEL 4
REMARK VINA RESULT: -7.713476349      1.536      2.856
REMARK  14 active torsions:
REMARK  status: ('A' for Active; 'I' for Inactive)
REMARK    1  A    between atoms: O1_2  and  C2_3 
REMARK    2  A    between atoms: C5_6  and  O2_7 
REMARK    3  A    between atoms: C8_10  and  O3_11 
REMARK    4  A    between atoms: C10_14  and  O4_15 
REMARK    5  A    between atoms: C11_17  and  C12_18 
REMARK    6  A    between atoms: C13_23  and  N2_24 
REMARK    7  A    between atoms: N2_24  and  N3_26 
REMARK       I    between atoms: N4_28  and  C14_30 
REMARK    8  A    between atoms: C14_30  and  C15_32 
REMARK    9  A    between atoms: C15_32  and  C16_33 
REMARK   10  A    between atoms: C15_32  and  C17_41 
REMARK   11  A    between atoms: C16_33  and  O8_34 
REMARK   12  A    between atoms: O8_34  and  S1_35 
REMARK   13  A    between atoms: S1_35  and  N5_36 
REMARK   14  A    between atoms: C19_45  and  O13_46 
ROOT
HETATM    1  C2  UNL     1      55.778  20.036  14.540  1.00  0.00     0.082 A 
HETATM    2  C3  UNL     1      55.771  20.134  13.140  1.00  0.00     0.040 A 
HETATM    3  C4  UNL     1      54.670  19.717  12.408  1.00  0.00     0.040 A 
HETATM    4  C5  UNL     1      53.565  19.201  13.042  1.00  0.00     0.082 A 
HETATM    5  C7  UNL     1      53.563  19.103  14.415  1.00  0.00     0.047 A 
HETATM    6  C8  UNL     1      52.412  18.573  15.050  1.00  0.00     0.093 A 
HETATM    7  C9  UNL     1      52.396  18.474  16.420  1.00  0.00     0.051 A 
HETATM    8  C10 UNL     1      51.244  17.945  17.065  1.00  0.00     0.113 A 
HETATM    9  C11 UNL     1      51.191  17.833  18.425  1.00  0.00     0.145 A 
HETATM   10  N1  UNL     1      52.277  18.248  19.094  1.00  0.00    -0.333 N 
ATOM     11  H1  UNL     1      52.258  18.172  20.111  1.00  0.00     0.168 HD
HETATM   12  C13 UNL     1      53.414  18.768  18.516  1.00  0.00     0.136 A 
HETATM   13  C18 UNL     1      53.483  18.886  17.149  1.00  0.00     0.059 A 
HETATM   14  C19 UNL     1      54.632  19.414  16.528  1.00  0.00     0.094 A 
HETATM   15  C20 UNL     1      54.650  19.515  15.130  1.00  0.00     0.047 A 
ENDROOT
BRANCH  12  16
HETATM   16  N2  UNL     1      54.464  19.141  19.360  1.00  0.00    -0.270 N 
ATOM     17  H2  UNL     1      54.951  18.464  19.948  1.00  0.00     0.190 HD
BRANCH  16  18
HETATM   18  N3  UNL     1      54.816  20.535  19.351  1.00  0.00    -0.239 N 
HETATM   19  N4  UNL     1      54.028  21.281  20.008  1.00  0.00    -0.255 N 
HETATM   20  C14 UNL     1      54.342  22.685  20.027  1.00  0.00     0.253 C 
ATOM     21  H4  UNL     1      53.215  20.906  20.497  1.00  0.00     0.191 HD
HETATM   22  O7  UNL     1      53.676  23.387  19.207  1.00  0.00    -0.271 OA
ATOM     23  H3  UNL     1      55.633  20.895  18.857  1.00  0.00     0.208 HD
BRANCH  20  24
HETATM   24  C15 UNL     1      55.361  23.267  20.929  1.00  0.00     0.205 C 
BRANCH  24  25
HETATM   25  C16 UNL     1      56.758  22.803  20.578  1.00  0.00     0.217 C 
BRANCH  25  26
HETATM   26  O8  UNL     1      57.185  23.537  19.485  1.00  0.00    -0.258 OA
BRANCH  26  27
HETATM   27  S1  UNL     1      57.530  22.564  18.164  1.00  0.00     0.355 S 
HETATM   28  O9  UNL     1      58.722  23.164  17.470  1.00  0.00    -0.176 OA
HETATM   29  O10 UNL     1      57.771  21.138  18.545  1.00  0.00    -0.176 OA
BRANCH  27  30
HETATM   30  N5  UNL     1      56.199  22.678  17.056  1.00  0.00    -0.306 N 
ATOM     31  H52 UNL     1      55.218  22.767  17.321  1.00  0.00     0.171 HD
ATOM     32  H51 UNL     1      56.576  22.640  16.110  1.00  0.00     0.171 HD
ENDBRANCH  27  30
ENDBRANCH  26  27
ENDBRANCH  25  26
ENDBRANCH  24  25
BRANCH  24  33
HETATM   33  C17 UNL     1      54.992  22.882  22.320  1.00  0.00     0.188 C 
HETATM   34  O11 UNL     1      55.915  22.829  23.175  1.00  0.00    -0.647 OA
HETATM   35  O12 UNL     1      53.680  22.599  22.633  1.00  0.00    -0.647 OA
ENDBRANCH  24  33
ENDBRANCH  20  24
ENDBRANCH  16  18
ENDBRANCH  12  16
BRANCH   9  36
HETATM   36  C12 UNL     1      50.068  17.302  19.185  1.00  0.00     0.229 C 
HETATM   37  O5  UNL     1      49.750  17.826  20.311  1.00  0.00    -0.643 OA
HETATM   38  O6  UNL     1      49.300  16.259  18.787  1.00  0.00    -0.643 OA
ENDBRANCH   9  36
BRANCH  14  39
HETATM   39  O13 UNL     1      55.692  19.811  17.212  1.00  0.00    -0.359 OA
ATOM     40  H13 UNL     1      55.636  20.123  18.108  1.00  0.00     0.217 HD
ENDBRANCH  14  39
BRANCH   8  41
HETATM   41  O4  UNL     1      50.218  17.560  16.264  1.00  0.00    -0.357 OA
ATOM     42  H4  UNL     1      49.362  17.920  16.464  1.00  0.00     0.217 HD
ENDBRANCH   8  41
BRANCH   6  43
HETATM   43  O3  UNL     1      51.402  18.198  14.277  1.00  0.00    -0.359 OA
ATOM     44  H3  UNL     1      51.530  17.437  13.725  1.00  0.00     0.217 HD
ENDBRANCH   6  43
BRANCH   1  45
HETATM   45  O1  UNL     1      56.900  20.468  15.198  1.00  0.00    -0.355 OA
HETATM   46  C1  UNL     1      58.046  20.834  14.466  1.00  0.00     0.210 C 
ENDBRANCH   1  45
BRANCH   4  47
HETATM   47  O2  UNL     1      52.474  18.788  12.318  1.00  0.00    -0.355 OA
HETATM   48  C6  UNL     1      52.427  19.028  10.928  1.00  0.00     0.210 C 
ENDBRANCH   4  47
TORSDOF 14
ENDMDL
MODEL 5
REMARK VINA RESULT: -7.612090491      1.729      2.907
REMARK  14 active torsions:
REMARK  status: ('A' for Active; 'I' for Inactive)
REMARK    1  A    between atoms: O1_2  and  C2_3 
REMARK    2  A    between atoms: C5_6  and  O2_7 
REMARK    3  A    between atoms: C8_10  and  O3_11 
REMARK    4  A    between atoms: C10_14  and  O4_15 
REMARK    5  A    between atoms: C11_17  and  C12_18 
REMARK    6  A    between atoms: C13_23  and  N2_24 
REMARK    7  A    between atoms: N2_24  and  N3_26 
REMARK       I    between atoms: N4_28  and  C14_30 
REMARK    8  A    between atoms: C14_30  and  C15_32 
REMARK    9  A    between atoms: C15_32  and  C16_33 
REMARK   10  A    between atoms: C15_32  and  C17_41 
REMARK   11  A    between atoms: C16_33  and  O8_34 
REMARK   12  A    between atoms: O8_34  and  S1_35 
REMARK   13  A    between atoms: S1_35  and  N5_36 
REMARK   14  A    between atoms: C19_45  and  O13_46 
ROOT
HETATM    1  C2  UNL     1      55.744  20.118  14.532  1.00  0.00     0.082 A 
HETATM    2  C3  UNL     1      55.736  20.213  13.132  1.00  0.00     0.040 A 
HETATM    3  C4  UNL     1      54.647  19.763  12.399  1.00  0.00     0.040 A 
HETATM    4  C5  UNL     1      53.557  19.217  13.032  1.00  0.00     0.082 A 
HETATM    5  C7  UNL     1      53.556  19.122  14.406  1.00  0.00     0.047 A 
HETATM    6  C8  UNL     1      52.420  18.560  15.040  1.00  0.00     0.093 A 
HETATM    7  C9  UNL     1      52.406  18.463  16.410  1.00  0.00     0.051 A 
HETATM    8  C10 UNL     1      51.269  17.901  17.055  1.00  0.00     0.113 A 
HETATM    9  C11 UNL     1      51.217  17.791  18.415  1.00  0.00     0.145 A 
HETATM   10  N1  UNL     1      52.289  18.238  19.084  1.00  0.00    -0.333 N 
ATOM     11  H1  UNL     1      52.272  18.163  20.102  1.00  0.00     0.168 HD
HETATM   12  C13 UNL     1      53.411  18.789  18.507  1.00  0.00     0.136 A 
HETATM   13  C18 UNL     1      53.479  18.907  17.140  1.00  0.00     0.059 A 
HETATM   14  C19 UNL     1      54.614  19.466  16.519  1.00  0.00     0.094 A 
HETATM   15  C20 UNL     1      54.630  19.566  15.121  1.00  0.00     0.047 A 
ENDROOT
BRANCH  12  16
HETATM   16  N2  UNL     1      54.449  19.194  19.351  1.00  0.00    -0.270 N 
ATOM     17  H2  UNL     1      55.054  18.522  19.825  1.00  0.00     0.190 HD
BRANCH  16  18
HETATM   18  N3  UNL     1      54.614  20.613  19.514  1.00  0.00    -0.239 N 
HETATM   19  N4  UNL     1      54.755  20.991  20.718  1.00  0.00    -0.255 N 
HETATM   20  C14 UNL     1      54.923  22.405  20.928  1.00  0.00     0.253 C 
ATOM     21  H4  UNL     1      54.750  20.329  21.493  1.00  0.00     0.191 HD
HETATM   22  O7  UNL     1      53.870  23.016  21.284  1.00  0.00    -0.271 OA
ATOM     23  H3  UNL     1      54.618  21.263  18.728  1.00  0.00     0.208 HD
BRANCH  20  24
HETATM   24  C15 UNL     1      56.220  23.094  20.745  1.00  0.00     0.205 C 
BRANCH  24  25
HETATM   25  C16 UNL     1      56.611  23.186  19.286  1.00  0.00     0.217 C 
BRANCH  25  26
HETATM   26  O8  UNL     1      57.913  23.653  19.227  1.00  0.00    -0.258 OA
BRANCH  26  27
HETATM   27  S1  UNL     1      58.885  22.697  18.252  1.00  0.00     0.355 S 
HETATM   28  O9  UNL     1      58.860  23.298  16.873  1.00  0.00    -0.176 OA
HETATM   29  O10 UNL     1      60.281  22.572  18.774  1.00  0.00    -0.176 OA
BRANCH  27  30
HETATM   30  N5  UNL     1      58.143  21.134  18.127  1.00  0.00    -0.306 N 
ATOM     31  H52 UNL     1      57.180  20.961  17.835  1.00  0.00     0.171 HD
ATOM     32  H51 UNL     1      58.836  20.436  18.395  1.00  0.00     0.171 HD
ENDBRANCH  27  30
ENDBRANCH  26  27
ENDBRANCH  25  26
ENDBRANCH  24  25
BRANCH  24  33
HETATM   33  C17 UNL     1      57.235  22.344  21.535  1.00  0.00     0.188 C 
HETATM   34  O11 UNL     1      57.524  21.177  21.157  1.00  0.00    -0.647 OA
HETATM   35  O12 UNL     1      57.823  22.928  22.636  1.00  0.00    -0.647 OA
ENDBRANCH  24  33
ENDBRANCH  20  24
ENDBRANCH  16  18
ENDBRANCH  12  16
BRANCH   9  36
HETATM   36  C12 UNL     1      50.108  17.229  19.175  1.00  0.00     0.229 C 
HETATM   37  O5  UNL     1      49.565  16.130  18.801  1.00  0.00    -0.643 OA
HETATM   38  O6  UNL     1      49.581  17.793  20.288  1.00  0.00    -0.643 OA
ENDBRANCH   9  36
BRANCH  14  39
HETATM   39  O13 UNL     1      55.660  19.896  17.204  1.00  0.00    -0.359 OA
ATOM     40  H13 UNL     1      56.461  20.189  16.785  1.00  0.00     0.217 HD
ENDBRANCH  14  39
BRANCH   8  41
HETATM   41  O4  UNL     1      50.255  17.486  16.254  1.00  0.00    -0.357 OA
ATOM     42  H4  UNL     1      49.705  16.786  16.588  1.00  0.00     0.217 HD
ENDBRANCH   8  41
BRANCH   6  43
HETATM   43  O3  UNL     1      51.423  18.155  14.267  1.00  0.00    -0.359 OA
ATOM     44  H3  UNL     1      51.601  17.456  13.649  1.00  0.00     0.217 HD
ENDBRANCH   6  43
BRANCH   1  45
HETATM   45  O1  UNL     1      56.852  20.583  15.190  1.00  0.00    -0.355 OA
HETATM   46  C1  UNL     1      58.048  20.805  14.481  1.00  0.00     0.210 C 
ENDBRANCH   1  45
BRANCH   4  47
HETATM   47  O2  UNL     1      52.479  18.772  12.307  1.00  0.00    -0.355 OA
HETATM   48  C6  UNL     1      52.412  19.034  10.923  1.00  0.00     0.210 C 
ENDBRANCH   4  47
TORSDOF 14
ENDMDL
