MODEL 1
REMARK VINA RESULT: -9.163224207      0.000      0.000
REMARK  14 active torsions:
REMARK  status: ('A' for Active; 'I' for Inactive)
REMARK    1  A    between atoms: O1_2  and  C2_3 
REMARK    2  A    between atoms: C2_3  and  C3_5 
REMARK    3  A    between atoms: C3_5  and  N1_6 
REMARK    4  A    between atoms: C3_5  and  C5_15 
REMARK    5  A    between atoms: C3_5  and  C6_23 
REMARK       I    between atoms: N1_6  and  C4_8 
REMARK       I    between atoms: C4_8  and  N2_10 
REMARK    6  A    between atoms: N2_10  and  S1_12 
REMARK    7  A    between atoms: S1_12  and  O4_13 
REMARK    8  A    between atoms: C8_25  and  N7_26 
REMARK       I    between atoms: N7_26  and  C9_28 
REMARK    9  A    between atoms: C9_28  and  C10_30 
REMARK   10  A    between atoms: C10_30  and  C11_31 
REMARK   11  A    between atoms: C10_30  and  N8_33 
REMARK   12  A    between atoms: N8_33  and  C12_35 
REMARK   13  A    between atoms: C15_38  and  C16_39 
REMARK   14  A    between atoms: C17_42  and  O9_43 
ROOT
HETATM    1  C6  UNL     1      54.635  20.799  18.654  1.00  0.00     0.031 A 
HETATM    2  C7  UNL     1      53.650  20.064  19.269  1.00  0.00     0.048 A 
HETATM    3  C8  UNL     1      53.352  18.868  18.780  1.00  0.00     0.042 A 
HETATM    4  C19 UNL     1      54.035  18.419  17.685  1.00  0.00     0.079 A 
HETATM    5  S2  UNL     1      55.090  19.698  17.372  1.00  0.00    -0.101 SA
ENDROOT
BRANCH   1   6
HETATM    6  C3  UNL     1      55.163  22.128  18.735  1.00  0.00     0.218 C 
BRANCH   6   7
HETATM    7  C2  UNL     1      56.106  22.668  17.734  1.00  0.00     0.300 C 
HETATM    8  O2  UNL     1      57.329  22.742  17.961  1.00  0.00    -0.261 OA
BRANCH   7   9
HETATM    9  O1  UNL     1      55.583  23.146  16.517  1.00  0.00    -0.324 OA
HETATM   10  C1  UNL     1      55.998  22.742  15.216  1.00  0.00     0.213 C 
ENDBRANCH   7   9
ENDBRANCH   6   7
BRANCH   6  11
HETATM   11  N1  UNL     1      54.280  23.204  19.052  1.00  0.00    -0.313 N 
HETATM   12  C4  UNL     1      53.486  23.616  20.074  1.00  0.00     0.329 C 
HETATM   13  O3  UNL     1      53.277  23.093  21.148  1.00  0.00    -0.246 OA
HETATM   14  N2  UNL     1      52.758  24.872  19.861  1.00  0.00    -0.259 N 
ATOM     15  H2  UNL     1      52.903  25.394  18.996  1.00  0.00     0.181 HD
ATOM     16  H1  UNL     1      54.229  23.863  18.275  1.00  0.00     0.166 HD
BRANCH  14  17
HETATM   17  S1  UNL     1      51.656  25.487  21.052  1.00  0.00     0.114 SA
BRANCH  17  18
HETATM   18  O4  UNL     1      50.215  25.549  20.531  1.00  0.00    -0.312 OA
ATOM     19  H4  UNL     1      49.576  25.460  21.230  1.00  0.00     0.229 HD
ENDBRANCH  17  18
ENDBRANCH  14  17
ENDBRANCH   6  11
BRANCH   6  20
HETATM   20  C5  UNL     1      56.073  22.069  20.026  1.00  0.00     0.155 A 
HETATM   21  N3  UNL     1      56.255  23.010  20.918  1.00  0.00    -0.268 N 
HETATM   22  N4  UNL     1      57.084  22.548  21.866  1.00  0.00    -0.005 NA
ATOM     23  H3  UNL     1      55.836  23.940  20.896  1.00  0.00     0.185 HD
HETATM   24  N5  UNL     1      57.408  21.300  21.541  1.00  0.00    -0.225 N 
HETATM   25  N6  UNL     1      56.787  21.023  20.425  1.00  0.00    -0.272 N 
ATOM     26  H5  UNL     1      58.024  20.678  22.063  1.00  0.00     0.205 HD
ATOM     27  H6  UNL     1      56.843  20.132  19.932  1.00  0.00     0.189 HD
ENDBRANCH   6  20
ENDBRANCH   1   6
BRANCH   3  28
HETATM   28  N7  UNL     1      52.253  18.017  19.270  1.00  0.00    -0.325 N 
HETATM   29  C9  UNL     1      50.984  18.175  18.745  1.00  0.00     0.251 C 
HETATM   30  O5  UNL     1      50.813  19.002  17.792  1.00  0.00    -0.270 OA
ATOM     31  H7  UNL     1      52.427  17.318  19.992  1.00  0.00     0.169 HD
BRANCH  29  32
HETATM   32  C10 UNL     1      49.726  17.466  19.188  1.00  0.00     0.236 C 
BRANCH  32  33
HETATM   33  C11 UNL     1      49.767  16.096  18.550  1.00  0.00     0.266 C 
HETATM   34  O6  UNL     1      50.789  15.592  18.130  1.00  0.00    -0.304 OA
ENDBRANCH  32  33
BRANCH  32  35
HETATM   35  N8  UNL     1      49.828  17.241  20.625  1.00  0.00    -0.371 N 
ATOM     36  H8  UNL     1      50.691  17.598  21.035  1.00  0.00     0.161 HD
BRANCH  35  37
HETATM   37  C12 UNL     1      48.983  16.639  21.544  1.00  0.00     0.031 A 
HETATM   38  C13 UNL     1      48.715  15.303  21.670  1.00  0.00     0.030 A 
HETATM   39  C14 UNL     1      47.963  14.754  22.685  1.00  0.00     0.023 A 
HETATM   40  C15 UNL     1      47.431  15.611  23.662  1.00  0.00     0.073 A 
HETATM   41  C17 UNL     1      47.658  16.964  23.588  1.00  0.00     0.084 A 
HETATM   42  C18 UNL     1      48.439  17.447  22.515  1.00  0.00     0.066 A 
BRANCH  40  43
HETATM   43  C16 UNL     1      46.708  15.064  24.766  1.00  0.00     0.212 C 
HETATM   44  O7  UNL     1      46.247  15.764  25.681  1.00  0.00    -0.644 OA
HETATM   45  O8  UNL     1      46.507  13.705  24.838  1.00  0.00    -0.644 OA
ENDBRANCH  40  43
BRANCH  41  46
HETATM   46  O9  UNL     1      47.176  17.889  24.481  1.00  0.00    -0.360 OA
ATOM     47  H9  UNL     1      47.614  18.147  25.283  1.00  0.00     0.217 HD
ENDBRANCH  41  46
ENDBRANCH  35  37
ENDBRANCH  32  35
ENDBRANCH  29  32
ENDBRANCH   3  28
TORSDOF 14
ENDMDL
MODEL 2
REMARK VINA RESULT: -9.145327026      0.871      1.217
REMARK  14 active torsions:
REMARK  status: ('A' for Active; 'I' for Inactive)
REMARK    1  A    between atoms: O1_2  and  C2_3 
REMARK    2  A    between atoms: C2_3  and  C3_5 
REMARK    3  A    between atoms: C3_5  and  N1_6 
REMARK    4  A    between atoms: C3_5  and  C5_15 
REMARK    5  A    between atoms: C3_5  and  C6_23 
REMARK       I    between atoms: N1_6  and  C4_8 
REMARK       I    between atoms: C4_8  and  N2_10 
REMARK    6  A    between atoms: N2_10  and  S1_12 
REMARK    7  A    between atoms: S1_12  and  O4_13 
REMARK    8  A    between atoms: C8_25  and  N7_26 
REMARK       I    between atoms: N7_26  and  C9_28 
REMARK    9  A    between atoms: C9_28  and  C10_30 
REMARK   10  A    between atoms: C10_30  and  C11_31 
REMARK   11  A    between atoms: C10_30  and  N8_33 
REMARK   12  A    between atoms: N8_33  and  C12_35 
REMARK   13  A    between atoms: C15_38  and  C16_39 
REMARK   14  A    between atoms: C17_42  and  O9_43 
ROOT
HETATM    1  C6  UNL     1      54.866  20.628  19.009  1.00  0.00     0.031 A 
HETATM    2  C7  UNL     1      53.902  19.796  19.524  1.00  0.00     0.048 A 
HETATM    3  C8  UNL     1      53.457  18.798  18.774  1.00  0.00     0.042 A 
HETATM    4  C19 UNL     1      53.974  18.641  17.519  1.00  0.00     0.079 A 
HETATM    5  S2  UNL     1      55.084  19.907  17.428  1.00  0.00    -0.101 SA
ENDROOT
BRANCH   1   6
HETATM    6  C3  UNL     1      55.503  21.856  19.376  1.00  0.00     0.218 C 
BRANCH   6   7
HETATM    7  C2  UNL     1      56.283  22.662  18.414  1.00  0.00     0.300 C 
HETATM    8  O2  UNL     1      55.742  23.229  17.446  1.00  0.00    -0.261 OA
BRANCH   7   9
HETATM    9  O1  UNL     1      57.678  22.742  18.590  1.00  0.00    -0.324 OA
HETATM   10  C1  UNL     1      58.657  22.576  17.570  1.00  0.00     0.213 C 
ENDBRANCH   7   9
ENDBRANCH   6   7
BRANCH   6  11
HETATM   11  N1  UNL     1      54.782  22.797  20.172  1.00  0.00    -0.313 N 
HETATM   12  C4  UNL     1      53.605  23.474  20.150  1.00  0.00     0.329 C 
HETATM   13  O3  UNL     1      52.726  23.467  19.316  1.00  0.00    -0.246 OA
HETATM   14  N2  UNL     1      53.347  24.358  21.293  1.00  0.00    -0.259 N 
ATOM     15  H2  UNL     1      54.022  24.399  22.057  1.00  0.00     0.181 HD
ATOM     16  H1  UNL     1      55.312  23.031  21.012  1.00  0.00     0.166 HD
BRANCH  14  17
HETATM   17  S1  UNL     1      51.916  25.336  21.368  1.00  0.00     0.114 SA
BRANCH  17  18
HETATM   18  O4  UNL     1      51.508  25.875  19.991  1.00  0.00    -0.312 OA
ATOM     19  H4  UNL     1      51.290  26.799  20.017  1.00  0.00     0.229 HD
ENDBRANCH  17  18
ENDBRANCH  14  17
ENDBRANCH   6  11
BRANCH   6  20
HETATM   20  C5  UNL     1      56.630  21.384  20.378  1.00  0.00     0.155 A 
HETATM   21  N3  UNL     1      57.404  20.333  20.272  1.00  0.00    -0.268 N 
HETATM   22  N4  UNL     1      58.239  20.306  21.322  1.00  0.00    -0.005 NA
ATOM     23  H3  UNL     1      57.377  19.648  19.516  1.00  0.00     0.185 HD
HETATM   24  N5  UNL     1      57.965  21.365  22.078  1.00  0.00    -0.225 N 
HETATM   25  N6  UNL     1      56.990  22.009  21.493  1.00  0.00    -0.272 N 
ATOM     26  H5  UNL     1      58.427  21.625  22.949  1.00  0.00     0.205 HD
ATOM     27  H6  UNL     1      56.566  22.869  21.843  1.00  0.00     0.189 HD
ENDBRANCH   6  20
ENDBRANCH   1   6
BRANCH   3  28
HETATM   28  N7  UNL     1      52.356  17.894  19.155  1.00  0.00    -0.325 N 
HETATM   29  C9  UNL     1      51.059  18.215  18.802  1.00  0.00     0.251 C 
HETATM   30  O5  UNL     1      50.856  19.249  18.087  1.00  0.00    -0.270 OA
ATOM     31  H7  UNL     1      52.551  17.038  19.675  1.00  0.00     0.169 HD
BRANCH  29  32
HETATM   32  C10 UNL     1      49.805  17.466  19.185  1.00  0.00     0.236 C 
BRANCH  32  33
HETATM   33  C11 UNL     1      49.861  16.146  18.451  1.00  0.00     0.266 C 
HETATM   34  O6  UNL     1      50.900  15.636  18.085  1.00  0.00    -0.304 OA
ENDBRANCH  32  33
BRANCH  32  35
HETATM   35  N8  UNL     1      49.900  17.140  20.604  1.00  0.00    -0.371 N 
ATOM     36  H8  UNL     1      50.804  17.368  21.016  1.00  0.00     0.161 HD
BRANCH  35  37
HETATM   37  C12 UNL     1      49.005  16.581  21.502  1.00  0.00     0.031 A 
HETATM   38  C13 UNL     1      48.672  15.259  21.624  1.00  0.00     0.030 A 
HETATM   39  C14 UNL     1      47.869  14.750  22.620  1.00  0.00     0.023 A 
HETATM   40  C15 UNL     1      47.352  15.634  23.581  1.00  0.00     0.073 A 
HETATM   41  C17 UNL     1      47.643  16.974  23.508  1.00  0.00     0.084 A 
HETATM   42  C18 UNL     1      48.474  17.417  22.456  1.00  0.00     0.066 A 
BRANCH  40  43
HETATM   43  C16 UNL     1      46.576  15.125  24.667  1.00  0.00     0.212 C 
HETATM   44  O7  UNL     1      46.047  15.858  25.516  1.00  0.00    -0.644 OA
HETATM   45  O8  UNL     1      46.398  13.767  24.795  1.00  0.00    -0.644 OA
ENDBRANCH  40  43
BRANCH  41  46
HETATM   46  O9  UNL     1      47.182  17.925  24.386  1.00  0.00    -0.360 OA
ATOM     47  H9  UNL     1      47.499  18.819  24.433  1.00  0.00     0.217 HD
ENDBRANCH  41  46
ENDBRANCH  35  37
ENDBRANCH  32  35
ENDBRANCH  29  32
ENDBRANCH   3  28
TORSDOF 14
ENDMDL
MODEL 3
REMARK VINA RESULT: -8.960403837      0.516      1.240
REMARK  14 active torsions:
REMARK  status: ('A' for Active; 'I' for Inactive)
REMARK    1  A    between atoms: O1_2  and  C2_3 
REMARK    2  A    between atoms: C2_3  and  C3_5 
REMARK    3  A    between atoms: C3_5  and  N1_6 
REMARK    4  A    between atoms: C3_5  and  C5_15 
REMARK    5  A    between atoms: C3_5  and  C6_23 
REMARK       I    between atoms: N1_6  and  C4_8 
REMARK       I    between atoms: C4_8  and  N2_10 
REMARK    6  A    between atoms: N2_10  and  S1_12 
REMARK    7  A    between atoms: S1_12  and  O4_13 
REMARK    8  A    between atoms: C8_25  and  N7_26 
REMARK       I    between atoms: N7_26  and  C9_28 
REMARK    9  A    between atoms: C9_28  and  C10_30 
REMARK   10  A    between atoms: C10_30  and  C11_31 
REMARK   11  A    between atoms: C10_30  and  N8_33 
REMARK   12  A    between atoms: N8_33  and  C12_35 
REMARK   13  A    between atoms: C15_38  and  C16_39 
REMARK   14  A    between atoms: C17_42  and  O9_43 
ROOT
HETATM    1  C6  UNL     1      54.613  20.755  18.452  1.00  0.00     0.031 A 
HETATM    2  C7  UNL     1      53.699  20.018  19.163  1.00  0.00     0.048 A 
HETATM    3  C8  UNL     1      53.309  18.848  18.676  1.00  0.00     0.042 A 
HETATM    4  C19 UNL     1      53.832  18.426  17.487  1.00  0.00     0.079 A 
HETATM    5  S2  UNL     1      54.869  19.693  17.083  1.00  0.00    -0.101 SA
ENDROOT
BRANCH   1   6
HETATM    6  C3  UNL     1      55.182  22.068  18.509  1.00  0.00     0.218 C 
BRANCH   6   7
HETATM    7  C2  UNL     1      56.103  22.578  17.473  1.00  0.00     0.300 C 
HETATM    8  O2  UNL     1      57.340  22.537  17.619  1.00  0.00    -0.261 OA
BRANCH   7   9
HETATM    9  O1  UNL     1      55.548  23.163  16.318  1.00  0.00    -0.324 OA
HETATM   10  C1  UNL     1      55.903  22.854  14.975  1.00  0.00     0.213 C 
ENDBRANCH   7   9
ENDBRANCH   6   7
BRANCH   6  11
HETATM   11  N1  UNL     1      54.342  23.169  18.854  1.00  0.00    -0.313 N 
HETATM   12  C4  UNL     1      53.591  23.601  19.900  1.00  0.00     0.329 C 
HETATM   13  O3  UNL     1      53.396  23.081  20.977  1.00  0.00    -0.246 OA
HETATM   14  N2  UNL     1      52.897  24.880  19.712  1.00  0.00    -0.259 N 
ATOM     15  H2  UNL     1      53.033  25.401  18.845  1.00  0.00     0.181 HD
ATOM     16  H1  UNL     1      54.290  23.833  18.081  1.00  0.00     0.166 HD
BRANCH  14  17
HETATM   17  S1  UNL     1      51.848  25.523  20.936  1.00  0.00     0.114 SA
BRANCH  17  18
HETATM   18  O4  UNL     1      50.433  25.787  20.407  1.00  0.00    -0.312 OA
ATOM     19  H4  UNL     1      49.790  25.830  21.106  1.00  0.00     0.229 HD
ENDBRANCH  17  18
ENDBRANCH  14  17
ENDBRANCH   6  11
BRANCH   6  20
HETATM   20  C5  UNL     1      56.136  21.985  19.766  1.00  0.00     0.155 A 
HETATM   21  N3  UNL     1      56.527  22.968  20.537  1.00  0.00    -0.268 N 
HETATM   22  N4  UNL     1      57.313  22.470  21.503  1.00  0.00    -0.005 NA
ATOM     23  H3  UNL     1      56.276  23.951  20.423  1.00  0.00     0.185 HD
HETATM   24  N5  UNL     1      57.398  21.157  21.313  1.00  0.00    -0.225 N 
HETATM   25  N6  UNL     1      56.678  20.878  20.258  1.00  0.00    -0.272 N 
ATOM     26  H5  UNL     1      57.924  20.493  21.881  1.00  0.00     0.205 HD
ATOM     27  H6  UNL     1      56.552  19.943  19.869  1.00  0.00     0.189 HD
ENDBRANCH   6  20
ENDBRANCH   1   6
BRANCH   3  28
HETATM   28  N7  UNL     1      52.261  18.002  19.276  1.00  0.00    -0.325 N 
HETATM   29  C9  UNL     1      50.950  18.147  18.862  1.00  0.00     0.251 C 
HETATM   30  O5  UNL     1      50.692  18.957  17.914  1.00  0.00    -0.270 OA
ATOM     31  H7  UNL     1      52.501  17.316  19.991  1.00  0.00     0.169 HD
BRANCH  29  32
HETATM   32  C10 UNL     1      49.739  17.442  19.426  1.00  0.00     0.236 C 
BRANCH  32  33
HETATM   33  C11 UNL     1      49.691  16.087  18.758  1.00  0.00     0.266 C 
HETATM   34  O6  UNL     1      50.627  15.618  18.144  1.00  0.00    -0.304 OA
ENDBRANCH  32  33
BRANCH  32  35
HETATM   35  N8  UNL     1      49.996  17.183  20.839  1.00  0.00    -0.371 N 
ATOM     36  H8  UNL     1      50.958  17.369  21.120  1.00  0.00     0.161 HD
BRANCH  35  37
HETATM   37  C12 UNL     1      49.191  16.735  21.873  1.00  0.00     0.031 A 
HETATM   38  C13 UNL     1      48.426  17.495  22.716  1.00  0.00     0.030 A 
HETATM   39  C14 UNL     1      47.549  16.981  23.645  1.00  0.00     0.023 A 
HETATM   40  C15 UNL     1      47.421  15.586  23.744  1.00  0.00     0.073 A 
HETATM   41  C17 UNL     1      48.167  14.768  22.932  1.00  0.00     0.084 A 
HETATM   42  C18 UNL     1      49.044  15.374  22.005  1.00  0.00     0.066 A 
BRANCH  40  43
HETATM   43  C16 UNL     1      46.467  15.025  24.647  1.00  0.00     0.212 C 
HETATM   44  O7  UNL     1      46.264  13.804  24.738  1.00  0.00    -0.644 OA
HETATM   45  O8  UNL     1      45.729  15.857  25.458  1.00  0.00    -0.644 OA
ENDBRANCH  40  43
BRANCH  41  46
HETATM   46  O9  UNL     1      48.129  13.395  22.954  1.00  0.00    -0.360 OA
ATOM     47  H9  UNL     1      47.343  12.877  23.087  1.00  0.00     0.217 HD
ENDBRANCH  41  46
ENDBRANCH  35  37
ENDBRANCH  32  35
ENDBRANCH  29  32
ENDBRANCH   3  28
TORSDOF 14
ENDMDL
MODEL 4
REMARK VINA RESULT: -8.888695170      1.601      2.141
REMARK  14 active torsions:
REMARK  status: ('A' for Active; 'I' for Inactive)
REMARK    1  A    between atoms: O1_2  and  C2_3 
REMARK    2  A    between atoms: C2_3  and  C3_5 
REMARK    3  A    between atoms: C3_5  and  N1_6 
REMARK    4  A    between atoms: C3_5  and  C5_15 
REMARK    5  A    between atoms: C3_5  and  C6_23 
REMARK       I    between atoms: N1_6  and  C4_8 
REMARK       I    between atoms: C4_8  and  N2_10 
REMARK    6  A    between atoms: N2_10  and  S1_12 
REMARK    7  A    between atoms: S1_12  and  O4_13 
REMARK    8  A    between atoms: C8_25  and  N7_26 
REMARK       I    between atoms: N7_26  and  C9_28 
REMARK    9  A    between atoms: C9_28  and  C10_30 
REMARK   10  A    between atoms: C10_30  and  C11_31 
REMARK   11  A    between atoms: C10_30  and  N8_33 
REMARK   12  A    between atoms: N8_33  and  C12_35 
REMARK   13  A    between atoms: C15_38  and  C16_39 
REMARK   14  A    between atoms: C17_42  and  O9_43 
ROOT
HETATM    1  C6  UNL     1      55.022  20.889  19.307  1.00  0.00     0.031 A 
HETATM    2  C7  UNL     1      54.015  19.962  19.423  1.00  0.00     0.048 A 
HETATM    3  C8  UNL     1      53.745  19.184  18.384  1.00  0.00     0.042 A 
HETATM    4  C19 UNL     1      54.478  19.339  17.242  1.00  0.00     0.079 A 
HETATM    5  S2  UNL     1      55.539  20.580  17.663  1.00  0.00    -0.101 SA
ENDROOT
BRANCH   1   6
HETATM    6  C3  UNL     1      55.540  21.983  20.072  1.00  0.00     0.218 C 
BRANCH   6   7
HETATM    7  C2  UNL     1      56.174  23.159  19.442  1.00  0.00     0.300 C 
HETATM    8  O2  UNL     1      55.501  24.038  18.870  1.00  0.00    -0.261 OA
BRANCH   7   9
HETATM    9  O1  UNL     1      57.579  23.247  19.460  1.00  0.00    -0.324 OA
HETATM   10  C1  UNL     1      58.449  22.921  18.382  1.00  0.00     0.213 C 
ENDBRANCH   7   9
ENDBRANCH   6   7
BRANCH   6  11
HETATM   11  N1  UNL     1      54.763  22.497  21.154  1.00  0.00    -0.313 N 
HETATM   12  C4  UNL     1      53.603  23.174  21.357  1.00  0.00     0.329 C 
HETATM   13  O3  UNL     1      52.804  23.595  20.549  1.00  0.00    -0.246 OA
HETATM   14  N2  UNL     1      53.256  23.455  22.754  1.00  0.00    -0.259 N 
ATOM     15  H2  UNL     1      53.859  23.107  23.500  1.00  0.00     0.181 HD
ATOM     16  H1  UNL     1      55.217  22.295  22.045  1.00  0.00     0.166 HD
BRANCH  14  17
HETATM   17  S1  UNL     1      51.838  24.369  23.162  1.00  0.00     0.114 SA
BRANCH  17  18
HETATM   18  O4  UNL     1      51.462  25.376  22.068  1.00  0.00    -0.312 OA
ATOM     19  H4  UNL     1      51.410  26.265  22.400  1.00  0.00     0.229 HD
ENDBRANCH  17  18
ENDBRANCH  14  17
ENDBRANCH   6  11
BRANCH   6  20
HETATM   20  C5  UNL     1      56.763  21.335  20.834  1.00  0.00     0.155 A 
HETATM   21  N3  UNL     1      57.479  20.303  20.463  1.00  0.00    -0.268 N 
HETATM   22  N4  UNL     1      58.435  20.092  21.379  1.00  0.00    -0.005 NA
ATOM     23  H3  UNL     1      57.333  19.751  19.617  1.00  0.00     0.185 HD
HETATM   24  N5  UNL     1      58.295  21.017  22.324  1.00  0.00    -0.225 N 
HETATM   25  N6  UNL     1      57.280  21.764  21.979  1.00  0.00    -0.272 N 
ATOM     26  H5  UNL     1      58.871  21.124  23.159  1.00  0.00     0.205 HD
ATOM     27  H6  UNL     1      56.934  22.562  22.513  1.00  0.00     0.189 HD
ENDBRANCH   6  20
ENDBRANCH   1   6
BRANCH   3  28
HETATM   28  N7  UNL     1      52.628  18.222  18.330  1.00  0.00    -0.325 N 
HETATM   29  C9  UNL     1      51.336  18.688  18.180  1.00  0.00     0.251 C 
HETATM   30  O5  UNL     1      51.149  19.937  18.016  1.00  0.00    -0.270 OA
ATOM     31  H7  UNL     1      52.809  17.221  18.402  1.00  0.00     0.169 HD
BRANCH  29  32
HETATM   32  C10 UNL     1      50.069  17.865  18.200  1.00  0.00     0.236 C 
BRANCH  32  33
HETATM   33  C11 UNL     1      50.048  17.093  16.901  1.00  0.00     0.266 C 
HETATM   34  O6  UNL     1      50.667  17.438  15.916  1.00  0.00    -0.304 OA
ENDBRANCH  32  33
BRANCH  32  35
HETATM   35  N8  UNL     1      50.206  16.869  19.257  1.00  0.00    -0.371 N 
ATOM     36  H8  UNL     1      50.952  16.195  19.090  1.00  0.00     0.161 HD
BRANCH  35  37
HETATM   37  C12 UNL     1      49.521  16.657  20.443  1.00  0.00     0.031 A 
HETATM   38  C13 UNL     1      49.063  17.606  21.315  1.00  0.00     0.030 A 
HETATM   39  C14 UNL     1      48.278  17.337  22.415  1.00  0.00     0.023 A 
HETATM   40  C15 UNL     1      47.917  16.005  22.669  1.00  0.00     0.073 A 
HETATM   41  C17 UNL     1      48.351  15.003  21.835  1.00  0.00     0.084 A 
HETATM   42  C18 UNL     1      49.153  15.363  20.728  1.00  0.00     0.066 A 
BRANCH  40  43
HETATM   43  C16 UNL     1      47.045  15.703  23.759  1.00  0.00     0.212 C 
HETATM   44  O7  UNL     1      46.164  16.483  24.151  1.00  0.00    -0.644 OA
HETATM   45  O8  UNL     1      47.174  14.502  24.418  1.00  0.00    -0.644 OA
ENDBRANCH  40  43
BRANCH  41  46
HETATM   46  O9  UNL     1      48.067  13.670  21.997  1.00  0.00    -0.360 OA
ATOM     47  H9  UNL     1      48.661  13.030  22.372  1.00  0.00     0.217 HD
ENDBRANCH  41  46
ENDBRANCH  35  37
ENDBRANCH  32  35
ENDBRANCH  29  32
ENDBRANCH   3  28
TORSDOF 14
ENDMDL
MODEL 5
REMARK VINA RESULT: -8.621869878      2.145      3.117
REMARK  14 active torsions:
REMARK  status: ('A' for Active; 'I' for Inactive)
REMARK    1  A    between atoms: O1_2  and  C2_3 
REMARK    2  A    between atoms: C2_3  and  C3_5 
REMARK    3  A    between atoms: C3_5  and  N1_6 
REMARK    4  A    between atoms: C3_5  and  C5_15 
REMARK    5  A    between atoms: C3_5  and  C6_23 
REMARK       I    between atoms: N1_6  and  C4_8 
REMARK       I    between atoms: C4_8  and  N2_10 
REMARK    6  A    between atoms: N2_10  and  S1_12 
REMARK    7  A    between atoms: S1_12  and  O4_13 
REMARK    8  A    between atoms: C8_25  and  N7_26 
REMARK       I    between atoms: N7_26  and  C9_28 
REMARK    9  A    between atoms: C9_28  and  C10_30 
REMARK   10  A    between atoms: C10_30  and  C11_31 
REMARK   11  A    between atoms: C10_30  and  N8_33 
REMARK   12  A    between atoms: N8_33  and  C12_35 
REMARK   13  A    between atoms: C15_38  and  C16_39 
REMARK   14  A    between atoms: C17_42  and  O9_43 
ROOT
HETATM    1  C6  UNL     1      54.742  20.696  18.563  1.00  0.00     0.031 A 
HETATM    2  C7  UNL     1      53.732  20.036  19.220  1.00  0.00     0.048 A 
HETATM    3  C8  UNL     1      53.355  18.847  18.772  1.00  0.00     0.042 A 
HETATM    4  C19 UNL     1      53.985  18.330  17.675  1.00  0.00     0.079 A 
HETATM    5  S2  UNL     1      55.103  19.536  17.302  1.00  0.00    -0.101 SA
ENDROOT
BRANCH   1   6
HETATM    6  C3  UNL     1      55.347  21.993  18.595  1.00  0.00     0.218 C 
BRANCH   6   7
HETATM    7  C2  UNL     1      56.721  22.215  19.093  1.00  0.00     0.300 C 
HETATM    8  O2  UNL     1      57.192  23.361  19.224  1.00  0.00    -0.261 OA
BRANCH   7   9
HETATM    9  O1  UNL     1      57.515  21.088  19.378  1.00  0.00    -0.324 OA
HETATM   10  C1  UNL     1      58.332  20.914  20.531  1.00  0.00     0.213 C 
ENDBRANCH   7   9
ENDBRANCH   6   7
BRANCH   6  11
HETATM   11  N1  UNL     1      55.206  22.849  17.461  1.00  0.00    -0.313 N 
HETATM   12  C4  UNL     1      55.599  22.909  16.163  1.00  0.00     0.329 C 
HETATM   13  O3  UNL     1      56.290  22.140  15.529  1.00  0.00    -0.246 OA
HETATM   14  N2  UNL     1      55.139  24.075  15.401  1.00  0.00    -0.259 N 
ATOM     15  H2  UNL     1      54.525  24.756  15.850  1.00  0.00     0.181 HD
ATOM     16  H1  UNL     1      54.637  23.662  17.698  1.00  0.00     0.166 HD
BRANCH  14  17
HETATM   17  S1  UNL     1      55.617  24.319  13.751  1.00  0.00     0.114 SA
BRANCH  17  18
HETATM   18  O4  UNL     1      55.322  23.096  12.875  1.00  0.00    -0.312 OA
ATOM     19  H4  UNL     1      55.707  22.301  13.225  1.00  0.00     0.229 HD
ENDBRANCH  17  18
ENDBRANCH  14  17
ENDBRANCH   6  11
BRANCH   6  20
HETATM   20  C5  UNL     1      54.491  22.757  19.682  1.00  0.00     0.155 A 
HETATM   21  N3  UNL     1      53.462  23.541  19.482  1.00  0.00    -0.268 N 
HETATM   22  N4  UNL     1      53.010  23.969  20.669  1.00  0.00    -0.005 NA
ATOM     23  H3  UNL     1      53.069  23.786  18.572  1.00  0.00     0.185 HD
HETATM   24  N5  UNL     1      53.781  23.430  21.609  1.00  0.00    -0.225 N 
HETATM   25  N6  UNL     1      54.673  22.697  20.996  1.00  0.00    -0.272 N 
ATOM     26  H5  UNL     1      53.694  23.564  22.616  1.00  0.00     0.205 HD
ATOM     27  H6  UNL     1      55.404  22.157  21.461  1.00  0.00     0.189 HD
ENDBRANCH   6  20
ENDBRANCH   1   6
BRANCH   3  28
HETATM   28  N7  UNL     1      52.220  18.074  19.309  1.00  0.00    -0.325 N 
HETATM   29  C9  UNL     1      50.992  18.141  18.679  1.00  0.00     0.251 C 
HETATM   30  O5  UNL     1      50.891  18.811  17.601  1.00  0.00    -0.270 OA
ATOM     31  H7  UNL     1      52.341  17.494  20.140  1.00  0.00     0.169 HD
BRANCH  29  32
HETATM   32  C10 UNL     1      49.703  17.500  19.138  1.00  0.00     0.236 C 
BRANCH  32  33
HETATM   33  C11 UNL     1      49.668  16.127  18.508  1.00  0.00     0.266 C 
HETATM   34  O6  UNL     1      50.669  15.527  18.173  1.00  0.00    -0.304 OA
ENDBRANCH  32  33
BRANCH  32  35
HETATM   35  N8  UNL     1      49.806  17.279  20.576  1.00  0.00    -0.371 N 
ATOM     36  H8  UNL     1      50.672  17.633  20.984  1.00  0.00     0.161 HD
BRANCH  35  37
HETATM   37  C12 UNL     1      48.961  16.684  21.498  1.00  0.00     0.031 A 
HETATM   38  C13 UNL     1      48.672  15.351  21.617  1.00  0.00     0.030 A 
HETATM   39  C14 UNL     1      47.921  14.807  22.635  1.00  0.00     0.023 A 
HETATM   40  C15 UNL     1      47.411  15.664  23.623  1.00  0.00     0.073 A 
HETATM   41  C17 UNL     1      47.658  17.014  23.556  1.00  0.00     0.084 A 
HETATM   42  C18 UNL     1      48.438  17.493  22.480  1.00  0.00     0.066 A 
BRANCH  40  43
HETATM   43  C16 UNL     1      46.690  15.121  24.729  1.00  0.00     0.212 C 
HETATM   44  O7  UNL     1      46.110  15.829  25.567  1.00  0.00    -0.644 OA
HETATM   45  O8  UNL     1      46.626  13.756  24.892  1.00  0.00    -0.644 OA
ENDBRANCH  40  43
BRANCH  41  46
HETATM   46  O9  UNL     1      47.199  17.941  24.459  1.00  0.00    -0.360 OA
ATOM     47  H9  UNL     1      46.285  18.167  24.587  1.00  0.00     0.217 HD
ENDBRANCH  41  46
ENDBRANCH  35  37
ENDBRANCH  32  35
ENDBRANCH  29  32
ENDBRANCH   3  28
TORSDOF 14
ENDMDL
