MODEL 1
REMARK VINA RESULT: -7.521088526      0.000      0.000
REMARK  15 active torsions:
REMARK  status: ('A' for Active; 'I' for Inactive)
REMARK    1  A    between atoms: C2_2  and  N1_3 
REMARK    2  A    between atoms: C2_2  and  C14_35 
REMARK    3  A    between atoms: N1_3  and  C3_5 
REMARK    4  A    between atoms: C5_7  and  O1_8 
REMARK    5  A    between atoms: C7_11  and  C8_12 
REMARK    6  A    between atoms: C8_12  and  O2_13 
REMARK    7  A    between atoms: O2_13  and  C9_14 
REMARK       I    between atoms: C9_14  and  N2_16 
REMARK    8  A    between atoms: N2_16  and  C10_18 
REMARK    9  A    between atoms: C10_18  and  C12_23 
REMARK   10  A    between atoms: C12_23  and  N5_24 
REMARK   11  A    between atoms: C12_23  and  N6_28 
REMARK   12  A    between atoms: C13_32  and  O4_33 
REMARK       I    between atoms: C14_35  and  N7_37 
REMARK   13  A    between atoms: N7_37  and  S1_39 
REMARK   14  A    between atoms: S1_39  and  C15_42 
REMARK   15  A    between atoms: C17_44  and  N8_45 
ROOT
HETATM    1  C10 UNL     1      56.788  22.548  20.317  1.00  0.00     0.153 C 
HETATM    2  N3  UNL     1      56.959  22.872  21.576  1.00  0.00    -0.279 N 
ATOM      3  H3  UNL     1      57.875  23.211  21.870  1.00  0.00     0.179 HD
HETATM    4  C11 UNL     1      55.949  22.776  22.528  1.00  0.00     0.183 C 
HETATM    5  N4  UNL     1      55.114  22.709  23.334  1.00  0.00    -0.172 NA
ENDROOT
BRANCH   1   6
HETATM    6  N2  UNL     1      55.529  22.086  19.925  1.00  0.00    -0.288 N 
HETATM    7  C9  UNL     1      55.248  20.765  19.570  1.00  0.00     0.366 C 
HETATM    8  O3  UNL     1      56.093  19.855  19.564  1.00  0.00    -0.238 OA
ATOM      9  H2  UNL     1      54.763  22.758  19.897  1.00  0.00     0.172 HD
BRANCH   7  10
HETATM   10  O2  UNL     1      53.929  20.431  19.196  1.00  0.00    -0.299 OA
BRANCH  10  11
HETATM   11  C8  UNL     1      53.499  19.113  19.224  1.00  0.00     0.222 C 
BRANCH  11  12
HETATM   12  C7  UNL     1      52.757  18.721  18.001  1.00  0.00     0.004 A 
HETATM   13  C6  UNL     1      51.473  18.231  17.993  1.00  0.00     0.048 A 
HETATM   14  C5  UNL     1      50.858  17.840  16.804  1.00  0.00     0.068 A 
HETATM   15  C4  UNL     1      51.523  17.933  15.591  1.00  0.00     0.068 A 
HETATM   16  C3  UNL     1      52.808  18.417  15.562  1.00  0.00     0.065 A 
HETATM   17  C13 UNL     1      53.404  18.803  16.760  1.00  0.00     0.100 A 
BRANCH  14  18
HETATM   18  O1  UNL     1      49.573  17.359  16.853  1.00  0.00    -0.361 OA
ATOM     19  H1  UNL     1      49.320  16.737  17.524  1.00  0.00     0.217 HD
ENDBRANCH  14  18
BRANCH  16  20
HETATM   20  N1  UNL     1      53.546  18.568  14.353  1.00  0.00    -0.375 N 
ATOM     21  H1  UNL     1      54.344  17.962  14.165  1.00  0.00     0.160 HD
BRANCH  20  22
HETATM   22  C2  UNL     1      53.167  19.570  13.403  1.00  0.00     0.171 C 
HETATM   23  C1  UNL     1      53.572  19.246  11.998  1.00  0.00     0.042 C 
BRANCH  22  24
HETATM   24  C14 UNL     1      53.679  20.924  13.769  1.00  0.00     0.253 C 
HETATM   25  O5  UNL     1      53.006  21.972  13.640  1.00  0.00    -0.270 OA
HETATM   26  N7  UNL     1      55.002  21.044  14.293  1.00  0.00    -0.248 N 
ATOM     27  H7  UNL     1      55.556  20.195  14.402  1.00  0.00     0.182 HD
BRANCH  26  28
HETATM   28  S1  UNL     1      55.711  22.542  14.751  1.00  0.00     0.271 S 
HETATM   29  O6  UNL     1      55.074  23.083  16.009  1.00  0.00    -0.200 OA
HETATM   30  O7  UNL     1      55.547  23.533  13.638  1.00  0.00    -0.200 OA
BRANCH  28  31
HETATM   31  C15 UNL     1      57.436  22.233  15.026  1.00  0.00     0.122 A 
HETATM   32  C16 UNL     1      58.008  21.078  15.485  1.00  0.00     0.069 A 
HETATM   33  C17 UNL     1      59.343  21.059  15.617  1.00  0.00     0.111 A 
HETATM   34  C18 UNL     1      60.016  22.205  15.280  1.00  0.00     0.087 A 
HETATM   35  S2  UNL     1      58.771  23.261  14.792  1.00  0.00    -0.086 SA
BRANCH  33  36
HETATM   36  N8  UNL     1      60.084  19.904  16.093  1.00  0.00    -0.115 N 
HETATM   37  O8  UNL     1      60.325  19.735  17.302  1.00  0.00    -0.532 OA
HETATM   38  O9  UNL     1      60.552  18.945  15.240  1.00  0.00    -0.532 OA
ENDBRANCH  33  36
ENDBRANCH  28  31
ENDBRANCH  26  28
ENDBRANCH  22  24
ENDBRANCH  20  22
ENDBRANCH  16  20
BRANCH  17  39
HETATM   39  O4  UNL     1      54.685  19.280  16.693  1.00  0.00    -0.358 OA
ATOM     40  H4  UNL     1      54.865  19.939  16.033  1.00  0.00     0.217 HD
ENDBRANCH  17  39
ENDBRANCH  11  12
ENDBRANCH  10  11
ENDBRANCH   7  10
ENDBRANCH   1   6
BRANCH   1  41
HETATM   41  C12 UNL     1      57.940  22.724  19.426  1.00  0.00     0.445 C 
BRANCH  41  42
HETATM   42  N5  UNL     1      58.556  21.409  19.183  1.00  0.00    -0.043 N 
ATOM     43  H53 UNL     1      59.564  21.472  19.041  1.00  0.00     0.277 HD
ATOM     44  H52 UNL     1      58.567  20.823  20.017  1.00  0.00     0.277 HD
ATOM     45  H51 UNL     1      58.079  20.963  18.400  1.00  0.00     0.277 HD
ENDBRANCH  41  42
BRANCH  41  46
HETATM   46  N6  UNL     1      58.965  23.601  20.022  1.00  0.00    -0.043 N 
ATOM     47  H63 UNL     1      59.186  24.385  19.407  1.00  0.00     0.277 HD
ATOM     48  H62 UNL     1      58.593  24.120  20.816  1.00  0.00     0.277 HD
ATOM     49  H61 UNL     1      59.805  23.082  20.279  1.00  0.00     0.277 HD
ENDBRANCH  41  46
ENDBRANCH   1  41
TORSDOF 15
ENDMDL
MODEL 2
REMARK VINA RESULT: -7.484853314      3.014      7.409
REMARK  15 active torsions:
REMARK  status: ('A' for Active; 'I' for Inactive)
REMARK    1  A    between atoms: C2_2  and  N1_3 
REMARK    2  A    between atoms: C2_2  and  C14_35 
REMARK    3  A    between atoms: N1_3  and  C3_5 
REMARK    4  A    between atoms: C5_7  and  O1_8 
REMARK    5  A    between atoms: C7_11  and  C8_12 
REMARK    6  A    between atoms: C8_12  and  O2_13 
REMARK    7  A    between atoms: O2_13  and  C9_14 
REMARK       I    between atoms: C9_14  and  N2_16 
REMARK    8  A    between atoms: N2_16  and  C10_18 
REMARK    9  A    between atoms: C10_18  and  C12_23 
REMARK   10  A    between atoms: C12_23  and  N5_24 
REMARK   11  A    between atoms: C12_23  and  N6_28 
REMARK   12  A    between atoms: C13_32  and  O4_33 
REMARK       I    between atoms: C14_35  and  N7_37 
REMARK   13  A    between atoms: N7_37  and  S1_39 
REMARK   14  A    between atoms: S1_39  and  C15_42 
REMARK   15  A    between atoms: C17_44  and  N8_45 
ROOT
HETATM    1  C10 UNL     1      52.200  18.285  16.957  1.00  0.00     0.153 C 
HETATM    2  N3  UNL     1      53.240  18.375  17.751  1.00  0.00    -0.279 N 
ATOM      3  H3  UNL     1      53.233  17.847  18.624  1.00  0.00     0.179 HD
HETATM    4  C11 UNL     1      54.353  19.158  17.458  1.00  0.00     0.183 C 
HETATM    5  N4  UNL     1      55.293  19.800  17.224  1.00  0.00    -0.172 NA
ENDROOT
BRANCH   1   6
HETATM    6  N2  UNL     1      52.222  19.013  15.765  1.00  0.00    -0.288 N 
HETATM    7  C9  UNL     1      52.912  18.625  14.615  1.00  0.00     0.366 C 
HETATM    8  O3  UNL     1      53.585  17.584  14.530  1.00  0.00    -0.238 OA
ATOM      9  H2  UNL     1      51.698  19.887  15.732  1.00  0.00     0.172 HD
BRANCH   7  10
HETATM   10  O2  UNL     1      52.848  19.454  13.475  1.00  0.00    -0.299 OA
BRANCH  10  11
HETATM   11  C8  UNL     1      54.008  19.881  12.846  1.00  0.00     0.222 C 
BRANCH  11  12
HETATM   12  C7  UNL     1      54.660  21.014  13.547  1.00  0.00     0.004 A 
HETATM   13  C6  UNL     1      54.154  22.291  13.601  1.00  0.00     0.048 A 
HETATM   14  C5  UNL     1      54.852  23.316  14.241  1.00  0.00     0.068 A 
HETATM   15  C4  UNL     1      56.078  23.078  14.843  1.00  0.00     0.068 A 
HETATM   16  C3  UNL     1      56.614  21.814  14.806  1.00  0.00     0.065 A 
HETATM   17  C13 UNL     1      55.902  20.804  14.163  1.00  0.00     0.100 A 
BRANCH  14  18
HETATM   18  O1  UNL     1      54.300  24.572  14.268  1.00  0.00    -0.361 OA
ATOM     19  H1  UNL     1      53.771  24.878  13.541  1.00  0.00     0.217 HD
ENDBRANCH  14  18
BRANCH  16  20
HETATM   20  N1  UNL     1      57.854  21.487  15.424  1.00  0.00    -0.375 N 
ATOM     21  H1  UNL     1      58.311  20.600  15.213  1.00  0.00     0.160 HD
BRANCH  20  22
HETATM   22  C2  UNL     1      58.460  22.402  16.343  1.00  0.00     0.171 C 
HETATM   23  C1  UNL     1      59.944  22.522  16.179  1.00  0.00     0.042 C 
BRANCH  22  24
HETATM   24  C14 UNL     1      58.142  22.076  17.765  1.00  0.00     0.253 C 
HETATM   25  O5  UNL     1      58.871  21.360  18.487  1.00  0.00    -0.270 OA
HETATM   26  N7  UNL     1      56.947  22.603  18.344  1.00  0.00    -0.248 N 
ATOM     27  H7  UNL     1      56.348  23.189  17.762  1.00  0.00     0.182 HD
BRANCH  26  28
HETATM   28  S1  UNL     1      56.464  22.305  19.966  1.00  0.00     0.271 S 
HETATM   29  O6  UNL     1      57.503  22.803  20.943  1.00  0.00    -0.200 OA
HETATM   30  O7  UNL     1      56.256  20.833  20.162  1.00  0.00    -0.200 OA
BRANCH  28  31
HETATM   31  C15 UNL     1      54.932  23.163  20.214  1.00  0.00     0.122 A 
HETATM   32  C16 UNL     1      54.166  23.181  21.348  1.00  0.00     0.069 A 
HETATM   33  C17 UNL     1      53.036  23.903  21.320  1.00  0.00     0.111 A 
HETATM   34  C18 UNL     1      52.748  24.560  20.151  1.00  0.00     0.087 A 
HETATM   35  S2  UNL     1      54.057  24.151  19.140  1.00  0.00    -0.086 SA
BRANCH  33  36
HETATM   36  N8  UNL     1      52.128  24.013  22.448  1.00  0.00    -0.115 N 
HETATM   37  O8  UNL     1      52.227  23.267  23.440  1.00  0.00    -0.532 OA
HETATM   38  O9  UNL     1      51.122  24.936  22.480  1.00  0.00    -0.532 OA
ENDBRANCH  33  36
ENDBRANCH  28  31
ENDBRANCH  26  28
ENDBRANCH  22  24
ENDBRANCH  20  22
ENDBRANCH  16  20
BRANCH  17  39
HETATM   39  O4  UNL     1      56.467  19.559  14.146  1.00  0.00    -0.358 OA
ATOM     40  H4  UNL     1      57.283  19.462  13.670  1.00  0.00     0.217 HD
ENDBRANCH  17  39
ENDBRANCH  11  12
ENDBRANCH  10  11
ENDBRANCH   7  10
ENDBRANCH   1   6
BRANCH   1  41
HETATM   41  C12 UNL     1      51.111  17.403  17.392  1.00  0.00     0.445 C 
BRANCH  41  42
HETATM   42  N5  UNL     1      49.923  17.675  16.567  1.00  0.00    -0.043 N 
ATOM     43  H53 UNL     1      50.024  18.521  16.006  1.00  0.00     0.277 HD
ATOM     44  H52 UNL     1      49.820  17.009  15.801  1.00  0.00     0.277 HD
ATOM     45  H51 UNL     1      49.103  17.703  17.172  1.00  0.00     0.277 HD
ENDBRANCH  41  42
BRANCH  41  46
HETATM   46  N6  UNL     1      50.747  17.637  18.802  1.00  0.00    -0.043 N 
ATOM     47  H63 UNL     1      51.447  17.250  19.435  1.00  0.00     0.277 HD
ATOM     48  H62 UNL     1      50.833  18.622  19.049  1.00  0.00     0.277 HD
ATOM     49  H61 UNL     1      49.816  17.280  19.016  1.00  0.00     0.277 HD
ENDBRANCH  41  46
ENDBRANCH   1  41
TORSDOF 15
ENDMDL
MODEL 3
REMARK VINA RESULT: -7.424005798      5.660      8.462
REMARK  15 active torsions:
REMARK  status: ('A' for Active; 'I' for Inactive)
REMARK    1  A    between atoms: C2_2  and  N1_3 
REMARK    2  A    between atoms: C2_2  and  C14_35 
REMARK    3  A    between atoms: N1_3  and  C3_5 
REMARK    4  A    between atoms: C5_7  and  O1_8 
REMARK    5  A    between atoms: C7_11  and  C8_12 
REMARK    6  A    between atoms: C8_12  and  O2_13 
REMARK    7  A    between atoms: O2_13  and  C9_14 
REMARK       I    between atoms: C9_14  and  N2_16 
REMARK    8  A    between atoms: N2_16  and  C10_18 
REMARK    9  A    between atoms: C10_18  and  C12_23 
REMARK   10  A    between atoms: C12_23  and  N5_24 
REMARK   11  A    between atoms: C12_23  and  N6_28 
REMARK   12  A    between atoms: C13_32  and  O4_33 
REMARK       I    between atoms: C14_35  and  N7_37 
REMARK   13  A    between atoms: N7_37  and  S1_39 
REMARK   14  A    between atoms: S1_39  and  C15_42 
REMARK   15  A    between atoms: C17_44  and  N8_45 
ROOT
HETATM    1  C10 UNL     1      47.283  15.646  23.304  1.00  0.00     0.153 C 
HETATM    2  N3  UNL     1      47.661  14.458  23.708  1.00  0.00    -0.279 N 
ATOM      3  H3  UNL     1      47.494  14.199  24.680  1.00  0.00     0.179 HD
HETATM    4  C11 UNL     1      48.281  13.534  22.871  1.00  0.00     0.183 C 
HETATM    5  N4  UNL     1      48.792  12.748  22.184  1.00  0.00    -0.172 NA
ENDROOT
BRANCH   1   6
HETATM    6  N2  UNL     1      47.517  15.990  21.970  1.00  0.00    -0.288 N 
HETATM    7  C9  UNL     1      48.606  16.744  21.528  1.00  0.00     0.366 C 
HETATM    8  O3  UNL     1      49.488  17.193  22.279  1.00  0.00    -0.238 OA
ATOM      9  H2  UNL     1      46.848  15.668  21.271  1.00  0.00     0.172 HD
BRANCH   7  10
HETATM   10  O2  UNL     1      48.725  17.018  20.149  1.00  0.00    -0.299 OA
BRANCH  10  11
HETATM   11  C8  UNL     1      49.563  16.257  19.347  1.00  0.00     0.222 C 
BRANCH  11  12
HETATM   12  C7  UNL     1      50.501  17.080  18.547  1.00  0.00     0.004 A 
HETATM   13  C6  UNL     1      50.437  17.228  17.182  1.00  0.00     0.048 A 
HETATM   14  C5  UNL     1      51.386  17.984  16.493  1.00  0.00     0.068 A 
HETATM   15  C4  UNL     1      52.425  18.610  17.165  1.00  0.00     0.068 A 
HETATM   16  C3  UNL     1      52.521  18.482  18.529  1.00  0.00     0.065 A 
HETATM   17  C13 UNL     1      51.562  17.724  19.198  1.00  0.00     0.100 A 
BRANCH  14  18
HETATM   18  O1  UNL     1      51.274  18.100  15.130  1.00  0.00    -0.361 OA
ATOM     19  H1  UNL     1      51.952  17.754  14.563  1.00  0.00     0.217 HD
ENDBRANCH  14  18
BRANCH  16  20
HETATM   20  N1  UNL     1      53.542  19.117  19.291  1.00  0.00    -0.375 N 
ATOM     21  H1  UNL     1      53.746  18.797  20.237  1.00  0.00     0.160 HD
BRANCH  20  22
HETATM   22  C2  UNL     1      54.283  20.205  18.729  1.00  0.00     0.171 C 
HETATM   23  C1  UNL     1      55.735  19.900  18.525  1.00  0.00     0.042 C 
BRANCH  22  24
HETATM   24  C14 UNL     1      54.146  21.460  19.526  1.00  0.00     0.253 C 
HETATM   25  O5  UNL     1      53.592  22.495  19.092  1.00  0.00    -0.270 OA
HETATM   26  N7  UNL     1      54.670  21.495  20.855  1.00  0.00    -0.248 N 
ATOM     27  H7  UNL     1      55.122  20.655  21.217  1.00  0.00     0.182 HD
BRANCH  26  28
HETATM   28  S1  UNL     1      54.579  22.874  21.877  1.00  0.00     0.271 S 
HETATM   29  O6  UNL     1      53.535  22.686  22.953  1.00  0.00    -0.200 OA
HETATM   30  O7  UNL     1      54.243  24.082  21.056  1.00  0.00    -0.200 OA
BRANCH  28  31
HETATM   31  C15 UNL     1      56.181  23.078  22.611  1.00  0.00     0.122 A 
HETATM   32  C16 UNL     1      56.486  23.756  23.759  1.00  0.00     0.069 A 
HETATM   33  C17 UNL     1      57.773  23.784  24.138  1.00  0.00     0.111 A 
HETATM   34  C18 UNL     1      58.670  23.127  23.336  1.00  0.00     0.087 A 
HETATM   35  S2  UNL     1      57.693  22.498  22.090  1.00  0.00    -0.086 SA
BRANCH  33  36
HETATM   36  N8  UNL     1      58.240  24.465  25.333  1.00  0.00    -0.115 N 
HETATM   37  O8  UNL     1      59.332  25.063  25.358  1.00  0.00    -0.532 OA
HETATM   38  O9  UNL     1      57.509  24.484  26.487  1.00  0.00    -0.532 OA
ENDBRANCH  33  36
ENDBRANCH  28  31
ENDBRANCH  26  28
ENDBRANCH  22  24
ENDBRANCH  20  22
ENDBRANCH  16  20
BRANCH  17  39
HETATM   39  O4  UNL     1      51.690  17.619  20.556  1.00  0.00    -0.358 OA
ATOM     40  H4  UNL     1      52.281  16.951  20.883  1.00  0.00     0.217 HD
ENDBRANCH  17  39
ENDBRANCH  11  12
ENDBRANCH  10  11
ENDBRANCH   7  10
ENDBRANCH   1   6
BRANCH   1  41
HETATM   41  C12 UNL     1      46.623  16.503  24.295  1.00  0.00     0.445 C 
BRANCH  41  42
HETATM   42  N5  UNL     1      47.609  17.458  24.827  1.00  0.00    -0.043 N 
ATOM     43  H53 UNL     1      48.228  17.823  24.103  1.00  0.00     0.277 HD
ATOM     44  H52 UNL     1      47.183  18.342  25.107  1.00  0.00     0.277 HD
ATOM     45  H51 UNL     1      48.119  17.013  25.589  1.00  0.00     0.277 HD
ENDBRANCH  41  42
BRANCH  41  46
HETATM   46  N6  UNL     1      46.092  15.722  25.428  1.00  0.00    -0.043 N 
ATOM     47  H63 UNL     1      45.082  15.602  25.355  1.00  0.00     0.277 HD
ATOM     48  H62 UNL     1      46.374  14.744  25.368  1.00  0.00     0.277 HD
ATOM     49  H61 UNL     1      46.354  16.130  26.325  1.00  0.00     0.277 HD
ENDBRANCH  41  46
ENDBRANCH   1  41
TORSDOF 15
ENDMDL
MODEL 4
REMARK VINA RESULT: -7.330473443      3.560      4.511
REMARK  15 active torsions:
REMARK  status: ('A' for Active; 'I' for Inactive)
REMARK    1  A    between atoms: C2_2  and  N1_3 
REMARK    2  A    between atoms: C2_2  and  C14_35 
REMARK    3  A    between atoms: N1_3  and  C3_5 
REMARK    4  A    between atoms: C5_7  and  O1_8 
REMARK    5  A    between atoms: C7_11  and  C8_12 
REMARK    6  A    between atoms: C8_12  and  O2_13 
REMARK    7  A    between atoms: O2_13  and  C9_14 
REMARK       I    between atoms: C9_14  and  N2_16 
REMARK    8  A    between atoms: N2_16  and  C10_18 
REMARK    9  A    between atoms: C10_18  and  C12_23 
REMARK   10  A    between atoms: C12_23  and  N5_24 
REMARK   11  A    between atoms: C12_23  and  N6_28 
REMARK   12  A    between atoms: C13_32  and  O4_33 
REMARK       I    between atoms: C14_35  and  N7_37 
REMARK   13  A    between atoms: N7_37  and  S1_39 
REMARK   14  A    between atoms: S1_39  and  C15_42 
REMARK   15  A    between atoms: C17_44  and  N8_45 
ROOT
HETATM    1  C10 UNL     1      52.453  24.892  20.189  1.00  0.00     0.153 C 
HETATM    2  N3  UNL     1      52.883  25.530  19.127  1.00  0.00    -0.279 N 
ATOM      3  H3  UNL     1      52.575  26.491  18.979  1.00  0.00     0.179 HD
HETATM    4  C11 UNL     1      53.741  24.956  18.192  1.00  0.00     0.183 C 
HETATM    5  N4  UNL     1      54.463  24.495  17.408  1.00  0.00    -0.172 NA
ENDROOT
BRANCH   1   6
HETATM    6  N2  UNL     1      52.882  23.577  20.380  1.00  0.00    -0.288 N 
HETATM    7  C9  UNL     1      54.112  23.220  20.938  1.00  0.00     0.366 C 
HETATM    8  O3  UNL     1      54.960  24.041  21.325  1.00  0.00    -0.238 OA
ATOM      9  H2  UNL     1      52.255  22.826  20.094  1.00  0.00     0.172 HD
BRANCH   7  10
HETATM   10  O2  UNL     1      54.420  21.850  21.077  1.00  0.00    -0.299 OA
BRANCH  10  11
HETATM   11  C8  UNL     1      55.489  21.293  20.392  1.00  0.00     0.222 C 
BRANCH  11  12
HETATM   12  C7  UNL     1      55.073  20.547  19.180  1.00  0.00     0.004 A 
HETATM   13  C6  UNL     1      54.240  19.454  19.186  1.00  0.00     0.048 A 
HETATM   14  C5  UNL     1      53.932  18.776  18.007  1.00  0.00     0.068 A 
HETATM   15  C4  UNL     1      54.455  19.185  16.790  1.00  0.00     0.068 A 
HETATM   16  C3  UNL     1      55.292  20.273  16.747  1.00  0.00     0.065 A 
HETATM   17  C13 UNL     1      55.588  20.937  17.935  1.00  0.00     0.100 A 
BRANCH  14  18
HETATM   18  O1  UNL     1      53.094  17.691  18.070  1.00  0.00    -0.361 OA
ATOM     19  H1  UNL     1      53.445  16.811  18.011  1.00  0.00     0.217 HD
ENDBRANCH  14  18
BRANCH  16  20
HETATM   20  N1  UNL     1      55.847  20.769  15.533  1.00  0.00    -0.375 N 
ATOM     21  H1  UNL     1      56.822  21.067  15.502  1.00  0.00     0.160 HD
BRANCH  20  22
HETATM   22  C2  UNL     1      55.037  20.849  14.355  1.00  0.00     0.171 C 
HETATM   23  C1  UNL     1      55.604  20.105  13.185  1.00  0.00     0.042 C 
BRANCH  22  24
HETATM   24  C14 UNL     1      54.749  22.259  13.956  1.00  0.00     0.253 C 
HETATM   25  O5  UNL     1      53.592  22.701  13.776  1.00  0.00    -0.270 OA
HETATM   26  N7  UNL     1      55.842  23.160  13.767  1.00  0.00    -0.248 N 
ATOM     27  H7  UNL     1      56.787  22.807  13.912  1.00  0.00     0.182 HD
BRANCH  26  28
HETATM   28  S1  UNL     1      55.649  24.805  13.308  1.00  0.00     0.271 S 
HETATM   29  O6  UNL     1      54.873  25.573  14.350  1.00  0.00    -0.200 OA
HETATM   30  O7  UNL     1      54.931  24.875  11.993  1.00  0.00    -0.200 OA
BRANCH  28  31
HETATM   31  C15 UNL     1      57.278  25.486  13.135  1.00  0.00     0.122 A 
HETATM   32  C16 UNL     1      58.413  25.095  13.791  1.00  0.00     0.069 A 
HETATM   33  C17 UNL     1      59.549  25.750  13.505  1.00  0.00     0.111 A 
HETATM   34  C18 UNL     1      59.469  26.756  12.577  1.00  0.00     0.087 A 
HETATM   35  S2  UNL     1      57.822  26.753  12.138  1.00  0.00    -0.086 SA
BRANCH  33  36
HETATM   36  N8  UNL     1      60.826  25.443  14.124  1.00  0.00    -0.115 N 
HETATM   37  O8  UNL     1      61.054  25.712  15.318  1.00  0.00    -0.532 OA
HETATM   38  O9  UNL     1      61.841  24.845  13.431  1.00  0.00    -0.532 OA
ENDBRANCH  33  36
ENDBRANCH  28  31
ENDBRANCH  26  28
ENDBRANCH  22  24
ENDBRANCH  20  22
ENDBRANCH  16  20
BRANCH  17  39
HETATM   39  O4  UNL     1      56.424  22.016  17.854  1.00  0.00    -0.358 OA
ATOM     40  H4  UNL     1      56.426  22.616  18.589  1.00  0.00     0.217 HD
ENDBRANCH  17  39
ENDBRANCH  11  12
ENDBRANCH  10  11
ENDBRANCH   7  10
ENDBRANCH   1   6
BRANCH   1  41
HETATM   41  C12 UNL     1      51.570  25.636  21.094  1.00  0.00     0.445 C 
BRANCH  41  42
HETATM   42  N5  UNL     1      51.426  24.876  22.346  1.00  0.00    -0.043 N 
ATOM     43  H53 UNL     1      50.883  24.021  22.222  1.00  0.00     0.277 HD
ATOM     44  H52 UNL     1      52.301  24.445  22.644  1.00  0.00     0.277 HD
ATOM     45  H51 UNL     1      51.031  25.489  23.059  1.00  0.00     0.277 HD
ENDBRANCH  41  42
BRANCH  41  46
HETATM   46  N6  UNL     1      50.225  25.820  20.518  1.00  0.00    -0.043 N 
ATOM     47  H63 UNL     1      49.498  25.687  21.222  1.00  0.00     0.277 HD
ATOM     48  H62 UNL     1      50.049  26.798  20.289  1.00  0.00     0.277 HD
ATOM     49  H61 UNL     1      50.072  25.216  19.710  1.00  0.00     0.277 HD
ENDBRANCH  41  46
ENDBRANCH   1  41
TORSDOF 15
ENDMDL
MODEL 5
REMARK VINA RESULT: -7.326779999      5.457      8.262
REMARK  15 active torsions:
REMARK  status: ('A' for Active; 'I' for Inactive)
REMARK    1  A    between atoms: C2_2  and  N1_3 
REMARK    2  A    between atoms: C2_2  and  C14_35 
REMARK    3  A    between atoms: N1_3  and  C3_5 
REMARK    4  A    between atoms: C5_7  and  O1_8 
REMARK    5  A    between atoms: C7_11  and  C8_12 
REMARK    6  A    between atoms: C8_12  and  O2_13 
REMARK    7  A    between atoms: O2_13  and  C9_14 
REMARK       I    between atoms: C9_14  and  N2_16 
REMARK    8  A    between atoms: N2_16  and  C10_18 
REMARK    9  A    between atoms: C10_18  and  C12_23 
REMARK   10  A    between atoms: C12_23  and  N5_24 
REMARK   11  A    between atoms: C12_23  and  N6_28 
REMARK   12  A    between atoms: C13_32  and  O4_33 
REMARK       I    between atoms: C14_35  and  N7_37 
REMARK   13  A    between atoms: N7_37  and  S1_39 
REMARK   14  A    between atoms: S1_39  and  C15_42 
REMARK   15  A    between atoms: C17_44  and  N8_45 
ROOT
HETATM    1  C10 UNL     1      48.232  15.281  24.249  1.00  0.00     0.153 C 
HETATM    2  N3  UNL     1      47.454  15.834  25.148  1.00  0.00    -0.279 N 
ATOM      3  H3  UNL     1      46.991  15.231  25.827  1.00  0.00     0.179 HD
HETATM    4  C11 UNL     1      47.231  17.207  25.217  1.00  0.00     0.183 C 
HETATM    5  N4  UNL     1      47.041  18.351  25.294  1.00  0.00    -0.172 NA
ENDROOT
BRANCH   1   6
HETATM    6  N2  UNL     1      48.862  16.118  23.324  1.00  0.00    -0.288 N 
HETATM    7  C9  UNL     1      48.226  16.702  22.227  1.00  0.00     0.366 C 
HETATM    8  O3  UNL     1      47.025  16.538  21.955  1.00  0.00    -0.238 OA
ATOM      9  H2  UNL     1      49.853  16.316  23.460  1.00  0.00     0.172 HD
BRANCH   7  10
HETATM   10  O2  UNL     1      48.981  17.532  21.370  1.00  0.00    -0.299 OA
BRANCH  10  11
HETATM   11  C8  UNL     1      50.322  17.270  21.134  1.00  0.00     0.222 C 
BRANCH  11  12
HETATM   12  C7  UNL     1      50.713  17.489  19.720  1.00  0.00     0.004 A 
HETATM   13  C6  UNL     1      49.873  17.325  18.645  1.00  0.00     0.048 A 
HETATM   14  C5  UNL     1      50.329  17.506  17.339  1.00  0.00     0.068 A 
HETATM   15  C4  UNL     1      51.645  17.858  17.085  1.00  0.00     0.068 A 
HETATM   16  C3  UNL     1      52.513  18.029  18.135  1.00  0.00     0.065 A 
HETATM   17  C13 UNL     1      52.038  17.845  19.432  1.00  0.00     0.100 A 
BRANCH  14  18
HETATM   18  O1  UNL     1      49.447  17.330  16.303  1.00  0.00    -0.361 OA
ATOM     19  H1  UNL     1      48.994  16.502  16.194  1.00  0.00     0.217 HD
ENDBRANCH  14  18
BRANCH  16  20
HETATM   20  N1  UNL     1      53.871  18.417  17.955  1.00  0.00    -0.375 N 
ATOM     21  H1  UNL     1      54.618  17.735  18.087  1.00  0.00     0.160 HD
BRANCH  20  22
HETATM   22  C2  UNL     1      54.190  19.764  17.590  1.00  0.00     0.171 C 
HETATM   23  C1  UNL     1      55.260  19.865  16.547  1.00  0.00     0.042 C 
BRANCH  22  24
HETATM   24  C14 UNL     1      54.562  20.601  18.768  1.00  0.00     0.253 C 
HETATM   25  O5  UNL     1      54.337  20.263  19.952  1.00  0.00    -0.270 OA
HETATM   26  N7  UNL     1      55.210  21.855  18.548  1.00  0.00    -0.248 N 
ATOM     27  H7  UNL     1      55.397  22.138  17.586  1.00  0.00     0.182 HD
BRANCH  26  28
HETATM   28  S1  UNL     1      55.690  22.914  19.814  1.00  0.00     0.271 S 
HETATM   29  O6  UNL     1      56.727  23.901  19.334  1.00  0.00    -0.200 OA
HETATM   30  O7  UNL     1      56.248  22.110  20.951  1.00  0.00    -0.200 OA
BRANCH  28  31
HETATM   31  C15 UNL     1      54.232  23.771  20.350  1.00  0.00     0.122 A 
HETATM   32  C16 UNL     1      53.584  23.636  21.547  1.00  0.00     0.069 A 
HETATM   33  C17 UNL     1      52.492  24.390  21.748  1.00  0.00     0.111 A 
HETATM   34  C18 UNL     1      52.123  25.231  20.730  1.00  0.00     0.087 A 
HETATM   35  S2  UNL     1      53.305  24.944  19.537  1.00  0.00    -0.086 SA
BRANCH  33  36
HETATM   36  N8  UNL     1      51.706  24.350  22.969  1.00  0.00    -0.115 N 
HETATM   37  O8  UNL     1      51.677  23.338  23.693  1.00  0.00    -0.532 OA
HETATM   38  O9  UNL     1      50.961  25.417  23.384  1.00  0.00    -0.532 OA
ENDBRANCH  33  36
ENDBRANCH  28  31
ENDBRANCH  26  28
ENDBRANCH  22  24
ENDBRANCH  20  22
ENDBRANCH  16  20
BRANCH  17  39
HETATM   39  O4  UNL     1      52.931  18.023  20.452  1.00  0.00    -0.358 OA
ATOM     40  H4  UNL     1      53.465  17.276  20.694  1.00  0.00     0.217 HD
ENDBRANCH  17  39
ENDBRANCH  11  12
ENDBRANCH  10  11
ENDBRANCH   7  10
ENDBRANCH   1   6
BRANCH   1  41
HETATM   41  C12 UNL     1      48.386  13.824  24.315  1.00  0.00     0.445 C 
BRANCH  41  42
HETATM   42  N5  UNL     1      49.493  13.504  25.230  1.00  0.00    -0.043 N 
ATOM     43  H53 UNL     1      49.966  14.340  25.576  1.00  0.00     0.277 HD
ATOM     44  H52 UNL     1      49.166  13.145  26.127  1.00  0.00     0.277 HD
ATOM     45  H51 UNL     1      50.131  12.861  24.762  1.00  0.00     0.277 HD
ENDBRANCH  41  42
BRANCH  41  46
HETATM   46  N6  UNL     1      48.707  13.247  22.996  1.00  0.00    -0.043 N 
ATOM     47  H63 UNL     1      48.256  13.767  22.243  1.00  0.00     0.277 HD
ATOM     48  H62 UNL     1      49.681  13.415  22.745  1.00  0.00     0.277 HD
ATOM     49  H61 UNL     1      48.478  12.255  22.951  1.00  0.00     0.277 HD
ENDBRANCH  41  46
ENDBRANCH   1  41
TORSDOF 15
ENDMDL
