MODEL 1
REMARK VINA RESULT: -6.994801722      0.000      0.000
REMARK  3 active torsions:
REMARK  status: ('A' for Active; 'I' for Inactive)
REMARK    1  A    between atoms: C1_2  and  C2_3 
REMARK       I    between atoms: C1_2  and  N1_12 
REMARK    2  A    between atoms: C2_3  and  C3_4 
REMARK    3  A    between atoms: N1_12  and  C9_14 
ROOT
HETATM    1  O1  UNL     1      25.596  12.209  11.371  1.00  0.00    -0.273 OA
HETATM    2  C1  UNL     1      26.209  12.433  10.299  1.00  0.00     0.223 C 
HETATM    3  N1  UNL     1      27.425  11.768  10.083  1.00  0.00    -0.312 N 
ATOM      4  H1  UNL     1      27.408  10.921   9.515  1.00  0.00     0.170 HD
ENDROOT
BRANCH   2   5
HETATM    5  C2  UNL     1      25.638  13.365   9.326  1.00  0.00     0.113 C 
BRANCH   5   6
HETATM    6  C3  UNL     1      25.176  14.659   9.931  1.00  0.00     0.067 C 
HETATM    7  C4  UNL     1      26.395  15.501  10.222  1.00  0.00     0.011 C 
HETATM    8  C5  UNL     1      26.027  16.943  10.491  1.00  0.00     0.001 C 
HETATM    9  C6  UNL     1      24.520  17.092  10.671  1.00  0.00     0.006 C 
HETATM   10  C7  UNL     1      23.921  16.738   9.319  1.00  0.00     0.079 C 
HETATM   11  C8  UNL     1      24.247  15.321   8.944  1.00  0.00     0.247 C 
HETATM   12  F1  UNL     1      24.803  15.307   7.680  1.00  0.00    -0.206 F 
HETATM   13  F2  UNL     1      23.074  14.584   8.866  1.00  0.00    -0.206 F 
ENDBRANCH   5   6
ENDBRANCH   2   5
BRANCH   3  14
HETATM   14  C9  UNL     1      28.551  12.148  10.547  1.00  0.00     0.123 A 
HETATM   15  C10 UNL     1      28.643  13.009  11.623  1.00  0.00     0.068 A 
HETATM   16  C11 UNL     1      29.966  13.209  11.860  1.00  0.00     0.111 A 
HETATM   17  N2  UNL     1      30.661  12.493  10.959  1.00  0.00    -0.310 N 
HETATM   18  N3  UNL     1      29.799  11.857  10.171  1.00  0.00    -0.286 N 
ATOM     19  H2  UNL     1      31.677  12.445  10.891  1.00  0.00     0.186 HD
ATOM     20  H3  UNL     1      30.052  11.241   9.398  1.00  0.00     0.188 HD
ENDBRANCH   3  14
TORSDOF 3
ENDMDL
MODEL 2
REMARK VINA RESULT: -6.559962968      1.134      1.395
REMARK  3 active torsions:
REMARK  status: ('A' for Active; 'I' for Inactive)
REMARK    1  A    between atoms: C1_2  and  C2_3 
REMARK       I    between atoms: C1_2  and  N1_12 
REMARK    2  A    between atoms: C2_3  and  C3_4 
REMARK    3  A    between atoms: N1_12  and  C9_14 
ROOT
HETATM    1  O1  UNL     1      25.434  11.975  11.236  1.00  0.00    -0.273 OA
HETATM    2  C1  UNL     1      26.008  12.587  10.303  1.00  0.00     0.223 C 
HETATM    3  N1  UNL     1      27.254  12.110   9.869  1.00  0.00    -0.312 N 
ATOM      4  H1  UNL     1      27.271  11.508   9.047  1.00  0.00     0.170 HD
ENDROOT
BRANCH   2   5
HETATM    5  C2  UNL     1      25.363  13.758   9.708  1.00  0.00     0.113 C 
BRANCH   5   6
HETATM    6  C3  UNL     1      25.253  14.926  10.644  1.00  0.00     0.067 C 
HETATM    7  C4  UNL     1      25.800  16.144   9.940  1.00  0.00     0.011 C 
HETATM    8  C5  UNL     1      25.409  17.422  10.648  1.00  0.00     0.001 C 
HETATM    9  C6  UNL     1      24.814  17.120  12.019  1.00  0.00     0.006 C 
HETATM   10  C7  UNL     1      23.523  16.370  11.737  1.00  0.00     0.079 C 
HETATM   11  C8  UNL     1      23.798  15.084  11.012  1.00  0.00     0.247 C 
HETATM   12  F1  UNL     1      23.010  15.028   9.880  1.00  0.00    -0.206 F 
HETATM   13  F2  UNL     1      23.417  14.015  11.810  1.00  0.00    -0.206 F 
ENDBRANCH   5   6
ENDBRANCH   2   5
BRANCH   3  14
HETATM   14  C9  UNL     1      28.368  12.377  10.431  1.00  0.00     0.123 A 
HETATM   15  C10 UNL     1      28.479  13.353  11.403  1.00  0.00     0.068 A 
HETATM   16  C11 UNL     1      29.781  13.383  11.788  1.00  0.00     0.111 A 
HETATM   17  N2  UNL     1      30.446  12.456  11.076  1.00  0.00    -0.310 N 
HETATM   18  N3  UNL     1      29.584  11.855  10.260  1.00  0.00    -0.286 N 
ATOM     19  H2  UNL     1      31.442  12.249  11.149  1.00  0.00     0.186 HD
ATOM     20  H3  UNL     1      29.818  11.110   9.604  1.00  0.00     0.188 HD
ENDBRANCH   3  14
TORSDOF 3
ENDMDL
MODEL 3
REMARK VINA RESULT: -6.526782412      3.994      5.582
REMARK  3 active torsions:
REMARK  status: ('A' for Active; 'I' for Inactive)
REMARK    1  A    between atoms: C1_2  and  C2_3 
REMARK       I    between atoms: C1_2  and  N1_12 
REMARK    2  A    between atoms: C2_3  and  C3_4 
REMARK    3  A    between atoms: N1_12  and  C9_14 
ROOT
HETATM    1  O1  UNL     1      24.884  12.844  13.230  1.00  0.00    -0.273 OA
HETATM    2  C1  UNL     1      24.628  14.069  13.140  1.00  0.00     0.223 C 
HETATM    3  N1  UNL     1      23.712  14.620  14.048  1.00  0.00    -0.312 N 
ATOM      4  H1  UNL     1      24.087  15.093  14.870  1.00  0.00     0.170 HD
ENDROOT
BRANCH   2   5
HETATM    5  C2  UNL     1      25.288  14.866  12.105  1.00  0.00     0.113 C 
BRANCH   5   6
HETATM    6  C3  UNL     1      24.502  14.968  10.830  1.00  0.00     0.067 C 
HETATM    7  C4  UNL     1      24.285  16.431  10.530  1.00  0.00     0.011 C 
HETATM    8  C5  UNL     1      23.827  16.648   9.105  1.00  0.00     0.001 C 
HETATM    9  C6  UNL     1      23.443  15.323   8.453  1.00  0.00     0.006 C 
HETATM   10  C7  UNL     1      24.737  14.529   8.376  1.00  0.00     0.079 C 
HETATM   11  C8  UNL     1      25.292  14.274   9.748  1.00  0.00     0.247 C 
HETATM   12  F1  UNL     1      26.611  14.682   9.782  1.00  0.00    -0.206 F 
HETATM   13  F2  UNL     1      25.295  12.909   9.997  1.00  0.00    -0.206 F 
ENDBRANCH   5   6
ENDBRANCH   2   5
BRANCH   3  14
HETATM   14  C9  UNL     1      22.444  14.573  13.918  1.00  0.00     0.123 A 
HETATM   15  C10 UNL     1      21.746  15.536  13.216  1.00  0.00     0.068 A 
HETATM   16  C11 UNL     1      20.433  15.193  13.268  1.00  0.00     0.111 A 
HETATM   17  N2  UNL     1      20.330  14.056  13.980  1.00  0.00    -0.310 N 
HETATM   18  N3  UNL     1      21.549  13.690  14.367  1.00  0.00    -0.286 N 
ATOM     19  H2  UNL     1      19.464  13.558  14.187  1.00  0.00     0.186 HD
ATOM     20  H3  UNL     1      21.765  12.863  14.922  1.00  0.00     0.188 HD
ENDBRANCH   3  14
TORSDOF 3
ENDMDL
MODEL 4
REMARK VINA RESULT: -6.295520853      0.994      1.137
REMARK  3 active torsions:
REMARK  status: ('A' for Active; 'I' for Inactive)
REMARK    1  A    between atoms: C1_2  and  C2_3 
REMARK       I    between atoms: C1_2  and  N1_12 
REMARK    2  A    between atoms: C2_3  and  C3_4 
REMARK    3  A    between atoms: N1_12  and  C9_14 
ROOT
HETATM    1  O1  UNL     1      25.781  11.922  10.973  1.00  0.00    -0.273 OA
HETATM    2  C1  UNL     1      26.515  12.491  10.129  1.00  0.00     0.223 C 
HETATM    3  N1  UNL     1      27.767  11.923   9.854  1.00  0.00    -0.312 N 
ATOM      4  H1  UNL     1      27.845  11.323   9.033  1.00  0.00     0.170 HD
ENDROOT
BRANCH   2   5
HETATM    5  C2  UNL     1      26.041  13.709   9.471  1.00  0.00     0.113 C 
BRANCH   5   6
HETATM    6  C3  UNL     1      24.760  14.244  10.043  1.00  0.00     0.067 C 
HETATM    7  C4  UNL     1      25.100  15.081  11.252  1.00  0.00     0.011 C 
HETATM    8  C5  UNL     1      23.935  15.945  11.679  1.00  0.00     0.001 C 
HETATM    9  C6  UNL     1      22.660  15.532  10.952  1.00  0.00     0.006 C 
HETATM   10  C7  UNL     1      22.917  15.846   9.488  1.00  0.00     0.079 C 
HETATM   11  C8  UNL     1      24.077  15.049   8.965  1.00  0.00     0.247 C 
HETATM   12  F1  UNL     1      24.978  15.906   8.365  1.00  0.00    -0.206 F 
HETATM   13  F2  UNL     1      23.633  14.187   7.972  1.00  0.00    -0.206 F 
ENDBRANCH   5   6
ENDBRANCH   2   5
BRANCH   3  14
HETATM   14  C9  UNL     1      28.816  12.104  10.558  1.00  0.00     0.123 A 
HETATM   15  C10 UNL     1      28.769  12.728  11.789  1.00  0.00     0.068 A 
HETATM   16  C11 UNL     1      30.040  12.759  12.268  1.00  0.00     0.111 A 
HETATM   17  N2  UNL     1      30.839  12.173  11.359  1.00  0.00    -0.310 N 
HETATM   18  N3  UNL     1      30.091  11.781  10.331  1.00  0.00    -0.286 N 
ATOM     19  H2  UNL     1      31.848  12.049  11.443  1.00  0.00     0.186 HD
ATOM     20  H3  UNL     1      30.439  11.307   9.497  1.00  0.00     0.188 HD
ENDBRANCH   3  14
TORSDOF 3
ENDMDL
MODEL 5
REMARK VINA RESULT: -6.249845516      1.426      1.829
REMARK  3 active torsions:
REMARK  status: ('A' for Active; 'I' for Inactive)
REMARK    1  A    between atoms: C1_2  and  C2_3 
REMARK       I    between atoms: C1_2  and  N1_12 
REMARK    2  A    between atoms: C2_3  and  C3_4 
REMARK    3  A    between atoms: N1_12  and  C9_14 
ROOT
HETATM    1  O1  UNL     1      25.970  11.852  10.583  1.00  0.00    -0.273 OA
HETATM    2  C1  UNL     1      26.883  12.690  10.386  1.00  0.00     0.223 C 
HETATM    3  N1  UNL     1      28.172  12.209  10.112  1.00  0.00    -0.312 N 
ATOM      4  H1  UNL     1      28.459  12.153   9.135  1.00  0.00     0.170 HD
ENDROOT
BRANCH   2   5
HETATM    5  C2  UNL     1      26.572  14.118  10.446  1.00  0.00     0.113 C 
BRANCH   5   6
HETATM    6  C3  UNL     1      25.151  14.442  10.084  1.00  0.00     0.067 C 
HETATM    7  C4  UNL     1      24.394  14.712  11.361  1.00  0.00     0.011 C 
HETATM    8  C5  UNL     1      23.069  15.390  11.091  1.00  0.00     0.001 C 
HETATM    9  C6  UNL     1      22.739  15.361   9.603  1.00  0.00     0.006 C 
HETATM   10  C7  UNL     1      23.806  16.219   8.942  1.00  0.00     0.079 C 
HETATM   11  C8  UNL     1      25.174  15.641   9.168  1.00  0.00     0.247 C 
HETATM   12  F1  UNL     1      25.997  16.622   9.683  1.00  0.00    -0.206 F 
HETATM   13  F2  UNL     1      25.722  15.267   7.949  1.00  0.00    -0.206 F 
ENDBRANCH   5   6
ENDBRANCH   2   5
BRANCH   3  14
HETATM   14  C9  UNL     1      29.010  11.835  10.998  1.00  0.00     0.123 A 
HETATM   15  C10 UNL     1      29.107  12.468  12.222  1.00  0.00     0.068 A 
HETATM   16  C11 UNL     1      30.083  11.833  12.922  1.00  0.00     0.111 A 
HETATM   17  N2  UNL     1      30.568  10.843  12.151  1.00  0.00    -0.310 N 
HETATM   18  N3  UNL     1      29.914  10.853  10.993  1.00  0.00    -0.286 N 
ATOM     19  H2  UNL     1      31.311  10.195  12.411  1.00  0.00     0.186 HD
ATOM     20  H3  UNL     1      30.079  10.210  10.219  1.00  0.00     0.188 HD
ENDBRANCH   3  14
TORSDOF 3
ENDMDL
