MODEL 1
REMARK VINA RESULT: -5.609772764      0.000      0.000
REMARK  3 active torsions:
REMARK  status: ('A' for Active; 'I' for Inactive)
REMARK    1  A    between atoms: C1_2  and  C2_3 
REMARK    2  A    between atoms: C2_3  and  N1_5 
REMARK    3  A    between atoms: N1_5  and  C3_7 
ROOT
HETATM    1  C2  UNL     1      24.046  16.268  11.547  1.00  0.00     0.237 C 
HETATM    2 CL1  UNL     1      24.596  17.946  11.899  1.00  0.00    -0.098 Cl
ENDROOT
BRANCH   1   3
HETATM    3  C1  UNL     1      24.506  15.962  10.167  1.00  0.00     0.149 C 
HETATM    4  F1  UNL     1      25.219  17.023   9.642  1.00  0.00    -0.238 F 
HETATM    5  C6  UNL     1      23.426  15.549   9.185  1.00  0.00     0.049 C 
HETATM    6  C7  UNL     1      24.518  14.681   8.540  1.00  0.00     0.020 C 
HETATM    7  C8  UNL     1      25.135  14.647   9.905  1.00  0.00     0.020 A 
HETATM    8  C9  UNL     1      24.907  13.530  10.749  1.00  0.00    -0.017 A 
HETATM    9  C11 UNL     1      26.549  14.442  10.063  1.00  0.00     0.043 A 
HETATM   10  C10 UNL     1      26.175  13.318  10.912  1.00  0.00    -0.029 A 
ENDBRANCH   1   3
BRANCH   1  11
HETATM   11  N1  UNL     1      22.619  16.263  11.704  1.00  0.00    -0.205 N 
ATOM     12  H1  UNL     1      22.049  16.865  11.110  1.00  0.00     0.179 HD
BRANCH  11  13
HETATM   13  C3  UNL     1      22.042  15.512  12.582  1.00  0.00     0.679 A 
HETATM   14  N2  UNL     1      20.729  15.528  12.875  1.00  0.00    -0.201 N 
HETATM   15  C4  UNL     1      20.535  14.603  13.832  1.00  0.00     0.123 A 
ATOM     16  H2  UNL     1      20.018  16.125  12.452  1.00  0.00     0.183 HD
HETATM   17  C5  UNL     1      21.740  14.016  14.128  1.00  0.00     0.123 A 
HETATM   18  N3  UNL     1      22.669  14.590  13.343  1.00  0.00    -0.201 N 
ATOM     19  H3  UNL     1      23.664  14.369  13.325  1.00  0.00     0.183 HD
ENDBRANCH  11  13
ENDBRANCH   1  11
TORSDOF 3
ENDMDL
MODEL 2
REMARK VINA RESULT: -5.548010447      3.794      5.614
REMARK  3 active torsions:
REMARK  status: ('A' for Active; 'I' for Inactive)
REMARK    1  A    between atoms: C1_2  and  C2_3 
REMARK    2  A    between atoms: C2_3  and  N1_5 
REMARK    3  A    between atoms: N1_5  and  C3_7 
ROOT
HETATM    1  C2  UNL     1      26.352  13.851  10.889  1.00  0.00     0.237 C 
HETATM    2 CL1  UNL     1      25.822  12.180  10.478  1.00  0.00    -0.098 Cl
ENDROOT
BRANCH   1   3
HETATM    3  C1  UNL     1      25.553  14.764  10.030  1.00  0.00     0.149 C 
HETATM    4  F1  UNL     1      25.115  14.108   8.894  1.00  0.00    -0.238 F 
HETATM    5  C6  UNL     1      26.230  16.061   9.631  1.00  0.00     0.049 C 
HETATM    6  C7  UNL     1      24.816  16.662   9.656  1.00  0.00     0.020 C 
HETATM    7  C8  UNL     1      24.507  15.598  10.664  1.00  0.00     0.020 A 
HETATM    8  C9  UNL     1      24.540  15.913  12.047  1.00  0.00    -0.017 A 
HETATM    9  C11 UNL     1      23.161  15.122  10.834  1.00  0.00     0.043 A 
HETATM   10  C10 UNL     1      23.329  15.491  12.234  1.00  0.00    -0.029 A 
ENDBRANCH   1   3
BRANCH   1  11
HETATM   11  N1  UNL     1      27.766  13.904  10.644  1.00  0.00    -0.205 N 
ATOM     12  H1  UNL     1      28.150  14.675  10.098  1.00  0.00     0.179 HD
BRANCH  11  13
HETATM   13  C3  UNL     1      28.562  12.997  11.101  1.00  0.00     0.679 A 
HETATM   14  N2  UNL     1      29.262  12.127  10.351  1.00  0.00    -0.201 N 
HETATM   15  C4  UNL     1      29.963  11.357  11.202  1.00  0.00     0.123 A 
ATOM     16  H2  UNL     1      29.261  12.064   9.332  1.00  0.00     0.183 HD
HETATM   17  C5  UNL     1      29.691  11.759  12.487  1.00  0.00     0.123 A 
HETATM   18  N3  UNL     1      28.819  12.780  12.410  1.00  0.00    -0.201 N 
ATOM     19  H3  UNL     1      28.423  13.296  13.195  1.00  0.00     0.183 HD
ENDBRANCH  11  13
ENDBRANCH   1  11
TORSDOF 3
ENDMDL
MODEL 3
REMARK VINA RESULT: -5.512778280      3.704      5.624
REMARK  3 active torsions:
REMARK  status: ('A' for Active; 'I' for Inactive)
REMARK    1  A    between atoms: C1_2  and  C2_3 
REMARK    2  A    between atoms: C2_3  and  N1_5 
REMARK    3  A    between atoms: N1_5  and  C3_7 
ROOT
HETATM    1  C2  UNL     1      26.392  14.177  11.084  1.00  0.00     0.237 C 
HETATM    2 CL1  UNL     1      26.107  13.417  12.691  1.00  0.00    -0.098 Cl
ENDROOT
BRANCH   1   3
HETATM    3  C1  UNL     1      25.048  14.456  10.512  1.00  0.00     0.149 C 
HETATM    4  F1  UNL     1      24.080  13.701  11.149  1.00  0.00    -0.238 F 
HETATM    5  C6  UNL     1      24.916  14.277   9.012  1.00  0.00     0.049 C 
HETATM    6  C7  UNL     1      23.883  15.413   9.093  1.00  0.00     0.020 C 
HETATM    7  C8  UNL     1      24.646  15.865  10.300  1.00  0.00     0.020 A 
HETATM    8  C9  UNL     1      25.605  16.903  10.174  1.00  0.00    -0.017 A 
HETATM    9  C11 UNL     1      23.998  16.628  11.331  1.00  0.00     0.043 A 
HETATM   10  C10 UNL     1      25.044  17.616  11.100  1.00  0.00    -0.029 A 
ENDBRANCH   1   3
BRANCH   1  11
HETATM   11  N1  UNL     1      27.171  13.243  10.321  1.00  0.00    -0.205 N 
ATOM     12  H1  UNL     1      26.805  12.892   9.436  1.00  0.00     0.179 HD
BRANCH  11  13
HETATM   13  C3  UNL     1      28.326  12.839  10.731  1.00  0.00     0.679 A 
HETATM   14  N2  UNL     1      28.802  11.587  10.603  1.00  0.00    -0.201 N 
HETATM   15  C4  UNL     1      30.029  11.580  11.153  1.00  0.00     0.123 A 
ATOM     16  H2  UNL     1      28.324  10.795  10.171  1.00  0.00     0.183 HD
HETATM   17  C5  UNL     1      30.308  12.841  11.623  1.00  0.00     0.123 A 
HETATM   18  N3  UNL     1      29.241  13.613  11.353  1.00  0.00    -0.201 N 
ATOM     19  H3  UNL     1      29.141  14.603  11.577  1.00  0.00     0.183 HD
ENDBRANCH  11  13
ENDBRANCH   1  11
TORSDOF 3
ENDMDL
MODEL 4
REMARK VINA RESULT: -5.399592361      1.857      2.679
REMARK  3 active torsions:
REMARK  status: ('A' for Active; 'I' for Inactive)
REMARK    1  A    between atoms: C1_2  and  C2_3 
REMARK    2  A    between atoms: C2_3  and  N1_5 
REMARK    3  A    between atoms: N1_5  and  C3_7 
ROOT
HETATM    1  C2  UNL     1      24.401  14.100  11.291  1.00  0.00     0.237 C 
HETATM    2 CL1  UNL     1      25.319  13.021  12.404  1.00  0.00    -0.098 Cl
ENDROOT
BRANCH   1   3
HETATM    3  C1  UNL     1      25.358  14.515  10.232  1.00  0.00     0.149 C 
HETATM    4  F1  UNL     1      26.001  13.414   9.696  1.00  0.00    -0.238 F 
HETATM    5  C6  UNL     1      26.390  15.549  10.639  1.00  0.00     0.049 C 
HETATM    6  C7  UNL     1      26.300  16.030   9.181  1.00  0.00     0.020 C 
HETATM    7  C8  UNL     1      24.905  15.484   9.209  1.00  0.00     0.020 A 
HETATM    8  C9  UNL     1      23.816  16.361   9.442  1.00  0.00    -0.017 A 
HETATM    9  C11 UNL     1      24.264  15.057   7.995  1.00  0.00     0.043 A 
HETATM   10  C10 UNL     1      23.211  15.997   8.355  1.00  0.00    -0.029 A 
ENDBRANCH   1   3
BRANCH   1  11
HETATM   11  N1  UNL     1      23.905  15.185  12.090  1.00  0.00    -0.205 N 
ATOM     12  H1  UNL     1      24.493  16.006  12.239  1.00  0.00     0.179 HD
BRANCH  11  13
HETATM   13  C3  UNL     1      22.731  15.145  12.624  1.00  0.00     0.679 A 
HETATM   14  N2  UNL     1      21.705  15.956  12.309  1.00  0.00    -0.201 N 
HETATM   15  C4  UNL     1      20.669  15.589  13.084  1.00  0.00     0.123 A 
ATOM     16  H2  UNL     1      21.712  16.705  11.616  1.00  0.00     0.183 HD
HETATM   17  C5  UNL     1      21.063  14.543  13.881  1.00  0.00     0.123 A 
HETATM   18  N3  UNL     1      22.347  14.276  13.585  1.00  0.00    -0.201 N 
ATOM     19  H3  UNL     1      22.926  13.550  14.008  1.00  0.00     0.183 HD
ENDBRANCH  11  13
ENDBRANCH   1  11
TORSDOF 3
ENDMDL
MODEL 5
REMARK VINA RESULT: -5.361187594      2.902      4.633
REMARK  3 active torsions:
REMARK  status: ('A' for Active; 'I' for Inactive)
REMARK    1  A    between atoms: C1_2  and  C2_3 
REMARK    2  A    between atoms: C2_3  and  N1_5 
REMARK    3  A    between atoms: N1_5  and  C3_7 
ROOT
HETATM    1  C2  UNL     1      24.511  14.393  11.809  1.00  0.00     0.237 C 
HETATM    2 CL1  UNL     1      23.291  13.913  13.044  1.00  0.00    -0.098 Cl
ENDROOT
BRANCH   1   3
HETATM    3  C1  UNL     1      23.842  15.386  10.929  1.00  0.00     0.149 C 
HETATM    4  F1  UNL     1      22.542  15.610  11.343  1.00  0.00    -0.238 F 
HETATM    5  C6  UNL     1      23.848  15.068   9.446  1.00  0.00     0.049 C 
HETATM    6  C7  UNL     1      23.897  16.592   9.246  1.00  0.00     0.020 C 
HETATM    7  C8  UNL     1      24.569  16.629  10.584  1.00  0.00     0.020 A 
HETATM    8  C9  UNL     1      25.983  16.711  10.654  1.00  0.00    -0.017 A 
HETATM    9  C11 UNL     1      24.490  17.804  11.409  1.00  0.00     0.043 A 
HETATM   10  C10 UNL     1      25.947  17.771  11.399  1.00  0.00    -0.029 A 
ENDBRANCH   1   3
BRANCH   1  11
HETATM   11  N1  UNL     1      24.909  13.188  11.136  1.00  0.00    -0.205 N 
ATOM     12  H1  UNL     1      24.192  12.557  10.775  1.00  0.00     0.179 HD
BRANCH  11  13
HETATM   13  C3  UNL     1      26.153  12.885  10.979  1.00  0.00     0.679 A 
HETATM   14  N2  UNL     1      26.644  12.097  10.005  1.00  0.00    -0.201 N 
HETATM   15  C4  UNL     1      27.975  12.035  10.191  1.00  0.00     0.123 A 
ATOM     16  H2  UNL     1      26.110  11.636   9.268  1.00  0.00     0.183 HD
HETATM   17  C5  UNL     1      28.302  12.792  11.289  1.00  0.00     0.123 A 
HETATM   18  N3  UNL     1      27.160  13.316  11.769  1.00  0.00    -0.201 N 
ATOM     19  H3  UNL     1      27.071  13.927  12.581  1.00  0.00     0.183 HD
ENDBRANCH  11  13
ENDBRANCH   1  11
TORSDOF 3
ENDMDL
