MODEL 1
REMARK VINA RESULT: -4.668143750      0.000      0.000
REMARK  1 active torsions:
REMARK  status: ('A' for Active; 'I' for Inactive)
REMARK    1  A    between atoms: N1_1  and  C1_5 
ROOT
HETATM    1  C1  UNL     1      24.150  13.631  10.535  1.00  0.00     0.124 C 
HETATM    2  C2  UNL     1      24.985  14.625  11.280  1.00  0.00     0.039 C 
HETATM    3  C3  UNL     1      24.149  14.885  12.540  1.00  0.00     0.007 C 
HETATM    4  C4  UNL     1      22.995  13.927  12.464  1.00  0.00    -0.012 C 
HETATM    5  C5  UNL     1      22.024  14.415  11.403  1.00  0.00     0.007 C 
HETATM    6  C6  UNL     1      22.862  14.306  10.118  1.00  0.00     0.039 C 
HETATM    7  C7  UNL     1      23.638  12.763  11.698  1.00  0.00     0.043 C 
ENDROOT
BRANCH   1   8
HETATM    8  N1  UNL     1      24.799  12.900   9.527  1.00  0.00    -0.070 N 
ATOM      9  H13 UNL     1      24.465  11.936   9.532  1.00  0.00     0.275 HD
ATOM     10  H12 UNL     1      24.467  13.207   8.613  1.00  0.00     0.275 HD
ATOM     11  H11 UNL     1      25.818  12.912   9.544  1.00  0.00     0.275 HD
ENDBRANCH   1   8
TORSDOF 1
ENDMDL
MODEL 2
REMARK VINA RESULT: -4.458057046      0.843      1.032
REMARK  1 active torsions:
REMARK  status: ('A' for Active; 'I' for Inactive)
REMARK    1  A    between atoms: N1_1  and  C1_5 
ROOT
HETATM    1  C1  UNL     1      24.130  13.549  10.216  1.00  0.00     0.124 C 
HETATM    2  C2  UNL     1      25.162  14.419  10.863  1.00  0.00     0.039 C 
HETATM    3  C3  UNL     1      25.034  14.042  12.345  1.00  0.00     0.007 C 
HETATM    4  C4  UNL     1      24.049  12.909  12.390  1.00  0.00    -0.012 C 
HETATM    5  C5  UNL     1      22.657  13.462  12.141  1.00  0.00     0.007 C 
HETATM    6  C6  UNL     1      22.765  13.986  10.700  1.00  0.00     0.039 C 
HETATM    7  C7  UNL     1      24.304  12.253  11.027  1.00  0.00     0.043 C 
ENDROOT
BRANCH   1   8
HETATM    8  N1  UNL     1      24.246  13.369   8.829  1.00  0.00    -0.070 N 
ATOM      9  H13 UNL     1      23.317  13.338   8.407  1.00  0.00     0.275 HD
ATOM     10  H12 UNL     1      24.616  14.218   8.402  1.00  0.00     0.275 HD
ATOM     11  H11 UNL     1      24.790  12.564   8.520  1.00  0.00     0.275 HD
ENDBRANCH   1   8
TORSDOF 1
ENDMDL
MODEL 3
REMARK VINA RESULT: -4.429223380      0.597      1.943
REMARK  1 active torsions:
REMARK  status: ('A' for Active; 'I' for Inactive)
REMARK    1  A    between atoms: N1_1  and  C1_5 
ROOT
HETATM    1  C1  UNL     1      23.991  13.615  10.465  1.00  0.00     0.124 C 
HETATM    2  C2  UNL     1      22.644  14.043   9.973  1.00  0.00     0.039 C 
HETATM    3  C3  UNL     1      21.981  14.585  11.246  1.00  0.00     0.007 C 
HETATM    4  C4  UNL     1      23.044  14.541  12.306  1.00  0.00    -0.012 C 
HETATM    5  C5  UNL     1      23.261  13.095  12.720  1.00  0.00     0.007 C 
HETATM    6  C6  UNL     1      23.803  12.462  11.428  1.00  0.00     0.039 C 
HETATM    7  C7  UNL     1      24.305  14.749  11.456  1.00  0.00     0.043 C 
ENDROOT
BRANCH   1   8
HETATM    8  N1  UNL     1      24.982  13.426   9.489  1.00  0.00    -0.070 N 
ATOM      9  H13 UNL     1      25.477  14.303   9.327  1.00  0.00     0.275 HD
ATOM     10  H12 UNL     1      25.736  12.855   9.870  1.00  0.00     0.275 HD
ATOM     11  H11 UNL     1      24.673  13.036   8.599  1.00  0.00     0.275 HD
ENDBRANCH   1   8
TORSDOF 1
ENDMDL
MODEL 4
REMARK VINA RESULT: -4.365055561      1.302      2.278
REMARK  1 active torsions:
REMARK  status: ('A' for Active; 'I' for Inactive)
REMARK    1  A    between atoms: N1_1  and  C1_5 
ROOT
HETATM    1  C1  UNL     1      24.612  13.165  11.467  1.00  0.00     0.124 C 
HETATM    2  C2  UNL     1      24.570  12.738  10.033  1.00  0.00     0.039 C 
HETATM    3  C3  UNL     1      23.546  13.707   9.428  1.00  0.00     0.007 C 
HETATM    4  C4  UNL     1      23.204  14.672  10.526  1.00  0.00    -0.012 C 
HETATM    5  C5  UNL     1      22.323  13.964  11.541  1.00  0.00     0.007 C 
HETATM    6  C6  UNL     1      23.263  12.879  12.090  1.00  0.00     0.039 C 
HETATM    7  C7  UNL     1      24.522  14.693  11.311  1.00  0.00     0.043 C 
ENDROOT
BRANCH   1   8
HETATM    8  N1  UNL     1      25.722  12.736  12.213  1.00  0.00    -0.070 N 
ATOM      9  H13 UNL     1      26.401  12.292  11.595  1.00  0.00     0.275 HD
ATOM     10  H12 UNL     1      26.258  13.545  12.527  1.00  0.00     0.275 HD
ATOM     11  H11 UNL     1      25.527  12.124  13.005  1.00  0.00     0.275 HD
ENDBRANCH   1   8
TORSDOF 1
ENDMDL
MODEL 5
REMARK VINA RESULT: -4.353893196      0.628      1.887
REMARK  1 active torsions:
REMARK  status: ('A' for Active; 'I' for Inactive)
REMARK    1  A    between atoms: N1_1  and  C1_5 
ROOT
HETATM    1  C1  UNL     1      24.395  13.458  10.621  1.00  0.00     0.124 C 
HETATM    2  C2  UNL     1      24.259  12.222  11.454  1.00  0.00     0.039 C 
HETATM    3  C3  UNL     1      23.400  12.706  12.629  1.00  0.00     0.007 C 
HETATM    4  C4  UNL     1      23.016  14.119  12.295  1.00  0.00    -0.012 C 
HETATM    5  C5  UNL     1      24.232  15.011  12.477  1.00  0.00     0.007 C 
HETATM    6  C6  UNL     1      25.194  14.476  11.404  1.00  0.00     0.039 C 
HETATM    7  C7  UNL     1      22.983  14.052  10.763  1.00  0.00     0.043 C 
ENDROOT
BRANCH   1   8
HETATM    8  N1  UNL     1      24.800  13.272   9.290  1.00  0.00    -0.070 N 
ATOM      9  H13 UNL     1      24.920  12.276   9.103  1.00  0.00     0.275 HD
ATOM     10  H12 UNL     1      24.026  13.487   8.661  1.00  0.00     0.275 HD
ATOM     11  H11 UNL     1      25.633  13.780   8.994  1.00  0.00     0.275 HD
ENDBRANCH   1   8
TORSDOF 1
ENDMDL
