MODEL 1
REMARK VINA RESULT: -4.565440708      0.000      0.000
REMARK  1 active torsions:
REMARK  status: ('A' for Active; 'I' for Inactive)
REMARK    1  A    between atoms: C4_4  and  N1_5 
ROOT
HETATM    1  C1  UNL     1      24.807  14.202  12.556  1.00  0.00     0.010 C 
HETATM    2  C2  UNL     1      23.815  13.216  12.041  1.00  0.00    -0.013 C 
HETATM    3  C3  UNL     1      24.298  12.762  10.663  1.00  0.00     0.037 C 
HETATM    4  C4  UNL     1      23.856  13.926   9.805  1.00  0.00     0.184 C 
HETATM    5  C5  UNL     1      22.466  14.189  10.275  1.00  0.00     0.037 C 
HETATM    6  C6  UNL     1      22.471  13.779  11.727  1.00  0.00    -0.013 C 
HETATM    7  C7  UNL     1      22.032  14.880  12.644  1.00  0.00     0.010 C 
ENDROOT
BRANCH   4   8
HETATM    8  N1  UNL     1      23.924  13.482   8.424  1.00  0.00    -0.075 N 
ATOM      9  H13 UNL     1      24.746  13.830   7.930  1.00  0.00     0.274 HD
ATOM     10  H12 UNL     1      24.129  12.487   8.332  1.00  0.00     0.274 HD
ATOM     11  H11 UNL     1      23.045  13.753   7.981  1.00  0.00     0.274 HD
ENDBRANCH   4   8
TORSDOF 1
ENDMDL
MODEL 2
REMARK VINA RESULT: -4.453927102      2.130      2.817
REMARK  1 active torsions:
REMARK  status: ('A' for Active; 'I' for Inactive)
REMARK    1  A    between atoms: C4_4  and  N1_5 
ROOT
HETATM    1  C1  UNL     1      24.206  13.359   9.476  1.00  0.00     0.010 C 
HETATM    2  C2  UNL     1      24.167  14.216  10.694  1.00  0.00    -0.013 C 
HETATM    3  C3  UNL     1      24.860  13.444  11.817  1.00  0.00     0.037 C 
HETATM    4  C4  UNL     1      23.761  12.492  12.232  1.00  0.00     0.184 C 
HETATM    5  C5  UNL     1      22.557  13.368  12.298  1.00  0.00     0.037 C 
HETATM    6  C6  UNL     1      22.809  14.439  11.266  1.00  0.00    -0.013 C 
HETATM    7  C7  UNL     1      21.716  14.532  10.245  1.00  0.00     0.010 C 
ENDROOT
BRANCH   4   8
HETATM    8  N1  UNL     1      24.145  11.940  13.520  1.00  0.00    -0.075 N 
ATOM      9  H13 UNL     1      23.858  10.969  13.643  1.00  0.00     0.274 HD
ATOM     10  H12 UNL     1      25.150  11.791  13.609  1.00  0.00     0.274 HD
ATOM     11  H11 UNL     1      23.767  12.564  14.234  1.00  0.00     0.274 HD
ENDBRANCH   4   8
TORSDOF 1
ENDMDL
MODEL 3
REMARK VINA RESULT: -4.439166739      0.884      2.077
REMARK  1 active torsions:
REMARK  status: ('A' for Active; 'I' for Inactive)
REMARK    1  A    between atoms: C4_4  and  N1_5 
ROOT
HETATM    1  C1  UNL     1      22.449  13.252  12.529  1.00  0.00     0.010 C 
HETATM    2  C2  UNL     1      22.863  14.497  11.824  1.00  0.00    -0.013 C 
HETATM    3  C3  UNL     1      22.699  14.249  10.324  1.00  0.00     0.037 C 
HETATM    4  C4  UNL     1      23.949  13.451  10.027  1.00  0.00     0.184 C 
HETATM    5  C5  UNL     1      25.015  14.207  10.744  1.00  0.00     0.037 C 
HETATM    6  C6  UNL     1      24.312  14.828  11.926  1.00  0.00    -0.013 C 
HETATM    7  C7  UNL     1      24.940  14.461  13.236  1.00  0.00     0.010 C 
ENDROOT
BRANCH   4   8
HETATM    8  N1  UNL     1      24.115  13.448   8.584  1.00  0.00    -0.075 N 
ATOM      9  H13 UNL     1      23.389  12.922   8.098  1.00  0.00     0.274 HD
ATOM     10  H12 UNL     1      23.927  14.354   8.157  1.00  0.00     0.274 HD
ATOM     11  H11 UNL     1      25.056  13.102   8.395  1.00  0.00     0.274 HD
ENDBRANCH   4   8
TORSDOF 1
ENDMDL
MODEL 4
REMARK VINA RESULT: -4.309315014      1.774      2.641
REMARK  1 active torsions:
REMARK  status: ('A' for Active; 'I' for Inactive)
REMARK    1  A    between atoms: C4_4  and  N1_5 
ROOT
HETATM    1  C1  UNL     1      22.091  14.734  12.555  1.00  0.00     0.010 C 
HETATM    2  C2  UNL     1      22.618  13.530  11.854  1.00  0.00    -0.013 C 
HETATM    3  C3  UNL     1      23.877  13.084  12.596  1.00  0.00     0.037 C 
HETATM    4  C4  UNL     1      24.893  14.065  12.055  1.00  0.00     0.184 C 
HETATM    5  C5  UNL     1      24.616  14.069  10.590  1.00  0.00     0.037 C 
HETATM    6  C6  UNL     1      23.140  13.778  10.480  1.00  0.00    -0.013 C 
HETATM    7  C7  UNL     1      22.395  14.829   9.715  1.00  0.00     0.010 C 
ENDROOT
BRANCH   4   8
HETATM    8  N1  UNL     1      26.206  13.544  12.393  1.00  0.00    -0.075 N 
ATOM      9  H13 UNL     1      26.630  13.006  11.638  1.00  0.00     0.274 HD
ATOM     10  H12 UNL     1      26.921  14.268  12.454  1.00  0.00     0.274 HD
ATOM     11  H11 UNL     1      26.099  13.010  13.256  1.00  0.00     0.274 HD
ENDBRANCH   4   8
TORSDOF 1
ENDMDL
MODEL 5
REMARK VINA RESULT: -4.255866249      1.477      2.151
REMARK  1 active torsions:
REMARK  status: ('A' for Active; 'I' for Inactive)
REMARK    1  A    between atoms: C4_4  and  N1_5 
ROOT
HETATM    1  C1  UNL     1      25.422  14.505  11.342  1.00  0.00     0.010 C 
HETATM    2  C2  UNL     1      24.547  13.379  10.909  1.00  0.00    -0.013 C 
HETATM    3  C3  UNL     1      23.516  13.951   9.936  1.00  0.00     0.037 C 
HETATM    4  C4  UNL     1      22.533  14.584  10.897  1.00  0.00     0.184 C 
HETATM    5  C5  UNL     1      22.359  13.538  11.944  1.00  0.00     0.037 C 
HETATM    6  C6  UNL     1      23.679  12.808  11.978  1.00  0.00    -0.013 C 
HETATM    7  C7  UNL     1      24.303  12.797  13.340  1.00  0.00     0.010 C 
ENDROOT
BRANCH   4   8
HETATM    8  N1  UNL     1      21.321  14.854  10.144  1.00  0.00    -0.075 N 
ATOM      9  H13 UNL     1      21.498  15.070   9.163  1.00  0.00     0.274 HD
ATOM     10  H12 UNL     1      20.749  14.024   9.993  1.00  0.00     0.274 HD
ATOM     11  H11 UNL     1      20.827  15.599  10.636  1.00  0.00     0.274 HD
ENDBRANCH   4   8
TORSDOF 1
ENDMDL
