MODEL 1
REMARK VINA RESULT: -4.385545210      0.000      0.000
REMARK  1 active torsions:
REMARK  status: ('A' for Active; 'I' for Inactive)
REMARK    1  A    between atoms: C6_6  and  N1_8 
ROOT
HETATM    1  C1  UNL     1      21.959  14.404  11.154  1.00  0.00     0.012 C 
HETATM    2  C2  UNL     1      23.076  13.481  11.533  1.00  0.00     0.017 C 
HETATM    3  C3  UNL     1      23.716  13.990  12.803  1.00  0.00     0.007 C 
HETATM    4  C4  UNL     1      24.606  15.107  12.255  1.00  0.00     0.003 C 
HETATM    5  C5  UNL     1      25.272  14.382  11.084  1.00  0.00     0.038 C 
HETATM    6  C6  UNL     1      24.208  13.437  10.576  1.00  0.00     0.123 C 
HETATM    7  C7  UNL     1      23.835  13.708   9.149  1.00  0.00     0.046 C 
ENDROOT
BRANCH   6   8
HETATM    8  N1  UNL     1      24.792  12.088  10.644  1.00  0.00    -0.070 N 
ATOM      9  H13 UNL     1      25.659  12.002  10.113  1.00  0.00     0.275 HD
ATOM     10  H12 UNL     1      25.177  11.868  11.563  1.00  0.00     0.275 HD
ATOM     11  H11 UNL     1      24.074  11.428  10.345  1.00  0.00     0.275 HD
ENDBRANCH   6   8
TORSDOF 1
ENDMDL
MODEL 2
REMARK VINA RESULT: -4.373029570      1.296      1.485
REMARK  1 active torsions:
REMARK  status: ('A' for Active; 'I' for Inactive)
REMARK    1  A    between atoms: C6_6  and  N1_8 
ROOT
HETATM    1  C1  UNL     1      22.828  12.929  12.664  1.00  0.00     0.012 C 
HETATM    2  C2  UNL     1      23.959  12.631  11.727  1.00  0.00     0.017 C 
HETATM    3  C3  UNL     1      25.249  12.628  12.512  1.00  0.00     0.007 C 
HETATM    4  C4  UNL     1      25.524  14.128  12.629  1.00  0.00     0.003 C 
HETATM    5  C5  UNL     1      25.298  14.565  11.181  1.00  0.00     0.038 C 
HETATM    6  C6  UNL     1      24.197  13.656  10.684  1.00  0.00     0.123 C 
HETATM    7  C7  UNL     1      22.977  14.415  10.257  1.00  0.00     0.046 C 
ENDROOT
BRANCH   6   8
HETATM    8  N1  UNL     1      24.739  12.966   9.503  1.00  0.00    -0.070 N 
ATOM      9  H13 UNL     1      25.351  12.187   9.743  1.00  0.00     0.275 HD
ATOM     10  H12 UNL     1      24.033  12.430   8.997  1.00  0.00     0.275 HD
ATOM     11  H11 UNL     1      25.197  13.668   8.922  1.00  0.00     0.275 HD
ENDBRANCH   6   8
TORSDOF 1
ENDMDL
MODEL 3
REMARK VINA RESULT: -4.111563735      1.448      2.437
REMARK  1 active torsions:
REMARK  status: ('A' for Active; 'I' for Inactive)
REMARK    1  A    between atoms: C6_6  and  N1_8 
ROOT
HETATM    1  C1  UNL     1      22.185  13.682  12.036  1.00  0.00     0.012 C 
HETATM    2  C2  UNL     1      23.304  14.441  11.391  1.00  0.00     0.017 C 
HETATM    3  C3  UNL     1      22.837  14.943  10.046  1.00  0.00     0.007 C 
HETATM    4  C4  UNL     1      22.984  13.680   9.195  1.00  0.00     0.003 C 
HETATM    5  C5  UNL     1      24.389  13.233   9.603  1.00  0.00     0.038 C 
HETATM    6  C6  UNL     1      24.501  13.632  11.056  1.00  0.00     0.123 C 
HETATM    7  C7  UNL     1      24.738  12.457  11.957  1.00  0.00     0.046 C 
ENDROOT
BRANCH   6   8
HETATM    8  N1  UNL     1      25.672  14.518  11.148  1.00  0.00    -0.070 N 
ATOM      9  H13 UNL     1      26.510  14.115  10.727  1.00  0.00     0.275 HD
ATOM     10  H12 UNL     1      25.600  15.336  10.543  1.00  0.00     0.275 HD
ATOM     11  H11 UNL     1      25.797  14.759  12.131  1.00  0.00     0.275 HD
ENDBRANCH   6   8
TORSDOF 1
ENDMDL
MODEL 4
REMARK VINA RESULT: -4.049007335      1.226      2.601
REMARK  1 active torsions:
REMARK  status: ('A' for Active; 'I' for Inactive)
REMARK    1  A    between atoms: C6_6  and  N1_8 
ROOT
HETATM    1  C1  UNL     1      25.344  15.326  11.884  1.00  0.00     0.012 C 
HETATM    2  C2  UNL     1      24.817  14.221  11.020  1.00  0.00     0.017 C 
HETATM    3  C3  UNL     1      23.394  14.545  10.633  1.00  0.00     0.007 C 
HETATM    4  C4  UNL     1      22.645  14.133  11.901  1.00  0.00     0.003 C 
HETATM    5  C5  UNL     1      23.267  12.760  12.157  1.00  0.00     0.038 C 
HETATM    6  C6  UNL     1      24.697  12.904  11.689  1.00  0.00     0.123 C 
HETATM    7  C7  UNL     1      25.686  12.664  12.790  1.00  0.00     0.046 C 
ENDROOT
BRANCH   6   8
HETATM    8  N1  UNL     1      24.898  11.868  10.665  1.00  0.00    -0.070 N 
ATOM      9  H13 UNL     1      25.270  12.239   9.790  1.00  0.00     0.275 HD
ATOM     10  H12 UNL     1      25.672  11.239  10.882  1.00  0.00     0.275 HD
ATOM     11  H11 UNL     1      24.011  11.380  10.544  1.00  0.00     0.275 HD
ENDBRANCH   6   8
TORSDOF 1
ENDMDL
MODEL 5
REMARK VINA RESULT: -4.024549459      1.430      2.300
REMARK  1 active torsions:
REMARK  status: ('A' for Active; 'I' for Inactive)
REMARK    1  A    between atoms: C6_6  and  N1_8 
ROOT
HETATM    1  C1  UNL     1      22.491  12.720  13.082  1.00  0.00     0.012 C 
HETATM    2  C2  UNL     1      23.203  13.929  12.557  1.00  0.00     0.017 C 
HETATM    3  C3  UNL     1      22.175  14.965  12.168  1.00  0.00     0.007 C 
HETATM    4  C4  UNL     1      21.727  14.435  10.805  1.00  0.00     0.003 C 
HETATM    5  C5  UNL     1      23.084  14.157  10.156  1.00  0.00     0.038 C 
HETATM    6  C6  UNL     1      23.964  13.716  11.302  1.00  0.00     0.123 C 
HETATM    7  C7  UNL     1      24.493  12.325  11.116  1.00  0.00     0.046 C 
ENDROOT
BRANCH   6   8
HETATM    8  N1  UNL     1      25.109  14.639  11.318  1.00  0.00    -0.070 N 
ATOM      9  H13 UNL     1      25.527  14.740  12.243  1.00  0.00     0.275 HD
ATOM     10  H12 UNL     1      25.929  14.263  10.842  1.00  0.00     0.275 HD
ATOM     11  H11 UNL     1      24.793  15.525  10.925  1.00  0.00     0.275 HD
ENDBRANCH   6   8
TORSDOF 1
ENDMDL
