MODEL 1
REMARK VINA RESULT: -4.607487199      0.000      0.000
REMARK  3 active torsions:
REMARK  status: ('A' for Active; 'I' for Inactive)
REMARK    1  A    between atoms: C2_2  and  N1_4 
REMARK    2  A    between atoms: C2_2  and  C4_8 
REMARK    3  A    between atoms: C4_8  and  N2_9 
ROOT
HETATM    1  N2  UNL     1     -66.418  38.850 -43.339  1.00  0.00     0.090 N 
HETATM    2  C5  UNL     1     -65.669  39.323 -44.428  1.00  0.00     0.272 C 
HETATM    3  C6  UNL     1     -64.214  38.855 -44.481  1.00  0.00     0.030 C 
HETATM    4  C7  UNL     1     -63.531  38.786 -43.180  1.00  0.00     0.002 C 
HETATM    5  C8  UNL     1     -63.003  37.461 -42.748  1.00  0.00     0.000 C 
HETATM    6  C9  UNL     1     -63.429  36.257 -43.493  1.00  0.00     0.000 C 
HETATM    7  C10 UNL     1     -64.829  35.835 -43.491  1.00  0.00     0.002 C 
HETATM    8  C11 UNL     1     -65.798  36.560 -42.651  1.00  0.00     0.030 C 
HETATM    9  C12 UNL     1     -66.725  37.442 -43.491  1.00  0.00     0.272 C 
ENDROOT
BRANCH   1  10
HETATM   10  C4  UNL     1     -67.599  39.560 -43.089  1.00  0.00     0.309 C 
BRANCH  10  11
HETATM   11  C2  UNL     1     -67.783  40.434 -41.934  1.00  0.00     0.142 C 
HETATM   12  C1  UNL     1     -68.730  41.586 -42.397  1.00  0.00     0.047 C 
HETATM   13  C3  UNL     1     -68.635  39.717 -40.861  1.00  0.00     0.047 C 
BRANCH  11  14
HETATM   14  N1  UNL     1     -66.708  41.054 -41.288  1.00  0.00    -0.069 N 
ATOM     15  H13 UNL     1     -65.950  40.414 -41.053  1.00  0.00     0.275 HD
ATOM     16  H12 UNL     1     -66.168  41.669 -41.896  1.00  0.00     0.275 HD
ATOM     17  H11 UNL     1     -67.104  41.531 -40.477  1.00  0.00     0.275 HD
ENDBRANCH  11  14
ENDBRANCH  10  11
ENDBRANCH   1  10
TORSDOF 3
ENDMDL
MODEL 2
REMARK VINA RESULT: -4.455699381      2.480      4.010
REMARK  3 active torsions:
REMARK  status: ('A' for Active; 'I' for Inactive)
REMARK    1  A    between atoms: C2_2  and  N1_4 
REMARK    2  A    between atoms: C2_2  and  C4_8 
REMARK    3  A    between atoms: C4_8  and  N2_9 
ROOT
HETATM    1  N2  UNL     1     -63.852  37.940 -44.435  1.00  0.00     0.090 N 
HETATM    2  C5  UNL     1     -63.398  36.764 -43.818  1.00  0.00     0.272 C 
HETATM    3  C6  UNL     1     -64.398  35.609 -43.782  1.00  0.00     0.030 C 
HETATM    4  C7  UNL     1     -65.795  35.997 -43.533  1.00  0.00     0.002 C 
HETATM    5  C8  UNL     1     -66.802  35.656 -44.576  1.00  0.00     0.000 C 
HETATM    6  C9  UNL     1     -66.320  35.212 -45.902  1.00  0.00     0.000 C 
HETATM    7  C10 UNL     1     -65.559  36.118 -46.760  1.00  0.00     0.002 C 
HETATM    8  C11 UNL     1     -65.367  37.518 -46.340  1.00  0.00     0.030 C 
HETATM    9  C12 UNL     1     -63.933  37.775 -45.873  1.00  0.00     0.272 C 
ENDROOT
BRANCH   1  10
HETATM   10  C4  UNL     1     -63.101  39.084 -44.139  1.00  0.00     0.309 C 
BRANCH  10  11
HETATM   11  C2  UNL     1     -63.573  40.153 -43.264  1.00  0.00     0.142 C 
HETATM   12  C1  UNL     1     -65.131  40.046 -43.235  1.00  0.00     0.047 C 
HETATM   13  C3  UNL     1     -63.193  39.840 -41.798  1.00  0.00     0.047 C 
BRANCH  11  14
HETATM   14  N1  UNL     1     -63.283  41.500 -43.506  1.00  0.00    -0.069 N 
ATOM     15  H13 UNL     1     -62.471  41.639 -44.108  1.00  0.00     0.275 HD
ATOM     16  H12 UNL     1     -63.964  41.961 -44.109  1.00  0.00     0.275 HD
ATOM     17  H11 UNL     1     -63.190  41.938 -42.589  1.00  0.00     0.275 HD
ENDBRANCH  11  14
ENDBRANCH  10  11
ENDBRANCH   1  10
TORSDOF 3
ENDMDL
MODEL 3
REMARK VINA RESULT: -4.447374187      3.118      5.383
REMARK  3 active torsions:
REMARK  status: ('A' for Active; 'I' for Inactive)
REMARK    1  A    between atoms: C2_2  and  N1_4 
REMARK    2  A    between atoms: C2_2  and  C4_8 
REMARK    3  A    between atoms: C4_8  and  N2_9 
ROOT
HETATM    1  N2  UNL     1     -65.086  36.959 -45.837  1.00  0.00     0.090 N 
HETATM    2  C5  UNL     1     -65.422  35.887 -44.996  1.00  0.00     0.272 C 
HETATM    3  C6  UNL     1     -64.749  35.890 -43.623  1.00  0.00     0.030 C 
HETATM    4  C7  UNL     1     -63.346  36.331 -43.614  1.00  0.00     0.002 C 
HETATM    5  C8  UNL     1     -63.003  37.524 -42.790  1.00  0.00     0.000 C 
HETATM    6  C9  UNL     1     -64.107  38.356 -42.263  1.00  0.00     0.000 C 
HETATM    7  C10 UNL     1     -64.989  39.086 -43.171  1.00  0.00     0.002 C 
HETATM    8  C11 UNL     1     -64.705  39.074 -44.617  1.00  0.00     0.030 C 
HETATM    9  C12 UNL     1     -65.697  38.192 -45.380  1.00  0.00     0.272 C 
ENDROOT
BRANCH   1  10
HETATM   10  C4  UNL     1     -65.394  36.761 -47.188  1.00  0.00     0.309 C 
BRANCH  10  11
HETATM   11  C2  UNL     1     -64.615  37.333 -48.283  1.00  0.00     0.142 C 
HETATM   12  C1  UNL     1     -64.366  36.175 -49.301  1.00  0.00     0.047 C 
HETATM   13  C3  UNL     1     -65.493  38.309 -49.100  1.00  0.00     0.047 C 
BRANCH  11  14
HETATM   14  N1  UNL     1     -63.371  37.940 -48.078  1.00  0.00    -0.069 N 
ATOM     15  H13 UNL     1     -62.582  37.313 -48.232  1.00  0.00     0.275 HD
ATOM     16  H12 UNL     1     -63.129  38.623 -48.795  1.00  0.00     0.275 HD
ATOM     17  H11 UNL     1     -63.402  38.332 -47.136  1.00  0.00     0.275 HD
ENDBRANCH  11  14
ENDBRANCH  10  11
ENDBRANCH   1  10
TORSDOF 3
ENDMDL
MODEL 4
REMARK VINA RESULT: -4.424430986      0.753      1.108
REMARK  3 active torsions:
REMARK  status: ('A' for Active; 'I' for Inactive)
REMARK    1  A    between atoms: C2_2  and  N1_4 
REMARK    2  A    between atoms: C2_2  and  C4_8 
REMARK    3  A    between atoms: C4_8  and  N2_9 
ROOT
HETATM    1  N2  UNL     1     -66.572  38.747 -43.372  1.00  0.00     0.090 N 
HETATM    2  C5  UNL     1     -66.102  39.004 -44.669  1.00  0.00     0.272 C 
HETATM    3  C6  UNL     1     -64.655  38.590 -44.942  1.00  0.00     0.030 C 
HETATM    4  C7  UNL     1     -63.717  38.825 -43.833  1.00  0.00     0.002 C 
HETATM    5  C8  UNL     1     -63.006  37.644 -43.269  1.00  0.00     0.000 C 
HETATM    6  C9  UNL     1     -63.475  36.293 -43.647  1.00  0.00     0.000 C 
HETATM    7  C10 UNL     1     -64.806  35.831 -43.256  1.00  0.00     0.002 C 
HETATM    8  C11 UNL     1     -65.639  36.682 -42.389  1.00  0.00     0.030 C 
HETATM    9  C12 UNL     1     -66.787  37.329 -43.167  1.00  0.00     0.272 C 
ENDROOT
BRANCH   1  10
HETATM   10  C4  UNL     1     -67.730  39.449 -43.020  1.00  0.00     0.309 C 
BRANCH  10  11
HETATM   11  C2  UNL     1     -67.793  40.392 -41.906  1.00  0.00     0.142 C 
HETATM   12  C1  UNL     1     -66.385  41.060 -41.811  1.00  0.00     0.047 C 
HETATM   13  C3  UNL     1     -68.703  41.586 -42.276  1.00  0.00     0.047 C 
BRANCH  11  14
HETATM   14  N1  UNL     1     -68.118  39.990 -40.605  1.00  0.00    -0.069 N 
ATOM     15  H13 UNL     1     -67.347  40.088 -39.945  1.00  0.00     0.275 HD
ATOM     16  H12 UNL     1     -68.765  40.621 -40.134  1.00  0.00     0.275 HD
ATOM     17  H11 UNL     1     -68.467  39.034 -40.685  1.00  0.00     0.275 HD
ENDBRANCH  11  14
ENDBRANCH  10  11
ENDBRANCH   1  10
TORSDOF 3
ENDMDL
MODEL 5
REMARK VINA RESULT: -4.383046954      3.748      5.932
REMARK  3 active torsions:
REMARK  status: ('A' for Active; 'I' for Inactive)
REMARK    1  A    between atoms: C2_2  and  N1_4 
REMARK    2  A    between atoms: C2_2  and  C4_8 
REMARK    3  A    between atoms: C4_8  and  N2_9 
ROOT
HETATM    1  N2  UNL     1     -65.182  37.465 -46.750  1.00  0.00     0.090 N 
HETATM    2  C5  UNL     1     -66.329  37.424 -45.942  1.00  0.00     0.272 C 
HETATM    3  C6  UNL     1     -66.133  36.828 -44.548  1.00  0.00     0.030 C 
HETATM    4  C7  UNL     1     -65.230  35.668 -44.485  1.00  0.00     0.002 C 
HETATM    5  C8  UNL     1     -64.017  35.784 -43.626  1.00  0.00     0.000 C 
HETATM    6  C9  UNL     1     -63.640  37.121 -43.119  1.00  0.00     0.000 C 
HETATM    7  C10 UNL     1     -63.237  38.181 -44.041  1.00  0.00     0.002 C 
HETATM    8  C11 UNL     1     -63.106  37.877 -45.477  1.00  0.00     0.030 C 
HETATM    9  C12 UNL     1     -64.255  38.479 -46.288  1.00  0.00     0.272 C 
ENDROOT
BRANCH   1  10
HETATM   10  C4  UNL     1     -65.435  37.652 -48.114  1.00  0.00     0.309 C 
BRANCH  10  11
HETATM   11  C2  UNL     1     -64.910  36.775 -49.158  1.00  0.00     0.142 C 
HETATM   12  C1  UNL     1     -65.489  35.353 -48.874  1.00  0.00     0.047 C 
HETATM   13  C3  UNL     1     -65.554  37.130 -50.518  1.00  0.00     0.047 C 
BRANCH  11  14
HETATM   14  N1  UNL     1     -63.537  36.599 -49.364  1.00  0.00    -0.069 N 
ATOM     15  H13 UNL     1     -63.034  37.472 -49.518  1.00  0.00     0.275 HD
ATOM     16  H12 UNL     1     -63.033  36.312 -48.525  1.00  0.00     0.275 HD
ATOM     17  H11 UNL     1     -63.451  35.937 -50.136  1.00  0.00     0.275 HD
ENDBRANCH  11  14
ENDBRANCH  10  11
ENDBRANCH   1  10
TORSDOF 3
ENDMDL
