MODEL 1
REMARK VINA RESULT: -4.111845390      0.000      0.000
REMARK  3 active torsions:
REMARK  status: ('A' for Active; 'I' for Inactive)
REMARK    1  A    between atoms: C2_2  and  N1_3 
REMARK    2  A    between atoms: C2_2  and  C7_9 
REMARK    3  A    between atoms: N1_3  and  C3_5 
ROOT
HETATM    1  C1  UNL     1     -63.004  39.659 -46.327  1.00  0.00     0.032 C 
HETATM    2  C2  UNL     1     -63.789  38.362 -46.101  1.00  0.00     0.078 C 
ENDROOT
BRANCH   2   3
HETATM    3  N1  UNL     1     -63.208  37.463 -45.214  1.00  0.00    -0.410 N 
ATOM      4  H1  UNL     1     -62.300  37.062 -45.451  1.00  0.00     0.154 HD
BRANCH   3   5
HETATM    5  C3  UNL     1     -63.810  37.085 -44.011  1.00  0.00     0.015 C 
HETATM    6  C4  UNL     1     -63.003  37.469 -42.769  1.00  0.00     0.037 C 
HETATM    7  C5  UNL     1     -65.140  37.852 -43.912  1.00  0.00     0.037 C 
HETATM    8  C6  UNL     1     -64.161  35.633 -43.835  1.00  0.00     0.037 C 
ENDBRANCH   3   5
ENDBRANCH   2   3
BRANCH   2   9
HETATM    9  C7  UNL     1     -63.884  37.695 -47.469  1.00  0.00     0.017 C 
HETATM   10  C8  UNL     1     -63.756  38.714 -48.544  1.00  0.00     0.008 C 
HETATM   11  C9  UNL     1     -64.174  38.326 -49.899  1.00  0.00     0.010 C 
HETATM   12  C10 UNL     1     -64.081  36.873 -50.231  1.00  0.00     0.074 C 
HETATM   13  S1  UNL     1     -65.184  35.958 -49.105  1.00  0.00    -0.169 SA
HETATM   14  C11 UNL     1     -65.124  36.869 -47.509  1.00  0.00     0.080 C 
ENDBRANCH   2   9
TORSDOF 3
ENDMDL
MODEL 2
REMARK VINA RESULT: -4.073534838      0.144      1.182
REMARK  3 active torsions:
REMARK  status: ('A' for Active; 'I' for Inactive)
REMARK    1  A    between atoms: C2_2  and  N1_3 
REMARK    2  A    between atoms: C2_2  and  C7_9 
REMARK    3  A    between atoms: N1_3  and  C3_5 
ROOT
HETATM    1  C1  UNL     1     -63.014  39.647 -46.366  1.00  0.00     0.032 C 
HETATM    2  C2  UNL     1     -63.848  38.386 -46.120  1.00  0.00     0.078 C 
ENDROOT
BRANCH   2   3
HETATM    3  N1  UNL     1     -63.315  37.493 -45.197  1.00  0.00    -0.410 N 
ATOM      4  H1  UNL     1     -62.494  36.949 -45.463  1.00  0.00     0.154 HD
BRANCH   3   5
HETATM    5  C3  UNL     1     -63.853  37.306 -43.921  1.00  0.00     0.015 C 
HETATM    6  C4  UNL     1     -65.198  38.005 -43.710  1.00  0.00     0.037 C 
HETATM    7  C5  UNL     1     -64.123  35.800 -43.762  1.00  0.00     0.037 C 
HETATM    8  C6  UNL     1     -63.003  37.696 -42.743  1.00  0.00     0.037 C 
ENDBRANCH   3   5
ENDBRANCH   2   3
BRANCH   2   9
HETATM    9  C7  UNL     1     -63.942  37.683 -47.470  1.00  0.00     0.017 C 
HETATM   10  C8  UNL     1     -63.796  38.673 -48.571  1.00  0.00     0.008 C 
HETATM   11  C9  UNL     1     -64.210  38.253 -49.918  1.00  0.00     0.010 C 
HETATM   12  C10 UNL     1     -64.132  36.791 -50.211  1.00  0.00     0.074 C 
HETATM   13  S1  UNL     1     -65.252  35.918 -49.068  1.00  0.00    -0.169 SA
HETATM   14  C11 UNL     1     -65.191  36.871 -47.496  1.00  0.00     0.080 C 
ENDBRANCH   2   9
TORSDOF 3
ENDMDL
MODEL 3
REMARK VINA RESULT: -4.006163153      2.814      4.899
REMARK  3 active torsions:
REMARK  status: ('A' for Active; 'I' for Inactive)
REMARK    1  A    between atoms: C2_2  and  N1_3 
REMARK    2  A    between atoms: C2_2  and  C7_9 
REMARK    3  A    between atoms: N1_3  and  C3_5 
ROOT
HETATM    1  C1  UNL     1     -63.698  38.038 -46.910  1.00  0.00     0.032 C 
HETATM    2  C2  UNL     1     -64.194  37.295 -45.665  1.00  0.00     0.078 C 
ENDROOT
BRANCH   2   3
HETATM    3  N1  UNL     1     -65.557  37.021 -45.642  1.00  0.00    -0.410 N 
ATOM      4  H1  UNL     1     -66.211  37.803 -45.590  1.00  0.00     0.154 HD
BRANCH   3   5
HETATM    5  C3  UNL     1     -66.072  35.723 -45.686  1.00  0.00     0.015 C 
HETATM    6  C4  UNL     1     -65.399  34.758 -44.707  1.00  0.00     0.037 C 
HETATM    7  C5  UNL     1     -67.547  35.809 -45.257  1.00  0.00     0.037 C 
HETATM    8  C6  UNL     1     -66.072  35.019 -47.015  1.00  0.00     0.037 C 
ENDBRANCH   3   5
ENDBRANCH   2   3
BRANCH   2   9
HETATM    9  C7  UNL     1     -63.866  38.204 -44.485  1.00  0.00     0.017 C 
HETATM   10  C8  UNL     1     -63.098  37.450 -43.458  1.00  0.00     0.008 C 
HETATM   11  C9  UNL     1     -63.004  38.041 -42.115  1.00  0.00     0.010 C 
HETATM   12  C10 UNL     1     -63.096  39.529 -42.036  1.00  0.00     0.074 C 
HETATM   13  S1  UNL     1     -64.729  40.033 -42.671  1.00  0.00    -0.169 SA
HETATM   14  C11 UNL     1     -65.128  38.837 -44.009  1.00  0.00     0.080 C 
ENDBRANCH   2   9
TORSDOF 3
ENDMDL
MODEL 4
REMARK VINA RESULT: -3.939417121     11.454     13.285
REMARK  3 active torsions:
REMARK  status: ('A' for Active; 'I' for Inactive)
REMARK    1  A    between atoms: C2_2  and  N1_3 
REMARK    2  A    between atoms: C2_2  and  C7_9 
REMARK    3  A    between atoms: N1_3  and  C3_5 
ROOT
HETATM    1  C1  UNL     1     -69.940  29.491 -50.935  1.00  0.00     0.032 C 
HETATM    2  C2  UNL     1     -70.092  28.528 -52.118  1.00  0.00     0.078 C 
ENDROOT
BRANCH   2   3
HETATM    3  N1  UNL     1     -70.942  27.450 -51.899  1.00  0.00    -0.410 N 
ATOM      4  H1  UNL     1     -70.568  26.619 -51.439  1.00  0.00     0.154 HD
BRANCH   3   5
HETATM    5  C3  UNL     1     -72.286  27.452 -52.281  1.00  0.00     0.015 C 
HETATM    6  C4  UNL     1     -73.257  27.674 -51.120  1.00  0.00     0.037 C 
HETATM    7  C5  UNL     1     -72.480  28.641 -53.238  1.00  0.00     0.037 C 
HETATM    8  C6  UNL     1     -72.802  26.246 -53.018  1.00  0.00     0.037 C 
ENDBRANCH   3   5
ENDBRANCH   2   3
BRANCH   2   9
HETATM    9  C7  UNL     1     -68.691  27.989 -52.392  1.00  0.00     0.017 C 
HETATM   10  C8  UNL     1     -68.634  26.536 -52.082  1.00  0.00     0.008 C 
HETATM   11  C9  UNL     1     -67.304  25.926 -51.942  1.00  0.00     0.010 C 
HETATM   12  C10 UNL     1     -66.193  26.573 -52.701  1.00  0.00     0.074 C 
HETATM   13  S1  UNL     1     -66.007  28.282 -52.095  1.00  0.00    -0.169 SA
HETATM   14  C11 UNL     1     -67.706  28.841 -51.669  1.00  0.00     0.080 C 
ENDBRANCH   2   9
TORSDOF 3
ENDMDL
MODEL 5
REMARK VINA RESULT: -3.933431287      2.748      4.174
REMARK  3 active torsions:
REMARK  status: ('A' for Active; 'I' for Inactive)
REMARK    1  A    between atoms: C2_2  and  N1_3 
REMARK    2  A    between atoms: C2_2  and  C7_9 
REMARK    3  A    between atoms: N1_3  and  C3_5 
ROOT
HETATM    1  C1  UNL     1     -63.003  36.771 -43.411  1.00  0.00     0.032 C 
HETATM    2  C2  UNL     1     -64.131  37.695 -43.883  1.00  0.00     0.078 C 
ENDROOT
BRANCH   2   3
HETATM    3  N1  UNL     1     -64.661  38.531 -42.906  1.00  0.00    -0.410 N 
ATOM      4  H1  UNL     1     -65.293  38.130 -42.213  1.00  0.00     0.154 HD
BRANCH   3   5
HETATM    5  C3  UNL     1     -64.366  39.894 -42.831  1.00  0.00     0.015 C 
HETATM    6  C4  UNL     1     -63.064  40.205 -42.089  1.00  0.00     0.037 C 
HETATM    7  C5  UNL     1     -64.167  40.393 -44.273  1.00  0.00     0.037 C 
HETATM    8  C6  UNL     1     -65.405  40.798 -42.226  1.00  0.00     0.037 C 
ENDBRANCH   3   5
ENDBRANCH   2   3
BRANCH   2   9
HETATM    9  C7  UNL     1     -65.239  36.772 -44.380  1.00  0.00     0.017 C 
HETATM   10  C8  UNL     1     -64.859  35.352 -44.156  1.00  0.00     0.008 C 
HETATM   11  C9  UNL     1     -65.621  34.325 -44.881  1.00  0.00     0.010 C 
HETATM   12  C10 UNL     1     -67.026  34.674 -45.245  1.00  0.00     0.074 C 
HETATM   13  S1  UNL     1     -66.985  36.119 -46.356  1.00  0.00    -0.169 SA
HETATM   14  C11 UNL     1     -65.564  37.138 -45.787  1.00  0.00     0.080 C 
ENDBRANCH   2   9
TORSDOF 3
ENDMDL
