MODEL 1
REMARK VINA RESULT: -5.180987005      0.000      0.000
REMARK  2 active torsions:
REMARK  status: ('A' for Active; 'I' for Inactive)
REMARK    1  A    between atoms: C2_2  and  N2_5 
REMARK    2  A    between atoms: N2_5  and  C4_8 
ROOT
HETATM    1  C1  UNL     1     -65.947  34.919 -46.977  1.00  0.00     0.056 C 
HETATM    2  C2  UNL     1     -65.867  34.648 -45.504  1.00  0.00     0.288 C 
HETATM    3  C3  UNL     1     -66.319  33.289 -45.250  1.00  0.00     0.092 C 
HETATM    4  N1  UNL     1     -66.650  32.205 -45.083  1.00  0.00    -0.195 NA
ENDROOT
BRANCH   2   5
HETATM    5  N2  UNL     1     -66.560  35.639 -44.732  1.00  0.00    -0.054 N 
ATOM      6  H22 UNL     1     -66.867  36.411 -45.325  1.00  0.00     0.279 HD
ATOM      7  H21 UNL     1     -67.468  35.291 -44.426  1.00  0.00     0.279 HD
BRANCH   5   8
HETATM    8  C4  UNL     1     -65.788  36.131 -43.602  1.00  0.00     0.192 C 
HETATM    9  C5  UNL     1     -64.388  35.673 -43.625  1.00  0.00     0.038 C 
HETATM   10  C6  UNL     1     -63.333  36.660 -43.957  1.00  0.00    -0.012 C 
HETATM   11  C7  UNL     1     -63.569  37.510 -45.157  1.00  0.00     0.010 C 
HETATM   12  C13 UNL     1     -63.003  37.631 -42.862  1.00  0.00     0.010 C 
HETATM   13  C8  UNL     1     -64.308  38.713 -44.588  1.00  0.00    -0.010 C 
HETATM   14  C9  UNL     1     -65.780  38.361 -44.759  1.00  0.00     0.011 C 
HETATM   15  C12 UNL     1     -64.029  38.728 -43.114  1.00  0.00    -0.010 C 
HETATM   16  C10 UNL     1     -66.039  37.592 -43.500  1.00  0.00     0.017 C 
HETATM   17  C11 UNL     1     -65.281  38.280 -42.405  1.00  0.00     0.011 C 
ENDBRANCH   5   8
ENDBRANCH   2   5
TORSDOF 2
ENDMDL
MODEL 2
REMARK VINA RESULT: -5.014397803      0.891      2.252
REMARK  2 active torsions:
REMARK  status: ('A' for Active; 'I' for Inactive)
REMARK    1  A    between atoms: C2_2  and  N2_5 
REMARK    2  A    between atoms: N2_5  and  C4_8 
ROOT
HETATM    1  C1  UNL     1     -66.367  35.273 -46.649  1.00  0.00     0.056 C 
HETATM    2  C2  UNL     1     -65.627  34.645 -45.505  1.00  0.00     0.288 C 
HETATM    3  C3  UNL     1     -66.241  33.364 -45.193  1.00  0.00     0.092 C 
HETATM    4  N1  UNL     1     -66.726  32.346 -44.990  1.00  0.00    -0.195 NA
ENDROOT
BRANCH   2   5
HETATM    5  N2  UNL     1     -65.526  35.526 -44.376  1.00  0.00    -0.054 N 
ATOM      6  H22 UNL     1     -66.381  35.502 -43.820  1.00  0.00     0.279 HD
ATOM      7  H21 UNL     1     -64.868  35.160 -43.689  1.00  0.00     0.279 HD
BRANCH   5   8
HETATM    8  C4  UNL     1     -65.186  36.892 -44.741  1.00  0.00     0.192 C 
HETATM    9  C5  UNL     1     -65.934  37.894 -43.962  1.00  0.00     0.038 C 
HETATM   10  C6  UNL     1     -65.204  38.665 -42.928  1.00  0.00    -0.012 C 
HETATM   11  C7  UNL     1     -64.349  37.883 -41.992  1.00  0.00     0.010 C 
HETATM   12  C13 UNL     1     -64.301  39.741 -43.457  1.00  0.00     0.010 C 
HETATM   13  C8  UNL     1     -63.003  37.844 -42.703  1.00  0.00    -0.010 C 
HETATM   14  C9  UNL     1     -63.036  36.542 -43.492  1.00  0.00     0.011 C 
HETATM   15  C12 UNL     1     -63.016  38.962 -43.703  1.00  0.00    -0.010 C 
HETATM   16  C10 UNL     1     -63.704  36.988 -44.755  1.00  0.00     0.017 C 
HETATM   17  C11 UNL     1     -63.171  38.352 -45.073  1.00  0.00     0.011 C 
ENDBRANCH   5   8
ENDBRANCH   2   5
TORSDOF 2
ENDMDL
MODEL 3
REMARK VINA RESULT: -4.940631697      2.159      3.442
REMARK  2 active torsions:
REMARK  status: ('A' for Active; 'I' for Inactive)
REMARK    1  A    between atoms: C2_2  and  N2_5 
REMARK    2  A    between atoms: N2_5  and  C4_8 
ROOT
HETATM    1  C1  UNL     1     -69.013  38.328 -42.366  1.00  0.00     0.056 C 
HETATM    2  C2  UNL     1     -68.226  37.234 -43.024  1.00  0.00     0.288 C 
HETATM    3  C3  UNL     1     -68.860  35.958 -42.733  1.00  0.00     0.092 C 
HETATM    4  N1  UNL     1     -69.398  34.970 -42.513  1.00  0.00    -0.195 NA
ENDROOT
BRANCH   2   5
HETATM    5  N2  UNL     1     -66.835  37.280 -42.673  1.00  0.00    -0.054 N 
ATOM      6  H22 UNL     1     -66.709  37.684 -41.745  1.00  0.00     0.279 HD
ATOM      7  H21 UNL     1     -66.474  36.342 -42.499  1.00  0.00     0.279 HD
BRANCH   5   8
HETATM    8  C4  UNL     1     -66.017  37.974 -43.654  1.00  0.00     0.192 C 
HETATM    9  C5  UNL     1     -65.304  39.132 -43.087  1.00  0.00     0.038 C 
HETATM   10  C6  UNL     1     -63.840  39.023 -42.884  1.00  0.00    -0.012 C 
HETATM   11  C7  UNL     1     -63.350  37.790 -42.208  1.00  0.00     0.010 C 
HETATM   12  C13 UNL     1     -63.017  39.122 -44.135  1.00  0.00     0.010 C 
HETATM   13  C8  UNL     1     -63.113  36.831 -43.366  1.00  0.00    -0.010 C 
HETATM   14  C9  UNL     1     -64.415  36.049 -43.475  1.00  0.00     0.011 C 
HETATM   15  C12 UNL     1     -63.003  37.673 -44.603  1.00  0.00    -0.010 C 
HETATM   16  C10 UNL     1     -65.216  36.946 -44.367  1.00  0.00     0.017 C 
HETATM   17  C11 UNL     1     -64.273  37.493 -45.395  1.00  0.00     0.011 C 
ENDBRANCH   5   8
ENDBRANCH   2   5
TORSDOF 2
ENDMDL
MODEL 4
REMARK VINA RESULT: -4.888871845      2.547      4.341
REMARK  2 active torsions:
REMARK  status: ('A' for Active; 'I' for Inactive)
REMARK    1  A    between atoms: C2_2  and  N2_5 
REMARK    2  A    between atoms: N2_5  and  C4_8 
ROOT
HETATM    1  C1  UNL     1     -68.616  38.041 -43.357  1.00  0.00     0.056 C 
HETATM    2  C2  UNL     1     -68.006  38.067 -41.988  1.00  0.00     0.288 C 
HETATM    3  C3  UNL     1     -68.344  39.327 -41.344  1.00  0.00     0.092 C 
HETATM    4  N1  UNL     1     -68.651  40.314 -40.851  1.00  0.00    -0.195 NA
ENDROOT
BRANCH   2   5
HETATM    5  N2  UNL     1     -66.597  37.795 -42.016  1.00  0.00    -0.054 N 
ATOM      6  H22 UNL     1     -66.142  38.150 -41.175  1.00  0.00     0.279 HD
ATOM      7  H21 UNL     1     -66.418  36.798 -41.897  1.00  0.00     0.279 HD
BRANCH   5   8
HETATM    8  C4  UNL     1     -65.938  38.298 -43.210  1.00  0.00     0.192 C 
HETATM    9  C5  UNL     1     -64.995  39.393 -42.924  1.00  0.00     0.038 C 
HETATM   10  C6  UNL     1     -63.543  39.109 -43.016  1.00  0.00    -0.012 C 
HETATM   11  C7  UNL     1     -63.058  37.879 -42.330  1.00  0.00     0.010 C 
HETATM   12  C13 UNL     1     -63.003  39.003 -44.412  1.00  0.00     0.010 C 
HETATM   13  C8  UNL     1     -63.186  36.810 -43.407  1.00  0.00    -0.010 C 
HETATM   14  C9  UNL     1     -64.560  36.199 -43.165  1.00  0.00     0.011 C 
HETATM   15  C12 UNL     1     -63.253  37.533 -44.720  1.00  0.00    -0.010 C 
HETATM   16  C10 UNL     1     -65.429  37.122 -43.962  1.00  0.00     0.017 C 
HETATM   17  C11 UNL     1     -64.676  37.460 -45.213  1.00  0.00     0.011 C 
ENDBRANCH   5   8
ENDBRANCH   2   5
TORSDOF 2
ENDMDL
MODEL 5
REMARK VINA RESULT: -4.883832456      1.334      2.466
REMARK  2 active torsions:
REMARK  status: ('A' for Active; 'I' for Inactive)
REMARK    1  A    between atoms: C2_2  and  N2_5 
REMARK    2  A    between atoms: N2_5  and  C4_8 
ROOT
HETATM    1  C1  UNL     1     -65.994  33.623 -45.369  1.00  0.00     0.056 C 
HETATM    2  C2  UNL     1     -66.512  34.900 -45.961  1.00  0.00     0.288 C 
HETATM    3  C3  UNL     1     -65.937  35.072 -47.286  1.00  0.00     0.092 C 
HETATM    4  N1  UNL     1     -65.492  35.165 -48.338  1.00  0.00    -0.195 NA
ENDROOT
BRANCH   2   5
HETATM    5  N2  UNL     1     -66.305  36.024 -45.093  1.00  0.00    -0.054 N 
ATOM      6  H22 UNL     1     -66.920  36.797 -45.349  1.00  0.00     0.279 HD
ATOM      7  H21 UNL     1     -66.661  35.829 -44.157  1.00  0.00     0.279 HD
BRANCH   5   8
HETATM    8  C4  UNL     1     -64.920  36.462 -45.039  1.00  0.00     0.192 C 
HETATM    9  C5  UNL     1     -64.731  37.826 -45.562  1.00  0.00     0.038 C 
HETATM   10  C6  UNL     1     -64.446  38.914 -44.597  1.00  0.00    -0.012 C 
HETATM   11  C7  UNL     1     -65.324  38.988 -43.396  1.00  0.00     0.010 C 
HETATM   12  C13 UNL     1     -63.050  38.926 -44.047  1.00  0.00     0.010 C 
HETATM   13  C8  UNL     1     -64.605  38.104 -42.387  1.00  0.00    -0.010 C 
HETATM   14  C9  UNL     1     -65.250  36.735 -42.564  1.00  0.00     0.011 C 
HETATM   15  C12 UNL     1     -63.186  37.984 -42.859  1.00  0.00    -0.010 C 
HETATM   16  C10 UNL     1     -64.418  36.167 -43.672  1.00  0.00     0.017 C 
HETATM   17  C11 UNL     1     -63.004  36.597 -43.421  1.00  0.00     0.011 C 
ENDBRANCH   5   8
ENDBRANCH   2   5
TORSDOF 2
ENDMDL
