MODEL 1
REMARK VINA RESULT: -8.171243274      0.000      0.000
REMARK  9 active torsions:
REMARK  status: ('A' for Active; 'I' for Inactive)
REMARK    1  A    between atoms: C2_2  and  C3_3 
REMARK    2  A    between atoms: C3_3  and  N1_4 
REMARK    3  A    between atoms: C4_6  and  C5_7 
REMARK    4  A    between atoms: C6_8  and  O1_9 
REMARK    5  A    between atoms: C8_12  and  O2_13 
REMARK    6  A    between atoms: C14_19  and  O3_20 
REMARK    7  A    between atoms: C16_22  and  O4_23 
REMARK    8  A    between atoms: C18_25  and  O5_26 
REMARK    9  A    between atoms: C20_29  and  O6_30 
ROOT
HETATM    1  C5  UNL     1       3.590   4.264  38.001  1.00  0.00     0.026 A 
HETATM    2  C6  UNL     1       3.420   3.384  39.094  1.00  0.00     0.081 A 
HETATM    3  C7  UNL     1       2.547   2.328  39.043  1.00  0.00     0.075 A 
HETATM    4  C8  UNL     1       1.790   2.065  37.927  1.00  0.00     0.082 A 
HETATM    5  C10 UNL     1       1.949   2.915  36.865  1.00  0.00     0.012 A 
HETATM    6  C11 UNL     1       1.202   2.680  35.733  1.00  0.00     0.027 A 
HETATM    7  C12 UNL     1       1.300   3.484  34.630  1.00  0.00    -0.017 A 
HETATM    8  C13 UNL     1       0.510   3.192  33.528  1.00  0.00     0.052 A 
HETATM    9  C14 UNL     1       0.581   4.002  32.395  1.00  0.00     0.105 A 
HETATM   10  C16 UNL     1       1.439   5.074  32.396  1.00  0.00     0.135 A 
HETATM   11  C18 UNL     1       2.230   5.353  33.513  1.00  0.00     0.115 A 
HETATM   12  C19 UNL     1       2.181   4.572  34.650  1.00  0.00     0.044 A 
HETATM   13  C20 UNL     1       2.953   4.843  35.772  1.00  0.00     0.091 A 
HETATM   14  C21 UNL     1       2.832   3.999  36.889  1.00  0.00     0.025 A 
ENDROOT
BRANCH   1  15
HETATM   15  C4  UNL     1       4.563   5.331  38.142  1.00  0.00     0.098 C 
HETATM   16  N1  UNL     1       4.203   6.461  38.721  1.00  0.00    -0.398 N 
ATOM     17  H1  UNL     1       3.245   6.566  39.054  1.00  0.00     0.158 HD
BRANCH  16  18
HETATM   18  C3  UNL     1       5.137   7.555  38.895  1.00  0.00     0.118 C 
BRANCH  18  19
HETATM   19  C2  UNL     1       6.340   7.330  37.960  1.00  0.00     0.015 C 
HETATM   20  C1  UNL     1       6.284   8.317  36.822  1.00  0.00     0.006 C 
ENDBRANCH  18  19
ENDBRANCH  16  18
ENDBRANCH   1  15
BRANCH   2  21
HETATM   21  O1  UNL     1       4.161   3.613  40.233  1.00  0.00    -0.360 OA
ATOM     22  H1  UNL     1       3.695   3.765  41.047  1.00  0.00     0.217 HD
ENDBRANCH   2  21
BRANCH  13  23
HETATM   23  O6  UNL     1       3.787   5.876  35.787  1.00  0.00    -0.359 OA
ATOM     24  H6  UNL     1       4.242   6.120  36.584  1.00  0.00     0.217 HD
ENDBRANCH  13  23
BRANCH   4  25
HETATM   25  O2  UNL     1       0.912   0.983  37.914  1.00  0.00    -0.355 OA
HETATM   26  C9  UNL     1       1.175  -0.139  38.743  1.00  0.00     0.210 C 
ENDBRANCH   4  25
BRANCH  11  27
HETATM   27  O5  UNL     1       3.075   6.440  33.457  1.00  0.00    -0.357 OA
ATOM     28  H5  UNL     1       3.966   6.300  33.160  1.00  0.00     0.217 HD
ENDBRANCH  11  27
BRANCH  10  29
HETATM   29  O4  UNL     1       1.548   5.904  31.302  1.00  0.00    -0.351 OA
HETATM   30  C17 UNL     1       2.469   5.741  30.244  1.00  0.00     0.210 C 
ENDBRANCH  10  29
BRANCH   9  31
HETATM   31  O3  UNL     1      -0.203   3.686  31.342  1.00  0.00    -0.353 OA
HETATM   32  C15 UNL     1      -1.137   4.198  30.539  1.00  0.00     0.210 C 
ENDBRANCH   9  31
TORSDOF 9
ENDMDL
MODEL 2
REMARK VINA RESULT: -8.061852690      1.830      5.057
REMARK  9 active torsions:
REMARK  status: ('A' for Active; 'I' for Inactive)
REMARK    1  A    between atoms: C2_2  and  C3_3 
REMARK    2  A    between atoms: C3_3  and  N1_4 
REMARK    3  A    between atoms: C4_6  and  C5_7 
REMARK    4  A    between atoms: C6_8  and  O1_9 
REMARK    5  A    between atoms: C8_12  and  O2_13 
REMARK    6  A    between atoms: C14_19  and  O3_20 
REMARK    7  A    between atoms: C16_22  and  O4_23 
REMARK    8  A    between atoms: C18_25  and  O5_26 
REMARK    9  A    between atoms: C20_29  and  O6_30 
ROOT
HETATM    1  C5  UNL     1       2.149   2.398  38.175  1.00  0.00     0.026 A 
HETATM    2  C6  UNL     1       2.949   2.755  39.284  1.00  0.00     0.081 A 
HETATM    3  C7  UNL     1       3.819   3.814  39.239  1.00  0.00     0.075 A 
HETATM    4  C8  UNL     1       3.960   4.589  38.113  1.00  0.00     0.082 A 
HETATM    5  C10 UNL     1       3.188   4.249  37.034  1.00  0.00     0.012 A 
HETATM    6  C11 UNL     1       3.310   5.004  35.890  1.00  0.00     0.027 A 
HETATM    7  C12 UNL     1       2.577   4.728  34.768  1.00  0.00    -0.017 A 
HETATM    8  C13 UNL     1       2.758   5.526  33.648  1.00  0.00     0.052 A 
HETATM    9  C14 UNL     1       2.033   5.259  32.487  1.00  0.00     0.105 A 
HETATM   10  C16 UNL     1       1.150   4.207  32.481  1.00  0.00     0.135 A 
HETATM   11  C18 UNL     1       0.978   3.414  33.617  1.00  0.00     0.115 A 
HETATM   12  C19 UNL     1       1.682   3.651  34.780  1.00  0.00     0.044 A 
HETATM   13  C20 UNL     1       1.529   2.865  35.915  1.00  0.00     0.091 A 
HETATM   14  C21 UNL     1       2.294   3.174  37.053  1.00  0.00     0.025 A 
ENDROOT
BRANCH   1  15
HETATM   15  C4  UNL     1       1.236   1.282  38.335  1.00  0.00     0.098 C 
HETATM   16  N1  UNL     1       1.722   0.059  38.427  1.00  0.00    -0.398 N 
ATOM     17  H1  UNL     1       2.731  -0.081  38.378  1.00  0.00     0.158 HD
BRANCH  16  18
HETATM   18  C3  UNL     1       0.856  -1.090  38.596  1.00  0.00     0.118 C 
BRANCH  18  19
HETATM   19  C2  UNL     1      -0.100  -1.168  37.392  1.00  0.00     0.015 C 
HETATM   20  C1  UNL     1      -0.808  -2.499  37.397  1.00  0.00     0.006 C 
ENDBRANCH  18  19
ENDBRANCH  16  18
ENDBRANCH   1  15
BRANCH   2  21
HETATM   21  O1  UNL     1       2.838   2.003  40.434  1.00  0.00    -0.360 OA
ATOM     22  H1  UNL     1       2.391   1.166  40.380  1.00  0.00     0.217 HD
ENDBRANCH   2  21
BRANCH  13  23
HETATM   23  O6  UNL     1       0.680   1.845  35.923  1.00  0.00    -0.359 OA
ATOM     24  H6  UNL     1      -0.256   1.993  36.000  1.00  0.00     0.217 HD
ENDBRANCH  13  23
BRANCH   4  25
HETATM   25  O2  UNL     1       4.855   5.657  38.104  1.00  0.00    -0.355 OA
HETATM   26  C9  UNL     1       4.490   6.878  38.729  1.00  0.00     0.210 C 
ENDBRANCH   4  25
BRANCH  11  27
HETATM   27  O5  UNL     1       0.076   2.375  33.554  1.00  0.00    -0.357 OA
ATOM     28  H5  UNL     1       0.367   1.511  33.822  1.00  0.00     0.217 HD
ENDBRANCH  11  27
BRANCH  10  29
HETATM   29  O4  UNL     1       0.410   3.903  31.360  1.00  0.00    -0.351 OA
HETATM   30  C17 UNL     1      -0.778   4.558  30.965  1.00  0.00     0.210 C 
ENDBRANCH  10  29
BRANCH   9  31
HETATM   31  O3  UNL     1       2.236   6.058  31.418  1.00  0.00    -0.353 OA
HETATM   32  C15 UNL     1       2.615   6.023  30.139  1.00  0.00     0.210 C 
ENDBRANCH   9  31
TORSDOF 9
ENDMDL
MODEL 3
REMARK VINA RESULT: -7.955733935      2.777      6.989
REMARK  9 active torsions:
REMARK  status: ('A' for Active; 'I' for Inactive)
REMARK    1  A    between atoms: C2_2  and  C3_3 
REMARK    2  A    between atoms: C3_3  and  N1_4 
REMARK    3  A    between atoms: C4_6  and  C5_7 
REMARK    4  A    between atoms: C6_8  and  O1_9 
REMARK    5  A    between atoms: C8_12  and  O2_13 
REMARK    6  A    between atoms: C14_19  and  O3_20 
REMARK    7  A    between atoms: C16_22  and  O4_23 
REMARK    8  A    between atoms: C18_25  and  O5_26 
REMARK    9  A    between atoms: C20_29  and  O6_30 
ROOT
HETATM    1  C5  UNL     1       1.606   3.198  36.165  1.00  0.00     0.026 A 
HETATM    2  C6  UNL     1       2.404   4.160  36.826  1.00  0.00     0.081 A 
HETATM    3  C7  UNL     1       2.946   3.924  38.063  1.00  0.00     0.075 A 
HETATM    4  C8  UNL     1       2.745   2.740  38.730  1.00  0.00     0.082 A 
HETATM    5  C10 UNL     1       1.973   1.803  38.096  1.00  0.00     0.012 A 
HETATM    6  C11 UNL     1       1.750   0.607  38.739  1.00  0.00     0.027 A 
HETATM    7  C12 UNL     1       0.987  -0.379  38.175  1.00  0.00    -0.017 A 
HETATM    8  C13 UNL     1       0.798  -1.556  38.886  1.00  0.00     0.052 A 
HETATM    9  C14 UNL     1       0.015  -2.572  38.339  1.00  0.00     0.105 A 
HETATM   10  C16 UNL     1      -0.552  -2.384  37.103  1.00  0.00     0.135 A 
HETATM   11  C18 UNL     1      -0.351  -1.195  36.399  1.00  0.00     0.115 A 
HETATM   12  C19 UNL     1       0.417  -0.170  36.914  1.00  0.00     0.044 A 
HETATM   13  C20 UNL     1       0.618   1.023  36.231  1.00  0.00     0.091 A 
HETATM   14  C21 UNL     1       1.408   2.016  36.834  1.00  0.00     0.025 A 
ENDROOT
BRANCH   1  15
HETATM   15  C4  UNL     1       1.108   3.530  34.844  1.00  0.00     0.098 C 
HETATM   16  N1  UNL     1       1.895   3.368  33.798  1.00  0.00    -0.398 N 
ATOM     17  H1  UNL     1       2.843   3.019  33.937  1.00  0.00     0.158 HD
BRANCH  16  18
HETATM   18  C3  UNL     1       1.445   3.677  32.455  1.00  0.00     0.118 C 
BRANCH  18  19
HETATM   19  C2  UNL     1       0.951   5.135  32.424  1.00  0.00     0.015 C 
HETATM   20  C1  UNL     1       1.940   5.986  31.669  1.00  0.00     0.006 C 
ENDBRANCH  18  19
ENDBRANCH  16  18
ENDBRANCH   1  15
BRANCH   2  21
HETATM   21  O1  UNL     1       2.630   5.362  36.192  1.00  0.00    -0.360 OA
ATOM     22  H1  UNL     1       3.357   5.897  36.491  1.00  0.00     0.217 HD
ENDBRANCH   2  21
BRANCH  13  23
HETATM   23  O6  UNL     1       0.076   1.218  35.035  1.00  0.00    -0.359 OA
ATOM     24  H6  UNL     1      -0.261   2.072  34.788  1.00  0.00     0.217 HD
ENDBRANCH  13  23
BRANCH   4  25
HETATM   25  O2  UNL     1       3.311   2.537  39.987  1.00  0.00    -0.355 OA
HETATM   26  C9  UNL     1       3.750   3.655  40.743  1.00  0.00     0.210 C 
ENDBRANCH   4  25
BRANCH  11  27
HETATM   27  O5  UNL     1      -0.941  -1.063  35.162  1.00  0.00    -0.357 OA
ATOM     28  H5  UNL     1      -0.536  -0.479  34.532  1.00  0.00     0.217 HD
ENDBRANCH  11  27
BRANCH  10  29
HETATM   29  O4  UNL     1      -1.332  -3.358  36.520  1.00  0.00    -0.351 OA
HETATM   30  C17 UNL     1      -2.705  -3.566  36.780  1.00  0.00     0.210 C 
ENDBRANCH  10  29
BRANCH   9  31
HETATM   31  O3  UNL     1      -0.146  -3.702  39.060  1.00  0.00    -0.353 OA
HETATM   32  C15 UNL     1      -0.661  -4.151  40.206  1.00  0.00     0.210 C 
ENDBRANCH   9  31
TORSDOF 9
ENDMDL
MODEL 4
REMARK VINA RESULT: -7.751915821      2.569      6.831
REMARK  9 active torsions:
REMARK  status: ('A' for Active; 'I' for Inactive)
REMARK    1  A    between atoms: C2_2  and  C3_3 
REMARK    2  A    between atoms: C3_3  and  N1_4 
REMARK    3  A    between atoms: C4_6  and  C5_7 
REMARK    4  A    between atoms: C6_8  and  O1_9 
REMARK    5  A    between atoms: C8_12  and  O2_13 
REMARK    6  A    between atoms: C14_19  and  O3_20 
REMARK    7  A    between atoms: C16_22  and  O4_23 
REMARK    8  A    between atoms: C18_25  and  O5_26 
REMARK    9  A    between atoms: C20_29  and  O6_30 
ROOT
HETATM    1  C5  UNL     1       2.033   3.595  35.186  1.00  0.00     0.026 A 
HETATM    2  C6  UNL     1       2.839   4.653  35.665  1.00  0.00     0.081 A 
HETATM    3  C7  UNL     1       3.336   4.662  36.943  1.00  0.00     0.075 A 
HETATM    4  C8  UNL     1       3.079   3.644  37.829  1.00  0.00     0.082 A 
HETATM    5  C10 UNL     1       2.298   2.616  37.371  1.00  0.00     0.012 A 
HETATM    6  C11 UNL     1       2.019   1.582  38.236  1.00  0.00     0.027 A 
HETATM    7  C12 UNL     1       1.244   0.520  37.858  1.00  0.00    -0.017 A 
HETATM    8  C13 UNL     1       0.998  -0.482  38.785  1.00  0.00     0.052 A 
HETATM    9  C14 UNL     1       0.202  -1.570  38.429  1.00  0.00     0.105 A 
HETATM   10  C16 UNL     1      -0.321  -1.625  37.161  1.00  0.00     0.135 A 
HETATM   11  C18 UNL     1      -0.063  -0.609  36.238  1.00  0.00     0.115 A 
HETATM   12  C19 UNL     1       0.720   0.481  36.560  1.00  0.00     0.044 A 
HETATM   13  C20 UNL     1       0.978   1.503  35.657  1.00  0.00     0.091 A 
HETATM   14  C21 UNL     1       1.778   2.580  36.073  1.00  0.00     0.025 A 
ENDROOT
BRANCH   1  15
HETATM   15  C4  UNL     1       1.585   3.662  33.808  1.00  0.00     0.098 C 
HETATM   16  N1  UNL     1       0.666   4.546  33.470  1.00  0.00    -0.398 N 
ATOM     17  H1  UNL     1       0.281   5.162  34.186  1.00  0.00     0.158 HD
BRANCH  16  18
HETATM   18  C3  UNL     1       0.188   4.661  32.106  1.00  0.00     0.118 C 
BRANCH  18  19
HETATM   19  C2  UNL     1       0.631   6.023  31.543  1.00  0.00     0.015 C 
HETATM   20  C1  UNL     1       2.008   5.897  30.943  1.00  0.00     0.006 C 
ENDBRANCH  18  19
ENDBRANCH  16  18
ENDBRANCH   1  15
BRANCH   2  21
HETATM   21  O1  UNL     1       3.121   5.694  34.808  1.00  0.00    -0.360 OA
ATOM     22  H1  UNL     1       3.793   5.563  34.149  1.00  0.00     0.217 HD
ENDBRANCH   2  21
BRANCH  13  23
HETATM   23  O6  UNL     1       0.478   1.463  34.427  1.00  0.00    -0.359 OA
ATOM     24  H6  UNL     1      -0.191   2.080  34.154  1.00  0.00     0.217 HD
ENDBRANCH  13  23
BRANCH   4  25
HETATM   25  O2  UNL     1       3.600   3.689  39.121  1.00  0.00    -0.355 OA
HETATM   26  C9  UNL     1       3.902   4.946  39.707  1.00  0.00     0.210 C 
ENDBRANCH   4  25
BRANCH  11  27
HETATM   27  O5  UNL     1      -0.610  -0.720  34.979  1.00  0.00    -0.357 OA
ATOM     28  H5  UNL     1      -1.202  -0.037  34.686  1.00  0.00     0.217 HD
ENDBRANCH  11  27
BRANCH  10  29
HETATM   29  O4  UNL     1      -1.113  -2.679  36.760  1.00  0.00    -0.351 OA
HETATM   30  C17 UNL     1      -2.520  -2.728  36.869  1.00  0.00     0.210 C 
ENDBRANCH  10  29
BRANCH   9  31
HETATM   31  O3  UNL     1      -0.015  -2.524  39.359  1.00  0.00    -0.353 OA
HETATM   32  C15 UNL     1      -0.394  -3.797  39.488  1.00  0.00     0.210 C 
ENDBRANCH   9  31
TORSDOF 9
ENDMDL
MODEL 5
REMARK VINA RESULT: -7.595554147      2.053      5.926
REMARK  9 active torsions:
REMARK  status: ('A' for Active; 'I' for Inactive)
REMARK    1  A    between atoms: C2_2  and  C3_3 
REMARK    2  A    between atoms: C3_3  and  N1_4 
REMARK    3  A    between atoms: C4_6  and  C5_7 
REMARK    4  A    between atoms: C6_8  and  O1_9 
REMARK    5  A    between atoms: C8_12  and  O2_13 
REMARK    6  A    between atoms: C14_19  and  O3_20 
REMARK    7  A    between atoms: C16_22  and  O4_23 
REMARK    8  A    between atoms: C18_25  and  O5_26 
REMARK    9  A    between atoms: C20_29  and  O6_30 
ROOT
HETATM    1  C5  UNL     1       2.876   4.143  36.039  1.00  0.00     0.026 A 
HETATM    2  C6  UNL     1       2.944   4.920  34.860  1.00  0.00     0.081 A 
HETATM    3  C7  UNL     1       2.280   4.558  33.715  1.00  0.00     0.075 A 
HETATM    4  C8  UNL     1       1.513   3.420  33.650  1.00  0.00     0.082 A 
HETATM    5  C10 UNL     1       1.444   2.662  34.789  1.00  0.00     0.012 A 
HETATM    6  C11 UNL     1       0.686   1.514  34.755  1.00  0.00     0.027 A 
HETATM    7  C12 UNL     1       0.568   0.700  35.849  1.00  0.00    -0.017 A 
HETATM    8  C13 UNL     1      -0.207  -0.446  35.740  1.00  0.00     0.052 A 
HETATM    9  C14 UNL     1      -0.334  -1.299  36.835  1.00  0.00     0.105 A 
HETATM   10  C16 UNL     1       0.312  -0.981  38.005  1.00  0.00     0.135 A 
HETATM   11  C18 UNL     1       1.086   0.178  38.100  1.00  0.00     0.115 A 
HETATM   12  C19 UNL     1       1.233   1.041  37.033  1.00  0.00     0.044 A 
HETATM   13  C20 UNL     1       2.008   2.191  37.108  1.00  0.00     0.091 A 
HETATM   14  C21 UNL     1       2.109   3.008  35.970  1.00  0.00     0.025 A 
ENDROOT
BRANCH   1  15
HETATM   15  C4  UNL     1       3.585   4.630  37.206  1.00  0.00     0.098 C 
HETATM   16  N1  UNL     1       3.205   5.763  37.767  1.00  0.00    -0.398 N 
ATOM     17  H1  UNL     1       2.423   6.279  37.365  1.00  0.00     0.158 HD
BRANCH  16  18
HETATM   18  C3  UNL     1       3.873   6.291  38.940  1.00  0.00     0.118 C 
BRANCH  18  19
HETATM   19  C2  UNL     1       5.280   6.767  38.533  1.00  0.00     0.015 C 
HETATM   20  C1  UNL     1       5.347   8.270  38.621  1.00  0.00     0.006 C 
ENDBRANCH  18  19
ENDBRANCH  16  18
ENDBRANCH   1  15
BRANCH   2  21
HETATM   21  O1  UNL     1       3.703   6.070  34.882  1.00  0.00    -0.360 OA
ATOM     22  H1  UNL     1       3.769   6.579  34.082  1.00  0.00     0.217 HD
ENDBRANCH   2  21
BRANCH  13  23
HETATM   23  O6  UNL     1       2.638   2.510  38.233  1.00  0.00    -0.359 OA
ATOM     24  H6  UNL     1       2.782   3.420  38.467  1.00  0.00     0.217 HD
ENDBRANCH  13  23
BRANCH   4  25
HETATM   25  O2  UNL     1       0.855   3.083  32.469  1.00  0.00    -0.355 OA
HETATM   26  C9  UNL     1      -0.151   3.945  31.961  1.00  0.00     0.210 C 
ENDBRANCH   4  25
BRANCH  11  27
HETATM   27  O5  UNL     1       1.708   0.448  39.298  1.00  0.00    -0.357 OA
ATOM     28  H5  UNL     1       1.243   0.975  39.936  1.00  0.00     0.217 HD
ENDBRANCH  11  27
BRANCH  10  29
HETATM   29  O4  UNL     1       0.217  -1.789  39.115  1.00  0.00    -0.351 OA
HETATM   30  C17 UNL     1      -0.112  -3.163  39.098  1.00  0.00     0.210 C 
ENDBRANCH  10  29
BRANCH   9  31
HETATM   31  O3  UNL     1      -1.096  -2.404  36.690  1.00  0.00    -0.353 OA
HETATM   32  C15 UNL     1      -1.940  -2.992  35.842  1.00  0.00     0.210 C 
ENDBRANCH   9  31
TORSDOF 9
ENDMDL
