MODEL 1
REMARK VINA RESULT: -9.773136254      0.000      0.000
REMARK  8 active torsions:
REMARK  status: ('A' for Active; 'I' for Inactive)
REMARK    1  A    between atoms: C2_2  and  C3_3 
REMARK    2  A    between atoms: C3_3  and  C4_4 
REMARK    3  A    between atoms: C4_4  and  C5_5 
REMARK    4  A    between atoms: C4_4  and  C7_7 
REMARK    5  A    between atoms: C9_9  and  C10_10 
REMARK    6  A    between atoms: C11_12  and  O2_13 
REMARK    7  A    between atoms: C18_23  and  O5_24 
REMARK    8  A    between atoms: C20_28  and  O7_29 
ROOT
HETATM    1  C10 UNL     1       1.238   3.719  33.225  1.00  0.00     0.112 A 
HETATM    2  O1  UNL     1       0.727   2.524  33.316  1.00  0.00    -0.285 OA
HETATM    3  C11 UNL     1       0.775   2.120  34.551  1.00  0.00     0.193 A 
HETATM    4  C12 UNL     1       1.349   3.098  35.322  1.00  0.00     0.046 A 
HETATM    5  C13 UNL     1       1.657   4.144  34.479  1.00  0.00     0.115 A 
HETATM    6  O3  UNL     1       2.254   5.175  35.245  1.00  0.00    -0.334 OA
HETATM    7  C14 UNL     1       2.932   4.465  36.256  1.00  0.00     0.215 C 
HETATM    8  C15 UNL     1       3.291   5.193  37.457  1.00  0.00     0.192 C 
HETATM    9  O4  UNL     1       3.460   6.432  37.568  1.00  0.00    -0.289 OA
HETATM   10  C16 UNL     1       3.475   4.394  38.676  1.00  0.00     0.050 A 
HETATM   11  C17 UNL     1       4.023   4.621  39.926  1.00  0.00     0.081 A 
HETATM   12  C18 UNL     1       3.892   3.449  40.662  1.00  0.00     0.184 A 
HETATM   13  O6  UNL     1       3.291   2.573  39.875  1.00  0.00    -0.289 OA
HETATM   14  C19 UNL     1       3.029   3.085  38.703  1.00  0.00     0.099 A 
HETATM   15  C20 UNL     1       2.362   2.453  37.511  1.00  0.00     0.188 C 
HETATM   16  C21 UNL     1       1.781   3.521  36.658  1.00  0.00     0.099 C 
ENDROOT
BRANCH   1  17
HETATM   17  C9  UNL     1       1.357   4.499  31.992  1.00  0.00     0.043 C 
HETATM   18  C7  UNL     1       0.664   5.550  31.671  1.00  0.00    -0.077 C 
HETATM   19  C8  UNL     1      -0.398   6.113  32.529  1.00  0.00     0.044 C 
BRANCH  18  20
HETATM   20  C4  UNL     1       0.915   6.247  30.348  1.00  0.00     0.014 C 
BRANCH  20  21
HETATM   21  C3  UNL     1      -0.321   6.102  29.554  1.00  0.00     0.009 C 
BRANCH  21  22
HETATM   22  C2  UNL     1      -1.034   7.315  29.098  1.00  0.00    -0.004 C 
HETATM   23  C1  UNL     1      -2.388   7.347  29.850  1.00  0.00     0.005 C 
ENDBRANCH  21  22
ENDBRANCH  20  21
BRANCH  20  24
HETATM   24  C5  UNL     1       2.204   5.818  29.763  1.00  0.00     0.005 C 
HETATM   25  C6  UNL     1       2.452   6.203  28.342  1.00  0.00     0.006 C 
ENDBRANCH  20  24
ENDBRANCH  18  20
ENDBRANCH   1  17
BRANCH   3  26
HETATM   26  O2  UNL     1       0.328   0.898  35.062  1.00  0.00    -0.340 OA
ATOM     27  H2  UNL     1      -0.565   0.574  35.089  1.00  0.00     0.220 HD
ENDBRANCH   3  26
BRANCH  15  28
HETATM   28  O7  UNL     1       1.292   1.701  38.025  1.00  0.00    -0.388 OA
ATOM     29  H7  UNL     1       1.082   1.059  37.357  1.00  0.00     0.210 HD
ENDBRANCH  15  28
BRANCH  12  30
HETATM   30  O5  UNL     1       4.327   3.305  41.953  1.00  0.00    -0.341 OA
ATOM     31  H5  UNL     1       3.810   3.536  42.715  1.00  0.00     0.220 HD
ENDBRANCH  12  30
TORSDOF 8
ENDMDL
MODEL 2
REMARK VINA RESULT: -8.433023690      4.064      8.891
REMARK  8 active torsions:
REMARK  status: ('A' for Active; 'I' for Inactive)
REMARK    1  A    between atoms: C2_2  and  C3_3 
REMARK    2  A    between atoms: C3_3  and  C4_4 
REMARK    3  A    between atoms: C4_4  and  C5_5 
REMARK    4  A    between atoms: C4_4  and  C7_7 
REMARK    5  A    between atoms: C9_9  and  C10_10 
REMARK    6  A    between atoms: C11_12  and  O2_13 
REMARK    7  A    between atoms: C18_23  and  O5_24 
REMARK    8  A    between atoms: C20_28  and  O7_29 
ROOT
HETATM    1  C10 UNL     1       1.278   5.868  32.008  1.00  0.00     0.112 A 
HETATM    2  O1  UNL     1       1.491   5.732  30.731  1.00  0.00    -0.285 OA
HETATM    3  C11 UNL     1       0.551   6.331  30.063  1.00  0.00     0.193 A 
HETATM    4  C12 UNL     1      -0.338   6.894  30.943  1.00  0.00     0.046 A 
HETATM    5  C13 UNL     1       0.118   6.604  32.212  1.00  0.00     0.115 A 
HETATM    6  O3  UNL     1      -0.779   7.172  33.149  1.00  0.00    -0.334 OA
HETATM    7  C14 UNL     1      -2.019   7.100  32.485  1.00  0.00     0.215 C 
HETATM    8  C15 UNL     1      -3.080   7.970  32.954  1.00  0.00     0.192 C 
HETATM    9  O4  UNL     1      -3.197   8.469  34.099  1.00  0.00    -0.289 OA
HETATM   10  C16 UNL     1      -4.130   8.303  31.982  1.00  0.00     0.050 A 
HETATM   11  C17 UNL     1      -5.391   8.870  32.053  1.00  0.00     0.081 A 
HETATM   12  C18 UNL     1      -5.901   8.926  30.761  1.00  0.00     0.184 A 
HETATM   13  O6  UNL     1      -4.976   8.413  29.967  1.00  0.00    -0.289 OA
HETATM   14  C19 UNL     1      -3.924   8.035  30.641  1.00  0.00     0.099 A 
HETATM   15  C20 UNL     1      -2.648   7.406  30.149  1.00  0.00     0.188 C 
HETATM   16  C21 UNL     1      -1.566   7.675  31.128  1.00  0.00     0.099 C 
ENDROOT
BRANCH   1  17
HETATM   17  C9  UNL     1       2.125   5.328  33.073  1.00  0.00     0.043 C 
HETATM   18  C7  UNL     1       1.980   4.186  33.674  1.00  0.00    -0.077 C 
HETATM   19  C8  UNL     1       0.883   3.244  33.369  1.00  0.00     0.044 C 
BRANCH  18  20
HETATM   20  C4  UNL     1       2.952   3.774  34.762  1.00  0.00     0.014 C 
BRANCH  20  21
HETATM   21  C3  UNL     1       2.667   2.359  35.068  1.00  0.00     0.009 C 
BRANCH  21  22
HETATM   22  C2  UNL     1       2.355   1.969  36.461  1.00  0.00    -0.004 C 
HETATM   23  C1  UNL     1       1.042   1.148  36.412  1.00  0.00     0.005 C 
ENDBRANCH  21  22
ENDBRANCH  20  21
BRANCH  20  24
HETATM   24  C5  UNL     1       2.963   4.763  35.861  1.00  0.00     0.005 C 
HETATM   25  C6  UNL     1       4.066   5.769  35.842  1.00  0.00     0.006 C 
ENDBRANCH  20  24
ENDBRANCH  18  20
ENDBRANCH   1  17
BRANCH   3  26
HETATM   26  O2  UNL     1       0.417   6.417  28.674  1.00  0.00    -0.340 OA
ATOM     27  H2  UNL     1       1.100   6.594  28.037  1.00  0.00     0.220 HD
ENDBRANCH   3  26
BRANCH  15  28
HETATM   28  O7  UNL     1      -2.318   8.086  28.964  1.00  0.00    -0.388 OA
ATOM     29  H7  UNL     1      -3.035   7.923  28.363  1.00  0.00     0.210 HD
ENDBRANCH  15  28
BRANCH  12  30
HETATM   30  O5  UNL     1      -7.135   9.431  30.448  1.00  0.00    -0.341 OA
ATOM     31  H5  UNL     1      -7.794   8.953  29.960  1.00  0.00     0.220 HD
ENDBRANCH  12  30
TORSDOF 8
ENDMDL
MODEL 3
REMARK VINA RESULT: -8.285004186      1.934      3.844
REMARK  8 active torsions:
REMARK  status: ('A' for Active; 'I' for Inactive)
REMARK    1  A    between atoms: C2_2  and  C3_3 
REMARK    2  A    between atoms: C3_3  and  C4_4 
REMARK    3  A    between atoms: C4_4  and  C5_5 
REMARK    4  A    between atoms: C4_4  and  C7_7 
REMARK    5  A    between atoms: C9_9  and  C10_10 
REMARK    6  A    between atoms: C11_12  and  O2_13 
REMARK    7  A    between atoms: C18_23  and  O5_24 
REMARK    8  A    between atoms: C20_28  and  O7_29 
ROOT
HETATM    1  C10 UNL     1       2.557   4.807  34.165  1.00  0.00     0.112 A 
HETATM    2  O1  UNL     1       3.060   5.436  35.189  1.00  0.00    -0.285 OA
HETATM    3  C11 UNL     1       3.088   4.645  36.220  1.00  0.00     0.193 A 
HETATM    4  C12 UNL     1       2.575   3.424  35.863  1.00  0.00     0.046 A 
HETATM    5  C13 UNL     1       2.224   3.510  34.532  1.00  0.00     0.115 A 
HETATM    6  O3  UNL     1       1.689   2.262  34.130  1.00  0.00    -0.334 OA
HETATM    7  C14 UNL     1       1.071   1.789  35.305  1.00  0.00     0.215 C 
HETATM    8  C15 UNL     1       0.798   0.368  35.390  1.00  0.00     0.192 C 
HETATM    9  O4  UNL     1       0.649  -0.432  34.435  1.00  0.00    -0.289 OA
HETATM   10  C16 UNL     1       0.685  -0.196  36.742  1.00  0.00     0.050 A 
HETATM   11  C17 UNL     1       0.220  -1.386  37.275  1.00  0.00     0.081 A 
HETATM   12  C18 UNL     1       0.386  -1.324  38.653  1.00  0.00     0.184 A 
HETATM   13  O6  UNL     1       0.926  -0.145  38.916  1.00  0.00    -0.289 OA
HETATM   14  C19 UNL     1       1.117   0.547  37.826  1.00  0.00     0.099 A 
HETATM   15  C20 UNL     1       1.699   1.924  37.657  1.00  0.00     0.188 C 
HETATM   16  C21 UNL     1       2.235   2.059  36.279  1.00  0.00     0.099 C 
ENDROOT
BRANCH   1  17
HETATM   17  C9  UNL     1       2.366   5.375  32.829  1.00  0.00     0.043 C 
HETATM   18  C7  UNL     1       1.237   5.526  32.207  1.00  0.00    -0.077 C 
HETATM   19  C8  UNL     1      -0.063   5.110  32.773  1.00  0.00     0.044 C 
BRANCH  18  20
HETATM   20  C4  UNL     1       1.213   6.136  30.819  1.00  0.00     0.014 C 
BRANCH  20  21
HETATM   21  C3  UNL     1      -0.105   5.815  30.239  1.00  0.00     0.009 C 
BRANCH  21  22
HETATM   22  C2  UNL     1      -0.911   6.896  29.630  1.00  0.00    -0.004 C 
HETATM   23  C1  UNL     1      -2.273   6.909  30.367  1.00  0.00     0.005 C 
ENDBRANCH  21  22
ENDBRANCH  20  21
BRANCH  20  24
HETATM   24  C5  UNL     1       2.438   5.784  30.068  1.00  0.00     0.005 C 
HETATM   25  C6  UNL     1       2.449   6.125  28.614  1.00  0.00     0.006 C 
ENDBRANCH  20  24
ENDBRANCH  18  20
ENDBRANCH   1  17
BRANCH   3  26
HETATM   26  O2  UNL     1       3.553   4.939  37.505  1.00  0.00    -0.340 OA
ATOM     27  H2  UNL     1       3.948   4.341  38.128  1.00  0.00     0.220 HD
ENDBRANCH   3  26
BRANCH  15  28
HETATM   28  O7  UNL     1       2.792   1.989  38.538  1.00  0.00    -0.388 OA
ATOM     29  H7  UNL     1       2.775   2.864  38.907  1.00  0.00     0.210 HD
ENDBRANCH  15  28
BRANCH  12  30
HETATM   30  O5  UNL     1       0.034  -2.331  39.512  1.00  0.00    -0.341 OA
ATOM     31  H5  UNL     1       0.010  -2.238  40.456  1.00  0.00     0.220 HD
ENDBRANCH  12  30
TORSDOF 8
ENDMDL
MODEL 4
REMARK VINA RESULT: -7.918953221      4.084      9.021
REMARK  8 active torsions:
REMARK  status: ('A' for Active; 'I' for Inactive)
REMARK    1  A    between atoms: C2_2  and  C3_3 
REMARK    2  A    between atoms: C3_3  and  C4_4 
REMARK    3  A    between atoms: C4_4  and  C5_5 
REMARK    4  A    between atoms: C4_4  and  C7_7 
REMARK    5  A    between atoms: C9_9  and  C10_10 
REMARK    6  A    between atoms: C11_12  and  O2_13 
REMARK    7  A    between atoms: C18_23  and  O5_24 
REMARK    8  A    between atoms: C20_28  and  O7_29 
ROOT
HETATM    1  C10 UNL     1       1.066   5.929  32.107  1.00  0.00     0.112 A 
HETATM    2  O1  UNL     1       1.337   5.752  30.845  1.00  0.00    -0.285 OA
HETATM    3  C11 UNL     1       0.438   6.343  30.116  1.00  0.00     0.193 A 
HETATM    4  C12 UNL     1      -0.482   6.945  30.937  1.00  0.00     0.046 A 
HETATM    5  C13 UNL     1      -0.091   6.686  32.234  1.00  0.00     0.115 A 
HETATM    6  O3  UNL     1      -1.023   7.294  33.110  1.00  0.00    -0.334 OA
HETATM    7  C14 UNL     1      -2.231   7.219  32.390  1.00  0.00     0.215 C 
HETATM    8  C15 UNL     1      -3.300   8.117  32.782  1.00  0.00     0.192 C 
HETATM    9  O4  UNL     1      -3.463   8.651  33.905  1.00  0.00    -0.289 OA
HETATM   10  C16 UNL     1      -4.299   8.434  31.752  1.00  0.00     0.050 A 
HETATM   11  C17 UNL     1      -5.552   9.020  31.747  1.00  0.00     0.081 A 
HETATM   12  C18 UNL     1      -6.000   9.044  30.431  1.00  0.00     0.184 A 
HETATM   13  O6  UNL     1      -5.046   8.495  29.697  1.00  0.00    -0.289 OA
HETATM   14  C19 UNL     1      -4.033   8.124  30.431  1.00  0.00     0.099 A 
HETATM   15  C20 UNL     1      -2.745   7.463  30.018  1.00  0.00     0.188 C 
HETATM   16  C21 UNL     1      -1.706   7.747  31.040  1.00  0.00     0.099 C 
ENDROOT
BRANCH   1  17
HETATM   17  C9  UNL     1       1.854   5.410  33.226  1.00  0.00     0.043 C 
HETATM   18  C7  UNL     1       1.717   4.253  33.798  1.00  0.00    -0.077 C 
HETATM   19  C8  UNL     1       0.692   3.267  33.398  1.00  0.00     0.044 C 
BRANCH  18  20
HETATM   20  C4  UNL     1       2.622   3.866  34.952  1.00  0.00     0.014 C 
BRANCH  20  21
HETATM   21  C3  UNL     1       3.709   4.864  34.988  1.00  0.00     0.009 C 
BRANCH  21  22
HETATM   22  C2  UNL     1       3.901   5.681  36.206  1.00  0.00    -0.004 C 
HETATM   23  C1  UNL     1       2.736   5.334  37.166  1.00  0.00     0.005 C 
ENDBRANCH  21  22
ENDBRANCH  20  21
BRANCH  20  24
HETATM   24  C5  UNL     1       2.963   2.429  34.895  1.00  0.00     0.005 C 
HETATM   25  C6  UNL     1       2.407   1.568  35.980  1.00  0.00     0.006 C 
ENDBRANCH  20  24
ENDBRANCH  18  20
ENDBRANCH   1  17
BRANCH   3  26
HETATM   26  O2  UNL     1       0.372   6.389  28.720  1.00  0.00    -0.340 OA
ATOM     27  H2  UNL     1      -0.196   6.932  28.186  1.00  0.00     0.220 HD
ENDBRANCH   3  26
BRANCH  15  28
HETATM   28  O7  UNL     1      -2.349   8.102  28.831  1.00  0.00    -0.388 OA
ATOM     29  H7  UNL     1      -2.963   7.816  28.166  1.00  0.00     0.210 HD
ENDBRANCH  15  28
BRANCH  12  30
HETATM   30  O5  UNL     1      -7.210   9.556  30.045  1.00  0.00    -0.341 OA
ATOM     31  H5  UNL     1      -7.379   9.929  29.188  1.00  0.00     0.220 HD
ENDBRANCH  12  30
TORSDOF 8
ENDMDL
MODEL 5
REMARK VINA RESULT: -7.810003297      3.990      7.532
REMARK  8 active torsions:
REMARK  status: ('A' for Active; 'I' for Inactive)
REMARK    1  A    between atoms: C2_2  and  C3_3 
REMARK    2  A    between atoms: C3_3  and  C4_4 
REMARK    3  A    between atoms: C4_4  and  C5_5 
REMARK    4  A    between atoms: C4_4  and  C7_7 
REMARK    5  A    between atoms: C9_9  and  C10_10 
REMARK    6  A    between atoms: C11_12  and  O2_13 
REMARK    7  A    between atoms: C18_23  and  O5_24 
REMARK    8  A    between atoms: C20_28  and  O7_29 
ROOT
HETATM    1  C10 UNL     1       0.200   0.112  36.505  1.00  0.00     0.112 A 
HETATM    2  O1  UNL     1      -0.055   0.499  35.288  1.00  0.00    -0.285 OA
HETATM    3  C11 UNL     1       0.682   1.527  34.991  1.00  0.00     0.193 A 
HETATM    4  C12 UNL     1       1.469   1.843  36.070  1.00  0.00     0.046 A 
HETATM    5  C13 UNL     1       1.169   0.935  37.064  1.00  0.00     0.115 A 
HETATM    6  O3  UNL     1       1.965   1.233  38.196  1.00  0.00    -0.334 OA
HETATM    7  C14 UNL     1       2.109   2.633  38.122  1.00  0.00     0.215 C 
HETATM    8  C15 UNL     1       3.205   3.232  38.859  1.00  0.00     0.192 C 
HETATM    9  O4  UNL     1       3.786   2.759  39.865  1.00  0.00    -0.289 OA
HETATM   10  C16 UNL     1       3.687   4.532  38.373  1.00  0.00     0.050 A 
HETATM   11  C17 UNL     1       4.503   5.528  38.877  1.00  0.00     0.081 A 
HETATM   12  C18 UNL     1       4.584   6.532  37.920  1.00  0.00     0.184 A 
HETATM   13  O6  UNL     1       3.844   6.138  36.896  1.00  0.00    -0.289 OA
HETATM   14  C19 UNL     1       3.301   4.973  37.120  1.00  0.00     0.099 A 
HETATM   15  C20 UNL     1       2.394   4.156  36.240  1.00  0.00     0.188 C 
HETATM   16  C21 UNL     1       2.494   2.728  36.633  1.00  0.00     0.099 C 
ENDROOT
BRANCH   1  17
HETATM   17  C9  UNL     1      -0.437  -1.016  37.189  1.00  0.00     0.043 C 
HETATM   18  C7  UNL     1      -0.841  -2.123  36.643  1.00  0.00    -0.077 C 
HETATM   19  C8  UNL     1      -0.730  -2.402  35.197  1.00  0.00     0.044 C 
BRANCH  18  20
HETATM   20  C4  UNL     1      -1.483  -3.198  37.499  1.00  0.00     0.014 C 
BRANCH  20  21
HETATM   21  C3  UNL     1      -0.420  -4.168  37.824  1.00  0.00     0.009 C 
BRANCH  21  22
HETATM   22  C2  UNL     1      -0.539  -5.561  37.341  1.00  0.00    -0.004 C 
HETATM   23  C1  UNL     1       0.551  -5.753  36.256  1.00  0.00     0.005 C 
ENDBRANCH  21  22
ENDBRANCH  20  21
BRANCH  20  24
HETATM   24  C5  UNL     1      -2.738  -3.680  36.884  1.00  0.00     0.005 C 
HETATM   25  C6  UNL     1      -3.964  -2.869  37.146  1.00  0.00     0.006 C 
ENDBRANCH  20  24
ENDBRANCH  18  20
ENDBRANCH   1  17
BRANCH   3  26
HETATM   26  O2  UNL     1       0.708   2.235  33.786  1.00  0.00    -0.340 OA
ATOM     27  H2  UNL     1       0.068   2.862  33.470  1.00  0.00     0.220 HD
ENDBRANCH   3  26
BRANCH  15  28
HETATM   28  O7  UNL     1       2.918   4.268  34.941  1.00  0.00    -0.388 OA
ATOM     29  H7  UNL     1       3.748   3.807  34.955  1.00  0.00     0.210 HD
ENDBRANCH  15  28
BRANCH  12  30
HETATM   30  O5  UNL     1       5.311   7.682  38.077  1.00  0.00    -0.341 OA
ATOM     31  H5  UNL     1       6.125   7.861  37.621  1.00  0.00     0.220 HD
ENDBRANCH  12  30
TORSDOF 8
ENDMDL
