MODEL 1
REMARK VINA RESULT: -8.868385937      0.000      0.000
REMARK  9 active torsions:
REMARK  status: ('A' for Active; 'I' for Inactive)
REMARK    1  A    between atoms: O1_1  and  C1_3 
REMARK    2  A    between atoms: C5_7  and  C6_8 
REMARK    3  A    between atoms: C6_8  and  N1_9 
REMARK    4  A    between atoms: C6_8  and  C16_28 
REMARK    5  A    between atoms: N2_11  and  C7_13 
REMARK    6  A    between atoms: C9_15  and  O2_16 
REMARK    7  A    between atoms: N3_18  and  C10_19 
REMARK    8  A    between atoms: C10_19  and  N4_20 
REMARK    9  A    between atoms: C15_25  and  O3_26 
ROOT
HETATM    1  N1  UNL     1       2.804   2.389  35.503  1.00  0.00    -0.326 N 
ATOM      2  H1  UNL     1       3.572   1.882  35.942  1.00  0.00     0.181 HD
HETATM    3  N2  UNL     1       2.967   2.770  34.326  1.00  0.00    -0.300 N 
ATOM      4  H2  UNL     1       3.862   2.541  33.894  1.00  0.00     0.186 HD
ENDROOT
BRANCH   1   5
HETATM    5  C6  UNL     1       1.613   2.609  36.298  1.00  0.00     0.136 C 
BRANCH   5   6
HETATM    6  C5  UNL     1       1.003   1.313  36.604  1.00  0.00    -0.031 A 
HETATM    7  C4  UNL     1       0.160   0.693  35.709  1.00  0.00     0.009 A 
HETATM    8  C3  UNL     1      -0.417  -0.511  35.971  1.00  0.00     0.003 A 
HETATM    9  C2  UNL     1      -0.181  -1.174  37.161  1.00  0.00     0.036 A 
HETATM   10  C1  UNL     1       0.666  -0.539  38.052  1.00  0.00     0.066 A 
HETATM   11  C22 UNL     1       1.256   0.676  37.799  1.00  0.00     0.045 A 
BRANCH  10  12
HETATM   12  O1  UNL     1       0.929  -1.184  39.273  1.00  0.00    -0.361 OA
ATOM     13  H1  UNL     1       0.259  -1.144  39.945  1.00  0.00     0.217 HD
ENDBRANCH  10  12
ENDBRANCH   5   6
BRANCH   5  14
HETATM   14  C16 UNL     1       2.026   3.395  37.523  1.00  0.00     0.014 C 
HETATM   15  C17 UNL     1       2.398   4.820  37.209  1.00  0.00     0.007 C 
HETATM   16  C18 UNL     1       2.531   5.543  38.541  1.00  0.00     0.000 C 
HETATM   17  C19 UNL     1       3.723   4.883  39.246  1.00  0.00     0.000 C 
HETATM   18  C20 UNL     1       3.327   3.467  39.574  1.00  0.00     0.000 C 
HETATM   19  C21 UNL     1       3.152   2.700  38.273  1.00  0.00     0.007 C 
ENDBRANCH   5  14
ENDBRANCH   1   5
BRANCH   3  20
HETATM   20  C7  UNL     1       2.052   3.478  33.534  1.00  0.00     0.103 A 
HETATM   21  C8  UNL     1       0.992   2.900  32.871  1.00  0.00     0.091 A 
HETATM   22  C9  UNL     1       0.299   3.869  32.191  1.00  0.00     0.147 A 
HETATM   23  N3  UNL     1       0.927   5.038  32.432  1.00  0.00    -0.279 N 
HETATM   24  C15 UNL     1       1.979   4.821  33.234  1.00  0.00     0.174 A 
BRANCH  22  25
HETATM   25  O2  UNL     1      -0.849   3.688  31.393  1.00  0.00    -0.346 OA
ATOM     26  H2  UNL     1      -1.684   4.131  31.484  1.00  0.00     0.219 HD
ENDBRANCH  22  25
BRANCH  23  27
HETATM   27  C10 UNL     1       0.471   6.320  31.881  1.00  0.00     0.406 C 
BRANCH  27  28
HETATM   28  N4  UNL     1      -0.944   6.472  31.995  1.00  0.00     0.106 N 
HETATM   29  C11 UNL     1      -1.312   7.469  32.994  1.00  0.00     0.274 C 
HETATM   30  C12 UNL     1      -2.805   7.558  32.784  1.00  0.00     0.032 C 
HETATM   31  C13 UNL     1      -2.946   7.489  31.291  1.00  0.00     0.032 C 
HETATM   32  C14 UNL     1      -1.573   7.004  30.794  1.00  0.00     0.274 C 
ENDBRANCH  27  28
ENDBRANCH  23  27
BRANCH  24  33
HETATM   33  O3  UNL     1       2.899   5.739  33.734  1.00  0.00    -0.344 OA
ATOM     34  H3  UNL     1       2.771   6.677  33.651  1.00  0.00     0.219 HD
ENDBRANCH  24  33
ENDBRANCH   3  20
TORSDOF 9
ENDMDL
MODEL 2
REMARK VINA RESULT: -8.777230187      0.868      1.229
REMARK  9 active torsions:
REMARK  status: ('A' for Active; 'I' for Inactive)
REMARK    1  A    between atoms: O1_1  and  C1_3 
REMARK    2  A    between atoms: C5_7  and  C6_8 
REMARK    3  A    between atoms: C6_8  and  N1_9 
REMARK    4  A    between atoms: C6_8  and  C16_28 
REMARK    5  A    between atoms: N2_11  and  C7_13 
REMARK    6  A    between atoms: C9_15  and  O2_16 
REMARK    7  A    between atoms: N3_18  and  C10_19 
REMARK    8  A    between atoms: C10_19  and  N4_20 
REMARK    9  A    between atoms: C15_25  and  O3_26 
ROOT
HETATM    1  N1  UNL     1       2.805   2.355  35.490  1.00  0.00    -0.326 N 
ATOM      2  H1  UNL     1       3.571   1.841  35.923  1.00  0.00     0.181 HD
HETATM    3  N2  UNL     1       2.968   2.745  34.316  1.00  0.00    -0.300 N 
ATOM      4  H2  UNL     1       3.862   2.517  33.881  1.00  0.00     0.186 HD
ENDROOT
BRANCH   1   5
HETATM    5  C6  UNL     1       1.616   2.573  36.288  1.00  0.00     0.136 C 
BRANCH   5   6
HETATM    6  C5  UNL     1       1.016   1.276  36.607  1.00  0.00    -0.031 A 
HETATM    7  C4  UNL     1       1.143   0.721  37.860  1.00  0.00     0.009 A 
HETATM    8  C3  UNL     1       0.593  -0.483  38.179  1.00  0.00     0.003 A 
HETATM    9  C2  UNL     1      -0.125  -1.211  37.250  1.00  0.00     0.036 A 
HETATM   10  C1  UNL     1      -0.243  -0.642  35.994  1.00  0.00     0.066 A 
HETATM   11  C22 UNL     1       0.306   0.573  35.658  1.00  0.00     0.045 A 
BRANCH  10  12
HETATM   12  O1  UNL     1      -0.968  -1.354  35.022  1.00  0.00    -0.361 OA
ATOM     13  H1  UNL     1      -1.185  -2.260  35.211  1.00  0.00     0.217 HD
ENDBRANCH  10  12
ENDBRANCH   5   6
BRANCH   5  14
HETATM   14  C16 UNL     1       2.028   3.373  37.504  1.00  0.00     0.014 C 
HETATM   15  C17 UNL     1       2.378   4.800  37.178  1.00  0.00     0.007 C 
HETATM   16  C18 UNL     1       2.512   5.534  38.504  1.00  0.00     0.000 C 
HETATM   17  C19 UNL     1       3.720   4.894  39.202  1.00  0.00     0.000 C 
HETATM   18  C20 UNL     1       3.346   3.475  39.543  1.00  0.00     0.000 C 
HETATM   19  C21 UNL     1       3.171   2.698  38.248  1.00  0.00     0.007 C 
ENDBRANCH   5  14
ENDBRANCH   1   5
BRANCH   3  20
HETATM   20  C7  UNL     1       2.055   3.464  33.530  1.00  0.00     0.103 A 
HETATM   21  C8  UNL     1       0.999   2.895  32.855  1.00  0.00     0.091 A 
HETATM   22  C9  UNL     1       0.307   3.874  32.188  1.00  0.00     0.147 A 
HETATM   23  N3  UNL     1       0.932   5.040  32.448  1.00  0.00    -0.279 N 
HETATM   24  C15 UNL     1       1.982   4.812  33.251  1.00  0.00     0.174 A 
BRANCH  22  25
HETATM   25  O2  UNL     1      -0.837   3.704  31.382  1.00  0.00    -0.346 OA
ATOM     26  H2  UNL     1      -0.911   3.173  30.597  1.00  0.00     0.219 HD
ENDBRANCH  22  25
BRANCH  23  27
HETATM   27  C10 UNL     1       0.477   6.329  31.915  1.00  0.00     0.406 C 
BRANCH  27  28
HETATM   28  N4  UNL     1      -0.940   6.471  32.013  1.00  0.00     0.106 N 
HETATM   29  C11 UNL     1      -1.327   7.450  33.023  1.00  0.00     0.274 C 
HETATM   30  C12 UNL     1      -2.818   7.534  32.794  1.00  0.00     0.032 C 
HETATM   31  C13 UNL     1      -2.939   7.489  31.298  1.00  0.00     0.032 C 
HETATM   32  C14 UNL     1      -1.556   7.020  30.812  1.00  0.00     0.274 C 
ENDBRANCH  27  28
ENDBRANCH  23  27
BRANCH  24  33
HETATM   33  O3  UNL     1       2.899   5.724  33.769  1.00  0.00    -0.344 OA
ATOM     34  H3  UNL     1       3.170   6.495  33.286  1.00  0.00     0.219 HD
ENDBRANCH  24  33
ENDBRANCH   3  20
TORSDOF 9
ENDMDL
MODEL 3
REMARK VINA RESULT: -8.722212803      2.541      7.421
REMARK  9 active torsions:
REMARK  status: ('A' for Active; 'I' for Inactive)
REMARK    1  A    between atoms: O1_1  and  C1_3 
REMARK    2  A    between atoms: C5_7  and  C6_8 
REMARK    3  A    between atoms: C6_8  and  N1_9 
REMARK    4  A    between atoms: C6_8  and  C16_28 
REMARK    5  A    between atoms: N2_11  and  C7_13 
REMARK    6  A    between atoms: C9_15  and  O2_16 
REMARK    7  A    between atoms: N3_18  and  C10_19 
REMARK    8  A    between atoms: C10_19  and  N4_20 
REMARK    9  A    between atoms: C15_25  and  O3_26 
ROOT
HETATM    1  N1  UNL     1       3.159   3.266  34.788  1.00  0.00    -0.326 N 
ATOM      2  H1  UNL     1       3.881   3.540  34.123  1.00  0.00     0.181 HD
HETATM    3  N2  UNL     1       3.079   2.055  35.080  1.00  0.00    -0.300 N 
ATOM      4  H2  UNL     1       3.747   1.432  34.627  1.00  0.00     0.186 HD
ENDROOT
BRANCH   1   5
HETATM    5  C6  UNL     1       2.310   4.314  35.316  1.00  0.00     0.136 C 
BRANCH   5   6
HETATM    6  C5  UNL     1       3.095   5.139  36.237  1.00  0.00    -0.031 A 
HETATM    7  C4  UNL     1       4.197   5.840  35.804  1.00  0.00     0.009 A 
HETATM    8  C3  UNL     1       4.940   6.614  36.641  1.00  0.00     0.003 A 
HETATM    9  C2  UNL     1       4.619   6.732  37.980  1.00  0.00     0.036 A 
HETATM   10  C1  UNL     1       3.510   6.021  38.403  1.00  0.00     0.066 A 
HETATM   11  C22 UNL     1       2.750   5.236  37.568  1.00  0.00     0.045 A 
BRANCH  10  12
HETATM   12  O1  UNL     1       3.153   6.117  39.759  1.00  0.00    -0.361 OA
ATOM     13  H1  UNL     1       2.308   5.768  40.018  1.00  0.00     0.217 HD
ENDBRANCH  10  12
ENDBRANCH   5   6
BRANCH   5  14
HETATM   14  C16 UNL     1       1.748   5.077  34.137  1.00  0.00     0.014 C 
HETATM   15  C17 UNL     1       0.456   4.499  33.624  1.00  0.00     0.007 C 
HETATM   16  C18 UNL     1      -0.113   5.504  32.634  1.00  0.00     0.000 C 
HETATM   17  C19 UNL     1       0.888   5.541  31.471  1.00  0.00     0.000 C 
HETATM   18  C20 UNL     1       2.166   6.143  31.994  1.00  0.00     0.000 C 
HETATM   19  C21 UNL     1       2.767   5.189  33.014  1.00  0.00     0.007 C 
ENDBRANCH   5  14
ENDBRANCH   1   5
BRANCH   3  20
HETATM   20  C7  UNL     1       2.169   1.459  35.966  1.00  0.00     0.103 A 
HETATM   21  C8  UNL     1       2.199   1.622  37.332  1.00  0.00     0.091 A 
HETATM   22  C9  UNL     1       1.174   0.906  37.898  1.00  0.00     0.147 A 
HETATM   23  N3  UNL     1       0.516   0.304  36.886  1.00  0.00    -0.279 N 
HETATM   24  C15 UNL     1       1.099   0.625  35.722  1.00  0.00     0.174 A 
BRANCH  22  25
HETATM   25  O2  UNL     1       0.862   0.810  39.269  1.00  0.00    -0.346 OA
ATOM     26  H2  UNL     1       0.911   0.034  39.814  1.00  0.00     0.219 HD
ENDBRANCH  22  25
BRANCH  23  27
HETATM   27  C10 UNL     1      -0.661  -0.549  37.092  1.00  0.00     0.406 C 
BRANCH  27  28
HETATM   28  N4  UNL     1      -0.383  -1.916  36.785  1.00  0.00     0.106 N 
HETATM   29  C11 UNL     1      -0.549  -2.785  37.944  1.00  0.00     0.274 C 
HETATM   30  C12 UNL     1      -0.380  -4.148  37.315  1.00  0.00     0.032 C 
HETATM   31  C13 UNL     1      -1.108  -4.016  36.009  1.00  0.00     0.032 C 
HETATM   32  C14 UNL     1      -1.318  -2.502  35.833  1.00  0.00     0.274 C 
ENDBRANCH  27  28
ENDBRANCH  23  27
BRANCH  24  33
HETATM   33  O3  UNL     1       0.750   0.231  34.433  1.00  0.00    -0.344 OA
ATOM     34  H3  UNL     1      -0.133   0.333  34.097  1.00  0.00     0.219 HD
ENDBRANCH  24  33
ENDBRANCH   3  20
TORSDOF 9
ENDMDL
MODEL 4
REMARK VINA RESULT: -8.431112605      3.245      8.536
REMARK  9 active torsions:
REMARK  status: ('A' for Active; 'I' for Inactive)
REMARK    1  A    between atoms: O1_1  and  C1_3 
REMARK    2  A    between atoms: C5_7  and  C6_8 
REMARK    3  A    between atoms: C6_8  and  N1_9 
REMARK    4  A    between atoms: C6_8  and  C16_28 
REMARK    5  A    between atoms: N2_11  and  C7_13 
REMARK    6  A    between atoms: C9_15  and  O2_16 
REMARK    7  A    between atoms: N3_18  and  C10_19 
REMARK    8  A    between atoms: C10_19  and  N4_20 
REMARK    9  A    between atoms: C15_25  and  O3_26 
ROOT
HETATM    1  N1  UNL     1      -2.407   8.864  31.306  1.00  0.00    -0.326 N 
ATOM      2  H1  UNL     1      -2.576   9.852  31.118  1.00  0.00     0.181 HD
HETATM    3  N2  UNL     1      -1.456   8.322  30.709  1.00  0.00    -0.300 N 
ATOM      4  H2  UNL     1      -0.920   8.914  30.075  1.00  0.00     0.186 HD
ENDROOT
BRANCH   1   5
HETATM    5  C6  UNL     1      -3.292   8.207  32.246  1.00  0.00     0.136 C 
BRANCH   5   6
HETATM    6  C5  UNL     1      -2.832   8.492  33.607  1.00  0.00    -0.031 A 
HETATM    7  C4  UNL     1      -2.256   7.514  34.385  1.00  0.00     0.009 A 
HETATM    8  C3  UNL     1      -1.820   7.756  35.651  1.00  0.00     0.003 A 
HETATM    9  C2  UNL     1      -1.938   9.009  36.221  1.00  0.00     0.036 A 
HETATM   10  C1  UNL     1      -2.521   9.983  35.429  1.00  0.00     0.066 A 
HETATM   11  C22 UNL     1      -2.965   9.752  34.149  1.00  0.00     0.045 A 
BRANCH  10  12
HETATM   12  O1  UNL     1      -2.658  11.271  35.976  1.00  0.00    -0.361 OA
ATOM     13  H1  UNL     1      -2.294  11.998  35.485  1.00  0.00     0.217 HD
ENDBRANCH  10  12
ENDBRANCH   5   6
BRANCH   5  14
HETATM   14  C16 UNL     1      -4.696   8.693  31.960  1.00  0.00     0.014 C 
HETATM   15  C17 UNL     1      -5.710   8.173  32.945  1.00  0.00     0.007 C 
HETATM   16  C18 UNL     1      -6.999   8.940  32.696  1.00  0.00     0.000 C 
HETATM   17  C19 UNL     1      -7.450   8.530  31.287  1.00  0.00     0.000 C 
HETATM   18  C20 UNL     1      -6.440   9.078  30.312  1.00  0.00     0.000 C 
HETATM   19  C21 UNL     1      -5.117   8.363  30.536  1.00  0.00     0.007 C 
ENDBRANCH   5  14
ENDBRANCH   1   5
BRANCH   3  20
HETATM   20  C7  UNL     1      -1.045   6.985  30.815  1.00  0.00     0.103 A 
HETATM   21  C8  UNL     1      -1.733   5.919  30.280  1.00  0.00     0.091 A 
HETATM   22  C9  UNL     1      -1.062   4.757  30.565  1.00  0.00     0.147 A 
HETATM   23  N3  UNL     1       0.033   5.103  31.272  1.00  0.00    -0.279 N 
HETATM   24  C15 UNL     1       0.058   6.434  31.431  1.00  0.00     0.174 A 
BRANCH  22  25
HETATM   25  O2  UNL     1      -1.436   3.449  30.196  1.00  0.00    -0.346 OA
ATOM     26  H2  UNL     1      -0.947   2.649  30.351  1.00  0.00     0.219 HD
ENDBRANCH  22  25
BRANCH  23  27
HETATM   27  C10 UNL     1       1.017   4.126  31.755  1.00  0.00     0.406 C 
BRANCH  27  28
HETATM   28  N4  UNL     1       0.966   3.982  33.175  1.00  0.00     0.106 N 
HETATM   29  C11 UNL     1       0.993   2.583  33.588  1.00  0.00     0.274 C 
HETATM   30  C12 UNL     1       1.113   2.723  35.087  1.00  0.00     0.032 C 
HETATM   31  C13 UNL     1       2.070   3.868  35.251  1.00  0.00     0.032 C 
HETATM   32  C14 UNL     1       2.136   4.519  33.858  1.00  0.00     0.274 C 
ENDBRANCH  27  28
ENDBRANCH  23  27
BRANCH  24  33
HETATM   33  O3  UNL     1       1.002   7.217  32.091  1.00  0.00    -0.344 OA
ATOM     34  H3  UNL     1       1.874   7.355  31.742  1.00  0.00     0.219 HD
ENDBRANCH  24  33
ENDBRANCH   3  20
TORSDOF 9
ENDMDL
MODEL 5
REMARK VINA RESULT: -8.427145885      1.507      2.260
REMARK  9 active torsions:
REMARK  status: ('A' for Active; 'I' for Inactive)
REMARK    1  A    between atoms: O1_1  and  C1_3 
REMARK    2  A    between atoms: C5_7  and  C6_8 
REMARK    3  A    between atoms: C6_8  and  N1_9 
REMARK    4  A    between atoms: C6_8  and  C16_28 
REMARK    5  A    between atoms: N2_11  and  C7_13 
REMARK    6  A    between atoms: C9_15  and  O2_16 
REMARK    7  A    between atoms: N3_18  and  C10_19 
REMARK    8  A    between atoms: C10_19  and  N4_20 
REMARK    9  A    between atoms: C15_25  and  O3_26 
ROOT
HETATM    1  N1  UNL     1       2.865   2.241  35.777  1.00  0.00    -0.326 N 
ATOM      2  H1  UNL     1       3.635   1.739  36.218  1.00  0.00     0.181 HD
HETATM    3  N2  UNL     1       3.024   2.610  34.595  1.00  0.00    -0.300 N 
ATOM      4  H2  UNL     1       3.918   2.379  34.163  1.00  0.00     0.186 HD
ENDROOT
BRANCH   1   5
HETATM    5  C6  UNL     1       1.676   2.467  36.573  1.00  0.00     0.136 C 
BRANCH   5   6
HETATM    6  C5  UNL     1       1.059   1.174  36.878  1.00  0.00    -0.031 A 
HETATM    7  C4  UNL     1       1.249   0.562  38.096  1.00  0.00     0.009 A 
HETATM    8  C3  UNL     1       0.685  -0.637  38.402  1.00  0.00     0.003 A 
HETATM    9  C2  UNL     1      -0.114  -1.305  37.493  1.00  0.00     0.036 A 
HETATM   10  C1  UNL     1      -0.296  -0.680  36.272  1.00  0.00     0.066 A 
HETATM   11  C22 UNL     1       0.267   0.532  35.951  1.00  0.00     0.045 A 
BRANCH  10  12
HETATM   12  O1  UNL     1      -1.103  -1.330  35.322  1.00  0.00    -0.361 OA
ATOM     13  H1  UNL     1      -1.846  -0.851  34.975  1.00  0.00     0.217 HD
ENDBRANCH  10  12
ENDBRANCH   5   6
BRANCH   5  14
HETATM   14  C16 UNL     1       2.095   3.249  37.799  1.00  0.00     0.014 C 
HETATM   15  C17 UNL     1       2.456   4.678  37.488  1.00  0.00     0.007 C 
HETATM   16  C18 UNL     1       2.596   5.395  38.822  1.00  0.00     0.000 C 
HETATM   17  C19 UNL     1       3.799   4.739  39.513  1.00  0.00     0.000 C 
HETATM   18  C20 UNL     1       3.414   3.319  39.838  1.00  0.00     0.000 C 
HETATM   19  C21 UNL     1       3.233   2.558  38.534  1.00  0.00     0.007 C 
ENDBRANCH   5  14
ENDBRANCH   1   5
BRANCH   3  20
HETATM   20  C7  UNL     1       2.105   3.309  33.799  1.00  0.00     0.103 A 
HETATM   21  C8  UNL     1       1.084   2.715  33.092  1.00  0.00     0.091 A 
HETATM   22  C9  UNL     1       0.375   3.679  32.422  1.00  0.00     0.147 A 
HETATM   23  N3  UNL     1       0.955   4.861  32.712  1.00  0.00    -0.279 N 
HETATM   24  C15 UNL     1       1.993   4.657  33.536  1.00  0.00     0.174 A 
BRANCH  22  25
HETATM   25  O2  UNL     1      -0.744   3.482  31.588  1.00  0.00    -0.346 OA
ATOM     26  H2  UNL     1      -0.808   3.677  30.660  1.00  0.00     0.219 HD
ENDBRANCH  22  25
BRANCH  23  27
HETATM   27  C10 UNL     1       0.469   6.142  32.185  1.00  0.00     0.406 C 
BRANCH  27  28
HETATM   28  N4  UNL     1       1.133   6.502  30.973  1.00  0.00     0.106 N 
HETATM   29  C11 UNL     1       2.330   5.699  30.743  1.00  0.00     0.274 C 
HETATM   30  C12 UNL     1       2.717   6.145  29.352  1.00  0.00     0.032 C 
HETATM   31  C13 UNL     1       1.397   6.259  28.647  1.00  0.00     0.032 C 
HETATM   32  C14 UNL     1       0.351   6.226  29.775  1.00  0.00     0.274 C 
ENDBRANCH  27  28
ENDBRANCH  23  27
BRANCH  24  33
HETATM   33  O3  UNL     1       2.867   5.591  34.086  1.00  0.00    -0.344 OA
ATOM     34  H3  UNL     1       2.826   6.513  33.862  1.00  0.00     0.219 HD
ENDBRANCH  24  33
ENDBRANCH   3  20
TORSDOF 9
ENDMDL
