MODEL 1
REMARK VINA RESULT: -6.093184465      0.000      0.000
REMARK  8 active torsions:
REMARK  status: ('A' for Active; 'I' for Inactive)
REMARK    1  A    between atoms: O1_2  and  C2_3 
REMARK    2  A    between atoms: C4_5  and  C5_6 
REMARK    3  A    between atoms: C6_7  and  C7_8 
REMARK    4  A    between atoms: C12_14  and  C13_15 
REMARK    5  A    between atoms: N2_19  and  C17_20 
REMARK    6  A    between atoms: N3_21  and  O2_23 
REMARK    7  A    between atoms: C19_26  and  O3_27 
REMARK    8  A    between atoms: C21_29  and  O4_30 
ROOT
HETATM    1  C5  UNL     1       0.831   1.709  36.137  1.00  0.00     0.059 A 
HETATM    2  C6  UNL     1       1.266   2.633  35.170  1.00  0.00    -0.004 A 
HETATM    3  C10 UNL     1       2.181   3.417  35.789  1.00  0.00     0.077 A 
HETATM    4  C11 UNL     1       2.961   4.491  35.231  1.00  0.00     0.102 C 
HETATM    5  N1  UNL     1       3.609   5.375  34.774  1.00  0.00    -0.191 NA
HETATM    6  C12 UNL     1       2.312   3.004  37.153  1.00  0.00     0.043 A 
HETATM    7  N2  UNL     1       1.485   1.982  37.299  1.00  0.00    -0.307 N 
ENDROOT
BRANCH   2   8
HETATM    8  C7  UNL     1       0.643   2.802  33.814  1.00  0.00     0.014 C 
HETATM    9  C8  UNL     1       1.665   2.569  32.685  1.00  0.00     0.015 C 
HETATM   10  C9  UNL     1       0.350   4.322  33.654  1.00  0.00     0.015 C 
ENDBRANCH   2   8
BRANCH   6  11
HETATM   11  C13 UNL     1       3.284   3.628  38.022  1.00  0.00     0.038 C 
HETATM   12  C14 UNL     1       2.933   4.897  38.798  1.00  0.00     0.011 C 
HETATM   13  C15 UNL     1       3.981   4.328  39.836  1.00  0.00     0.001 C 
HETATM   14  C16 UNL     1       3.196   3.009  39.492  1.00  0.00     0.011 C 
ENDBRANCH   6  11
BRANCH   1  15
HETATM   15  C4  UNL     1      -0.020   0.557  35.857  1.00  0.00    -0.003 A 
HETATM   16  C3  UNL     1      -1.283   0.451  36.431  1.00  0.00     0.053 A 
HETATM   17  C2  UNL     1      -2.098  -0.677  36.261  1.00  0.00     0.104 A 
HETATM   18  C21 UNL     1      -1.623  -1.695  35.500  1.00  0.00     0.133 A 
HETATM   19  C19 UNL     1      -0.355  -1.653  34.889  1.00  0.00     0.104 A 
HETATM   20  C18 UNL     1       0.394  -0.533  35.098  1.00  0.00     0.053 A 
BRANCH  17  21
HETATM   21  O1  UNL     1      -3.341  -0.723  36.860  1.00  0.00    -0.353 OA
HETATM   22  C1  UNL     1      -4.404   0.095  36.367  1.00  0.00     0.210 C 
ENDBRANCH  17  21
BRANCH  18  23
HETATM   23  O4  UNL     1      -2.363  -2.865  35.265  1.00  0.00    -0.356 OA
ATOM     24  H4  UNL     1      -2.014  -3.730  35.442  1.00  0.00     0.218 HD
ENDBRANCH  18  23
BRANCH  19  25
HETATM   25  O3  UNL     1       0.070  -2.699  34.130  1.00  0.00    -0.353 OA
HETATM   26  C20 UNL     1       0.813  -2.766  32.974  1.00  0.00     0.210 C 
ENDBRANCH  19  25
ENDBRANCH   1  15
BRANCH   7  27
HETATM   27  C17 UNL     1       1.275   1.146  38.446  1.00  0.00     0.212 C 
HETATM   28  N3  UNL     1       1.698  -0.105  38.392  1.00  0.00    -0.264 N 
ATOM     29  H3  UNL     1       2.160  -0.463  37.556  1.00  0.00     0.194 HD
BRANCH  28  30
HETATM   30  O2  UNL     1       1.498  -0.924  39.504  1.00  0.00    -0.289 OA
ATOM     31  H2  UNL     1       2.083  -1.662  39.634  1.00  0.00     0.244 HD
ENDBRANCH  28  30
ENDBRANCH   7  27
TORSDOF 8
ENDMDL
MODEL 2
REMARK VINA RESULT: -5.758896843      0.241      2.450
REMARK  8 active torsions:
REMARK  status: ('A' for Active; 'I' for Inactive)
REMARK    1  A    between atoms: O1_2  and  C2_3 
REMARK    2  A    between atoms: C4_5  and  C5_6 
REMARK    3  A    between atoms: C6_7  and  C7_8 
REMARK    4  A    between atoms: C12_14  and  C13_15 
REMARK    5  A    between atoms: N2_19  and  C17_20 
REMARK    6  A    between atoms: N3_21  and  O2_23 
REMARK    7  A    between atoms: C19_26  and  O3_27 
REMARK    8  A    between atoms: C21_29  and  O4_30 
ROOT
HETATM    1  C5  UNL     1       0.782   1.628  36.122  1.00  0.00     0.059 A 
HETATM    2  C6  UNL     1       1.225   2.542  35.148  1.00  0.00    -0.004 A 
HETATM    3  C10 UNL     1       2.135   3.332  35.766  1.00  0.00     0.077 A 
HETATM    4  C11 UNL     1       2.921   4.399  35.202  1.00  0.00     0.102 C 
HETATM    5  N1  UNL     1       3.574   5.277  34.741  1.00  0.00    -0.191 NA
HETATM    6  C12 UNL     1       2.255   2.934  37.136  1.00  0.00     0.043 A 
HETATM    7  N2  UNL     1       1.426   1.914  37.286  1.00  0.00    -0.307 N 
ENDROOT
BRANCH   2   8
HETATM    8  C7  UNL     1       0.614   2.695  33.785  1.00  0.00     0.014 C 
HETATM    9  C8  UNL     1       1.647   2.458  32.668  1.00  0.00     0.015 C 
HETATM   10  C9  UNL     1       0.314   4.212  33.609  1.00  0.00     0.015 C 
ENDBRANCH   2   8
BRANCH   6  11
HETATM   11  C13 UNL     1       3.220   3.567  38.005  1.00  0.00     0.038 C 
HETATM   12  C14 UNL     1       2.852   4.826  38.790  1.00  0.00     0.011 C 
HETATM   13  C15 UNL     1       3.912   4.266  39.822  1.00  0.00     0.001 C 
HETATM   14  C16 UNL     1       3.146   2.937  39.472  1.00  0.00     0.011 C 
ENDBRANCH   6  11
BRANCH   1  15
HETATM   15  C4  UNL     1      -0.068   0.474  35.847  1.00  0.00    -0.003 A 
HETATM   16  C3  UNL     1       0.427  -0.620  35.143  1.00  0.00     0.053 A 
HETATM   17  C2  UNL     1      -0.375  -1.710  34.780  1.00  0.00     0.104 A 
HETATM   18  C21 UNL     1      -1.683  -1.685  35.142  1.00  0.00     0.133 A 
HETATM   19  C19 UNL     1      -2.249  -0.611  35.856  1.00  0.00     0.104 A 
HETATM   20  C18 UNL     1      -1.419   0.424  36.173  1.00  0.00     0.053 A 
BRANCH  17  21
HETATM   21  O1  UNL     1       0.174  -2.765  34.078  1.00  0.00    -0.353 OA
HETATM   22  C1  UNL     1       1.008  -2.512  32.944  1.00  0.00     0.210 C 
ENDBRANCH  17  21
BRANCH  18  23
HETATM   23  O4  UNL     1      -2.568  -2.730  34.831  1.00  0.00    -0.356 OA
ATOM     24  H4  UNL     1      -3.473  -2.733  35.122  1.00  0.00     0.218 HD
ENDBRANCH  18  23
BRANCH  19  25
HETATM   25  O3  UNL     1      -3.565  -0.640  36.199  1.00  0.00    -0.353 OA
HETATM   26  C20 UNL     1      -4.415   0.320  36.699  1.00  0.00     0.210 C 
ENDBRANCH  19  25
ENDBRANCH   1  15
BRANCH   7  27
HETATM   27  C17 UNL     1       1.206   1.091  38.441  1.00  0.00     0.212 C 
HETATM   28  N3  UNL     1       1.664  -0.148  38.420  1.00  0.00    -0.264 N 
ATOM     29  H3  UNL     1       2.160  -0.506  37.603  1.00  0.00     0.194 HD
BRANCH  28  30
HETATM   30  O2  UNL     1       1.454  -0.955  39.539  1.00  0.00    -0.289 OA
ATOM     31  H2  UNL     1       1.393  -1.895  39.415  1.00  0.00     0.244 HD
ENDBRANCH  28  30
ENDBRANCH   7  27
TORSDOF 8
ENDMDL
MODEL 3
REMARK VINA RESULT: -5.709676487      3.578      7.886
REMARK  8 active torsions:
REMARK  status: ('A' for Active; 'I' for Inactive)
REMARK    1  A    between atoms: O1_2  and  C2_3 
REMARK    2  A    between atoms: C4_5  and  C5_6 
REMARK    3  A    between atoms: C6_7  and  C7_8 
REMARK    4  A    between atoms: C12_14  and  C13_15 
REMARK    5  A    between atoms: N2_19  and  C17_20 
REMARK    6  A    between atoms: N3_21  and  O2_23 
REMARK    7  A    between atoms: C19_26  and  O3_27 
REMARK    8  A    between atoms: C21_29  and  O4_30 
ROOT
HETATM    1  C5  UNL     1      -1.991  -2.071  35.247  1.00  0.00     0.059 A 
HETATM    2  C6  UNL     1      -3.375  -1.850  35.367  1.00  0.00    -0.004 A 
HETATM    3  C10 UNL     1      -3.946  -2.494  34.320  1.00  0.00     0.077 A 
HETATM    4  C11 UNL     1      -5.345  -2.618  34.004  1.00  0.00     0.102 C 
HETATM    5  N1  UNL     1      -6.498  -2.726  33.741  1.00  0.00    -0.191 NA
HETATM    6  C12 UNL     1      -2.924  -3.106  33.526  1.00  0.00     0.043 A 
HETATM    7  N2  UNL     1      -1.782  -2.820  34.131  1.00  0.00    -0.307 N 
ENDROOT
BRANCH   2   8
HETATM    8  C7  UNL     1      -4.005  -0.905  36.349  1.00  0.00     0.014 C 
HETATM    9  C8  UNL     1      -5.133  -1.582  37.148  1.00  0.00     0.015 C 
HETATM   10  C9  UNL     1      -4.803   0.132  35.507  1.00  0.00     0.015 C 
ENDBRANCH   2   8
BRANCH   6  11
HETATM   11  C13 UNL     1      -3.268  -3.924  32.387  1.00  0.00     0.038 C 
HETATM   12  C14 UNL     1      -2.378  -3.942  31.144  1.00  0.00     0.011 C 
HETATM   13  C15 UNL     1      -2.932  -5.415  30.996  1.00  0.00     0.001 C 
HETATM   14  C16 UNL     1      -2.645  -5.388  32.543  1.00  0.00     0.011 C 
ENDBRANCH   6  11
BRANCH   1  15
HETATM   15  C4  UNL     1      -1.006  -1.713  36.263  1.00  0.00    -0.003 A 
HETATM   16  C3  UNL     1      -0.782  -2.543  37.358  1.00  0.00     0.053 A 
HETATM   17  C2  UNL     1       0.089  -2.198  38.401  1.00  0.00     0.104 A 
HETATM   18  C21 UNL     1       0.735  -1.007  38.322  1.00  0.00     0.133 A 
HETATM   19  C19 UNL     1       0.555  -0.120  37.242  1.00  0.00     0.104 A 
HETATM   20  C18 UNL     1      -0.311  -0.509  36.263  1.00  0.00     0.053 A 
BRANCH  17  21
HETATM   21  O1  UNL     1       0.266  -3.062  39.463  1.00  0.00    -0.353 OA
HETATM   22  C1  UNL     1      -0.657  -4.133  39.675  1.00  0.00     0.210 C 
ENDBRANCH  17  21
BRANCH  18  23
HETATM   23  O4  UNL     1       1.630  -0.571  39.312  1.00  0.00    -0.356 OA
ATOM     24  H4  UNL     1       2.232   0.150  39.171  1.00  0.00     0.218 HD
ENDBRANCH  18  23
BRANCH  19  25
HETATM   25  O3  UNL     1       1.233   1.059  37.210  1.00  0.00    -0.353 OA
HETATM   26  C20 UNL     1       1.578   1.903  36.180  1.00  0.00     0.210 C 
ENDBRANCH  19  25
ENDBRANCH   1  15
BRANCH   7  27
HETATM   27  C17 UNL     1      -0.453  -3.247  33.799  1.00  0.00     0.212 C 
HETATM   28  N3  UNL     1       0.266  -2.480  32.998  1.00  0.00    -0.264 N 
ATOM     29  H3  UNL     1      -0.117  -1.610  32.629  1.00  0.00     0.194 HD
BRANCH  28  30
HETATM   30  O2  UNL     1       1.559  -2.888  32.670  1.00  0.00    -0.289 OA
ATOM     31  H2  UNL     1       1.669  -3.547  31.994  1.00  0.00     0.244 HD
ENDBRANCH  28  30
ENDBRANCH   7  27
TORSDOF 8
ENDMDL
MODEL 4
REMARK VINA RESULT: -5.655785013      4.051      8.111
REMARK  8 active torsions:
REMARK  status: ('A' for Active; 'I' for Inactive)
REMARK    1  A    between atoms: O1_2  and  C2_3 
REMARK    2  A    between atoms: C4_5  and  C5_6 
REMARK    3  A    between atoms: C6_7  and  C7_8 
REMARK    4  A    between atoms: C12_14  and  C13_15 
REMARK    5  A    between atoms: N2_19  and  C17_20 
REMARK    6  A    between atoms: N3_21  and  O2_23 
REMARK    7  A    between atoms: C19_26  and  O3_27 
REMARK    8  A    between atoms: C21_29  and  O4_30 
ROOT
HETATM    1  C5  UNL     1      -1.332  -3.094  34.192  1.00  0.00     0.059 A 
HETATM    2  C6  UNL     1      -0.492  -3.435  33.116  1.00  0.00    -0.004 A 
HETATM    3  C10 UNL     1      -1.312  -3.665  32.063  1.00  0.00     0.077 A 
HETATM    4  C11 UNL     1      -0.953  -4.004  30.710  1.00  0.00     0.102 C 
HETATM    5  N1  UNL     1      -0.663  -4.279  29.592  1.00  0.00    -0.191 NA
HETATM    6  C12 UNL     1      -2.672  -3.491  32.473  1.00  0.00     0.043 A 
HETATM    7  N2  UNL     1      -2.619  -3.149  33.751  1.00  0.00    -0.307 N 
ENDROOT
BRANCH   2   8
HETATM    8  C7  UNL     1       0.983  -3.687  33.236  1.00  0.00     0.014 C 
HETATM    9  C8  UNL     1       1.786  -2.862  32.213  1.00  0.00     0.015 C 
HETATM   10  C9  UNL     1       1.222  -5.135  32.720  1.00  0.00     0.015 C 
ENDBRANCH   2   8
BRANCH   6  11
HETATM   11  C13 UNL     1      -3.750  -3.602  31.519  1.00  0.00     0.038 C 
HETATM   12  C14 UNL     1      -4.044  -4.934  30.828  1.00  0.00     0.011 C 
HETATM   13  C15 UNL     1      -5.524  -4.377  30.795  1.00  0.00     0.001 C 
HETATM   14  C16 UNL     1      -5.115  -3.976  32.261  1.00  0.00     0.011 C 
ENDBRANCH   6  11
BRANCH   1  15
HETATM   15  C4  UNL     1      -0.865  -2.587  35.478  1.00  0.00    -0.003 A 
HETATM   16  C3  UNL     1      -0.522  -1.247  35.631  1.00  0.00     0.053 A 
HETATM   17  C2  UNL     1       0.015  -0.736  36.821  1.00  0.00     0.104 A 
HETATM   18  C21 UNL     1       0.195  -1.594  37.857  1.00  0.00     0.133 A 
HETATM   19  C19 UNL     1      -0.132  -2.961  37.771  1.00  0.00     0.104 A 
HETATM   20  C18 UNL     1      -0.642  -3.400  36.585  1.00  0.00     0.053 A 
BRANCH  17  21
HETATM   21  O1  UNL     1       0.339   0.603  36.909  1.00  0.00    -0.353 OA
HETATM   22  C1  UNL     1       1.044   1.241  35.841  1.00  0.00     0.210 C 
ENDBRANCH  17  21
BRANCH  18  23
HETATM   23  O4  UNL     1       0.721  -1.180  39.091  1.00  0.00    -0.356 OA
ATOM     24  H4  UNL     1       0.502  -0.343  39.482  1.00  0.00     0.218 HD
ENDBRANCH  18  23
BRANCH  19  25
HETATM   25  O3  UNL     1       0.064  -3.776  38.843  1.00  0.00    -0.353 OA
HETATM   26  C20 UNL     1      -0.798  -4.304  39.776  1.00  0.00     0.210 C 
ENDBRANCH  19  25
ENDBRANCH   1  15
BRANCH   7  27
HETATM   27  C17 UNL     1      -3.690  -2.786  34.634  1.00  0.00     0.212 C 
HETATM   28  N3  UNL     1      -4.150  -1.548  34.579  1.00  0.00    -0.264 N 
ATOM     29  H3  UNL     1      -3.752  -0.873  33.926  1.00  0.00     0.194 HD
BRANCH  28  30
HETATM   30  O2  UNL     1      -5.192  -1.187  35.434  1.00  0.00    -0.289 OA
ATOM     31  H2  UNL     1      -5.163  -0.331  35.847  1.00  0.00     0.244 HD
ENDBRANCH  28  30
ENDBRANCH   7  27
TORSDOF 8
ENDMDL
MODEL 5
REMARK VINA RESULT: -5.616238928      3.892      7.996
REMARK  8 active torsions:
REMARK  status: ('A' for Active; 'I' for Inactive)
REMARK    1  A    between atoms: O1_2  and  C2_3 
REMARK    2  A    between atoms: C4_5  and  C5_6 
REMARK    3  A    between atoms: C6_7  and  C7_8 
REMARK    4  A    between atoms: C12_14  and  C13_15 
REMARK    5  A    between atoms: N2_19  and  C17_20 
REMARK    6  A    between atoms: N3_21  and  O2_23 
REMARK    7  A    between atoms: C19_26  and  O3_27 
REMARK    8  A    between atoms: C21_29  and  O4_30 
ROOT
HETATM    1  C5  UNL     1      -1.176  -2.866  34.267  1.00  0.00     0.059 A 
HETATM    2  C6  UNL     1      -0.401  -3.395  33.218  1.00  0.00    -0.004 A 
HETATM    3  C10 UNL     1      -1.278  -3.733  32.242  1.00  0.00     0.077 A 
HETATM    4  C11 UNL     1      -0.996  -4.276  30.938  1.00  0.00     0.102 C 
HETATM    5  N1  UNL     1      -0.769  -4.720  29.861  1.00  0.00    -0.191 NA
HETATM    6  C12 UNL     1      -2.609  -3.439  32.678  1.00  0.00     0.043 A 
HETATM    7  N2  UNL     1      -2.483  -2.923  33.890  1.00  0.00    -0.307 N 
ENDROOT
BRANCH   2   8
HETATM    8  C7  UNL     1       1.066  -3.697  33.314  1.00  0.00     0.014 C 
HETATM    9  C8  UNL     1       1.846  -3.117  32.119  1.00  0.00     0.015 C 
HETATM   10  C9  UNL     1       1.215  -5.225  33.065  1.00  0.00     0.015 C 
ENDBRANCH   2   8
BRANCH   6  11
HETATM   11  C13 UNL     1      -3.734  -3.633  31.793  1.00  0.00     0.038 C 
HETATM   12  C14 UNL     1      -4.122  -5.036  31.323  1.00  0.00     0.011 C 
HETATM   13  C15 UNL     1      -5.573  -4.411  31.263  1.00  0.00     0.001 C 
HETATM   14  C16 UNL     1      -5.080  -3.818  32.634  1.00  0.00     0.011 C 
ENDBRANCH   6  11
BRANCH   1  15
HETATM   15  C4  UNL     1      -0.630  -2.205  35.448  1.00  0.00    -0.003 A 
HETATM   16  C3  UNL     1      -0.584  -2.865  36.673  1.00  0.00     0.053 A 
HETATM   17  C2  UNL     1      -0.150  -2.241  37.850  1.00  0.00     0.104 A 
HETATM   18  C21 UNL     1       0.242  -0.943  37.775  1.00  0.00     0.133 A 
HETATM   19  C19 UNL     1       0.221  -0.217  36.568  1.00  0.00     0.104 A 
HETATM   20  C18 UNL     1      -0.219  -0.877  35.459  1.00  0.00     0.053 A 
BRANCH  17  21
HETATM   21  O1  UNL     1      -0.131  -2.947  39.036  1.00  0.00    -0.353 OA
HETATM   22  C1  UNL     1      -0.851  -4.178  39.148  1.00  0.00     0.210 C 
ENDBRANCH  17  21
BRANCH  18  23
HETATM   23  O4  UNL     1       0.697  -0.230  38.895  1.00  0.00    -0.356 OA
ATOM     24  H4  UNL     1       1.619  -0.065  39.053  1.00  0.00     0.218 HD
ENDBRANCH  18  23
BRANCH  19  25
HETATM   25  O3  UNL     1       0.631   1.080  36.548  1.00  0.00    -0.353 OA
HETATM   26  C20 UNL     1       1.685   1.710  35.927  1.00  0.00     0.210 C 
ENDBRANCH  19  25
ENDBRANCH   1  15
BRANCH   7  27
HETATM   27  C17 UNL     1      -3.496  -2.388  34.754  1.00  0.00     0.212 C 
HETATM   28  N3  UNL     1      -3.856  -1.128  34.586  1.00  0.00    -0.264 N 
ATOM     29  H3  UNL     1      -3.424  -0.554  33.862  1.00  0.00     0.194 HD
BRANCH  28  30
HETATM   30  O2  UNL     1      -4.842  -0.600  35.422  1.00  0.00    -0.289 OA
ATOM     31  H2  UNL     1      -5.401   0.090  35.084  1.00  0.00     0.244 HD
ENDBRANCH  28  30
ENDBRANCH   7  27
TORSDOF 8
ENDMDL
