MODEL 1
REMARK VINA RESULT: -8.692986487      0.000      0.000
REMARK  13 active torsions:
REMARK  status: ('A' for Active; 'I' for Inactive)
REMARK    1  A    between atoms: N2_9  and  C5_11 
REMARK    2  A    between atoms: C5_11  and  C6_12 
REMARK    3  A    between atoms: C6_12  and  C7_13 
REMARK    4  A    between atoms: C7_13  and  C8_14 
REMARK    5  A    between atoms: C8_14  and  C9_15 
REMARK    6  A    between atoms: C9_15  and  C10_16 
REMARK    7  A    between atoms: C10_16  and  C11_17 
REMARK    8  A    between atoms: C11_17  and  C12_18 
REMARK    9  A    between atoms: C12_18  and  C13_19 
REMARK   10  A    between atoms: C13_19  and  C14_20 
REMARK   11  A    between atoms: C14_20  and  N3_21 
REMARK   12  A    between atoms: C17_24  and  N4_25 
REMARK   13  A    between atoms: N4_25  and  C18_27 
ROOT
HETATM    1  C11 UNL     1      20.362  17.876  29.406  1.00  0.00     0.000 C 
ENDROOT
BRANCH   1   2
HETATM    2  C10 UNL     1      21.349  17.533  30.521  1.00  0.00     0.000 C 
BRANCH   2   3
HETATM    3  C9  UNL     1      22.484  18.508  30.479  1.00  0.00     0.000 C 
BRANCH   3   4
HETATM    4  C8  UNL     1      23.282  18.358  29.191  1.00  0.00     0.000 C 
BRANCH   4   5
HETATM    5  C7  UNL     1      23.744  19.701  28.672  1.00  0.00     0.002 C 
BRANCH   5   6
HETATM    6  C6  UNL     1      22.847  20.058  27.493  1.00  0.00     0.020 C 
BRANCH   6   7
HETATM    7  C5  UNL     1      23.308  21.355  26.854  1.00  0.00     0.121 C 
BRANCH   7   8
HETATM    8  N2  UNL     1      23.970  22.187  27.834  1.00  0.00    -0.375 N 
HETATM    9  C4  UNL     1      24.312  23.389  27.592  1.00  0.00     0.146 C 
HETATM   10  C1  UNL     1      25.000  24.287  28.579  1.00  0.00     0.301 C 
HETATM   11  N1  UNL     1      24.167  24.187  26.424  1.00  0.00    -0.375 N 
HETATM   12  F1  UNL     1      24.020  25.088  29.129  1.00  0.00    -0.198 F 
HETATM   13  F2  UNL     1      25.700  23.592  29.520  1.00  0.00    -0.198 F 
HETATM   14  C2  UNL     1      25.881  25.113  27.665  1.00  0.00     0.107 C 
HETATM   15  C3  UNL     1      24.955  25.380  26.496  1.00  0.00     0.127 C 
ATOM     16  H1  UNL     1      23.573  23.940  25.632  1.00  0.00     0.160 HD
ATOM     17  H2  UNL     1      24.170  21.796  28.754  1.00  0.00     0.160 HD
ENDBRANCH   7   8
ENDBRANCH   6   7
ENDBRANCH   5   6
ENDBRANCH   4   5
ENDBRANCH   3   4
ENDBRANCH   2   3
ENDBRANCH   1   2
BRANCH   1  18
HETATM   18  C12 UNL     1      19.609  16.685  28.904  1.00  0.00     0.002 C 
BRANCH  18  19
HETATM   19  C13 UNL     1      19.905  16.267  27.500  1.00  0.00     0.030 C 
BRANCH  19  20
HETATM   20  C14 UNL     1      20.493  17.276  26.597  1.00  0.00     0.272 C 
BRANCH  20  21
HETATM   21  N3  UNL     1      19.648  17.875  25.626  1.00  0.00     0.090 N 
HETATM   22  C15 UNL     1      19.939  19.253  25.355  1.00  0.00     0.274 C 
HETATM   23  C16 UNL     1      19.257  19.963  26.530  1.00  0.00     0.057 C 
HETATM   24  C17 UNL     1      17.909  19.261  26.500  1.00  0.00     0.129 C 
HETATM   25  C21 UNL     1      18.283  17.854  26.090  1.00  0.00     0.297 C 
BRANCH  24  26
HETATM   26  N4  UNL     1      17.216  19.332  27.757  1.00  0.00    -0.220 N 
ATOM     27  H4  UNL     1      17.733  19.397  28.633  1.00  0.00     0.178 HD
BRANCH  26  28
HETATM   28  C18 UNL     1      15.928  19.313  27.757  1.00  0.00     0.678 A 
HETATM   29  N5  UNL     1      15.100  20.383  27.714  1.00  0.00    -0.201 N 
HETATM   30  C19 UNL     1      13.827  19.973  27.730  1.00  0.00     0.123 A 
ATOM     31  H5  UNL     1      15.402  21.356  27.676  1.00  0.00     0.183 HD
HETATM   32  C20 UNL     1      13.818  18.603  27.784  1.00  0.00     0.123 A 
HETATM   33  N6  UNL     1      15.111  18.225  27.800  1.00  0.00    -0.201 N 
ATOM     34  H6  UNL     1      15.433  17.258  27.838  1.00  0.00     0.183 HD
ENDBRANCH  26  28
ENDBRANCH  24  26
ENDBRANCH  20  21
ENDBRANCH  19  20
ENDBRANCH  18  19
ENDBRANCH   1  18
TORSDOF 13
ENDMDL
MODEL 2
REMARK VINA RESULT: -8.530532103      2.822      3.504
REMARK  13 active torsions:
REMARK  status: ('A' for Active; 'I' for Inactive)
REMARK    1  A    between atoms: N2_9  and  C5_11 
REMARK    2  A    between atoms: C5_11  and  C6_12 
REMARK    3  A    between atoms: C6_12  and  C7_13 
REMARK    4  A    between atoms: C7_13  and  C8_14 
REMARK    5  A    between atoms: C8_14  and  C9_15 
REMARK    6  A    between atoms: C9_15  and  C10_16 
REMARK    7  A    between atoms: C10_16  and  C11_17 
REMARK    8  A    between atoms: C11_17  and  C12_18 
REMARK    9  A    between atoms: C12_18  and  C13_19 
REMARK   10  A    between atoms: C13_19  and  C14_20 
REMARK   11  A    between atoms: C14_20  and  N3_21 
REMARK   12  A    between atoms: C17_24  and  N4_25 
REMARK   13  A    between atoms: N4_25  and  C18_27 
ROOT
HETATM    1  C11 UNL     1      20.114  17.720  29.446  1.00  0.00     0.000 C 
ENDROOT
BRANCH   1   2
HETATM    2  C10 UNL     1      21.347  17.653  30.346  1.00  0.00     0.000 C 
BRANCH   2   3
HETATM    3  C9  UNL     1      22.307  18.723  29.931  1.00  0.00     0.000 C 
BRANCH   3   4
HETATM    4  C8  UNL     1      23.333  18.181  28.946  1.00  0.00     0.000 C 
BRANCH   4   5
HETATM    5  C7  UNL     1      23.232  18.878  27.609  1.00  0.00     0.002 C 
BRANCH   5   6
HETATM    6  C6  UNL     1      22.800  20.314  27.883  1.00  0.00     0.020 C 
BRANCH   6   7
HETATM    7  C5  UNL     1      22.899  21.146  26.618  1.00  0.00     0.121 C 
BRANCH   7   8
HETATM    8  N2  UNL     1      23.314  20.319  25.508  1.00  0.00    -0.375 N 
HETATM    9  C4  UNL     1      22.924  20.529  24.314  1.00  0.00     0.146 C 
HETATM   10  C1  UNL     1      23.331  19.696  23.133  1.00  0.00     0.301 C 
HETATM   11  N1  UNL     1      22.064  21.523  23.771  1.00  0.00    -0.375 N 
HETATM   12  F1  UNL     1      24.353  20.380  22.506  1.00  0.00    -0.198 F 
HETATM   13  F2  UNL     1      23.684  18.428  23.484  1.00  0.00    -0.198 F 
HETATM   14  C2  UNL     1      22.079  19.757  22.282  1.00  0.00     0.107 C 
HETATM   15  C3  UNL     1      21.670  21.208  22.432  1.00  0.00     0.127 C 
ATOM     16  H1  UNL     1      21.764  22.358  24.275  1.00  0.00     0.160 HD
ATOM     17  H2  UNL     1      23.943  19.537  25.687  1.00  0.00     0.160 HD
ENDBRANCH   7   8
ENDBRANCH   6   7
ENDBRANCH   5   6
ENDBRANCH   4   5
ENDBRANCH   3   4
ENDBRANCH   2   3
ENDBRANCH   1   2
BRANCH   1  18
HETATM   18  C12 UNL     1      19.607  16.370  29.046  1.00  0.00     0.002 C 
BRANCH  18  19
HETATM   19  C13 UNL     1      19.563  16.095  27.578  1.00  0.00     0.030 C 
BRANCH  19  20
HETATM   20  C14 UNL     1      20.262  17.041  26.685  1.00  0.00     0.272 C 
BRANCH  20  21
HETATM   21  N3  UNL     1      19.493  17.728  25.709  1.00  0.00     0.090 N 
HETATM   22  C15 UNL     1      19.906  19.081  25.472  1.00  0.00     0.274 C 
HETATM   23  C16 UNL     1      19.260  19.825  26.646  1.00  0.00     0.057 C 
HETATM   24  C17 UNL     1      17.858  19.241  26.574  1.00  0.00     0.129 C 
HETATM   25  C21 UNL     1      18.121  17.815  26.144  1.00  0.00     0.297 C 
BRANCH  24  26
HETATM   26  N4  UNL     1      17.145  19.348  27.817  1.00  0.00    -0.220 N 
ATOM     27  H4  UNL     1      17.649  19.437  28.699  1.00  0.00     0.178 HD
BRANCH  26  28
HETATM   28  C18 UNL     1      15.858  19.331  27.797  1.00  0.00     0.678 A 
HETATM   29  N5  UNL     1      15.033  20.400  27.707  1.00  0.00    -0.201 N 
HETATM   30  C19 UNL     1      13.758  19.993  27.715  1.00  0.00     0.123 A 
ATOM     31  H5  UNL     1      15.337  21.372  27.642  1.00  0.00     0.183 HD
HETATM   32  C20 UNL     1      13.746  18.625  27.813  1.00  0.00     0.123 A 
HETATM   33  N6  UNL     1      15.038  18.247  27.862  1.00  0.00    -0.201 N 
ATOM     34  H6  UNL     1      15.358  17.281  27.937  1.00  0.00     0.183 HD
ENDBRANCH  26  28
ENDBRANCH  24  26
ENDBRANCH  20  21
ENDBRANCH  19  20
ENDBRANCH  18  19
ENDBRANCH   1  18
TORSDOF 13
ENDMDL
MODEL 3
REMARK VINA RESULT: -8.488547400      2.969      4.215
REMARK  13 active torsions:
REMARK  status: ('A' for Active; 'I' for Inactive)
REMARK    1  A    between atoms: N2_9  and  C5_11 
REMARK    2  A    between atoms: C5_11  and  C6_12 
REMARK    3  A    between atoms: C6_12  and  C7_13 
REMARK    4  A    between atoms: C7_13  and  C8_14 
REMARK    5  A    between atoms: C8_14  and  C9_15 
REMARK    6  A    between atoms: C9_15  and  C10_16 
REMARK    7  A    between atoms: C10_16  and  C11_17 
REMARK    8  A    between atoms: C11_17  and  C12_18 
REMARK    9  A    between atoms: C12_18  and  C13_19 
REMARK   10  A    between atoms: C13_19  and  C14_20 
REMARK   11  A    between atoms: C14_20  and  N3_21 
REMARK   12  A    between atoms: C17_24  and  N4_25 
REMARK   13  A    between atoms: N4_25  and  C18_27 
ROOT
HETATM    1  C11 UNL     1      22.636  17.878  29.866  1.00  0.00     0.000 C 
ENDROOT
BRANCH   1   2
HETATM    2  C10 UNL     1      23.361  19.223  29.861  1.00  0.00     0.000 C 
BRANCH   2   3
HETATM    3  C9  UNL     1      23.765  19.549  28.458  1.00  0.00     0.000 C 
BRANCH   3   4
HETATM    4  C8  UNL     1      24.531  20.863  28.404  1.00  0.00     0.000 C 
BRANCH   4   5
HETATM    5  C7  UNL     1      23.877  21.841  27.455  1.00  0.00     0.002 C 
BRANCH   5   6
HETATM    6  C6  UNL     1      22.556  21.221  27.012  1.00  0.00     0.020 C 
BRANCH   6   7
HETATM    7  C5  UNL     1      22.283  21.546  25.556  1.00  0.00     0.121 C 
BRANCH   7   8
HETATM    8  N2  UNL     1      22.782  20.489  24.705  1.00  0.00    -0.375 N 
HETATM    9  C4  UNL     1      22.285  20.240  23.560  1.00  0.00     0.146 C 
HETATM   10  C1  UNL     1      22.773  19.153  22.646  1.00  0.00     0.301 C 
HETATM   11  N1  UNL     1      21.216  20.852  22.850  1.00  0.00    -0.375 N 
HETATM   12  F1  UNL     1      23.601  19.760  21.723  1.00  0.00    -0.198 F 
HETATM   13  F2  UNL     1      23.388  18.140  23.318  1.00  0.00    -0.198 F 
HETATM   14  C2  UNL     1      21.483  18.731  21.973  1.00  0.00     0.107 C 
HETATM   15  C3  UNL     1      20.809  20.064  21.726  1.00  0.00     0.127 C 
ATOM     16  H1  UNL     1      20.791  21.742  23.110  1.00  0.00     0.160 HD
ATOM     17  H2  UNL     1      23.562  19.921  25.036  1.00  0.00     0.160 HD
ENDBRANCH   7   8
ENDBRANCH   6   7
ENDBRANCH   5   6
ENDBRANCH   4   5
ENDBRANCH   3   4
ENDBRANCH   2   3
ENDBRANCH   1   2
BRANCH   1  18
HETATM   18  C12 UNL     1      21.163  18.008  30.093  1.00  0.00     0.002 C 
BRANCH  18  19
HETATM   19  C13 UNL     1      20.283  17.418  29.037  1.00  0.00     0.030 C 
BRANCH  19  20
HETATM   20  C14 UNL     1      20.788  17.420  27.650  1.00  0.00     0.272 C 
BRANCH  20  21
HETATM   21  N3  UNL     1      19.850  17.231  26.600  1.00  0.00     0.090 N 
HETATM   22  C15 UNL     1      19.901  18.230  25.573  1.00  0.00     0.274 C 
HETATM   23  C16 UNL     1      19.109  19.381  26.204  1.00  0.00     0.057 C 
HETATM   24  C17 UNL     1      17.901  18.608  26.709  1.00  0.00     0.129 C 
HETATM   25  C21 UNL     1      18.510  17.289  27.128  1.00  0.00     0.297 C 
BRANCH  24  26
HETATM   26  N4  UNL     1      17.208  19.289  27.769  1.00  0.00    -0.220 N 
ATOM     27  H4  UNL     1      17.726  19.756  28.512  1.00  0.00     0.178 HD
BRANCH  26  28
HETATM   28  C18 UNL     1      15.920  19.298  27.762  1.00  0.00     0.678 A 
HETATM   29  N5  UNL     1      15.117  20.384  27.686  1.00  0.00    -0.201 N 
HETATM   30  C19 UNL     1      13.834  20.003  27.705  1.00  0.00     0.123 A 
ATOM     31  H5  UNL     1      15.440  21.349  27.624  1.00  0.00     0.183 HD
HETATM   32  C20 UNL     1      13.795  18.635  27.795  1.00  0.00     0.123 A 
HETATM   33  N6  UNL     1      15.080  18.230  27.828  1.00  0.00    -0.201 N 
ATOM     34  H6  UNL     1      15.380  17.257  27.894  1.00  0.00     0.183 HD
ENDBRANCH  26  28
ENDBRANCH  24  26
ENDBRANCH  20  21
ENDBRANCH  19  20
ENDBRANCH  18  19
ENDBRANCH   1  18
TORSDOF 13
ENDMDL
MODEL 4
REMARK VINA RESULT: -8.464726500      2.986      7.928
REMARK  13 active torsions:
REMARK  status: ('A' for Active; 'I' for Inactive)
REMARK    1  A    between atoms: N2_9  and  C5_11 
REMARK    2  A    between atoms: C5_11  and  C6_12 
REMARK    3  A    between atoms: C6_12  and  C7_13 
REMARK    4  A    between atoms: C7_13  and  C8_14 
REMARK    5  A    between atoms: C8_14  and  C9_15 
REMARK    6  A    between atoms: C9_15  and  C10_16 
REMARK    7  A    between atoms: C10_16  and  C11_17 
REMARK    8  A    between atoms: C11_17  and  C12_18 
REMARK    9  A    between atoms: C12_18  and  C13_19 
REMARK   10  A    between atoms: C13_19  and  C14_20 
REMARK   11  A    between atoms: C14_20  and  N3_21 
REMARK   12  A    between atoms: C17_24  and  N4_25 
REMARK   13  A    between atoms: N4_25  and  C18_27 
ROOT
HETATM    1  C11 UNL     1      23.793  19.699  29.295  1.00  0.00     0.000 C 
ENDROOT
BRANCH   1   2
HETATM    2  C10 UNL     1      22.580  18.789  29.102  1.00  0.00     0.000 C 
BRANCH   2   3
HETATM    3  C9  UNL     1      22.200  18.203  30.425  1.00  0.00     0.000 C 
BRANCH   3   4
HETATM    4  C8  UNL     1      20.985  17.296  30.289  1.00  0.00     0.000 C 
BRANCH   4   5
HETATM    5  C7  UNL     1      19.992  17.855  29.297  1.00  0.00     0.002 C 
BRANCH   5   6
HETATM    6  C6  UNL     1      19.520  16.692  28.431  1.00  0.00     0.020 C 
BRANCH   6   7
HETATM    7  C5  UNL     1      19.505  17.095  26.969  1.00  0.00     0.121 C 
BRANCH   7   8
HETATM    8  N2  UNL     1      19.893  18.480  26.828  1.00  0.00    -0.375 N 
HETATM    9  C4  UNL     1      20.613  18.895  25.863  1.00  0.00     0.146 C 
HETATM   10  C1  UNL     1      21.038  20.323  25.679  1.00  0.00     0.301 C 
HETATM   11  N1  UNL     1      21.186  18.205  24.759  1.00  0.00    -0.375 N 
HETATM   12  F1  UNL     1      20.171  20.874  24.757  1.00  0.00    -0.198 F 
HETATM   13  F2  UNL     1      21.069  21.015  26.851  1.00  0.00    -0.198 F 
HETATM   14  C2  UNL     1      22.405  20.146  25.050  1.00  0.00     0.107 C 
HETATM   15  C3  UNL     1      22.159  19.008  24.082  1.00  0.00     0.127 C 
ATOM     16  H1  UNL     1      20.935  17.256  24.483  1.00  0.00     0.160 HD
ATOM     17  H2  UNL     1      19.579  19.151  27.529  1.00  0.00     0.160 HD
ENDBRANCH   7   8
ENDBRANCH   6   7
ENDBRANCH   5   6
ENDBRANCH   4   5
ENDBRANCH   3   4
ENDBRANCH   2   3
ENDBRANCH   1   2
BRANCH   1  18
HETATM   18  C12 UNL     1      24.101  20.527  28.087  1.00  0.00     0.002 C 
BRANCH  18  19
HETATM   19  C13 UNL     1      25.082  21.637  28.287  1.00  0.00     0.030 C 
BRANCH  19  20
HETATM   20  C14 UNL     1      24.745  22.956  27.716  1.00  0.00     0.272 C 
BRANCH  20  21
HETATM   21  N3  UNL     1      25.472  23.394  26.577  1.00  0.00     0.090 N 
HETATM   22  C15 UNL     1      26.893  23.437  26.761  1.00  0.00     0.274 C 
HETATM   23  C16 UNL     1      27.082  24.760  27.512  1.00  0.00     0.057 C 
HETATM   24  C17 UNL     1      26.215  25.664  26.650  1.00  0.00     0.129 C 
HETATM   25  C21 UNL     1      25.086  24.743  26.244  1.00  0.00     0.297 C 
BRANCH  24  26
HETATM   26  N4  UNL     1      25.777  26.844  27.345  1.00  0.00    -0.220 N 
ATOM     27  H4  UNL     1      26.325  27.703  27.306  1.00  0.00     0.178 HD
BRANCH  26  28
HETATM   28  C18 UNL     1      24.680  26.796  28.018  1.00  0.00     0.678 A 
HETATM   29  N5  UNL     1      23.442  27.115  27.574  1.00  0.00    -0.201 N 
HETATM   30  C19 UNL     1      22.550  26.941  28.556  1.00  0.00     0.123 A 
ATOM     31  H5  UNL     1      23.222  27.439  26.633  1.00  0.00     0.183 HD
HETATM   32  C20 UNL     1      23.217  26.499  29.669  1.00  0.00     0.123 A 
HETATM   33  N6  UNL     1      24.514  26.419  29.314  1.00  0.00    -0.201 N 
ATOM     34  H6  UNL     1      25.268  26.118  29.933  1.00  0.00     0.183 HD
ENDBRANCH  26  28
ENDBRANCH  24  26
ENDBRANCH  20  21
ENDBRANCH  19  20
ENDBRANCH  18  19
ENDBRANCH   1  18
TORSDOF 13
ENDMDL
MODEL 5
REMARK VINA RESULT: -8.410131201      1.616      2.593
REMARK  13 active torsions:
REMARK  status: ('A' for Active; 'I' for Inactive)
REMARK    1  A    between atoms: N2_9  and  C5_11 
REMARK    2  A    between atoms: C5_11  and  C6_12 
REMARK    3  A    between atoms: C6_12  and  C7_13 
REMARK    4  A    between atoms: C7_13  and  C8_14 
REMARK    5  A    between atoms: C8_14  and  C9_15 
REMARK    6  A    between atoms: C9_15  and  C10_16 
REMARK    7  A    between atoms: C10_16  and  C11_17 
REMARK    8  A    between atoms: C11_17  and  C12_18 
REMARK    9  A    between atoms: C12_18  and  C13_19 
REMARK   10  A    between atoms: C13_19  and  C14_20 
REMARK   11  A    between atoms: C14_20  and  N3_21 
REMARK   12  A    between atoms: C17_24  and  N4_25 
REMARK   13  A    between atoms: N4_25  and  C18_27 
ROOT
HETATM    1  C11 UNL     1      23.232  18.261  29.360  1.00  0.00     0.000 C 
ENDROOT
BRANCH   1   2
HETATM    2  C10 UNL     1      23.657  19.675  28.967  1.00  0.00     0.000 C 
BRANCH   2   3
HETATM    3  C9  UNL     1      23.698  19.770  27.474  1.00  0.00     0.000 C 
BRANCH   3   4
HETATM    4  C8  UNL     1      22.298  19.675  26.885  1.00  0.00     0.000 C 
BRANCH   4   5
HETATM    5  C7  UNL     1      21.659  21.040  26.765  1.00  0.00     0.002 C 
BRANCH   5   6
HETATM    6  C6  UNL     1      22.167  21.661  25.469  1.00  0.00     0.020 C 
BRANCH   6   7
HETATM    7  C5  UNL     1      22.601  23.095  25.706  1.00  0.00     0.121 C 
BRANCH   7   8
HETATM    8  N2  UNL     1      23.345  23.194  26.942  1.00  0.00    -0.375 N 
HETATM    9  C4  UNL     1      24.095  24.187  27.212  1.00  0.00     0.146 C 
HETATM   10  C1  UNL     1      24.884  24.330  28.482  1.00  0.00     0.301 C 
HETATM   11  N1  UNL     1      24.395  25.363  26.470  1.00  0.00    -0.375 N 
HETATM   12  F1  UNL     1      24.149  25.158  29.307  1.00  0.00    -0.198 F 
HETATM   13  F2  UNL     1      25.168  23.129  29.059  1.00  0.00    -0.198 F 
HETATM   14  C2  UNL     1      26.112  25.064  27.986  1.00  0.00     0.107 C 
HETATM   15  C3  UNL     1      25.510  26.068  27.025  1.00  0.00     0.127 C 
ATOM     16  H1  UNL     1      23.879  25.667  25.645  1.00  0.00     0.160 HD
ATOM     17  H2  UNL     1      23.266  22.440  27.624  1.00  0.00     0.160 HD
ENDBRANCH   7   8
ENDBRANCH   6   7
ENDBRANCH   5   6
ENDBRANCH   4   5
ENDBRANCH   3   4
ENDBRANCH   2   3
ENDBRANCH   1   2
BRANCH   1  18
HETATM   18  C12 UNL     1      22.274  18.237  30.510  1.00  0.00     0.002 C 
BRANCH  18  19
HETATM   19  C13 UNL     1      20.867  17.856  30.181  1.00  0.00     0.030 C 
BRANCH  19  20
HETATM   20  C14 UNL     1      20.590  17.380  28.811  1.00  0.00     0.272 C 
BRANCH  20  21
HETATM   21  N3  UNL     1      19.269  16.959  28.506  1.00  0.00     0.090 N 
HETATM   22  C15 UNL     1      19.145  16.249  27.266  1.00  0.00     0.274 C 
HETATM   23  C16 UNL     1      19.122  17.390  26.242  1.00  0.00     0.057 C 
HETATM   24  C17 UNL     1      18.110  18.307  26.910  1.00  0.00     0.129 C 
HETATM   25  C21 UNL     1      18.410  18.109  28.379  1.00  0.00     0.297 C 
BRANCH  24  26
HETATM   26  N4  UNL     1      18.224  19.672  26.474  1.00  0.00    -0.220 N 
ATOM     27  H4  UNL     1      19.112  20.168  26.545  1.00  0.00     0.178 HD
BRANCH  26  28
HETATM   28  C18 UNL     1      17.183  20.258  25.994  1.00  0.00     0.678 A 
HETATM   29  N5  UNL     1      15.969  19.702  25.769  1.00  0.00    -0.201 N 
HETATM   30  C19 UNL     1      15.136  20.619  25.263  1.00  0.00     0.123 A 
ATOM     31  H5  UNL     1      15.726  18.730  25.958  1.00  0.00     0.183 HD
HETATM   32  C20 UNL     1      15.819  21.803  25.152  1.00  0.00     0.123 A 
HETATM   33  N6  UNL     1      17.063  21.556  25.604  1.00  0.00    -0.201 N 
ATOM     34  H6  UNL     1      17.812  22.247  25.648  1.00  0.00     0.183 HD
ENDBRANCH  26  28
ENDBRANCH  24  26
ENDBRANCH  20  21
ENDBRANCH  19  20
ENDBRANCH  18  19
ENDBRANCH   1  18
TORSDOF 13
ENDMDL
