MODEL 1
REMARK VINA RESULT: -8.242175645      0.000      0.000
REMARK  11 active torsions:
REMARK  status: ('A' for Active; 'I' for Inactive)
REMARK       I    between atoms: C1_2  and  N1_4 
REMARK    1  A    between atoms: N1_4  and  C2_6 
REMARK    2  A    between atoms: N2_11  and  C7_12 
REMARK    3  A    between atoms: C7_12  and  C8_13 
REMARK    4  A    between atoms: C8_13  and  N3_14 
REMARK    5  A    between atoms: N3_14  and  C9_17 
REMARK    6  A    between atoms: C9_17  and  C10_18 
REMARK    7  A    between atoms: C10_18  and  C11_19 
REMARK    8  A    between atoms: C11_19  and  C12_20 
REMARK    9  A    between atoms: C12_20  and  C13_21 
REMARK   10  A    between atoms: C13_21  and  C14_22 
REMARK   11  A    between atoms: C18_27  and  C19_28 
ROOT
HETATM    1  C2  UNL     1      21.193  19.459  27.894  1.00  0.00     0.105 C 
HETATM    2  C3  UNL     1      20.364  19.459  26.624  1.00  0.00     0.012 C 
HETATM    3  C4  UNL     1      20.910  18.508  25.606  1.00  0.00     0.013 C 
HETATM    4  C5  UNL     1      22.343  18.896  25.309  1.00  0.00     0.021 C 
HETATM    5  C6  UNL     1      22.373  19.488  23.881  1.00  0.00     0.278 C 
HETATM    6  N2  UNL     1      21.845  20.823  24.048  1.00  0.00     0.095 N 
HETATM    7  C15 UNL     1      21.777  21.147  25.422  1.00  0.00     0.229 C 
HETATM    8  C16 UNL     1      20.431  20.865  26.056  1.00  0.00     0.043 C 
HETATM    9  C17 UNL     1      22.739  20.155  26.056  1.00  0.00     0.041 C 
HETATM   10  C18 UNL     1      22.512  20.074  27.543  1.00  0.00     0.116 C 
ENDROOT
BRANCH   6  11
HETATM   11  C7  UNL     1      22.505  21.729  23.176  1.00  0.00     0.300 C 
BRANCH  11  12
HETATM   12  C8  UNL     1      23.946  21.948  23.509  1.00  0.00     0.262 C 
BRANCH  12  13
HETATM   13  N3  UNL     1      24.280  23.313  23.834  1.00  0.00    -0.073 N 
ATOM     14  H32 UNL     1      24.929  23.707  23.154  1.00  0.00     0.277 HD
ATOM     15  H31 UNL     1      23.487  23.934  23.679  1.00  0.00     0.277 HD
BRANCH  13  16
HETATM   16  C9  UNL     1      24.788  23.438  25.175  1.00  0.00     0.232 C 
BRANCH  16  17
HETATM   17  C10 UNL     1      23.814  24.056  26.118  1.00  0.00     0.027 C 
BRANCH  17  18
HETATM   18  C11 UNL     1      23.833  23.683  27.535  1.00  0.00     0.002 C 
BRANCH  18  19
HETATM   19  C12 UNL     1      24.485  24.511  28.554  1.00  0.00     0.001 C 
BRANCH  19  20
HETATM   20  C13 UNL     1      24.406  25.985  28.471  1.00  0.00     0.015 C 
BRANCH  20  21
HETATM   21  C14 UNL     1      23.191  26.495  29.276  1.00  0.00     0.114 C 
HETATM   22 CL1  UNL     1      21.817  26.771  28.194  1.00  0.00    -0.130 Cl
ENDBRANCH  20  21
ENDBRANCH  19  20
ENDBRANCH  18  19
ENDBRANCH  17  18
ENDBRANCH  16  17
ENDBRANCH  13  16
ENDBRANCH  12  13
ENDBRANCH  11  12
ENDBRANCH   6  11
BRANCH  10  23
HETATM   23  C19 UNL     1      23.676  19.503  28.219  1.00  0.00     0.179 C 
HETATM   24  O2  UNL     1      24.508  20.211  28.891  1.00  0.00    -0.648 OA
HETATM   25  O3  UNL     1      23.982  18.147  28.192  1.00  0.00    -0.648 OA
ENDBRANCH  10  23
BRANCH   1  26
HETATM   26  N1  UNL     1      21.307  18.158  28.465  1.00  0.00    -0.327 N 
HETATM   27  C1  UNL     1      20.209  17.559  29.137  1.00  0.00     0.398 C 
HETATM   28  O1  UNL     1      19.108  18.197  29.227  1.00  0.00    -0.233 OA
HETATM   29  F1  UNL     1      20.286  16.325  29.690  1.00  0.00    -0.142 F 
ATOM     30  H1  UNL     1      22.188  17.651  28.389  1.00  0.00     0.165 HD
ENDBRANCH   1  26
TORSDOF 11
ENDMDL
MODEL 2
REMARK VINA RESULT: -8.135948598      1.181      1.486
REMARK  11 active torsions:
REMARK  status: ('A' for Active; 'I' for Inactive)
REMARK       I    between atoms: C1_2  and  N1_4 
REMARK    1  A    between atoms: N1_4  and  C2_6 
REMARK    2  A    between atoms: N2_11  and  C7_12 
REMARK    3  A    between atoms: C7_12  and  C8_13 
REMARK    4  A    between atoms: C8_13  and  N3_14 
REMARK    5  A    between atoms: N3_14  and  C9_17 
REMARK    6  A    between atoms: C9_17  and  C10_18 
REMARK    7  A    between atoms: C10_18  and  C11_19 
REMARK    8  A    between atoms: C11_19  and  C12_20 
REMARK    9  A    between atoms: C12_20  and  C13_21 
REMARK   10  A    between atoms: C13_21  and  C14_22 
REMARK   11  A    between atoms: C18_27  and  C19_28 
ROOT
HETATM    1  C2  UNL     1      20.581  18.922  27.816  1.00  0.00     0.105 C 
HETATM    2  C3  UNL     1      20.177  19.325  26.411  1.00  0.00     0.012 C 
HETATM    3  C4  UNL     1      21.031  18.662  25.377  1.00  0.00     0.013 C 
HETATM    4  C5  UNL     1      22.476  19.027  25.643  1.00  0.00     0.021 C 
HETATM    5  C6  UNL     1      22.922  19.989  24.518  1.00  0.00     0.278 C 
HETATM    6  N2  UNL     1      22.333  21.255  24.890  1.00  0.00     0.095 N 
HETATM    7  C15 UNL     1      21.843  21.189  26.213  1.00  0.00     0.229 C 
HETATM    8  C16 UNL     1      20.376  20.826  26.311  1.00  0.00     0.043 C 
HETATM    9  C17 UNL     1      22.593  20.003  26.798  1.00  0.00     0.041 C 
HETATM   10  C18 UNL     1      21.928  19.527  28.063  1.00  0.00     0.116 C 
ENDROOT
BRANCH   6  11
HETATM   11  C7  UNL     1      23.203  22.325  24.548  1.00  0.00     0.300 C 
BRANCH  11  12
HETATM   12  C8  UNL     1      23.093  23.507  25.458  1.00  0.00     0.262 C 
BRANCH  12  13
HETATM   13  N3  UNL     1      24.002  24.582  25.146  1.00  0.00    -0.073 N 
ATOM     14  H32 UNL     1      24.456  24.433  24.245  1.00  0.00     0.277 HD
ATOM     15  H31 UNL     1      23.498  25.442  24.933  1.00  0.00     0.277 HD
BRANCH  13  16
HETATM   16  C9  UNL     1      24.970  24.789  26.191  1.00  0.00     0.232 C 
BRANCH  16  17
HETATM   17  C10 UNL     1      24.644  24.061  27.449  1.00  0.00     0.027 C 
BRANCH  17  18
HETATM   18  C11 UNL     1      24.266  24.811  28.650  1.00  0.00     0.002 C 
BRANCH  18  19
HETATM   19  C12 UNL     1      23.935  26.238  28.609  1.00  0.00     0.001 C 
BRANCH  19  20
HETATM   20  C13 UNL     1      22.555  26.685  28.895  1.00  0.00     0.015 C 
BRANCH  20  21
HETATM   21  C14 UNL     1      21.618  26.283  27.735  1.00  0.00     0.114 C 
HETATM   22 CL1  UNL     1      20.352  27.503  27.527  1.00  0.00    -0.130 Cl
ENDBRANCH  20  21
ENDBRANCH  19  20
ENDBRANCH  18  19
ENDBRANCH  17  18
ENDBRANCH  16  17
ENDBRANCH  13  16
ENDBRANCH  12  13
ENDBRANCH  11  12
ENDBRANCH   6  11
BRANCH  10  23
HETATM   23  C19 UNL     1      22.846  18.720  28.865  1.00  0.00     0.179 C 
HETATM   24  O2  UNL     1      22.567  18.319  30.051  1.00  0.00    -0.648 OA
HETATM   25  O3  UNL     1      24.098  18.318  28.415  1.00  0.00    -0.648 OA
ENDBRANCH  10  23
BRANCH   1  26
HETATM   26  N1  UNL     1      20.550  17.509  28.002  1.00  0.00    -0.327 N 
HETATM   27  C1  UNL     1      19.359  16.854  28.411  1.00  0.00     0.398 C 
HETATM   28  O1  UNL     1      18.305  17.543  28.611  1.00  0.00    -0.233 OA
HETATM   29  F1  UNL     1      19.298  15.514  28.597  1.00  0.00    -0.142 F 
ATOM     30  H1  UNL     1      21.396  16.962  27.840  1.00  0.00     0.165 HD
ENDBRANCH   1  26
TORSDOF 11
ENDMDL
MODEL 3
REMARK VINA RESULT: -8.082315061      1.833      2.118
REMARK  11 active torsions:
REMARK  status: ('A' for Active; 'I' for Inactive)
REMARK       I    between atoms: C1_2  and  N1_4 
REMARK    1  A    between atoms: N1_4  and  C2_6 
REMARK    2  A    between atoms: N2_11  and  C7_12 
REMARK    3  A    between atoms: C7_12  and  C8_13 
REMARK    4  A    between atoms: C8_13  and  N3_14 
REMARK    5  A    between atoms: N3_14  and  C9_17 
REMARK    6  A    between atoms: C9_17  and  C10_18 
REMARK    7  A    between atoms: C10_18  and  C11_19 
REMARK    8  A    between atoms: C11_19  and  C12_20 
REMARK    9  A    between atoms: C12_20  and  C13_21 
REMARK   10  A    between atoms: C13_21  and  C14_22 
REMARK   11  A    between atoms: C18_27  and  C19_28 
ROOT
HETATM    1  C2  UNL     1      20.924  19.375  27.792  1.00  0.00     0.105 C 
HETATM    2  C3  UNL     1      20.403  19.451  26.369  1.00  0.00     0.012 C 
HETATM    3  C4  UNL     1      21.198  18.585  25.442  1.00  0.00     0.013 C 
HETATM    4  C5  UNL     1      22.646  19.020  25.505  1.00  0.00     0.021 C 
HETATM    5  C6  UNL     1      22.977  19.713  24.163  1.00  0.00     0.278 C 
HETATM    6  N2  UNL     1      22.379  21.022  24.292  1.00  0.00     0.095 N 
HETATM    7  C15 UNL     1      21.991  21.246  25.632  1.00  0.00     0.229 C 
HETATM    8  C16 UNL     1      20.548  20.894  25.924  1.00  0.00     0.043 C 
HETATM    9  C17 UNL     1      22.819  20.230  26.403  1.00  0.00     0.041 C 
HETATM   10  C18 UNL     1      22.266  20.039  27.791  1.00  0.00     0.116 C 
ENDROOT
BRANCH   6  11
HETATM   11  C7  UNL     1      23.187  22.001  23.655  1.00  0.00     0.300 C 
BRANCH  11  12
HETATM   12  C8  UNL     1      24.147  22.686  24.574  1.00  0.00     0.262 C 
BRANCH  12  13
HETATM   13  N3  UNL     1      24.005  24.120  24.620  1.00  0.00    -0.073 N 
ATOM     14  H32 UNL     1      24.545  24.569  23.880  1.00  0.00     0.277 HD
ATOM     15  H31 UNL     1      23.070  24.408  24.334  1.00  0.00     0.277 HD
BRANCH  13  16
HETATM   16  C9  UNL     1      24.345  24.654  25.912  1.00  0.00     0.232 C 
BRANCH  16  17
HETATM   17  C10 UNL     1      23.724  23.906  27.041  1.00  0.00     0.027 C 
BRANCH  17  18
HETATM   18  C11 UNL     1      24.561  23.415  28.140  1.00  0.00     0.002 C 
BRANCH  18  19
HETATM   19  C12 UNL     1      25.615  22.417  27.935  1.00  0.00     0.001 C 
BRANCH  19  20
HETATM   20  C13 UNL     1      27.000  22.706  28.363  1.00  0.00     0.015 C 
BRANCH  20  21
HETATM   21  C14 UNL     1      27.569  23.889  27.550  1.00  0.00     0.114 C 
HETATM   22 CL1  UNL     1      27.677  23.452  25.837  1.00  0.00    -0.130 Cl
ENDBRANCH  20  21
ENDBRANCH  19  20
ENDBRANCH  18  19
ENDBRANCH  17  18
ENDBRANCH  16  17
ENDBRANCH  13  16
ENDBRANCH  12  13
ENDBRANCH  11  12
ENDBRANCH   6  11
BRANCH  10  23
HETATM   23  C19 UNL     1      23.266  19.443  28.675  1.00  0.00     0.179 C 
HETATM   24  O2  UNL     1      24.456  19.161  28.290  1.00  0.00    -0.648 OA
HETATM   25  O3  UNL     1      23.015  19.130  30.006  1.00  0.00    -0.648 OA
ENDBRANCH  10  23
BRANCH   1  26
HETATM   26  N1  UNL     1      20.950  18.039  28.287  1.00  0.00    -0.327 N 
HETATM   27  C1  UNL     1      19.790  17.449  28.853  1.00  0.00     0.398 C 
HETATM   28  O1  UNL     1      18.711  18.126  28.914  1.00  0.00    -0.233 OA
HETATM   29  F1  UNL     1      19.784  16.182  29.333  1.00  0.00    -0.142 F 
ATOM     30  H1  UNL     1      21.815  17.501  28.235  1.00  0.00     0.165 HD
ENDBRANCH   1  26
TORSDOF 11
ENDMDL
MODEL 4
REMARK VINA RESULT: -8.010639111      4.114      6.550
REMARK  11 active torsions:
REMARK  status: ('A' for Active; 'I' for Inactive)
REMARK       I    between atoms: C1_2  and  N1_4 
REMARK    1  A    between atoms: N1_4  and  C2_6 
REMARK    2  A    between atoms: N2_11  and  C7_12 
REMARK    3  A    between atoms: C7_12  and  C8_13 
REMARK    4  A    between atoms: C8_13  and  N3_14 
REMARK    5  A    between atoms: N3_14  and  C9_17 
REMARK    6  A    between atoms: C9_17  and  C10_18 
REMARK    7  A    between atoms: C10_18  and  C11_19 
REMARK    8  A    between atoms: C11_19  and  C12_20 
REMARK    9  A    between atoms: C12_20  and  C13_21 
REMARK   10  A    between atoms: C13_21  and  C14_22 
REMARK   11  A    between atoms: C18_27  and  C19_28 
ROOT
HETATM    1  C2  UNL     1      22.447  21.734  24.324  1.00  0.00     0.105 C 
HETATM    2  C3  UNL     1      22.408  21.018  25.660  1.00  0.00     0.012 C 
HETATM    3  C4  UNL     1      22.940  19.623  25.555  1.00  0.00     0.013 C 
HETATM    4  C5  UNL     1      22.122  18.875  24.524  1.00  0.00     0.021 C 
HETATM    5  C6  UNL     1      21.261  17.840  25.283  1.00  0.00     0.278 C 
HETATM    6  N2  UNL     1      20.186  18.627  25.843  1.00  0.00     0.095 N 
HETATM    7  C15 UNL     1      20.187  19.920  25.274  1.00  0.00     0.229 C 
HETATM    8  C16 UNL     1      20.952  20.949  26.079  1.00  0.00     0.043 C 
HETATM    9  C17 UNL     1      20.988  19.731  23.995  1.00  0.00     0.041 C 
HETATM   10  C18 UNL     1      21.436  21.061  23.449  1.00  0.00     0.116 C 
ENDROOT
BRANCH   6  11
HETATM   11  C7  UNL     1      18.973  17.889  25.832  1.00  0.00     0.300 C 
BRANCH  11  12
HETATM   12  C8  UNL     1      18.211  17.957  27.117  1.00  0.00     0.262 C 
BRANCH  12  13
HETATM   13  N3  UNL     1      18.098  16.697  27.808  1.00  0.00    -0.073 N 
ATOM     14  H32 UNL     1      17.334  16.712  28.483  1.00  0.00     0.277 HD
ATOM     15  H31 UNL     1      17.752  15.965  27.188  1.00  0.00     0.277 HD
BRANCH  13  16
HETATM   16  C9  UNL     1      19.337  16.312  28.431  1.00  0.00     0.232 C 
BRANCH  16  17
HETATM   17  C10 UNL     1      19.862  17.332  29.381  1.00  0.00     0.027 C 
BRANCH  17  18
HETATM   18  C11 UNL     1      21.264  17.752  29.300  1.00  0.00     0.002 C 
BRANCH  18  19
HETATM   19  C12 UNL     1      22.035  18.138  30.486  1.00  0.00     0.001 C 
BRANCH  19  20
HETATM   20  C13 UNL     1      23.288  18.907  30.336  1.00  0.00     0.015 C 
BRANCH  20  21
HETATM   21  C14 UNL     1      23.592  19.134  28.839  1.00  0.00     0.114 C 
HETATM   22 CL1  UNL     1      24.592  20.581  28.634  1.00  0.00    -0.130 Cl
ENDBRANCH  20  21
ENDBRANCH  19  20
ENDBRANCH  18  19
ENDBRANCH  17  18
ENDBRANCH  16  17
ENDBRANCH  13  16
ENDBRANCH  12  13
ENDBRANCH  11  12
ENDBRANCH   6  11
BRANCH  10  23
HETATM   23  C19 UNL     1      21.795  20.952  22.036  1.00  0.00     0.179 C 
HETATM   24  O2  UNL     1      21.233  21.651  21.118  1.00  0.00    -0.648 OA
HETATM   25  O3  UNL     1      22.772  20.083  21.564  1.00  0.00    -0.648 OA
ENDBRANCH  10  23
BRANCH   1  26
HETATM   26  N1  UNL     1      23.756  21.761  23.762  1.00  0.00    -0.327 N 
HETATM   27  C1  UNL     1      24.649  22.828  24.043  1.00  0.00     0.398 C 
HETATM   28  O1  UNL     1      24.269  23.774  24.811  1.00  0.00    -0.233 OA
HETATM   29  F1  UNL     1      25.898  22.882  23.525  1.00  0.00    -0.142 F 
ATOM     30  H1  UNL     1      24.056  21.002  23.150  1.00  0.00     0.165 HD
ENDBRANCH   1  26
TORSDOF 11
ENDMDL
MODEL 5
REMARK VINA RESULT: -7.932682039      1.109      1.350
REMARK  11 active torsions:
REMARK  status: ('A' for Active; 'I' for Inactive)
REMARK       I    between atoms: C1_2  and  N1_4 
REMARK    1  A    between atoms: N1_4  and  C2_6 
REMARK    2  A    between atoms: N2_11  and  C7_12 
REMARK    3  A    between atoms: C7_12  and  C8_13 
REMARK    4  A    between atoms: C8_13  and  N3_14 
REMARK    5  A    between atoms: N3_14  and  C9_17 
REMARK    6  A    between atoms: C9_17  and  C10_18 
REMARK    7  A    between atoms: C10_18  and  C11_19 
REMARK    8  A    between atoms: C11_19  and  C12_20 
REMARK    9  A    between atoms: C12_20  and  C13_21 
REMARK   10  A    between atoms: C13_21  and  C14_22 
REMARK   11  A    between atoms: C18_27  and  C19_28 
ROOT
HETATM    1  C2  UNL     1      21.148  19.493  27.848  1.00  0.00     0.105 C 
HETATM    2  C3  UNL     1      20.344  19.418  26.564  1.00  0.00     0.012 C 
HETATM    3  C4  UNL     1      20.953  18.464  25.584  1.00  0.00     0.013 C 
HETATM    4  C5  UNL     1      22.372  18.908  25.301  1.00  0.00     0.021 C 
HETATM    5  C6  UNL     1      22.401  19.459  23.857  1.00  0.00     0.278 C 
HETATM    6  N2  UNL     1      21.810  20.773  23.974  1.00  0.00     0.095 N 
HETATM    7  C15 UNL     1      21.701  21.133  25.336  1.00  0.00     0.229 C 
HETATM    8  C16 UNL     1      20.358  20.808  25.955  1.00  0.00     0.043 C 
HETATM    9  C17 UNL     1      22.695  20.206  26.017  1.00  0.00     0.041 C 
HETATM   10  C18 UNL     1      22.444  20.158  27.501  1.00  0.00     0.116 C 
ENDROOT
BRANCH   6  11
HETATM   11  C7  UNL     1      22.444  21.683  23.088  1.00  0.00     0.300 C 
BRANCH  11  12
HETATM   12  C8  UNL     1      23.915  21.825  23.316  1.00  0.00     0.262 C 
BRANCH  12  13
HETATM   13  N3  UNL     1      24.347  23.174  23.583  1.00  0.00    -0.073 N 
ATOM     14  H32 UNL     1      25.092  23.457  22.946  1.00  0.00     0.277 HD
ATOM     15  H31 UNL     1      23.635  23.851  23.310  1.00  0.00     0.277 HD
BRANCH  13  16
HETATM   16  C9  UNL     1      24.738  23.353  24.956  1.00  0.00     0.232 C 
BRANCH  16  17
HETATM   17  C10 UNL     1      23.773  24.170  25.742  1.00  0.00     0.027 C 
BRANCH  17  18
HETATM   18  C11 UNL     1      23.487  23.822  27.137  1.00  0.00     0.002 C 
BRANCH  18  19
HETATM   19  C12 UNL     1      24.210  24.430  28.259  1.00  0.00     0.001 C 
BRANCH  19  20
HETATM   20  C13 UNL     1      25.364  23.729  28.861  1.00  0.00     0.015 C 
BRANCH  20  21
HETATM   21  C14 UNL     1      26.673  24.186  28.181  1.00  0.00     0.114 C 
HETATM   22 CL1  UNL     1      26.530  25.871  27.659  1.00  0.00    -0.130 Cl
ENDBRANCH  20  21
ENDBRANCH  19  20
ENDBRANCH  18  19
ENDBRANCH  17  18
ENDBRANCH  16  17
ENDBRANCH  13  16
ENDBRANCH  12  13
ENDBRANCH  11  12
ENDBRANCH   6  11
BRANCH  10  23
HETATM   23  C19 UNL     1      23.619  19.662  28.215  1.00  0.00     0.179 C 
HETATM   24  O2  UNL     1      24.353  20.410  28.955  1.00  0.00    -0.648 OA
HETATM   25  O3  UNL     1      24.046  18.340  28.153  1.00  0.00    -0.648 OA
ENDBRANCH  10  23
BRANCH   1  26
HETATM   26  N1  UNL     1      21.310  18.216  28.459  1.00  0.00    -0.327 N 
HETATM   27  C1  UNL     1      20.240  17.604  29.162  1.00  0.00     0.398 C 
HETATM   28  O1  UNL     1      19.119  18.208  29.243  1.00  0.00    -0.233 OA
HETATM   29  F1  UNL     1      20.363  16.392  29.754  1.00  0.00    -0.142 F 
ATOM     30  H1  UNL     1      22.208  17.737  28.391  1.00  0.00     0.165 HD
ENDBRANCH   1  26
TORSDOF 11
ENDMDL
