MODEL 1
REMARK VINA RESULT: -6.989776933      0.000      0.000
REMARK  14 active torsions:
REMARK  status: ('A' for Active; 'I' for Inactive)
REMARK    1  A    between atoms: C2_2  and  N1_3 
REMARK    2  A    between atoms: N1_3  and  C3_5 
REMARK    3  A    between atoms: C3_5  and  N2_7 
REMARK    4  A    between atoms: N2_7  and  C4_9 
REMARK    5  A    between atoms: C4_9  and  C5_10 
REMARK    6  A    between atoms: C5_10  and  C6_11 
REMARK    7  A    between atoms: C6_11  and  C7_12 
REMARK    8  A    between atoms: C7_12  and  C8_13 
REMARK    9  A    between atoms: C8_13  and  C9_14 
REMARK   10  A    between atoms: C9_14  and  C10_15 
REMARK       I    between atoms: C10_15  and  N3_17 
REMARK   11  A    between atoms: N3_17  and  C11_19 
REMARK   12  A    between atoms: C11_19  and  C12_20 
REMARK   13  A    between atoms: C12_20  and  N4_21 
REMARK   14  A    between atoms: C16_25  and  C17_26 
ROOT
HETATM    1  C9  UNL     1      24.353  20.347  28.613  1.00  0.00     0.103 C 
ENDROOT
BRANCH   1   2
HETATM    2  C8  UNL     1      24.095  21.001  27.322  1.00  0.00     0.009 C 
BRANCH   2   3
HETATM    3  C7  UNL     1      22.728  21.480  27.042  1.00  0.00     0.001 C 
BRANCH   3   4
HETATM    4  C6  UNL     1      22.688  22.463  25.889  1.00  0.00     0.002 C 
BRANCH   4   5
HETATM    5  C5  UNL     1      22.878  23.892  26.264  1.00  0.00     0.020 C 
BRANCH   5   6
HETATM    6  C4  UNL     1      24.181  24.489  25.774  1.00  0.00     0.122 C 
BRANCH   6   7
HETATM    7  N2  UNL     1      25.172  24.532  26.826  1.00  0.00    -0.367 N 
ATOM      8  H2  UNL     1      25.509  23.641  27.189  1.00  0.00     0.161 HD
BRANCH   7   9
HETATM    9  C3  UNL     1      25.713  25.708  27.393  1.00  0.00     0.167 C 
HETATM   10  S1  UNL     1      27.107  26.311  26.734  1.00  0.00    -0.041 SA
BRANCH   9  11
HETATM   11  N1  UNL     1      25.166  26.420  28.477  1.00  0.00    -0.368 N 
ATOM     12  H1  UNL     1      25.653  26.436  29.373  1.00  0.00     0.161 HD
BRANCH  11  13
HETATM   13  C2  UNL     1      23.905  27.136  28.323  1.00  0.00     0.117 C 
HETATM   14  C1  UNL     1      22.846  26.494  29.158  1.00  0.00     0.026 C 
ENDBRANCH  11  13
ENDBRANCH   9  11
ENDBRANCH   7   9
ENDBRANCH   6   7
ENDBRANCH   5   6
ENDBRANCH   4   5
ENDBRANCH   3   4
ENDBRANCH   2   3
ENDBRANCH   1   2
BRANCH   1  15
HETATM   15  C10 UNL     1      23.668  19.080  28.890  1.00  0.00     0.217 C 
HETATM   16  O1  UNL     1      23.962  18.052  28.285  1.00  0.00    -0.274 OA
HETATM   17  N3  UNL     1      22.641  19.043  29.874  1.00  0.00    -0.359 N 
ATOM     18  H3  UNL     1      22.423  19.911  30.362  1.00  0.00     0.162 HD
BRANCH  17  19
HETATM   19  C11 UNL     1      21.880  17.860  30.236  1.00  0.00     0.152 C 
BRANCH  19  20
HETATM   20  C12 UNL     1      20.518  17.964  29.625  1.00  0.00     0.292 C 
BRANCH  20  21
HETATM   21  N4  UNL     1      20.458  17.262  28.373  1.00  0.00     0.095 N 
HETATM   22  C13 UNL     1      19.297  16.390  28.388  1.00  0.00     0.273 C 
HETATM   23  C14 UNL     1      18.436  16.767  27.228  1.00  0.00     0.032 C 
HETATM   24  C15 UNL     1      19.523  17.275  26.246  1.00  0.00     0.038 C 
HETATM   25  C16 UNL     1      20.422  18.083  27.214  1.00  0.00     0.236 C 
BRANCH  25  26
HETATM   26  C17 UNL     1      19.870  19.449  27.333  1.00  0.00     0.150 C 
HETATM   27 CL1  UNL     1      19.627  20.172  25.700  1.00  0.00    -0.128 Cl
ENDBRANCH  25  26
ENDBRANCH  20  21
ENDBRANCH  19  20
ENDBRANCH  17  19
ENDBRANCH   1  15
TORSDOF 14
ENDMDL
MODEL 2
REMARK VINA RESULT: -6.929988279      1.880      2.923
REMARK  14 active torsions:
REMARK  status: ('A' for Active; 'I' for Inactive)
REMARK    1  A    between atoms: C2_2  and  N1_3 
REMARK    2  A    between atoms: N1_3  and  C3_5 
REMARK    3  A    between atoms: C3_5  and  N2_7 
REMARK    4  A    between atoms: N2_7  and  C4_9 
REMARK    5  A    between atoms: C4_9  and  C5_10 
REMARK    6  A    between atoms: C5_10  and  C6_11 
REMARK    7  A    between atoms: C6_11  and  C7_12 
REMARK    8  A    between atoms: C7_12  and  C8_13 
REMARK    9  A    between atoms: C8_13  and  C9_14 
REMARK   10  A    between atoms: C9_14  and  C10_15 
REMARK       I    between atoms: C10_15  and  N3_17 
REMARK   11  A    between atoms: N3_17  and  C11_19 
REMARK   12  A    between atoms: C11_19  and  C12_20 
REMARK   13  A    between atoms: C12_20  and  N4_21 
REMARK   14  A    between atoms: C16_25  and  C17_26 
ROOT
HETATM    1  C9  UNL     1      22.348  18.062  30.491  1.00  0.00     0.103 C 
ENDROOT
BRANCH   1   2
HETATM    2  C8  UNL     1      23.390  18.331  29.489  1.00  0.00     0.009 C 
BRANCH   2   3
HETATM    3  C7  UNL     1      23.824  19.727  29.290  1.00  0.00     0.001 C 
BRANCH   3   4
HETATM    4  C6  UNL     1      23.972  20.080  27.825  1.00  0.00     0.002 C 
BRANCH   4   5
HETATM    5  C5  UNL     1      23.307  21.346  27.405  1.00  0.00     0.020 C 
BRANCH   5   6
HETATM    6  C4  UNL     1      24.271  22.478  27.109  1.00  0.00     0.122 C 
BRANCH   6   7
HETATM    7  N2  UNL     1      24.409  23.364  28.243  1.00  0.00    -0.367 N 
ATOM      8  H2  UNL     1      24.293  22.959  29.171  1.00  0.00     0.161 HD
BRANCH   7   9
HETATM    9  C3  UNL     1      24.692  24.746  28.171  1.00  0.00     0.167 C 
HETATM   10  S1  UNL     1      25.384  25.321  26.780  1.00  0.00    -0.041 SA
BRANCH   9  11
HETATM   11  N1  UNL     1      24.433  25.689  29.184  1.00  0.00    -0.368 N 
ATOM     12  H1  UNL     1      24.740  25.506  30.139  1.00  0.00     0.161 HD
BRANCH  11  13
HETATM   13  C2  UNL     1      23.727  26.926  28.873  1.00  0.00     0.117 C 
HETATM   14  C1  UNL     1      22.313  26.629  28.499  1.00  0.00     0.026 C 
ENDBRANCH  11  13
ENDBRANCH   9  11
ENDBRANCH   7   9
ENDBRANCH   6   7
ENDBRANCH   5   6
ENDBRANCH   4   5
ENDBRANCH   3   4
ENDBRANCH   2   3
ENDBRANCH   1   2
BRANCH   1  15
HETATM   15  C10 UNL     1      21.029  17.635  30.012  1.00  0.00     0.217 C 
HETATM   16  O1  UNL     1      20.431  16.702  30.543  1.00  0.00    -0.274 OA
HETATM   17  N3  UNL     1      20.433  18.312  28.912  1.00  0.00    -0.359 N 
ATOM     18  H3  UNL     1      20.952  19.086  28.497  1.00  0.00     0.162 HD
BRANCH  17  19
HETATM   19  C11 UNL     1      19.141  17.985  28.336  1.00  0.00     0.152 C 
BRANCH  19  20
HETATM   20  C12 UNL     1      19.361  17.365  26.992  1.00  0.00     0.292 C 
BRANCH  20  21
HETATM   21  N4  UNL     1      19.174  18.327  25.942  1.00  0.00     0.095 N 
HETATM   22  C13 UNL     1      18.814  19.600  26.540  1.00  0.00     0.273 C 
HETATM   23  C14 UNL     1      19.826  20.607  26.102  1.00  0.00     0.032 C 
HETATM   24  C15 UNL     1      20.208  20.012  24.720  1.00  0.00     0.038 C 
HETATM   25  C16 UNL     1      20.284  18.506  25.073  1.00  0.00     0.236 C 
BRANCH  25  26
HETATM   26  C17 UNL     1      21.639  18.216  25.589  1.00  0.00     0.150 C 
HETATM   27 CL1  UNL     1      22.888  18.957  24.522  1.00  0.00    -0.128 Cl
ENDBRANCH  25  26
ENDBRANCH  20  21
ENDBRANCH  19  20
ENDBRANCH  17  19
ENDBRANCH   1  15
TORSDOF 14
ENDMDL
MODEL 3
REMARK VINA RESULT: -6.860538096      3.621      7.629
REMARK  14 active torsions:
REMARK  status: ('A' for Active; 'I' for Inactive)
REMARK    1  A    between atoms: C2_2  and  N1_3 
REMARK    2  A    between atoms: N1_3  and  C3_5 
REMARK    3  A    between atoms: C3_5  and  N2_7 
REMARK    4  A    between atoms: N2_7  and  C4_9 
REMARK    5  A    between atoms: C4_9  and  C5_10 
REMARK    6  A    between atoms: C5_10  and  C6_11 
REMARK    7  A    between atoms: C6_11  and  C7_12 
REMARK    8  A    between atoms: C7_12  and  C8_13 
REMARK    9  A    between atoms: C8_13  and  C9_14 
REMARK   10  A    between atoms: C9_14  and  C10_15 
REMARK       I    between atoms: C10_15  and  N3_17 
REMARK   11  A    between atoms: N3_17  and  C11_19 
REMARK   12  A    between atoms: C11_19  and  C12_20 
REMARK   13  A    between atoms: C12_20  and  N4_21 
REMARK   14  A    between atoms: C16_25  and  C17_26 
ROOT
HETATM    1  C9  UNL     1      22.640  18.228  30.364  1.00  0.00     0.103 C 
ENDROOT
BRANCH   1   2
HETATM    2  C8  UNL     1      21.217  17.866  30.288  1.00  0.00     0.009 C 
BRANCH   2   3
HETATM    3  C7  UNL     1      20.665  17.468  28.979  1.00  0.00     0.001 C 
BRANCH   3   4
HETATM    4  C6  UNL     1      19.601  16.398  29.105  1.00  0.00     0.002 C 
BRANCH   4   5
HETATM    5  C5  UNL     1      19.213  15.733  27.829  1.00  0.00     0.020 C 
BRANCH   5   6
HETATM    6  C4  UNL     1      18.727  16.690  26.759  1.00  0.00     0.122 C 
BRANCH   6   7
HETATM    7  N2  UNL     1      17.510  17.359  27.161  1.00  0.00    -0.367 N 
ATOM      8  H2  UNL     1      16.719  16.773  27.426  1.00  0.00     0.161 HD
BRANCH   7   9
HETATM    9  C3  UNL     1      17.327  18.759  27.218  1.00  0.00     0.167 C 
HETATM   10  S1  UNL     1      15.774  19.330  27.302  1.00  0.00    -0.041 SA
BRANCH   9  11
HETATM   11  N1  UNL     1      18.355  19.721  27.210  1.00  0.00    -0.368 N 
ATOM     12  H1  UNL     1      18.794  20.002  28.086  1.00  0.00     0.161 HD
BRANCH  11  13
HETATM   13  C2  UNL     1      18.794  20.315  25.954  1.00  0.00     0.117 C 
HETATM   14  C1  UNL     1      20.216  20.757  26.065  1.00  0.00     0.026 C 
ENDBRANCH  11  13
ENDBRANCH   9  11
ENDBRANCH   7   9
ENDBRANCH   6   7
ENDBRANCH   5   6
ENDBRANCH   4   5
ENDBRANCH   3   4
ENDBRANCH   2   3
ENDBRANCH   1   2
BRANCH   1  15
HETATM   15  C10 UNL     1      23.316  18.618  29.123  1.00  0.00     0.217 C 
HETATM   16  O1  UNL     1      24.062  17.840  28.532  1.00  0.00    -0.274 OA
HETATM   17  N3  UNL     1      23.109  19.923  28.595  1.00  0.00    -0.359 N 
ATOM     18  H3  UNL     1      22.481  20.544  29.106  1.00  0.00     0.162 HD
BRANCH  17  19
HETATM   19  C11 UNL     1      23.724  20.438  27.384  1.00  0.00     0.152 C 
BRANCH  19  20
HETATM   20  C12 UNL     1      24.701  21.506  27.762  1.00  0.00     0.292 C 
BRANCH  20  21
HETATM   21  N4  UNL     1      24.789  22.511  26.741  1.00  0.00     0.095 N 
HETATM   22  C13 UNL     1      23.572  22.475  25.950  1.00  0.00     0.273 C 
HETATM   23  C14 UNL     1      22.949  23.830  26.017  1.00  0.00     0.032 C 
HETATM   24  C15 UNL     1      24.224  24.698  26.191  1.00  0.00     0.038 C 
HETATM   25  C16 UNL     1      25.015  23.836  27.205  1.00  0.00     0.236 C 
BRANCH  25  26
HETATM   26  C17 UNL     1      24.570  24.191  28.569  1.00  0.00     0.150 C 
HETATM   27 CL1  UNL     1      24.225  25.957  28.675  1.00  0.00    -0.128 Cl
ENDBRANCH  25  26
ENDBRANCH  20  21
ENDBRANCH  19  20
ENDBRANCH  17  19
ENDBRANCH   1  15
TORSDOF 14
ENDMDL
MODEL 4
REMARK VINA RESULT: -6.853474801      1.329      1.765
REMARK  14 active torsions:
REMARK  status: ('A' for Active; 'I' for Inactive)
REMARK    1  A    between atoms: C2_2  and  N1_3 
REMARK    2  A    between atoms: N1_3  and  C3_5 
REMARK    3  A    between atoms: C3_5  and  N2_7 
REMARK    4  A    between atoms: N2_7  and  C4_9 
REMARK    5  A    between atoms: C4_9  and  C5_10 
REMARK    6  A    between atoms: C5_10  and  C6_11 
REMARK    7  A    between atoms: C6_11  and  C7_12 
REMARK    8  A    between atoms: C7_12  and  C8_13 
REMARK    9  A    between atoms: C8_13  and  C9_14 
REMARK   10  A    between atoms: C9_14  and  C10_15 
REMARK       I    between atoms: C10_15  and  N3_17 
REMARK   11  A    between atoms: N3_17  and  C11_19 
REMARK   12  A    between atoms: C11_19  and  C12_20 
REMARK   13  A    between atoms: C12_20  and  N4_21 
REMARK   14  A    between atoms: C16_25  and  C17_26 
ROOT
HETATM    1  C9  UNL     1      24.318  20.228  28.539  1.00  0.00     0.103 C 
ENDROOT
BRANCH   1   2
HETATM    2  C8  UNL     1      23.578  21.228  27.757  1.00  0.00     0.009 C 
BRANCH   2   3
HETATM    3  C7  UNL     1      23.398  20.994  26.312  1.00  0.00     0.001 C 
BRANCH   3   4
HETATM    4  C6  UNL     1      22.817  22.200  25.602  1.00  0.00     0.002 C 
BRANCH   4   5
HETATM    5  C5  UNL     1      22.897  23.482  26.356  1.00  0.00     0.020 C 
BRANCH   5   6
HETATM    6  C4  UNL     1      23.997  24.409  25.880  1.00  0.00     0.122 C 
BRANCH   6   7
HETATM    7  N2  UNL     1      24.178  25.523  26.783  1.00  0.00    -0.367 N 
ATOM      8  H2  UNL     1      24.166  26.459  26.379  1.00  0.00     0.161 HD
BRANCH   7   9
HETATM    9  C3  UNL     1      24.372  25.421  28.178  1.00  0.00     0.167 C 
HETATM   10  S1  UNL     1      23.494  26.431  29.154  1.00  0.00    -0.041 SA
BRANCH   9  11
HETATM   11  N1  UNL     1      25.252  24.529  28.820  1.00  0.00    -0.368 N 
ATOM     12  H1  UNL     1      24.938  24.005  29.637  1.00  0.00     0.161 HD
BRANCH  11  13
HETATM   13  C2  UNL     1      26.609  24.351  28.322  1.00  0.00     0.117 C 
HETATM   14  C1  UNL     1      26.840  22.920  27.963  1.00  0.00     0.026 C 
ENDBRANCH  11  13
ENDBRANCH   9  11
ENDBRANCH   7   9
ENDBRANCH   6   7
ENDBRANCH   5   6
ENDBRANCH   4   5
ENDBRANCH   3   4
ENDBRANCH   2   3
ENDBRANCH   1   2
BRANCH   1  15
HETATM   15  C10 UNL     1      23.630  18.979  28.884  1.00  0.00     0.217 C 
HETATM   16  O1  UNL     1      23.962  17.909  28.379  1.00  0.00    -0.274 OA
HETATM   17  N3  UNL     1      22.558  19.009  29.818  1.00  0.00    -0.359 N 
ATOM     18  H3  UNL     1      22.309  19.911  30.223  1.00  0.00     0.162 HD
BRANCH  17  19
HETATM   19  C11 UNL     1      21.789  17.850  30.237  1.00  0.00     0.152 C 
BRANCH  19  20
HETATM   20  C12 UNL     1      20.431  17.927  29.614  1.00  0.00     0.292 C 
BRANCH  20  21
HETATM   21  N4  UNL     1      20.408  17.263  28.341  1.00  0.00     0.095 N 
HETATM   22  C13 UNL     1      19.186  16.485  28.248  1.00  0.00     0.273 C 
HETATM   23  C14 UNL     1      18.442  16.956  27.043  1.00  0.00     0.032 C 
HETATM   24  C15 UNL     1      19.633  17.401  26.154  1.00  0.00     0.038 C 
HETATM   25  C16 UNL     1      20.520  18.112  27.207  1.00  0.00     0.236 C 
BRANCH  25  26
HETATM   26  C17 UNL     1      20.068  19.514  27.328  1.00  0.00     0.150 C 
HETATM   27 CL1  UNL     1      19.712  20.201  25.700  1.00  0.00    -0.128 Cl
ENDBRANCH  25  26
ENDBRANCH  20  21
ENDBRANCH  19  20
ENDBRANCH  17  19
ENDBRANCH   1  15
TORSDOF 14
ENDMDL
MODEL 5
REMARK VINA RESULT: -6.743466171      2.181      3.171
REMARK  14 active torsions:
REMARK  status: ('A' for Active; 'I' for Inactive)
REMARK    1  A    between atoms: C2_2  and  N1_3 
REMARK    2  A    between atoms: N1_3  and  C3_5 
REMARK    3  A    between atoms: C3_5  and  N2_7 
REMARK    4  A    between atoms: N2_7  and  C4_9 
REMARK    5  A    between atoms: C4_9  and  C5_10 
REMARK    6  A    between atoms: C5_10  and  C6_11 
REMARK    7  A    between atoms: C6_11  and  C7_12 
REMARK    8  A    between atoms: C7_12  and  C8_13 
REMARK    9  A    between atoms: C8_13  and  C9_14 
REMARK   10  A    between atoms: C9_14  and  C10_15 
REMARK       I    between atoms: C10_15  and  N3_17 
REMARK   11  A    between atoms: N3_17  and  C11_19 
REMARK   12  A    between atoms: C11_19  and  C12_20 
REMARK   13  A    between atoms: C12_20  and  N4_21 
REMARK   14  A    between atoms: C16_25  and  C17_26 
ROOT
HETATM    1  C9  UNL     1      22.732  21.915  24.870  1.00  0.00     0.103 C 
ENDROOT
BRANCH   1   2
HETATM    2  C8  UNL     1      22.762  23.099  25.741  1.00  0.00     0.009 C 
BRANCH   2   3
HETATM    3  C7  UNL     1      23.428  22.985  27.053  1.00  0.00     0.001 C 
BRANCH   3   4
HETATM    4  C6  UNL     1      24.778  22.304  26.956  1.00  0.00     0.002 C 
BRANCH   4   5
HETATM    5  C5  UNL     1      25.690  22.530  28.113  1.00  0.00     0.020 C 
BRANCH   5   6
HETATM    6  C4  UNL     1      25.345  23.752  28.938  1.00  0.00     0.122 C 
BRANCH   6   7
HETATM    7  N2  UNL     1      26.176  24.881  28.585  1.00  0.00    -0.367 N 
ATOM      8  H2  UNL     1      27.045  25.003  29.105  1.00  0.00     0.161 HD
BRANCH   7   9
HETATM    9  C3  UNL     1      25.884  25.829  27.580  1.00  0.00     0.167 C 
HETATM   10  S1  UNL     1      27.139  26.378  26.649  1.00  0.00    -0.041 SA
BRANCH   9  11
HETATM   11  N1  UNL     1      24.609  26.353  27.294  1.00  0.00    -0.368 N 
ATOM     12  H1  UNL     1      24.159  26.139  26.404  1.00  0.00     0.161 HD
BRANCH  11  13
HETATM   13  C2  UNL     1      23.929  27.200  28.266  1.00  0.00     0.117 C 
HETATM   14  C1  UNL     1      22.731  26.495  28.811  1.00  0.00     0.026 C 
ENDBRANCH  11  13
ENDBRANCH   9  11
ENDBRANCH   7   9
ENDBRANCH   6   7
ENDBRANCH   5   6
ENDBRANCH   4   5
ENDBRANCH   3   4
ENDBRANCH   2   3
ENDBRANCH   1   2
BRANCH   1  15
HETATM   15  C10 UNL     1      21.482  21.152  24.792  1.00  0.00     0.217 C 
HETATM   16  O1  UNL     1      21.079  20.697  23.724  1.00  0.00    -0.274 OA
HETATM   17  N3  UNL     1      20.720  20.938  25.974  1.00  0.00    -0.359 N 
ATOM     18  H3  UNL     1      21.082  21.324  26.846  1.00  0.00     0.162 HD
BRANCH  17  19
HETATM   19  C11 UNL     1      19.464  20.211  26.033  1.00  0.00     0.152 C 
BRANCH  19  20
HETATM   20  C12 UNL     1      19.750  18.796  26.425  1.00  0.00     0.292 C 
BRANCH  20  21
HETATM   21  N4  UNL     1      19.623  18.617  27.844  1.00  0.00     0.095 N 
HETATM   22  C13 UNL     1      18.747  17.486  28.091  1.00  0.00     0.273 C 
HETATM   23  C14 UNL     1      19.509  16.495  28.907  1.00  0.00     0.032 C 
HETATM   24  C15 UNL     1      20.448  17.457  29.682  1.00  0.00     0.038 C 
HETATM   25  C16 UNL     1      20.844  18.436  28.549  1.00  0.00     0.236 C 
BRANCH  25  26
HETATM   26  C17 UNL     1      22.000  17.869  27.824  1.00  0.00     0.150 C 
HETATM   27 CL1  UNL     1      23.301  19.105  27.653  1.00  0.00    -0.128 Cl
ENDBRANCH  25  26
ENDBRANCH  20  21
ENDBRANCH  19  20
ENDBRANCH  17  19
ENDBRANCH   1  15
TORSDOF 14
ENDMDL
