MODEL 1
REMARK VINA RESULT: -6.130504279      0.000      0.000
REMARK  6 active torsions:
REMARK  status: ('A' for Active; 'I' for Inactive)
REMARK    1  A    between atoms: C2_2  and  N1_3 
REMARK    2  A    between atoms: N1_3  and  C3_5 
REMARK    3  A    between atoms: C3_5  and  C5_13 
REMARK    4  A    between atoms: N2_6  and  N3_8 
REMARK    5  A    between atoms: C10_18  and  O1_19 
REMARK    6  A    between atoms: O1_19  and  C11_20 
ROOT
HETATM    1  C3  UNL     1      48.380 -45.365  63.138  1.00  0.00     0.129 C 
HETATM    2  N2  UNL     1      49.208 -46.316  63.126  1.00  0.00    -0.283 N 
ATOM      3  H2  UNL     1      50.199 -46.081  63.066  1.00  0.00     0.188 HD
ENDROOT
BRANCH   1   4
HETATM    4  N1  UNL     1      48.835 -44.018  63.065  1.00  0.00    -0.375 N 
ATOM      5  H1  UNL     1      48.210 -43.277  63.382  1.00  0.00     0.161 HD
BRANCH   4   6
HETATM    6  C2  UNL     1      50.132 -43.654  62.567  1.00  0.00     0.116 C 
HETATM    7  C1  UNL     1      50.684 -42.494  63.327  1.00  0.00     0.026 C 
ENDBRANCH   4   6
ENDBRANCH   1   4
BRANCH   1   8
HETATM    8  C5  UNL     1      46.955 -45.577  63.252  1.00  0.00     0.042 A 
HETATM    9  C6  UNL     1      46.154 -45.313  62.127  1.00  0.00     0.018 A 
HETATM   10  C7  UNL     1      44.797 -45.467  62.164  1.00  0.00     0.001 A 
HETATM   11  C8  UNL     1      44.165 -45.887  63.310  1.00  0.00     0.003 A 
HETATM   12  C9  UNL     1      44.950 -46.148  64.416  1.00  0.00     0.038 A 
HETATM   13  C10 UNL     1      46.334 -46.004  64.425  1.00  0.00     0.082 A 
BRANCH  13  14
HETATM   14  O1  UNL     1      47.081 -46.264  65.533  1.00  0.00    -0.351 OA
BRANCH  14  15
HETATM   15  C11 UNL     1      46.784 -46.086  66.871  1.00  0.00     0.171 C 
HETATM   16  C12 UNL     1      45.798 -47.013  67.479  1.00  0.00     0.034 C 
ENDBRANCH  14  15
ENDBRANCH  13  14
ENDBRANCH   1   8
BRANCH   2  17
HETATM   17  N3  UNL     1      48.869 -47.655  63.190  1.00  0.00    -0.274 N 
HETATM   18  C4  UNL     1      49.601 -48.567  62.693  1.00  0.00     0.215 C 
HETATM   19  N4  UNL     1      49.199 -49.911  62.791  1.00  0.00    -0.065 NA
HETATM   20  N5  UNL     1      50.823 -48.238  62.039  1.00  0.00    -0.065 NA
ATOM     21  H3  UNL     1      48.000 -47.920  63.652  1.00  0.00     0.189 HD
ENDBRANCH   2  17
TORSDOF 6
ENDMDL
MODEL 2
REMARK VINA RESULT: -6.112184167      1.664      2.946
REMARK  6 active torsions:
REMARK  status: ('A' for Active; 'I' for Inactive)
REMARK    1  A    between atoms: C2_2  and  N1_3 
REMARK    2  A    between atoms: N1_3  and  C3_5 
REMARK    3  A    between atoms: C3_5  and  C5_13 
REMARK    4  A    between atoms: N2_6  and  N3_8 
REMARK    5  A    between atoms: C10_18  and  O1_19 
REMARK    6  A    between atoms: O1_19  and  C11_20 
ROOT
HETATM    1  C3  UNL     1      48.864 -45.207  62.855  1.00  0.00     0.129 C 
HETATM    2  N2  UNL     1      49.622 -46.214  62.906  1.00  0.00    -0.283 N 
ATOM      3  H2  UNL     1      50.611 -46.073  62.695  1.00  0.00     0.188 HD
ENDROOT
BRANCH   1   4
HETATM    4  N1  UNL     1      49.390 -43.931  62.508  1.00  0.00    -0.375 N 
ATOM      5  H1  UNL     1      48.740 -43.200  62.218  1.00  0.00     0.161 HD
BRANCH   4   6
HETATM    6  C2  UNL     1      50.792 -43.623  62.547  1.00  0.00     0.116 C 
HETATM    7  C1  UNL     1      51.037 -42.362  63.307  1.00  0.00     0.026 C 
ENDBRANCH   4   6
ENDBRANCH   1   4
BRANCH   1   8
HETATM    8  C5  UNL     1      47.454 -45.280  63.164  1.00  0.00     0.042 A 
HETATM    9  C6  UNL     1      46.968 -44.496  64.225  1.00  0.00     0.018 A 
HETATM   10  C7  UNL     1      45.652 -44.528  64.593  1.00  0.00     0.001 A 
HETATM   11  C8  UNL     1      44.755 -45.335  63.934  1.00  0.00     0.003 A 
HETATM   12  C9  UNL     1      45.231 -46.105  62.891  1.00  0.00     0.038 A 
HETATM   13  C10 UNL     1      46.561 -46.105  62.483  1.00  0.00     0.082 A 
BRANCH  13  14
HETATM   14  O1  UNL     1      47.001 -46.880  61.454  1.00  0.00    -0.351 OA
BRANCH  14  15
HETATM   15  C11 UNL     1      47.341 -46.536  60.159  1.00  0.00     0.171 C 
HETATM   16  C12 UNL     1      48.440 -47.299  59.518  1.00  0.00     0.034 C 
ENDBRANCH  14  15
ENDBRANCH  13  14
ENDBRANCH   1   8
BRANCH   2  17
HETATM   17  N3  UNL     1      49.211 -47.493  63.229  1.00  0.00    -0.274 N 
HETATM   18  C4  UNL     1      49.864 -48.526  62.884  1.00  0.00     0.215 C 
HETATM   19  N4  UNL     1      49.390 -49.800  63.245  1.00  0.00    -0.065 NA
HETATM   20  N5  UNL     1      51.070 -48.403  62.136  1.00  0.00    -0.065 NA
ATOM     21  H3  UNL     1      48.351 -47.612  63.764  1.00  0.00     0.189 HD
ENDBRANCH   2  17
TORSDOF 6
ENDMDL
MODEL 3
REMARK VINA RESULT: -5.973569500      1.129      2.762
REMARK  6 active torsions:
REMARK  status: ('A' for Active; 'I' for Inactive)
REMARK    1  A    between atoms: C2_2  and  N1_3 
REMARK    2  A    between atoms: N1_3  and  C3_5 
REMARK    3  A    between atoms: C3_5  and  C5_13 
REMARK    4  A    between atoms: N2_6  and  N3_8 
REMARK    5  A    between atoms: C10_18  and  O1_19 
REMARK    6  A    between atoms: O1_19  and  C11_20 
ROOT
HETATM    1  C3  UNL     1      47.858 -45.689  63.979  1.00  0.00     0.129 C 
HETATM    2  N2  UNL     1      48.675 -46.492  63.450  1.00  0.00    -0.283 N 
ATOM      3  H2  UNL     1      49.379 -46.105  62.821  1.00  0.00     0.188 HD
ENDROOT
BRANCH   1   4
HETATM    4  N1  UNL     1      47.932 -44.298  63.691  1.00  0.00    -0.375 N 
ATOM      5  H1  UNL     1      47.357 -43.658  64.239  1.00  0.00     0.161 HD
BRANCH   4   6
HETATM    6  C2  UNL     1      48.777 -43.752  62.666  1.00  0.00     0.116 C 
HETATM    7  C1  UNL     1      50.015 -43.163  63.258  1.00  0.00     0.026 C 
ENDBRANCH   4   6
ENDBRANCH   1   4
BRANCH   1   8
HETATM    8  C5  UNL     1      46.839 -46.120  64.910  1.00  0.00     0.042 A 
HETATM    9  C6  UNL     1      47.153 -46.125  66.280  1.00  0.00     0.018 A 
HETATM   10  C7  UNL     1      46.251 -46.541  67.218  1.00  0.00     0.001 A 
HETATM   11  C8  UNL     1      44.998 -46.971  66.851  1.00  0.00     0.003 A 
HETATM   12  C9  UNL     1      44.688 -46.966  65.505  1.00  0.00     0.038 A 
HETATM   13  C10 UNL     1      45.574 -46.553  64.516  1.00  0.00     0.082 A 
BRANCH  13  14
HETATM   14  O1  UNL     1      45.240 -46.564  63.196  1.00  0.00    -0.351 OA
BRANCH  14  15
HETATM   15  C11 UNL     1      44.527 -45.647  62.448  1.00  0.00     0.171 C 
HETATM   16  C12 UNL     1      44.232 -44.336  63.078  1.00  0.00     0.034 C 
ENDBRANCH  14  15
ENDBRANCH  13  14
ENDBRANCH   1   8
BRANCH   2  17
HETATM   17  N3  UNL     1      48.686 -47.857  63.662  1.00  0.00    -0.274 N 
HETATM   18  C4  UNL     1      49.508 -48.631  63.079  1.00  0.00     0.215 C 
HETATM   19  N4  UNL     1      49.466 -50.012  63.338  1.00  0.00    -0.065 NA
HETATM   20  N5  UNL     1      50.469 -48.109  62.166  1.00  0.00    -0.065 NA
ATOM     21  H3  UNL     1      48.009 -48.260  64.310  1.00  0.00     0.189 HD
ENDBRANCH   2  17
TORSDOF 6
ENDMDL
MODEL 4
REMARK VINA RESULT: -5.911397576      2.455      3.930
REMARK  6 active torsions:
REMARK  status: ('A' for Active; 'I' for Inactive)
REMARK    1  A    between atoms: C2_2  and  N1_3 
REMARK    2  A    between atoms: N1_3  and  C3_5 
REMARK    3  A    between atoms: C3_5  and  C5_13 
REMARK    4  A    between atoms: N2_6  and  N3_8 
REMARK    5  A    between atoms: C10_18  and  O1_19 
REMARK    6  A    between atoms: O1_19  and  C11_20 
ROOT
HETATM    1  C3  UNL     1      49.934 -46.645  62.679  1.00  0.00     0.129 C 
HETATM    2  N2  UNL     1      50.056 -47.900  62.692  1.00  0.00    -0.283 N 
ATOM      3  H2  UNL     1      50.981 -48.284  62.888  1.00  0.00     0.188 HD
ENDROOT
BRANCH   1   4
HETATM    4  N1  UNL     1      51.060 -45.812  62.927  1.00  0.00    -0.375 N 
ATOM      5  H1  UNL     1      51.658 -46.029  63.724  1.00  0.00     0.161 HD
BRANCH   4   6
HETATM    6  C2  UNL     1      51.396 -44.681  62.108  1.00  0.00     0.116 C 
HETATM    7  C1  UNL     1      51.180 -43.405  62.852  1.00  0.00     0.026 C 
ENDBRANCH   4   6
ENDBRANCH   1   4
BRANCH   1   8
HETATM    8  C5  UNL     1      48.666 -45.991  62.443  1.00  0.00     0.042 A 
HETATM    9  C6  UNL     1      48.018 -45.389  63.537  1.00  0.00     0.018 A 
HETATM   10  C7  UNL     1      46.807 -44.772  63.398  1.00  0.00     0.001 A 
HETATM   11  C8  UNL     1      46.176 -44.721  62.178  1.00  0.00     0.003 A 
HETATM   12  C9  UNL     1      46.811 -45.311  61.103  1.00  0.00     0.038 A 
HETATM   13  C10 UNL     1      48.044 -45.950  61.197  1.00  0.00     0.082 A 
BRANCH  13  14
HETATM   14  O1  UNL     1      48.642 -46.528  60.119  1.00  0.00    -0.351 OA
BRANCH  14  15
HETATM   15  C11 UNL     1      48.117 -47.349  59.140  1.00  0.00     0.171 C 
HETATM   16  C12 UNL     1      49.035 -47.803  58.066  1.00  0.00     0.034 C 
ENDBRANCH  14  15
ENDBRANCH  13  14
ENDBRANCH   1   8
BRANCH   2  17
HETATM   17  N3  UNL     1      49.028 -48.794  62.461  1.00  0.00    -0.274 N 
HETATM   18  C4  UNL     1      49.110 -49.719  61.595  1.00  0.00     0.215 C 
HETATM   19  N4  UNL     1      48.027 -50.596  61.408  1.00  0.00    -0.065 NA
HETATM   20  N5  UNL     1      50.290 -49.873  60.812  1.00  0.00    -0.065 NA
ATOM     21  H3  UNL     1      48.170 -48.708  63.007  1.00  0.00     0.189 HD
ENDBRANCH   2  17
TORSDOF 6
ENDMDL
MODEL 5
REMARK VINA RESULT: -5.895752034      2.438      4.781
REMARK  6 active torsions:
REMARK  status: ('A' for Active; 'I' for Inactive)
REMARK    1  A    between atoms: C2_2  and  N1_3 
REMARK    2  A    between atoms: N1_3  and  C3_5 
REMARK    3  A    between atoms: C3_5  and  C5_13 
REMARK    4  A    between atoms: N2_6  and  N3_8 
REMARK    5  A    between atoms: C10_18  and  O1_19 
REMARK    6  A    between atoms: O1_19  and  C11_20 
ROOT
HETATM    1  C3  UNL     1      47.897 -46.270  62.639  1.00  0.00     0.129 C 
HETATM    2  N2  UNL     1      47.470 -46.807  61.581  1.00  0.00    -0.283 N 
ATOM      3  H2  UNL     1      46.607 -47.348  61.639  1.00  0.00     0.188 HD
ENDROOT
BRANCH   1   4
HETATM    4  N1  UNL     1      47.186 -46.430  63.861  1.00  0.00    -0.375 N 
ATOM      5  H1  UNL     1      47.686 -46.801  64.669  1.00  0.00     0.161 HD
BRANCH   4   6
HETATM    6  C2  UNL     1      45.798 -46.093  64.011  1.00  0.00     0.116 C 
HETATM    7  C1  UNL     1      45.642 -44.680  64.466  1.00  0.00     0.026 C 
ENDBRANCH   4   6
ENDBRANCH   1   4
BRANCH   1   8
HETATM    8  C5  UNL     1      49.092 -45.456  62.670  1.00  0.00     0.042 A 
HETATM    9  C6  UNL     1      48.952 -44.086  62.954  1.00  0.00     0.018 A 
HETATM   10  C7  UNL     1      50.031 -43.248  62.978  1.00  0.00     0.001 A 
HETATM   11  C8  UNL     1      51.296 -43.718  62.722  1.00  0.00     0.003 A 
HETATM   12  C9  UNL     1      51.436 -45.064  62.443  1.00  0.00     0.038 A 
HETATM   13  C10 UNL     1      50.366 -45.954  62.407  1.00  0.00     0.082 A 
BRANCH  13  14
HETATM   14  O1  UNL     1      50.535 -47.275  62.124  1.00  0.00    -0.351 OA
BRANCH  14  15
HETATM   15  C11 UNL     1      50.787 -48.343  62.965  1.00  0.00     0.171 C 
HETATM   16  C12 UNL     1      49.848 -49.490  62.909  1.00  0.00     0.034 C 
ENDBRANCH  14  15
ENDBRANCH  13  14
ENDBRANCH   1   8
BRANCH   2  17
HETATM   17  N3  UNL     1      48.087 -46.715  60.347  1.00  0.00    -0.274 N 
HETATM   18  C4  UNL     1      48.242 -47.720  59.586  1.00  0.00     0.215 C 
HETATM   19  N4  UNL     1      48.879 -47.558  58.343  1.00  0.00    -0.065 NA
HETATM   20  N5  UNL     1      47.778 -49.007  59.984  1.00  0.00    -0.065 NA
ATOM     21  H3  UNL     1      48.430 -45.806  60.036  1.00  0.00     0.189 HD
ENDBRANCH   2  17
TORSDOF 6
ENDMDL
