MODEL 1
REMARK VINA RESULT: -8.551361752      0.000      0.000
REMARK  6 active torsions:
REMARK  status: ('A' for Active; 'I' for Inactive)
REMARK    1  A    between atoms: C5_7  and  N2_8 
REMARK    2  A    between atoms: N2_8  and  C6_10 
REMARK    3  A    between atoms: C6_10  and  C7_11 
REMARK    4  A    between atoms: C7_11  and  C8_12 
REMARK    5  A    between atoms: C8_12  and  N3_13 
REMARK    6  A    between atoms: C8_12  and  C9_17 
ROOT
HETATM    1  C6  UNL     1      44.527 -46.910  65.389  1.00  0.00     0.140 C 
ENDROOT
BRANCH   1   2
HETATM    2  N2  UNL     1      45.023 -45.623  65.014  1.00  0.00    -0.226 N 
ATOM      3  H2  UNL     1      44.709 -44.779  65.493  1.00  0.00     0.177 HD
BRANCH   2   4
HETATM    4  C5  UNL     1      45.886 -45.559  64.046  1.00  0.00     0.678 A 
HETATM    5  N1  UNL     1      45.743 -44.703  63.020  1.00  0.00    -0.202 N 
HETATM    6  C4  UNL     1      46.609 -44.601  61.996  1.00  0.00     0.108 A 
ATOM      7  H1  UNL     1      44.926 -44.093  63.018  1.00  0.00     0.183 HD
HETATM    8  C3  UNL     1      47.716 -45.423  61.990  1.00  0.00     0.042 A 
HETATM    9  C2  UNL     1      47.886 -46.307  63.024  1.00  0.00     0.024 A 
HETATM   10  C1  UNL     1      49.087 -47.205  63.025  1.00  0.00     0.068 C 
HETATM   11  N4  UNL     1      46.979 -46.353  64.015  1.00  0.00    -0.196 N 
ATOM     12  H4  UNL     1      47.120 -47.017  64.775  1.00  0.00     0.184 HD
ENDBRANCH   2   4
ENDBRANCH   1   2
BRANCH   1  13
HETATM   13  C7  UNL     1      44.920 -47.342  66.760  1.00  0.00     0.058 C 
BRANCH  13  14
HETATM   14  C8  UNL     1      45.404 -46.208  67.625  1.00  0.00     0.218 C 
BRANCH  14  15
HETATM   15  N3  UNL     1      46.852 -46.106  67.606  1.00  0.00    -0.071 N 
ATOM     16  H33 UNL     1      47.170 -45.434  66.907  1.00  0.00     0.275 HD
ATOM     17  H32 UNL     1      47.206 -45.643  68.443  1.00  0.00     0.275 HD
ATOM     18  H31 UNL     1      47.288 -47.019  67.473  1.00  0.00     0.275 HD
ENDBRANCH  14  15
BRANCH  14  19
HETATM   19  C9  UNL     1      44.954 -46.442  69.008  1.00  0.00    -0.028 A 
HETATM   20  C10 UNL     1      45.835 -46.771  70.034  1.00  0.00     0.009 A 
HETATM   21  C11 UNL     1      45.346 -46.978  71.316  1.00  0.00     0.001 A 
HETATM   22  C12 UNL     1      44.011 -46.865  71.596  1.00  0.00     0.000 A 
HETATM   23  C13 UNL     1      43.129 -46.542  70.596  1.00  0.00     0.001 A 
HETATM   24  C14 UNL     1      43.617 -46.335  69.316  1.00  0.00     0.009 A 
ENDBRANCH  14  19
ENDBRANCH  13  14
ENDBRANCH   1  13
TORSDOF 6
ENDMDL
MODEL 2
REMARK VINA RESULT: -8.546326816      0.058      1.119
REMARK  6 active torsions:
REMARK  status: ('A' for Active; 'I' for Inactive)
REMARK    1  A    between atoms: C5_7  and  N2_8 
REMARK    2  A    between atoms: N2_8  and  C6_10 
REMARK    3  A    between atoms: C6_10  and  C7_11 
REMARK    4  A    between atoms: C7_11  and  C8_12 
REMARK    5  A    between atoms: C8_12  and  N3_13 
REMARK    6  A    between atoms: C8_12  and  C9_17 
ROOT
HETATM    1  C6  UNL     1      44.517 -46.892  65.362  1.00  0.00     0.140 C 
ENDROOT
BRANCH   1   2
HETATM    2  N2  UNL     1      45.020 -45.607  64.988  1.00  0.00    -0.226 N 
ATOM      3  H2  UNL     1      44.700 -44.761  65.459  1.00  0.00     0.177 HD
BRANCH   2   4
HETATM    4  C5  UNL     1      45.896 -45.549  64.032  1.00  0.00     0.678 A 
HETATM    5  N1  UNL     1      45.778 -44.686  63.009  1.00  0.00    -0.202 N 
HETATM    6  C4  UNL     1      46.658 -44.589  61.997  1.00  0.00     0.108 A 
ATOM      7  H1  UNL     1      44.968 -44.064  63.000  1.00  0.00     0.183 HD
HETATM    8  C3  UNL     1      47.754 -45.425  62.000  1.00  0.00     0.042 A 
HETATM    9  C2  UNL     1      47.900 -46.317  63.032  1.00  0.00     0.024 A 
HETATM   10  C1  UNL     1      49.089 -47.231  63.043  1.00  0.00     0.068 C 
HETATM   11  N4  UNL     1      46.979 -46.357  64.010  1.00  0.00    -0.196 N 
ATOM     12  H4  UNL     1      47.102 -47.027  64.768  1.00  0.00     0.184 HD
ENDBRANCH   2   4
ENDBRANCH   1   2
BRANCH   1  13
HETATM   13  C7  UNL     1      44.906 -47.326  66.734  1.00  0.00     0.058 C 
BRANCH  13  14
HETATM   14  C8  UNL     1      45.377 -46.191  67.606  1.00  0.00     0.218 C 
BRANCH  14  15
HETATM   15  N3  UNL     1      46.825 -46.086  67.604  1.00  0.00    -0.071 N 
ATOM     16  H33 UNL     1      47.132 -45.164  67.917  1.00  0.00     0.275 HD
ATOM     17  H32 UNL     1      47.242 -46.650  68.344  1.00  0.00     0.275 HD
ATOM     18  H31 UNL     1      47.214 -46.321  66.691  1.00  0.00     0.275 HD
ENDBRANCH  14  15
BRANCH  14  19
HETATM   19  C9  UNL     1      44.910 -46.428  68.984  1.00  0.00    -0.028 A 
HETATM   20  C10 UNL     1      43.572 -46.311  69.348  1.00  0.00     0.009 A 
HETATM   21  C11 UNL     1      43.198 -46.547  70.663  1.00  0.00     0.001 A 
HETATM   22  C12 UNL     1      44.119 -46.895  71.614  1.00  0.00     0.000 A 
HETATM   23  C13 UNL     1      45.443 -47.013  71.271  1.00  0.00     0.001 A 
HETATM   24  C14 UNL     1      45.816 -46.777  69.958  1.00  0.00     0.009 A 
ENDBRANCH  14  19
ENDBRANCH  13  14
ENDBRANCH   1  13
TORSDOF 6
ENDMDL
MODEL 3
REMARK VINA RESULT: -8.541717498      1.308      1.501
REMARK  6 active torsions:
REMARK  status: ('A' for Active; 'I' for Inactive)
REMARK    1  A    between atoms: C5_7  and  N2_8 
REMARK    2  A    between atoms: N2_8  and  C6_10 
REMARK    3  A    between atoms: C6_10  and  C7_11 
REMARK    4  A    between atoms: C7_11  and  C8_12 
REMARK    5  A    between atoms: C8_12  and  N3_13 
REMARK    6  A    between atoms: C8_12  and  C9_17 
ROOT
HETATM    1  C6  UNL     1      46.336 -45.681  65.858  1.00  0.00     0.140 C 
ENDROOT
BRANCH   1   2
HETATM    2  N2  UNL     1      47.205 -46.402  64.981  1.00  0.00    -0.226 N 
ATOM      3  H2  UNL     1      47.807 -47.146  65.333  1.00  0.00     0.177 HD
BRANCH   2   4
HETATM    4  C5  UNL     1      47.206 -46.081  63.723  1.00  0.00     0.678 A 
HETATM    5  N1  UNL     1      46.623 -44.957  63.275  1.00  0.00    -0.202 N 
HETATM    6  C4  UNL     1      46.598 -44.582  61.983  1.00  0.00     0.108 A 
ATOM      7  H1  UNL     1      46.170 -44.348  63.957  1.00  0.00     0.183 HD
HETATM    8  C3  UNL     1      47.207 -45.398  61.053  1.00  0.00     0.042 A 
HETATM    9  C2  UNL     1      47.809 -46.553  61.483  1.00  0.00     0.024 A 
HETATM   10  C1  UNL     1      48.473 -47.447  60.478  1.00  0.00     0.068 C 
HETATM   11  N4  UNL     1      47.794 -46.863  62.791  1.00  0.00    -0.196 N 
ATOM     12  H4  UNL     1      48.246 -47.725  63.093  1.00  0.00     0.184 HD
ENDBRANCH   2   4
ENDBRANCH   1   2
BRANCH   1  13
HETATM   13  C7  UNL     1      46.411 -46.112  67.283  1.00  0.00     0.058 C 
BRANCH  13  14
HETATM   14  C8  UNL     1      45.428 -47.199  67.630  1.00  0.00     0.218 C 
BRANCH  14  15
HETATM   15  N3  UNL     1      44.298 -47.204  66.717  1.00  0.00    -0.071 N 
ATOM     16  H33 UNL     1      44.569 -46.886  65.786  1.00  0.00     0.275 HD
ATOM     17  H32 UNL     1      44.011 -48.154  66.482  1.00  0.00     0.275 HD
ATOM     18  H31 UNL     1      43.518 -46.659  67.086  1.00  0.00     0.275 HD
ENDBRANCH  14  15
BRANCH  14  19
HETATM   19  C9  UNL     1      44.941 -46.978  69.002  1.00  0.00    -0.028 A 
HETATM   20  C10 UNL     1      45.752 -47.155  70.119  1.00  0.00     0.009 A 
HETATM   21  C11 UNL     1      45.232 -46.929  71.385  1.00  0.00     0.001 A 
HETATM   22  C12 UNL     1      43.933 -46.535  71.562  1.00  0.00     0.000 A 
HETATM   23  C13 UNL     1      43.120 -46.357  70.471  1.00  0.00     0.001 A 
HETATM   24  C14 UNL     1      43.639 -46.582  69.207  1.00  0.00     0.009 A 
ENDBRANCH  14  19
ENDBRANCH  13  14
ENDBRANCH   1  13
TORSDOF 6
ENDMDL
MODEL 4
REMARK VINA RESULT: -8.541310469      1.306      1.870
REMARK  6 active torsions:
REMARK  status: ('A' for Active; 'I' for Inactive)
REMARK    1  A    between atoms: C5_7  and  N2_8 
REMARK    2  A    between atoms: N2_8  and  C6_10 
REMARK    3  A    between atoms: C6_10  and  C7_11 
REMARK    4  A    between atoms: C7_11  and  C8_12 
REMARK    5  A    between atoms: C8_12  and  N3_13 
REMARK    6  A    between atoms: C8_12  and  C9_17 
ROOT
HETATM    1  C6  UNL     1      46.333 -45.681  65.852  1.00  0.00     0.140 C 
ENDROOT
BRANCH   1   2
HETATM    2  N2  UNL     1      47.196 -46.404  64.971  1.00  0.00    -0.226 N 
ATOM      3  H2  UNL     1      47.798 -47.150  65.320  1.00  0.00     0.177 HD
BRANCH   2   4
HETATM    4  C5  UNL     1      47.192 -46.082  63.713  1.00  0.00     0.678 A 
HETATM    5  N1  UNL     1      46.596 -44.964  63.266  1.00  0.00    -0.202 N 
HETATM    6  C4  UNL     1      46.565 -44.590  61.974  1.00  0.00     0.108 A 
ATOM      7  H1  UNL     1      46.137 -44.362  63.949  1.00  0.00     0.183 HD
HETATM    8  C3  UNL     1      47.182 -45.399  61.044  1.00  0.00     0.042 A 
HETATM    9  C2  UNL     1      47.798 -46.546  61.472  1.00  0.00     0.024 A 
HETATM   10  C1  UNL     1      48.471 -47.432  60.466  1.00  0.00     0.068 C 
HETATM   11  N4  UNL     1      47.788 -46.857  62.780  1.00  0.00    -0.196 N 
ATOM     12  H4  UNL     1      48.250 -47.714  63.081  1.00  0.00     0.184 HD
ENDBRANCH   2   4
ENDBRANCH   1   2
BRANCH   1  13
HETATM   13  C7  UNL     1      46.401 -46.125  67.274  1.00  0.00     0.058 C 
BRANCH  13  14
HETATM   14  C8  UNL     1      45.404 -47.203  67.610  1.00  0.00     0.218 C 
BRANCH  14  15
HETATM   15  N3  UNL     1      44.299 -47.217  66.668  1.00  0.00    -0.071 N 
ATOM     16  H33 UNL     1      44.556 -46.773  65.785  1.00  0.00     0.275 HD
ATOM     17  H32 UNL     1      44.114 -48.159  66.322  1.00  0.00     0.275 HD
ATOM     18  H31 UNL     1      43.462 -46.795  67.069  1.00  0.00     0.275 HD
ENDBRANCH  14  15
BRANCH  14  19
HETATM   19  C9  UNL     1      44.881 -46.959  68.965  1.00  0.00    -0.028 A 
HETATM   20  C10 UNL     1      43.571 -46.552  69.197  1.00  0.00     0.009 A 
HETATM   21  C11 UNL     1      43.141 -46.340  70.499  1.00  0.00     0.001 A 
HETATM   22  C12 UNL     1      43.979 -46.523  71.566  1.00  0.00     0.000 A 
HETATM   23  C13 UNL     1      45.275 -46.924  71.353  1.00  0.00     0.001 A 
HETATM   24  C14 UNL     1      45.704 -47.135  70.054  1.00  0.00     0.009 A 
ENDBRANCH  14  19
ENDBRANCH  13  14
ENDBRANCH   1  13
TORSDOF 6
ENDMDL
MODEL 5
REMARK VINA RESULT: -8.216160616      1.421      1.604
REMARK  6 active torsions:
REMARK  status: ('A' for Active; 'I' for Inactive)
REMARK    1  A    between atoms: C5_7  and  N2_8 
REMARK    2  A    between atoms: N2_8  and  C6_10 
REMARK    3  A    between atoms: C6_10  and  C7_11 
REMARK    4  A    between atoms: C7_11  and  C8_12 
REMARK    5  A    between atoms: C8_12  and  N3_13 
REMARK    6  A    between atoms: C8_12  and  C9_17 
ROOT
HETATM    1  C6  UNL     1      45.973 -45.668  65.608  1.00  0.00     0.140 C 
ENDROOT
BRANCH   1   2
HETATM    2  N2  UNL     1      46.508 -46.519  64.591  1.00  0.00    -0.226 N 
ATOM      3  H2  UNL     1      46.124 -47.451  64.432  1.00  0.00     0.177 HD
BRANCH   2   4
HETATM    4  C5  UNL     1      47.495 -46.072  63.876  1.00  0.00     0.678 A 
HETATM    5  N1  UNL     1      47.676 -44.759  63.655  1.00  0.00    -0.202 N 
HETATM    6  C4  UNL     1      48.682 -44.249  62.923  1.00  0.00     0.108 A 
ATOM      7  H1  UNL     1      47.008 -44.108  64.068  1.00  0.00     0.183 HD
HETATM    8  C3  UNL     1      49.590 -45.121  62.360  1.00  0.00     0.042 A 
HETATM    9  C2  UNL     1      49.429 -46.466  62.569  1.00  0.00     0.024 A 
HETATM   10  C1  UNL     1      50.411 -47.422  61.960  1.00  0.00     0.068 C 
HETATM   11  N4  UNL     1      48.398 -46.904  63.313  1.00  0.00    -0.196 N 
ATOM     12  H4  UNL     1      48.293 -47.907  63.457  1.00  0.00     0.184 HD
ENDBRANCH   2   4
ENDBRANCH   1   2
BRANCH   1  13
HETATM   13  C7  UNL     1      46.246 -46.130  66.998  1.00  0.00     0.058 C 
BRANCH  13  14
HETATM   14  C8  UNL     1      45.340 -47.248  67.443  1.00  0.00     0.218 C 
BRANCH  14  15
HETATM   15  N3  UNL     1      44.151 -47.328  66.614  1.00  0.00    -0.071 N 
ATOM     16  H33 UNL     1      44.195 -46.675  65.832  1.00  0.00     0.275 HD
ATOM     17  H32 UNL     1      44.120 -48.202  66.088  1.00  0.00     0.275 HD
ATOM     18  H31 UNL     1      43.302 -47.195  67.165  1.00  0.00     0.275 HD
ENDBRANCH  14  15
BRANCH  14  19
HETATM   19  C9  UNL     1      44.941 -47.008  68.841  1.00  0.00    -0.028 A 
HETATM   20  C10 UNL     1      45.815 -47.193  69.908  1.00  0.00     0.009 A 
HETATM   21  C11 UNL     1      45.377 -46.949  71.201  1.00  0.00     0.001 A 
HETATM   22  C12 UNL     1      44.100 -46.527  71.453  1.00  0.00     0.000 A 
HETATM   23  C13 UNL     1      43.225 -46.340  70.412  1.00  0.00     0.001 A 
HETATM   24  C14 UNL     1      43.663 -46.584  69.121  1.00  0.00     0.009 A 
ENDBRANCH  14  19
ENDBRANCH  13  14
ENDBRANCH   1  13
TORSDOF 6
ENDMDL
