MODEL 1
REMARK VINA RESULT: -6.952579642      0.000      0.000
REMARK  5 active torsions:
REMARK  status: ('A' for Active; 'I' for Inactive)
REMARK    1  A    between atoms: N1_2  and  C3_4 
REMARK    2  A    between atoms: C3_4  and  C4_5 
REMARK    3  A    between atoms: C4_5  and  N2_6 
REMARK       I    between atoms: N2_6  and  C5_8 
REMARK       I    between atoms: C5_8  and  N4_12 
REMARK    4  A    between atoms: N4_12  and  N5_14 
REMARK    5  A    between atoms: C6_16  and  C7_17 
ROOT
HETATM    1  N2  UNL     1      47.364 -45.921  64.436  1.00  0.00    -0.224 N 
ATOM      2  H2  UNL     1      47.974 -46.510  63.869  1.00  0.00     0.177 HD
HETATM    3  C5  UNL     1      46.873 -46.389  65.657  1.00  0.00     0.686 C 
HETATM    4  N3  UNL     1      47.499 -47.263  66.330  1.00  0.00    -0.234 N 
ATOM      5  H31 UNL     1      47.141 -47.604  67.221  1.00  0.00     0.174 HD
ATOM      6  H32 UNL     1      48.380 -47.631  65.972  1.00  0.00     0.174 HD
HETATM    7  N4  UNL     1      45.642 -45.874  66.157  1.00  0.00    -0.133 N 
ATOM      8  H4  UNL     1      45.585 -44.870  66.331  1.00  0.00     0.205 HD
ENDROOT
BRANCH   1   9
HETATM    9  C4  UNL     1      47.004 -44.600  63.980  1.00  0.00     0.168 C 
BRANCH   9  10
HETATM   10  C3  UNL     1      46.379 -44.626  62.602  1.00  0.00     0.291 C 
BRANCH  10  11
HETATM   11  N1  UNL     1      44.950 -44.559  62.700  1.00  0.00     0.081 N 
HETATM   12  C1  UNL     1      44.567 -43.892  63.928  1.00  0.00     0.309 C 
HETATM   13  C2  UNL     1      44.318 -45.861  62.664  1.00  0.00     0.309 C 
ENDBRANCH  10  11
ENDBRANCH   9  10
ENDBRANCH   1   9
BRANCH   7  14
HETATM   14  N5  UNL     1      44.541 -46.621  66.419  1.00  0.00    -0.297 N 
HETATM   15  C6  UNL     1      44.049 -46.990  67.490  1.00  0.00     0.119 C 
ATOM     16  H5  UNL     1      44.033 -46.930  65.591  1.00  0.00     0.186 HD
BRANCH  15  17
HETATM   17  C7  UNL     1      44.426 -46.789  68.859  1.00  0.00    -0.019 A 
HETATM   18  C8  UNL     1      43.603 -46.081  69.736  1.00  0.00     0.013 A 
HETATM   19  C9  UNL     1      43.960 -45.886  71.046  1.00  0.00     0.001 A 
HETATM   20  C10 UNL     1      45.138 -46.373  71.562  1.00  0.00     0.000 A 
HETATM   21  C11 UNL     1      45.960 -47.066  70.731  1.00  0.00     0.001 A 
HETATM   22  C12 UNL     1      45.596 -47.266  69.391  1.00  0.00     0.013 A 
ENDBRANCH  15  17
ENDBRANCH   7  14
TORSDOF 5
ENDMDL
MODEL 2
REMARK VINA RESULT: -6.852075993      1.268      2.249
REMARK  5 active torsions:
REMARK  status: ('A' for Active; 'I' for Inactive)
REMARK    1  A    between atoms: N1_2  and  C3_4 
REMARK    2  A    between atoms: C3_4  and  C4_5 
REMARK    3  A    between atoms: C4_5  and  N2_6 
REMARK       I    between atoms: N2_6  and  C5_8 
REMARK       I    between atoms: C5_8  and  N4_12 
REMARK    4  A    between atoms: N4_12  and  N5_14 
REMARK    5  A    between atoms: C6_16  and  C7_17 
ROOT
HETATM    1  N2  UNL     1      47.028 -45.670  64.621  1.00  0.00    -0.224 N 
ATOM      2  H2  UNL     1      47.921 -46.094  64.370  1.00  0.00     0.177 HD
HETATM    3  C5  UNL     1      46.481 -45.883  65.889  1.00  0.00     0.686 C 
HETATM    4  N3  UNL     1      47.214 -46.145  66.890  1.00  0.00    -0.234 N 
ATOM      5  H31 UNL     1      46.815 -46.301  67.815  1.00  0.00     0.174 HD
ATOM      6  H32 UNL     1      48.225 -46.201  66.766  1.00  0.00     0.174 HD
HETATM    7  N4  UNL     1      45.068 -45.805  66.061  1.00  0.00    -0.133 N 
ATOM      8  H4  UNL     1      44.612 -44.921  65.832  1.00  0.00     0.205 HD
ENDROOT
BRANCH   1   9
HETATM    9  C4  UNL     1      46.323 -44.846  63.668  1.00  0.00     0.168 C 
BRANCH   9  10
HETATM   10  C3  UNL     1      47.168 -44.542  62.449  1.00  0.00     0.291 C 
BRANCH  10  11
HETATM   11  N1  UNL     1      48.433 -45.210  62.538  1.00  0.00     0.081 N 
HETATM   12  C1  UNL     1      49.504 -44.237  62.615  1.00  0.00     0.309 C 
HETATM   13  C2  UNL     1      48.688 -46.092  61.419  1.00  0.00     0.309 C 
ENDBRANCH  10  11
ENDBRANCH   9  10
ENDBRANCH   1   9
BRANCH   7  14
HETATM   14  N5  UNL     1      44.286 -46.818  66.508  1.00  0.00    -0.297 N 
HETATM   15  C6  UNL     1      44.043 -47.209  67.654  1.00  0.00     0.119 C 
ATOM     16  H5  UNL     1      43.819 -47.348  65.772  1.00  0.00     0.186 HD
BRANCH  15  17
HETATM   17  C7  UNL     1      44.474 -46.767  68.948  1.00  0.00    -0.019 A 
HETATM   18  C8  UNL     1      45.602 -47.319  69.559  1.00  0.00     0.013 A 
HETATM   19  C9  UNL     1      46.018 -46.899  70.796  1.00  0.00     0.001 A 
HETATM   20  C10 UNL     1      45.354 -45.920  71.497  1.00  0.00     0.000 A 
HETATM   21  C11 UNL     1      44.253 -45.363  70.927  1.00  0.00     0.001 A 
HETATM   22  C12 UNL     1      43.826 -45.792  69.661  1.00  0.00     0.013 A 
ENDBRANCH  15  17
ENDBRANCH   7  14
TORSDOF 5
ENDMDL
MODEL 3
REMARK VINA RESULT: -6.792548964      2.848      4.545
REMARK  5 active torsions:
REMARK  status: ('A' for Active; 'I' for Inactive)
REMARK    1  A    between atoms: N1_2  and  C3_4 
REMARK    2  A    between atoms: C3_4  and  C4_5 
REMARK    3  A    between atoms: C4_5  and  N2_6 
REMARK       I    between atoms: N2_6  and  C5_8 
REMARK       I    between atoms: C5_8  and  N4_12 
REMARK    4  A    between atoms: N4_12  and  N5_14 
REMARK    5  A    between atoms: C6_16  and  C7_17 
ROOT
HETATM    1  N2  UNL     1      48.421 -45.545  62.867  1.00  0.00    -0.224 N 
ATOM      2  H2  UNL     1      49.045 -44.781  63.128  1.00  0.00     0.177 HD
HETATM    3  C5  UNL     1      47.263 -45.284  62.129  1.00  0.00     0.686 C 
HETATM    4  N3  UNL     1      47.182 -44.280  61.359  1.00  0.00    -0.234 N 
ATOM      5  H31 UNL     1      46.337 -44.090  60.821  1.00  0.00     0.174 HD
ATOM      6  H32 UNL     1      47.979 -43.649  61.277  1.00  0.00     0.174 HD
HETATM    7  N4  UNL     1      46.150 -46.166  62.244  1.00  0.00    -0.133 N 
ATOM      8  H4  UNL     1      46.292 -47.143  61.988  1.00  0.00     0.205 HD
ENDROOT
BRANCH   1   9
HETATM    9  C4  UNL     1      48.730 -46.900  63.257  1.00  0.00     0.168 C 
BRANCH   9  10
HETATM   10  C3  UNL     1      49.614 -47.594  62.243  1.00  0.00     0.291 C 
BRANCH  10  11
HETATM   11  N1  UNL     1      48.824 -48.414  61.371  1.00  0.00     0.081 N 
HETATM   12  C1  UNL     1      49.316 -49.777  61.389  1.00  0.00     0.309 C 
HETATM   13  C2  UNL     1      48.818 -47.942  60.002  1.00  0.00     0.309 C 
ENDBRANCH  10  11
ENDBRANCH   9  10
ENDBRANCH   1   9
BRANCH   7  14
HETATM   14  N5  UNL     1      44.916 -45.801  62.670  1.00  0.00    -0.297 N 
HETATM   15  C6  UNL     1      44.424 -45.776  63.802  1.00  0.00     0.119 C 
ATOM     16  H5  UNL     1      44.286 -45.495  61.928  1.00  0.00     0.186 HD
BRANCH  15  17
HETATM   17  C7  UNL     1      44.939 -46.113  65.098  1.00  0.00    -0.019 A 
HETATM   18  C8  UNL     1      44.293 -47.049  65.908  1.00  0.00     0.013 A 
HETATM   19  C9  UNL     1      44.783 -47.375  67.147  1.00  0.00     0.001 A 
HETATM   20  C10 UNL     1      45.924 -46.802  67.655  1.00  0.00     0.000 A 
HETATM   21  C11 UNL     1      46.574 -45.887  66.889  1.00  0.00     0.001 A 
HETATM   22  C12 UNL     1      46.075 -45.553  65.621  1.00  0.00     0.013 A 
ENDBRANCH  15  17
ENDBRANCH   7  14
TORSDOF 5
ENDMDL
MODEL 4
REMARK VINA RESULT: -6.766298425      2.852      4.593
REMARK  5 active torsions:
REMARK  status: ('A' for Active; 'I' for Inactive)
REMARK    1  A    between atoms: N1_2  and  C3_4 
REMARK    2  A    between atoms: C3_4  and  C4_5 
REMARK    3  A    between atoms: C4_5  and  N2_6 
REMARK       I    between atoms: N2_6  and  C5_8 
REMARK       I    between atoms: C5_8  and  N4_12 
REMARK    4  A    between atoms: N4_12  and  N5_14 
REMARK    5  A    between atoms: C6_16  and  C7_17 
ROOT
HETATM    1  N2  UNL     1      48.387 -45.587  62.862  1.00  0.00    -0.224 N 
ATOM      2  H2  UNL     1      49.021 -44.838  63.138  1.00  0.00     0.177 HD
HETATM    3  C5  UNL     1      47.235 -45.297  62.127  1.00  0.00     0.686 C 
HETATM    4  N3  UNL     1      47.170 -44.278  61.375  1.00  0.00    -0.234 N 
ATOM      5  H31 UNL     1      46.329 -44.066  60.838  1.00  0.00     0.174 HD
ATOM      6  H32 UNL     1      47.977 -43.657  61.305  1.00  0.00     0.174 HD
HETATM    7  N4  UNL     1      46.108 -46.164  62.224  1.00  0.00    -0.133 N 
ATOM      8  H4  UNL     1      46.237 -47.138  61.951  1.00  0.00     0.205 HD
ENDROOT
BRANCH   1   9
HETATM    9  C4  UNL     1      48.675 -46.953  63.229  1.00  0.00     0.168 C 
BRANCH   9  10
HETATM   10  C3  UNL     1      49.546 -47.644  62.202  1.00  0.00     0.291 C 
BRANCH  10  11
HETATM   11  N1  UNL     1      48.739 -48.404  61.293  1.00  0.00     0.081 N 
HETATM   12  C1  UNL     1      49.180 -49.784  61.269  1.00  0.00     0.309 C 
HETATM   13  C2  UNL     1      48.768 -47.885  59.941  1.00  0.00     0.309 C 
ENDBRANCH  10  11
ENDBRANCH   9  10
ENDBRANCH   1   9
BRANCH   7  14
HETATM   14  N5  UNL     1      44.879 -45.789  62.654  1.00  0.00    -0.297 N 
HETATM   15  C6  UNL     1      44.387 -45.768  63.787  1.00  0.00     0.119 C 
ATOM     16  H5  UNL     1      44.252 -45.468  61.915  1.00  0.00     0.186 HD
BRANCH  15  17
HETATM   17  C7  UNL     1      44.898 -46.124  65.078  1.00  0.00    -0.019 A 
HETATM   18  C8  UNL     1      46.064 -45.540  65.577  1.00  0.00     0.013 A 
HETATM   19  C9  UNL     1      46.557 -45.877  66.812  1.00  0.00     0.001 A 
HETATM   20  C10 UNL     1      45.935 -46.800  67.620  1.00  0.00     0.000 A 
HETATM   21  C11 UNL     1      44.797 -47.384  67.161  1.00  0.00     0.001 A 
HETATM   22  C12 UNL     1      44.292 -47.041  65.898  1.00  0.00     0.013 A 
ENDBRANCH  15  17
ENDBRANCH   7  14
TORSDOF 5
ENDMDL
MODEL 5
REMARK VINA RESULT: -6.664739973      3.034      4.423
REMARK  5 active torsions:
REMARK  status: ('A' for Active; 'I' for Inactive)
REMARK    1  A    between atoms: N1_2  and  C3_4 
REMARK    2  A    between atoms: C3_4  and  C4_5 
REMARK    3  A    between atoms: C4_5  and  N2_6 
REMARK       I    between atoms: N2_6  and  C5_8 
REMARK       I    between atoms: C5_8  and  N4_12 
REMARK    4  A    between atoms: N4_12  and  N5_14 
REMARK    5  A    between atoms: C6_16  and  C7_17 
ROOT
HETATM    1  N2  UNL     1      49.005 -45.460  61.888  1.00  0.00    -0.224 N 
ATOM      2  H2  UNL     1      49.309 -45.448  60.914  1.00  0.00     0.177 HD
HETATM    3  C5  UNL     1      48.203 -46.501  62.361  1.00  0.00     0.686 C 
HETATM    4  N3  UNL     1      48.229 -47.651  61.827  1.00  0.00    -0.234 N 
ATOM      5  H31 UNL     1      47.644 -48.411  62.172  1.00  0.00     0.174 HD
ATOM      6  H32 UNL     1      48.850 -47.819  61.035  1.00  0.00     0.174 HD
HETATM    7  N4  UNL     1      47.336 -46.266  63.467  1.00  0.00    -0.133 N 
ATOM      8  H4  UNL     1      47.761 -45.973  64.347  1.00  0.00     0.205 HD
ENDROOT
BRANCH   1   9
HETATM    9  C4  UNL     1      49.402 -44.400  62.783  1.00  0.00     0.168 C 
BRANCH   9  10
HETATM   10  C3  UNL     1      50.811 -43.921  62.505  1.00  0.00     0.291 C 
BRANCH  10  11
HETATM   11  N1  UNL     1      51.074 -42.704  63.216  1.00  0.00     0.081 N 
HETATM   12  C1  UNL     1      51.063 -41.581  62.300  1.00  0.00     0.309 C 
HETATM   13  C2  UNL     1      52.343 -42.720  63.914  1.00  0.00     0.309 C 
ENDBRANCH  10  11
ENDBRANCH   9  10
ENDBRANCH   1   9
BRANCH   7  14
HETATM   14  N5  UNL     1      45.988 -46.404  63.436  1.00  0.00    -0.297 N 
HETATM   15  C6  UNL     1      45.159 -46.483  64.349  1.00  0.00     0.119 C 
ATOM     16  H5  UNL     1      45.589 -46.450  62.498  1.00  0.00     0.186 HD
BRANCH  15  17
HETATM   17  C7  UNL     1      45.278 -46.464  65.778  1.00  0.00    -0.019 A 
HETATM   18  C8  UNL     1      44.266 -46.978  66.591  1.00  0.00     0.013 A 
HETATM   19  C9  UNL     1      44.376 -46.962  67.959  1.00  0.00     0.001 A 
HETATM   20  C10 UNL     1      45.477 -46.442  68.597  1.00  0.00     0.000 A 
HETATM   21  C11 UNL     1      46.478 -45.934  67.831  1.00  0.00     0.001 A 
HETATM   22  C12 UNL     1      46.368 -45.951  66.433  1.00  0.00     0.013 A 
ENDBRANCH  15  17
ENDBRANCH   7  14
TORSDOF 5
ENDMDL
