MODEL 1
REMARK VINA RESULT: -6.574037419      0.000      0.000
REMARK  6 active torsions:
REMARK  status: ('A' for Active; 'I' for Inactive)
REMARK    1  A    between atoms: N1_2  and  C2_5 
REMARK    2  A    between atoms: C2_5  and  C3_6 
REMARK    3  A    between atoms: C3_6  and  N2_7 
REMARK    4  A    between atoms: C3_6  and  C4_11 
REMARK    5  A    between atoms: C4_11  and  C5_12 
REMARK    6  A    between atoms: C10_17  and  O1_18 
ROOT
HETATM    1  C5  UNL     1      46.055 -45.709  64.922  1.00  0.00    -0.045 A 
HETATM    2  C6  UNL     1      44.766 -45.241  64.616  1.00  0.00     0.008 A 
HETATM    3  C7  UNL     1      44.313 -45.162  63.317  1.00  0.00     0.002 A 
HETATM    4  C8  UNL     1      45.115 -45.543  62.265  1.00  0.00     0.015 A 
HETATM    5  C9  UNL     1      46.383 -46.004  62.563  1.00  0.00     0.008 A 
HETATM    6  C10 UNL     1      47.201 -46.398  61.501  1.00  0.00     0.079 A 
HETATM    7  C12 UNL     1      48.456 -46.861  61.794  1.00  0.00     0.037 A 
HETATM    8  C13 UNL     1      48.936 -46.953  63.081  1.00  0.00     0.004 A 
HETATM    9  C14 UNL     1      48.122 -46.561  64.140  1.00  0.00     0.013 A 
HETATM   10  C15 UNL     1      46.860 -46.092  63.865  1.00  0.00    -0.017 A 
ENDROOT
BRANCH   1  11
HETATM   11  C4  UNL     1      46.455 -45.732  66.312  1.00  0.00     0.074 C 
BRANCH  11  12
HETATM   12  C3  UNL     1      45.396 -46.358  67.235  1.00  0.00     0.213 C 
BRANCH  12  13
HETATM   13  C2  UNL     1      45.769 -46.163  68.682  1.00  0.00     0.264 C 
BRANCH  13  14
HETATM   14  N1  UNL     1      45.345 -47.241  69.534  1.00  0.00    -0.077 N 
HETATM   15  C1  UNL     1      45.786 -47.072  70.875  1.00  0.00     0.267 C 
ATOM     16  H12 UNL     1      45.638 -48.143  69.159  1.00  0.00     0.276 HD
ATOM     17  H11 UNL     1      44.334 -47.369  69.492  1.00  0.00     0.276 HD
ENDBRANCH  13  14
ENDBRANCH  12  13
BRANCH  12  18
HETATM   18  N2  UNL     1      45.244 -47.777  66.915  1.00  0.00    -0.073 N 
ATOM     19  H23 UNL     1      45.684 -48.369  67.619  1.00  0.00     0.274 HD
ATOM     20  H22 UNL     1      44.280 -48.087  67.030  1.00  0.00     0.274 HD
ATOM     21  H21 UNL     1      45.595 -47.983  65.979  1.00  0.00     0.274 HD
ENDBRANCH  12  18
ENDBRANCH  11  12
ENDBRANCH   1  11
BRANCH   6  22
HETATM   22  O1  UNL     1      46.686 -46.292  60.227  1.00  0.00    -0.355 OA
HETATM   23  C11 UNL     1      47.039 -47.050  59.114  1.00  0.00     0.210 C 
ENDBRANCH   6  22
TORSDOF 6
ENDMDL
MODEL 2
REMARK VINA RESULT: -5.842596845      3.407      6.775
REMARK  6 active torsions:
REMARK  status: ('A' for Active; 'I' for Inactive)
REMARK    1  A    between atoms: N1_2  and  C2_5 
REMARK    2  A    between atoms: C2_5  and  C3_6 
REMARK    3  A    between atoms: C3_6  and  N2_7 
REMARK    4  A    between atoms: C3_6  and  C4_11 
REMARK    5  A    between atoms: C4_11  and  C5_12 
REMARK    6  A    between atoms: C10_17  and  O1_18 
ROOT
HETATM    1  C5  UNL     1      45.972 -46.583  66.164  1.00  0.00    -0.045 A 
HETATM    2  C6  UNL     1      44.984 -47.082  65.299  1.00  0.00     0.008 A 
HETATM    3  C7  UNL     1      43.718 -47.392  65.748  1.00  0.00     0.002 A 
HETATM    4  C8  UNL     1      43.376 -47.222  67.071  1.00  0.00     0.015 A 
HETATM    5  C9  UNL     1      44.346 -46.731  67.923  1.00  0.00     0.008 A 
HETATM    6  C10 UNL     1      44.006 -46.551  69.266  1.00  0.00     0.079 A 
HETATM    7  C12 UNL     1      44.964 -46.059  70.112  1.00  0.00     0.037 A 
HETATM    8  C13 UNL     1      46.236 -45.738  69.692  1.00  0.00     0.004 A 
HETATM    9  C14 UNL     1      46.577 -45.918  68.356  1.00  0.00     0.013 A 
HETATM   10  C15 UNL     1      45.629 -46.412  67.492  1.00  0.00    -0.017 A 
ENDROOT
BRANCH   1  11
HETATM   11  C4  UNL     1      47.281 -46.310  65.610  1.00  0.00     0.074 C 
BRANCH  11  12
HETATM   12  C3  UNL     1      47.237 -45.910  64.126  1.00  0.00     0.213 C 
BRANCH  12  13
HETATM   13  C2  UNL     1      48.359 -46.568  63.364  1.00  0.00     0.264 C 
BRANCH  13  14
HETATM   14  N1  UNL     1      47.931 -47.203  62.148  1.00  0.00    -0.077 N 
HETATM   15  C1  UNL     1      48.133 -46.374  61.009  1.00  0.00     0.267 C 
ATOM     16  H12 UNL     1      46.960 -47.509  62.214  1.00  0.00     0.276 HD
ATOM     17  H11 UNL     1      48.380 -48.110  62.027  1.00  0.00     0.276 HD
ENDBRANCH  13  14
ENDBRANCH  12  13
BRANCH  12  18
HETATM   18  N2  UNL     1      47.301 -44.454  64.010  1.00  0.00    -0.073 N 
ATOM     19  H23 UNL     1      48.198 -44.147  63.634  1.00  0.00     0.274 HD
ATOM     20  H22 UNL     1      46.694 -44.109  63.266  1.00  0.00     0.274 HD
ATOM     21  H21 UNL     1      47.094 -44.003  64.901  1.00  0.00     0.274 HD
ENDBRANCH  12  18
ENDBRANCH  11  12
ENDBRANCH   1  11
BRANCH   6  22
HETATM   22  O1  UNL     1      42.724 -46.882  69.647  1.00  0.00    -0.355 OA
HETATM   23  C11 UNL     1      42.166 -46.748  70.916  1.00  0.00     0.210 C 
ENDBRANCH   6  22
TORSDOF 6
ENDMDL
MODEL 3
REMARK VINA RESULT: -5.768122414      1.395      1.574
REMARK  6 active torsions:
REMARK  status: ('A' for Active; 'I' for Inactive)
REMARK    1  A    between atoms: N1_2  and  C2_5 
REMARK    2  A    between atoms: C2_5  and  C3_6 
REMARK    3  A    between atoms: C3_6  and  N2_7 
REMARK    4  A    between atoms: C3_6  and  C4_11 
REMARK    5  A    between atoms: C4_11  and  C5_12 
REMARK    6  A    between atoms: C10_17  and  O1_18 
ROOT
HETATM    1  C5  UNL     1      46.893 -45.659  64.200  1.00  0.00    -0.045 A 
HETATM    2  C6  UNL     1      46.004 -44.773  63.570  1.00  0.00     0.008 A 
HETATM    3  C7  UNL     1      46.018 -44.582  62.205  1.00  0.00     0.002 A 
HETATM    4  C8  UNL     1      46.911 -45.260  61.406  1.00  0.00     0.015 A 
HETATM    5  C9  UNL     1      47.786 -46.132  62.024  1.00  0.00     0.008 A 
HETATM    6  C10 UNL     1      48.693 -46.827  61.219  1.00  0.00     0.079 A 
HETATM    7  C12 UNL     1      49.558 -47.697  61.829  1.00  0.00     0.037 A 
HETATM    8  C13 UNL     1      49.566 -47.910  63.189  1.00  0.00     0.004 A 
HETATM    9  C14 UNL     1      48.665 -47.217  63.992  1.00  0.00     0.013 A 
HETATM   10  C15 UNL     1      47.790 -46.339  63.398  1.00  0.00    -0.017 A 
ENDROOT
BRANCH   1  11
HETATM   11  C4  UNL     1      46.825 -45.776  65.642  1.00  0.00     0.074 C 
BRANCH  11  12
HETATM   12  C3  UNL     1      45.419 -46.135  66.151  1.00  0.00     0.213 C 
BRANCH  12  13
HETATM   13  C2  UNL     1      45.453 -46.456  67.624  1.00  0.00     0.264 C 
BRANCH  13  14
HETATM   14  N1  UNL     1      44.165 -46.795  68.167  1.00  0.00    -0.077 N 
HETATM   15  C1  UNL     1      43.971 -46.253  69.468  1.00  0.00     0.267 C 
ATOM     16  H12 UNL     1      44.017 -47.803  68.161  1.00  0.00     0.276 HD
ATOM     17  H11 UNL     1      43.414 -46.516  67.535  1.00  0.00     0.276 HD
ENDBRANCH  13  14
ENDBRANCH  12  13
BRANCH  12  18
HETATM   18  N2  UNL     1      44.890 -47.258  65.378  1.00  0.00    -0.073 N 
ATOM     19  H23 UNL     1      44.017 -47.607  65.774  1.00  0.00     0.274 HD
ATOM     20  H22 UNL     1      44.539 -46.955  64.469  1.00  0.00     0.274 HD
ATOM     21  H21 UNL     1      45.582 -48.000  65.284  1.00  0.00     0.274 HD
ENDBRANCH  12  18
ENDBRANCH  11  12
ENDBRANCH   1  11
BRANCH   6  22
HETATM   22  O1  UNL     1      48.653 -46.587  59.863  1.00  0.00    -0.355 OA
HETATM   23  C11 UNL     1      48.593 -47.537  58.846  1.00  0.00     0.210 C 
ENDBRANCH   6  22
TORSDOF 6
ENDMDL
MODEL 4
REMARK VINA RESULT: -5.595334855      1.978      3.127
REMARK  6 active torsions:
REMARK  status: ('A' for Active; 'I' for Inactive)
REMARK    1  A    between atoms: N1_2  and  C2_5 
REMARK    2  A    between atoms: C2_5  and  C3_6 
REMARK    3  A    between atoms: C3_6  and  N2_7 
REMARK    4  A    between atoms: C3_6  and  C4_11 
REMARK    5  A    between atoms: C4_11  and  C5_12 
REMARK    6  A    between atoms: C10_17  and  O1_18 
ROOT
HETATM    1  C5  UNL     1      45.325 -46.450  67.564  1.00  0.00    -0.045 A 
HETATM    2  C6  UNL     1      44.195 -47.280  67.484  1.00  0.00     0.008 A 
HETATM    3  C7  UNL     1      43.654 -47.654  66.272  1.00  0.00     0.002 A 
HETATM    4  C8  UNL     1      44.211 -47.224  65.088  1.00  0.00     0.015 A 
HETATM    5  C9  UNL     1      45.323 -46.408  65.164  1.00  0.00     0.008 A 
HETATM    6  C10 UNL     1      45.895 -45.972  63.967  1.00  0.00     0.079 A 
HETATM    7  C12 UNL     1      47.002 -45.168  64.039  1.00  0.00     0.037 A 
HETATM    8  C13 UNL     1      47.565 -44.778  65.235  1.00  0.00     0.004 A 
HETATM    9  C14 UNL     1      46.994 -45.212  66.427  1.00  0.00     0.013 A 
HETATM   10  C15 UNL     1      45.883 -46.018  66.375  1.00  0.00    -0.017 A 
ENDROOT
BRANCH   1  11
HETATM   11  C4  UNL     1      45.807 -46.086  68.879  1.00  0.00     0.074 C 
BRANCH  11  12
HETATM   12  C3  UNL     1      44.942 -46.655  70.017  1.00  0.00     0.213 C 
BRANCH  12  13
HETATM   13  C2  UNL     1      44.278 -45.543  70.787  1.00  0.00     0.264 C 
BRANCH  13  14
HETATM   14  N1  UNL     1      44.884 -45.289  72.066  1.00  0.00    -0.077 N 
HETATM   15  C1  UNL     1      45.853 -44.250  72.004  1.00  0.00     0.267 C 
ATOM     16  H12 UNL     1      45.281 -46.142  72.460  1.00  0.00     0.276 HD
ATOM     17  H11 UNL     1      44.179 -45.094  72.776  1.00  0.00     0.276 HD
ENDBRANCH  13  14
ENDBRANCH  12  13
BRANCH  12  18
HETATM   18  N2  UNL     1      45.769 -47.484  70.893  1.00  0.00    -0.073 N 
ATOM     19  H23 UNL     1      45.898 -47.051  71.807  1.00  0.00     0.274 HD
ATOM     20  H22 UNL     1      45.277 -48.327  71.187  1.00  0.00     0.274 HD
ATOM     21  H21 UNL     1      46.663 -47.706  70.454  1.00  0.00     0.274 HD
ENDBRANCH  12  18
ENDBRANCH  11  12
ENDBRANCH   1  11
BRANCH   6  22
HETATM   22  O1  UNL     1      45.305 -46.382  62.792  1.00  0.00    -0.355 OA
HETATM   23  C11 UNL     1      45.639 -45.981  61.501  1.00  0.00     0.210 C 
ENDBRANCH   6  22
TORSDOF 6
ENDMDL
MODEL 5
REMARK VINA RESULT: -5.516732440      2.561      4.242
REMARK  6 active torsions:
REMARK  status: ('A' for Active; 'I' for Inactive)
REMARK    1  A    between atoms: N1_2  and  C2_5 
REMARK    2  A    between atoms: C2_5  and  C3_6 
REMARK    3  A    between atoms: C3_6  and  N2_7 
REMARK    4  A    between atoms: C3_6  and  C4_11 
REMARK    5  A    between atoms: C4_11  and  C5_12 
REMARK    6  A    between atoms: C10_17  and  O1_18 
ROOT
HETATM    1  C5  UNL     1      47.626 -44.905  62.172  1.00  0.00    -0.045 A 
HETATM    2  C6  UNL     1      48.558 -44.256  62.999  1.00  0.00     0.008 A 
HETATM    3  C7  UNL     1      49.911 -44.496  62.894  1.00  0.00     0.002 A 
HETATM    4  C8  UNL     1      50.400 -45.388  61.965  1.00  0.00     0.015 A 
HETATM    5  C9  UNL     1      49.485 -46.026  61.150  1.00  0.00     0.008 A 
HETATM    6  C10 UNL     1      49.974 -46.929  60.202  1.00  0.00     0.079 A 
HETATM    7  C12 UNL     1      49.070 -47.559  59.389  1.00  0.00     0.037 A 
HETATM    8  C13 UNL     1      47.712 -47.338  59.469  1.00  0.00     0.004 A 
HETATM    9  C14 UNL     1      47.225 -46.441  60.414  1.00  0.00     0.013 A 
HETATM   10  C15 UNL     1      48.117 -45.800  61.240  1.00  0.00    -0.017 A 
ENDROOT
BRANCH   1  11
HETATM   11  C4  UNL     1      46.223 -44.611  62.372  1.00  0.00     0.074 C 
BRANCH  11  12
HETATM   12  C3  UNL     1      45.792 -44.702  63.846  1.00  0.00     0.213 C 
BRANCH  12  13
HETATM   13  C2  UNL     1      45.542 -46.136  64.240  1.00  0.00     0.264 C 
BRANCH  13  14
HETATM   14  N1  UNL     1      45.200 -46.298  65.626  1.00  0.00    -0.077 N 
HETATM   15  C1  UNL     1      44.213 -47.304  65.823  1.00  0.00     0.267 C 
ATOM     16  H12 UNL     1      44.911 -45.412  66.041  1.00  0.00     0.276 HD
ATOM     17  H11 UNL     1      46.029 -46.479  66.192  1.00  0.00     0.276 HD
ENDBRANCH  13  14
ENDBRANCH  12  13
BRANCH  12  18
HETATM   18  N2  UNL     1      44.601 -43.880  64.059  1.00  0.00    -0.073 N 
ATOM     19  H23 UNL     1      43.928 -43.993  63.302  1.00  0.00     0.274 HD
ATOM     20  H22 UNL     1      44.033 -44.236  64.828  1.00  0.00     0.274 HD
ATOM     21  H21 UNL     1      44.849 -42.901  64.198  1.00  0.00     0.274 HD
ENDBRANCH  12  18
ENDBRANCH  11  12
ENDBRANCH   1  11
BRANCH   6  22
HETATM   22  O1  UNL     1      51.337 -47.122  60.151  1.00  0.00    -0.355 OA
HETATM   23  C11 UNL     1      52.022 -48.316  60.365  1.00  0.00     0.210 C 
ENDBRANCH   6  22
TORSDOF 6
ENDMDL
