MODEL 1
REMARK VINA RESULT: -6.660777797      0.000      0.000
REMARK  3 active torsions:
REMARK  status: ('A' for Active; 'I' for Inactive)
REMARK    1  A    between atoms: C2_2  and  C3_3 
REMARK    2  A    between atoms: C3_3  and  C4_4 
REMARK    3  A    between atoms: C4_4  and  C5_5 
ROOT
HETATM    1  C5  UNL     1      -8.442 -32.062  16.543  1.00  0.00     0.026 C 
HETATM    2  C6  UNL     1      -7.702 -32.594  15.338  1.00  0.00     0.245 C 
HETATM    3  N1  UNL     1      -7.499 -31.510  14.431  1.00  0.00    -0.071 N 
ATOM      4  H11 UNL     1      -7.857 -31.716  13.499  1.00  0.00     0.277 HD
ATOM      5  H12 UNL     1      -6.515 -31.391  14.188  1.00  0.00     0.277 HD
HETATM    6  C7  UNL     1      -8.066 -30.322  14.974  1.00  0.00     0.276 C 
HETATM    7  C8  UNL     1      -8.930 -30.686  16.143  1.00  0.00     0.140 C 
HETATM    8  F1  UNL     1      -9.066 -29.773  17.135  1.00  0.00    -0.240 F 
HETATM    9  C9  UNL     1     -10.256 -31.318  15.809  1.00  0.00     0.033 A 
HETATM   10  C10 UNL     1     -10.999 -31.820  16.990  1.00  0.00     0.014 A 
HETATM   11  C11 UNL     1      -9.845 -32.607  16.556  1.00  0.00     0.007 A 
ENDROOT
BRANCH   1  12
HETATM   12  C4  UNL     1      -7.703 -32.120  17.835  1.00  0.00     0.015 C 
BRANCH  12  13
HETATM   13  C3  UNL     1      -8.084 -33.312  18.650  1.00  0.00     0.001 C 
BRANCH  13  14
HETATM   14  C2  UNL     1      -8.470 -32.985  20.058  1.00  0.00    -0.005 C 
HETATM   15  C1  UNL     1      -9.404 -31.839  20.202  1.00  0.00     0.005 C 
ENDBRANCH  13  14
ENDBRANCH  12  13
ENDBRANCH   1  12
TORSDOF 3
ENDMDL
MODEL 2
REMARK VINA RESULT: -6.474540144      1.498      2.593
REMARK  3 active torsions:
REMARK  status: ('A' for Active; 'I' for Inactive)
REMARK    1  A    between atoms: C2_2  and  C3_3 
REMARK    2  A    between atoms: C3_3  and  C4_4 
REMARK    3  A    between atoms: C4_4  and  C5_5 
ROOT
HETATM    1  C5  UNL     1      -9.079 -31.176  16.505  1.00  0.00     0.026 C 
HETATM    2  C6  UNL     1      -9.982 -32.374  16.331  1.00  0.00     0.245 C 
HETATM    3  N1  UNL     1      -9.157 -33.536  16.229  1.00  0.00    -0.071 N 
ATOM      4  H11 UNL     1      -9.353 -34.073  15.384  1.00  0.00     0.277 HD
ATOM      5  H12 UNL     1      -9.407 -34.247  16.917  1.00  0.00     0.277 HD
HETATM    6  C7  UNL     1      -7.788 -33.158  16.319  1.00  0.00     0.276 C 
HETATM    7  C8  UNL     1      -7.685 -31.669  16.183  1.00  0.00     0.140 C 
HETATM    8  F1  UNL     1      -6.657 -31.049  16.810  1.00  0.00    -0.240 F 
HETATM    9  C9  UNL     1      -7.875 -31.121  14.793  1.00  0.00     0.033 A 
HETATM   10  C10 UNL     1      -7.940 -29.641  14.732  1.00  0.00     0.014 A 
HETATM   11  C11 UNL     1      -9.117 -30.328  15.261  1.00  0.00     0.007 A 
ENDROOT
BRANCH   1  12
HETATM   12  C4  UNL     1      -9.210 -30.448  17.798  1.00  0.00     0.015 C 
BRANCH  12  13
HETATM   13  C3  UNL     1      -9.790 -31.307  18.873  1.00  0.00     0.001 C 
BRANCH  13  14
HETATM   14  C2  UNL     1      -8.802 -31.723  19.916  1.00  0.00    -0.005 C 
HETATM   15  C1  UNL     1      -8.423 -33.160  19.883  1.00  0.00     0.005 C 
ENDBRANCH  13  14
ENDBRANCH  12  13
ENDBRANCH   1  12
TORSDOF 3
ENDMDL
MODEL 3
REMARK VINA RESULT: -6.056033803      1.595      3.773
REMARK  3 active torsions:
REMARK  status: ('A' for Active; 'I' for Inactive)
REMARK    1  A    between atoms: C2_2  and  C3_3 
REMARK    2  A    between atoms: C3_3  and  C4_4 
REMARK    3  A    between atoms: C4_4  and  C5_5 
ROOT
HETATM    1  C5  UNL     1      -8.888 -31.909  17.361  1.00  0.00     0.026 C 
HETATM    2  C6  UNL     1      -9.802 -32.844  16.606  1.00  0.00     0.245 C 
HETATM    3  N1  UNL     1     -11.137 -32.350  16.731  1.00  0.00    -0.071 N 
ATOM      4  H11 UNL     1     -11.776 -33.056  17.097  1.00  0.00     0.277 HD
ATOM      5  H12 UNL     1     -11.580 -32.208  15.823  1.00  0.00     0.277 HD
HETATM    6  C7  UNL     1     -11.136 -31.166  17.520  1.00  0.00     0.276 C 
HETATM    7  C8  UNL     1      -9.801 -31.028  18.187  1.00  0.00     0.140 C 
HETATM    8  F1  UNL     1      -9.360 -29.777  18.461  1.00  0.00    -0.240 F 
HETATM    9  C9  UNL     1      -9.547 -31.953  19.348  1.00  0.00     0.033 A 
HETATM   10  C10 UNL     1      -8.157 -31.906  19.864  1.00  0.00     0.014 A 
HETATM   11  C11 UNL     1      -8.363 -32.598  18.593  1.00  0.00     0.007 A 
ENDROOT
BRANCH   1  12
HETATM   12  C4  UNL     1      -7.882 -31.181  16.537  1.00  0.00     0.015 C 
BRANCH  12  13
HETATM   13  C3  UNL     1      -7.798 -31.716  15.146  1.00  0.00     0.001 C 
BRANCH  13  14
HETATM   14  C2  UNL     1      -8.165 -30.721  14.091  1.00  0.00    -0.005 C 
HETATM   15  C1  UNL     1      -8.026 -29.298  14.495  1.00  0.00     0.005 C 
ENDBRANCH  13  14
ENDBRANCH  12  13
ENDBRANCH   1  12
TORSDOF 3
ENDMDL
MODEL 4
REMARK VINA RESULT: -6.047267269      1.977      2.806
REMARK  3 active torsions:
REMARK  status: ('A' for Active; 'I' for Inactive)
REMARK    1  A    between atoms: C2_2  and  C3_3 
REMARK    2  A    between atoms: C3_3  and  C4_4 
REMARK    3  A    between atoms: C4_4  and  C5_5 
ROOT
HETATM    1  C5  UNL     1      -8.879 -31.404  17.288  1.00  0.00     0.026 C 
HETATM    2  C6  UNL     1      -9.821 -30.593  18.146  1.00  0.00     0.245 C 
HETATM    3  N1  UNL     1     -11.152 -31.038  17.881  1.00  0.00    -0.071 N 
ATOM      4  H11 UNL     1     -11.767 -30.270  17.609  1.00  0.00     0.277 HD
ATOM      5  H12 UNL     1     -11.639 -31.322  18.732  1.00  0.00     0.277 HD
HETATM    6  C7  UNL     1     -11.123 -32.074  16.906  1.00  0.00     0.276 C 
HETATM    7  C8  UNL     1      -9.759 -32.121  16.287  1.00  0.00     0.140 C 
HETATM    8  F1  UNL     1      -9.316 -33.315  15.828  1.00  0.00    -0.240 F 
HETATM    9  C9  UNL     1      -9.443 -31.019  15.309  1.00  0.00     0.033 A 
HETATM   10  C10 UNL     1      -8.031 -31.002  14.856  1.00  0.00     0.014 A 
HETATM   11  C11 UNL     1      -8.291 -30.528  16.214  1.00  0.00     0.007 A 
ENDROOT
BRANCH   1  12
HETATM   12  C4  UNL     1      -7.919 -32.274  18.024  1.00  0.00     0.015 C 
BRANCH  12  13
HETATM   13  C3  UNL     1      -7.939 -32.018  19.495  1.00  0.00     0.001 C 
BRANCH  13  14
HETATM   14  C2  UNL     1      -8.631 -33.083  20.286  1.00  0.00    -0.005 C 
HETATM   15  C1  UNL     1      -9.741 -32.601  21.149  1.00  0.00     0.005 C 
ENDBRANCH  13  14
ENDBRANCH  12  13
ENDBRANCH   1  12
TORSDOF 3
ENDMDL
MODEL 5
REMARK VINA RESULT: -5.650411588      1.708      2.891
REMARK  3 active torsions:
REMARK  status: ('A' for Active; 'I' for Inactive)
REMARK    1  A    between atoms: C2_2  and  C3_3 
REMARK    2  A    between atoms: C3_3  and  C4_4 
REMARK    3  A    between atoms: C4_4  and  C5_5 
ROOT
HETATM    1  C5  UNL     1      -8.778 -31.593  16.263  1.00  0.00     0.026 C 
HETATM    2  C6  UNL     1      -8.761 -30.325  15.442  1.00  0.00     0.245 C 
HETATM    3  N1  UNL     1      -8.075 -30.601  14.220  1.00  0.00    -0.071 N 
ATOM      4  H11 UNL     1      -7.304 -29.953  14.057  1.00  0.00     0.277 HD
ATOM      5  H12 UNL     1      -8.638 -30.368  13.402  1.00  0.00     0.277 HD
HETATM    6  C7  UNL     1      -7.647 -31.958  14.210  1.00  0.00     0.276 C 
HETATM    7  C8  UNL     1      -7.794 -32.525  15.589  1.00  0.00     0.140 C 
HETATM    8  F1  UNL     1      -8.035 -33.853  15.702  1.00  0.00    -0.240 F 
HETATM    9  C9  UNL     1      -6.769 -32.077  16.597  1.00  0.00     0.033 A 
HETATM   10  C10 UNL     1      -7.053 -32.520  17.984  1.00  0.00     0.014 A 
HETATM   11  C11 UNL     1      -7.878 -31.433  17.460  1.00  0.00     0.007 A 
ENDROOT
BRANCH   1  12
HETATM   12  C4  UNL     1     -10.123 -32.176  16.528  1.00  0.00     0.015 C 
BRANCH  12  13
HETATM   13  C3  UNL     1     -10.984 -31.264  17.339  1.00  0.00     0.001 C 
BRANCH  13  14
HETATM   14  C2  UNL     1     -10.665 -31.270  18.800  1.00  0.00    -0.005 C 
HETATM   15  C1  UNL     1     -10.212 -29.966  19.348  1.00  0.00     0.005 C 
ENDBRANCH  13  14
ENDBRANCH  12  13
ENDBRANCH   1  12
TORSDOF 3
ENDMDL
