MODEL 1
REMARK VINA RESULT: -5.909864869      0.000      0.000
REMARK  4 active torsions:
REMARK  status: ('A' for Active; 'I' for Inactive)
REMARK    1  A    between atoms: C1_2  and  C2_3 
REMARK    2  A    between atoms: C2_3  and  N1_4 
REMARK    3  A    between atoms: N1_4  and  C3_7 
REMARK    4  A    between atoms: C3_7  and  C4_8 
ROOT
HETATM    1  C4  UNL     1      -8.974 -31.312  16.275  1.00  0.00    -0.012 C 
HETATM    2  C5  UNL     1      -9.389 -30.663  14.970  1.00  0.00     0.016 C 
HETATM    3  C6  UNL     1      -8.090 -30.681  14.201  1.00  0.00    -0.013 C 
HETATM    4  C7  UNL     1      -7.670 -32.118  14.053  1.00  0.00     0.010 C 
HETATM    5  C8  UNL     1      -7.530 -32.590  15.495  1.00  0.00    -0.009 C 
HETATM    6  C9  UNL     1      -8.906 -32.818  16.141  1.00  0.00     0.016 C 
HETATM    7  C10 UNL     1      -7.463 -31.318  16.300  1.00  0.00     0.000 C 
HETATM    8  C11 UNL     1      -7.126 -30.225  15.309  1.00  0.00     0.010 C 
ENDROOT
BRANCH   1   9
HETATM    9  C3  UNL     1      -9.569 -30.772  17.515  1.00  0.00     0.242 C 
BRANCH   9  10
HETATM   10  N1  UNL     1      -9.966 -31.741  18.486  1.00  0.00    -0.072 N 
ATOM     11  H12 UNL     1      -9.956 -32.695  18.126  1.00  0.00     0.277 HD
ATOM     12  H11 UNL     1     -10.960 -31.695  18.712  1.00  0.00     0.277 HD
BRANCH  10  13
HETATM   13  C2  UNL     1      -9.111 -31.564  19.648  1.00  0.00     0.263 C 
BRANCH  13  14
HETATM   14  C1  UNL     1      -8.723 -32.883  20.271  1.00  0.00     0.249 C 
HETATM   15  F1  UNL     1      -8.083 -33.620  19.288  1.00  0.00    -0.254 F 
ENDBRANCH  13  14
ENDBRANCH  10  13
ENDBRANCH   9  10
ENDBRANCH   1   9
TORSDOF 4
ENDMDL
MODEL 2
REMARK VINA RESULT: -5.741252503      2.080      4.751
REMARK  4 active torsions:
REMARK  status: ('A' for Active; 'I' for Inactive)
REMARK    1  A    between atoms: C1_2  and  C2_3 
REMARK    2  A    between atoms: C2_3  and  N1_4 
REMARK    3  A    between atoms: N1_4  and  C3_7 
REMARK    4  A    between atoms: C3_7  and  C4_8 
ROOT
HETATM    1  C4  UNL     1      -8.580 -32.374  18.271  1.00  0.00    -0.012 C 
HETATM    2  C5  UNL     1      -8.603 -33.440  19.347  1.00  0.00     0.016 C 
HETATM    3  C6  UNL     1      -8.793 -32.605  20.592  1.00  0.00    -0.013 C 
HETATM    4  C7  UNL     1     -10.096 -31.867  20.447  1.00  0.00     0.010 C 
HETATM    5  C8  UNL     1      -9.888 -31.039  19.184  1.00  0.00    -0.009 C 
HETATM    6  C9  UNL     1      -9.980 -31.916  17.924  1.00  0.00     0.016 C 
HETATM    7  C10 UNL     1      -8.396 -31.048  18.972  1.00  0.00     0.000 C 
HETATM    8  C11 UNL     1      -7.799 -31.470  20.297  1.00  0.00     0.010 C 
ENDROOT
BRANCH   1   9
HETATM    9  C3  UNL     1      -7.637 -32.568  17.151  1.00  0.00     0.242 C 
BRANCH   9  10
HETATM   10  N1  UNL     1      -8.231 -32.807  15.874  1.00  0.00    -0.072 N 
ATOM     11  H12 UNL     1      -9.250 -32.802  15.900  1.00  0.00     0.277 HD
ATOM     12  H11 UNL     1      -8.111 -33.768  15.552  1.00  0.00     0.277 HD
BRANCH  10  13
HETATM   13  C2  UNL     1      -7.682 -31.827  14.952  1.00  0.00     0.263 C 
BRANCH  13  14
HETATM   14  C1  UNL     1      -8.673 -30.734  14.633  1.00  0.00     0.249 C 
HETATM   15  F1  UNL     1      -8.545 -29.774  15.623  1.00  0.00    -0.254 F 
ENDBRANCH  13  14
ENDBRANCH  10  13
ENDBRANCH   9  10
ENDBRANCH   1   9
TORSDOF 4
ENDMDL
MODEL 3
REMARK VINA RESULT: -5.669622331      2.421      4.815
REMARK  4 active torsions:
REMARK  status: ('A' for Active; 'I' for Inactive)
REMARK    1  A    between atoms: C1_2  and  C2_3 
REMARK    2  A    between atoms: C2_3  and  N1_4 
REMARK    3  A    between atoms: N1_4  and  C3_7 
REMARK    4  A    between atoms: C3_7  and  C4_8 
ROOT
HETATM    1  C4  UNL     1      -9.380 -31.533  18.029  1.00  0.00    -0.012 C 
HETATM    2  C5  UNL     1      -8.854 -32.921  18.330  1.00  0.00     0.016 C 
HETATM    3  C6  UNL     1      -8.453 -32.781  19.780  1.00  0.00    -0.013 C 
HETATM    4  C7  UNL     1      -9.689 -32.421  20.559  1.00  0.00     0.010 C 
HETATM    5  C8  UNL     1     -10.134 -31.111  19.921  1.00  0.00    -0.009 C 
HETATM    6  C9  UNL     1     -10.789 -31.355  18.552  1.00  0.00     0.016 C 
HETATM    7  C10 UNL     1      -8.925 -30.637  19.157  1.00  0.00     0.000 C 
HETATM    8  C11 UNL     1      -7.755 -31.411  19.724  1.00  0.00     0.010 C 
ENDROOT
BRANCH   1   9
HETATM    9  C3  UNL     1      -9.081 -30.975  16.694  1.00  0.00     0.242 C 
BRANCH   9  10
HETATM   10  N1  UNL     1      -8.663 -31.918  15.706  1.00  0.00    -0.072 N 
ATOM     11  H12 UNL     1      -9.356 -32.645  15.530  1.00  0.00     0.277 HD
ATOM     12  H11 UNL     1      -7.911 -32.528  16.029  1.00  0.00     0.277 HD
BRANCH  10  13
HETATM   13  C2  UNL     1      -8.312 -31.167  14.513  1.00  0.00     0.263 C 
BRANCH  13  14
HETATM   14  C1  UNL     1      -7.542 -29.911  14.841  1.00  0.00     0.249 C 
HETATM   15  F1  UNL     1      -8.046 -28.907  14.031  1.00  0.00    -0.254 F 
ENDBRANCH  13  14
ENDBRANCH  10  13
ENDBRANCH   9  10
ENDBRANCH   1   9
TORSDOF 4
ENDMDL
MODEL 4
REMARK VINA RESULT: -5.512129427      1.309      1.406
REMARK  4 active torsions:
REMARK  status: ('A' for Active; 'I' for Inactive)
REMARK    1  A    between atoms: C1_2  and  C2_3 
REMARK    2  A    between atoms: C2_3  and  N1_4 
REMARK    3  A    between atoms: N1_4  and  C3_7 
REMARK    4  A    between atoms: C3_7  and  C4_8 
ROOT
HETATM    1  C4  UNL     1      -8.493 -31.769  16.338  1.00  0.00    -0.012 C 
HETATM    2  C5  UNL     1      -9.589 -30.997  15.632  1.00  0.00     0.016 C 
HETATM    3  C6  UNL     1      -8.813 -30.318  14.528  1.00  0.00    -0.013 C 
HETATM    4  C7  UNL     1      -8.193 -31.396  13.681  1.00  0.00     0.010 C 
HETATM    5  C8  UNL     1      -7.312 -32.151  14.669  1.00  0.00    -0.009 C 
HETATM    6  C9  UNL     1      -8.155 -33.043  15.594  1.00  0.00     0.016 C 
HETATM    7  C10 UNL     1      -7.178 -31.215  15.842  1.00  0.00     0.000 C 
HETATM    8  C11 UNL     1      -7.583 -29.852  15.324  1.00  0.00     0.010 C 
ENDROOT
BRANCH   1   9
HETATM    9  C3  UNL     1      -8.567 -31.847  17.811  1.00  0.00     0.242 C 
BRANCH   9  10
HETATM   10  N1  UNL     1      -7.596 -32.687  18.438  1.00  0.00    -0.072 N 
ATOM     11  H12 UNL     1      -6.705 -32.217  18.596  1.00  0.00     0.277 HD
ATOM     12  H11 UNL     1      -7.249 -33.424  17.823  1.00  0.00     0.277 HD
BRANCH  10  13
HETATM   13  C2  UNL     1      -8.193 -33.200  19.659  1.00  0.00     0.263 C 
BRANCH  13  14
HETATM   14  C1  UNL     1      -9.199 -32.239  20.243  1.00  0.00     0.249 C 
HETATM   15  F1  UNL     1      -9.809 -32.890  21.303  1.00  0.00    -0.254 F 
ENDBRANCH  13  14
ENDBRANCH  10  13
ENDBRANCH   9  10
ENDBRANCH   1   9
TORSDOF 4
ENDMDL
MODEL 5
REMARK VINA RESULT: -5.460741445      1.633      2.555
REMARK  4 active torsions:
REMARK  status: ('A' for Active; 'I' for Inactive)
REMARK    1  A    between atoms: C1_2  and  C2_3 
REMARK    2  A    between atoms: C2_3  and  N1_4 
REMARK    3  A    between atoms: N1_4  and  C3_7 
REMARK    4  A    between atoms: C3_7  and  C4_8 
ROOT
HETATM    1  C4  UNL     1      -8.725 -32.321  17.673  1.00  0.00    -0.012 C 
HETATM    2  C5  UNL     1      -7.284 -31.925  17.422  1.00  0.00     0.016 C 
HETATM    3  C6  UNL     1      -7.255 -31.841  15.914  1.00  0.00    -0.013 C 
HETATM    4  C7  UNL     1      -8.250 -30.791  15.500  1.00  0.00     0.010 C 
HETATM    5  C8  UNL     1      -9.567 -31.321  16.055  1.00  0.00    -0.009 C 
HETATM    6  C9  UNL     1      -9.646 -31.125  17.578  1.00  0.00     0.016 C 
HETATM    7  C10 UNL     1      -9.292 -32.774  16.347  1.00  0.00     0.000 C 
HETATM    8  C11 UNL     1      -8.041 -33.116  15.568  1.00  0.00     0.010 C 
ENDROOT
BRANCH   1   9
HETATM    9  C3  UNL     1      -8.978 -33.282  18.765  1.00  0.00     0.242 C 
BRANCH   9  10
HETATM   10  N1  UNL     1      -7.994 -33.321  19.800  1.00  0.00    -0.072 N 
ATOM     11  H12 UNL     1      -7.051 -33.134  19.460  1.00  0.00     0.277 HD
ATOM     12  H11 UNL     1      -7.823 -34.262  20.153  1.00  0.00     0.277 HD
BRANCH  10  13
HETATM   13  C2  UNL     1      -8.418 -32.393  20.835  1.00  0.00     0.263 C 
BRANCH  13  14
HETATM   14  C1  UNL     1      -9.886 -32.538  21.156  1.00  0.00     0.249 C 
HETATM   15  F1  UNL     1     -10.497 -31.351  20.788  1.00  0.00    -0.254 F 
ENDBRANCH  13  14
ENDBRANCH  10  13
ENDBRANCH   9  10
ENDBRANCH   1   9
TORSDOF 4
ENDMDL
