MODEL 1
REMARK VINA RESULT: -5.375054960      0.000      0.000
REMARK  4 active torsions:
REMARK  status: ('A' for Active; 'I' for Inactive)
REMARK    1  A    between atoms: N1_1  and  C1_5 
REMARK    2  A    between atoms: C1_5  and  C2_6 
REMARK    3  A    between atoms: C2_6  and  C3_7 
REMARK    4  A    between atoms: C3_7  and  C4_8 
ROOT
HETATM    1  C2  UNL     1      -7.594 -32.763  16.362  1.00  0.00     0.027 C 
ENDROOT
BRANCH   1   2
HETATM    2  C1  UNL     1      -9.049 -32.421  16.014  1.00  0.00     0.229 C 
BRANCH   2   3
HETATM    3  N1  UNL     1      -9.156 -31.111  15.446  1.00  0.00    -0.079 N 
ATOM      4  H13 UNL     1      -8.857 -30.392  16.105  1.00  0.00     0.274 HD
ATOM      5  H12 UNL     1      -8.455 -30.960  14.721  1.00  0.00     0.274 HD
ATOM      6  H11 UNL     1     -10.098 -30.932  15.099  1.00  0.00     0.274 HD
ENDBRANCH   2   3
ENDBRANCH   1   2
BRANCH   1   7
HETATM    7  C3  UNL     1      -7.331 -32.419  17.805  1.00  0.00     0.007 C 
BRANCH   7   8
HETATM    8  C4  UNL     1      -8.475 -32.748  18.709  1.00  0.00     0.000 C 
HETATM    9  C5  UNL     1      -8.193 -33.535  19.935  1.00  0.00     0.007 C 
HETATM   10  C6  UNL     1      -9.056 -32.547  20.703  1.00  0.00     0.016 C 
HETATM   11  C7  UNL     1      -8.752 -31.537  19.615  1.00  0.00     0.062 C 
HETATM   12 BR1  UNL     1     -10.237 -30.472  19.046  1.00  0.00    -0.091 Br
ENDBRANCH   7   8
ENDBRANCH   1   7
TORSDOF 4
ENDMDL
MODEL 2
REMARK VINA RESULT: -5.177702825      1.595      1.817
REMARK  4 active torsions:
REMARK  status: ('A' for Active; 'I' for Inactive)
REMARK    1  A    between atoms: N1_1  and  C1_5 
REMARK    2  A    between atoms: C1_5  and  C2_6 
REMARK    3  A    between atoms: C2_6  and  C3_7 
REMARK    4  A    between atoms: C3_7  and  C4_8 
ROOT
HETATM    1  C2  UNL     1      -7.524 -31.546  15.764  1.00  0.00     0.027 C 
ENDROOT
BRANCH   1   2
HETATM    2  C1  UNL     1      -7.516 -31.754  14.244  1.00  0.00     0.229 C 
BRANCH   2   3
HETATM    3  N1  UNL     1      -8.288 -30.751  13.576  1.00  0.00    -0.079 N 
ATOM      4  H13 UNL     1      -7.804 -29.853  13.564  1.00  0.00     0.274 HD
ATOM      5  H12 UNL     1      -8.332 -30.919  12.572  1.00  0.00     0.274 HD
ATOM      6  H11 UNL     1      -9.220 -30.667  13.982  1.00  0.00     0.274 HD
ENDBRANCH   2   3
ENDBRANCH   1   2
BRANCH   1   7
HETATM    7  C3  UNL     1      -7.472 -32.886  16.453  1.00  0.00     0.007 C 
BRANCH   7   8
HETATM    8  C4  UNL     1      -8.447 -33.010  17.579  1.00  0.00     0.000 C 
HETATM    9  C5  UNL     1      -7.944 -32.827  18.962  1.00  0.00     0.007 C 
HETATM   10  C6  UNL     1      -9.146 -31.934  19.225  1.00  0.00     0.016 C 
HETATM   11  C7  UNL     1      -9.197 -31.677  17.732  1.00  0.00     0.062 C 
HETATM   12 BR1  UNL     1     -10.946 -31.682  16.957  1.00  0.00    -0.091 Br
ENDBRANCH   7   8
ENDBRANCH   1   7
TORSDOF 4
ENDMDL
MODEL 3
REMARK VINA RESULT: -5.151891863      2.601      3.814
REMARK  4 active torsions:
REMARK  status: ('A' for Active; 'I' for Inactive)
REMARK    1  A    between atoms: N1_1  and  C1_5 
REMARK    2  A    between atoms: C1_5  and  C2_6 
REMARK    3  A    between atoms: C2_6  and  C3_7 
REMARK    4  A    between atoms: C3_7  and  C4_8 
ROOT
HETATM    1  C2  UNL     1      -7.776 -32.352  18.445  1.00  0.00     0.027 C 
ENDROOT
BRANCH   1   2
HETATM    2  C1  UNL     1      -8.127 -33.331  19.574  1.00  0.00     0.229 C 
BRANCH   2   3
HETATM    3  N1  UNL     1      -9.072 -32.759  20.484  1.00  0.00    -0.079 N 
ATOM      4  H13 UNL     1     -10.019 -33.087  20.296  1.00  0.00     0.274 HD
ATOM      5  H12 UNL     1      -8.959 -33.135  21.425  1.00  0.00     0.274 HD
ATOM      6  H11 UNL     1      -9.023 -31.740  20.480  1.00  0.00     0.274 HD
ENDBRANCH   2   3
ENDBRANCH   1   2
BRANCH   1   7
HETATM    7  C3  UNL     1      -7.807 -33.078  17.125  1.00  0.00     0.007 C 
BRANCH   7   8
HETATM    8  C4  UNL     1      -8.861 -32.569  16.196  1.00  0.00     0.000 C 
HETATM    9  C5  UNL     1     -10.260 -32.518  16.686  1.00  0.00     0.007 C 
HETATM   10  C6  UNL     1     -10.356 -31.117  16.103  1.00  0.00     0.016 C 
HETATM   11  C7  UNL     1      -8.848 -31.032  16.230  1.00  0.00     0.062 C 
HETATM   12 BR1  UNL     1      -7.944 -30.234  14.745  1.00  0.00    -0.091 Br
ENDBRANCH   7   8
ENDBRANCH   1   7
TORSDOF 4
ENDMDL
MODEL 4
REMARK VINA RESULT: -5.064669025      1.774      2.696
REMARK  4 active torsions:
REMARK  status: ('A' for Active; 'I' for Inactive)
REMARK    1  A    between atoms: N1_1  and  C1_5 
REMARK    2  A    between atoms: C1_5  and  C2_6 
REMARK    3  A    between atoms: C2_6  and  C3_7 
REMARK    4  A    between atoms: C3_7  and  C4_8 
ROOT
HETATM    1  C2  UNL     1      -8.550 -30.089  15.726  1.00  0.00     0.027 C 
ENDROOT
BRANCH   1   2
HETATM    2  C1  UNL     1      -8.043 -29.812  14.304  1.00  0.00     0.229 C 
BRANCH   2   3
HETATM    3  N1  UNL     1      -8.224 -30.950  13.455  1.00  0.00    -0.079 N 
ATOM      4  H13 UNL     1      -8.350 -30.674  12.482  1.00  0.00     0.274 HD
ATOM      5  H12 UNL     1      -7.361 -31.484  13.357  1.00  0.00     0.274 HD
ATOM      6  H11 UNL     1      -8.992 -31.537  13.779  1.00  0.00     0.274 HD
ENDBRANCH   2   3
ENDBRANCH   1   2
BRANCH   1   7
HETATM    7  C3  UNL     1      -9.633 -31.135  15.676  1.00  0.00     0.007 C 
BRANCH   7   8
HETATM    8  C4  UNL     1      -9.445 -32.230  16.676  1.00  0.00     0.000 C 
HETATM    9  C5  UNL     1      -8.295 -33.149  16.497  1.00  0.00     0.007 C 
HETATM   10  C6  UNL     1      -8.001 -32.984  17.980  1.00  0.00     0.016 C 
HETATM   11  C7  UNL     1      -8.726 -31.655  17.907  1.00  0.00     0.062 C 
HETATM   12 BR1  UNL     1      -9.893 -31.276  19.376  1.00  0.00    -0.091 Br
ENDBRANCH   7   8
ENDBRANCH   1   7
TORSDOF 4
ENDMDL
MODEL 5
REMARK VINA RESULT: -4.971209352      2.921      4.122
REMARK  4 active torsions:
REMARK  status: ('A' for Active; 'I' for Inactive)
REMARK    1  A    between atoms: N1_1  and  C1_5 
REMARK    2  A    between atoms: C1_5  and  C2_6 
REMARK    3  A    between atoms: C2_6  and  C3_7 
REMARK    4  A    between atoms: C3_7  and  C4_8 
ROOT
HETATM    1  C2  UNL     1     -11.233 -31.180  17.909  1.00  0.00     0.027 C 
ENDROOT
BRANCH   1   2
HETATM    2  C1  UNL     1     -10.132 -30.573  18.789  1.00  0.00     0.229 C 
BRANCH   2   3
HETATM    3  N1  UNL     1     -10.028 -31.259  20.041  1.00  0.00    -0.079 N 
ATOM      4  H13 UNL     1     -10.946 -31.487  20.420  1.00  0.00     0.274 HD
ATOM      5  H12 UNL     1      -9.669 -32.206  19.920  1.00  0.00     0.274 HD
ATOM      6  H11 UNL     1      -9.468 -30.729  20.709  1.00  0.00     0.274 HD
ENDBRANCH   2   3
ENDBRANCH   1   2
BRANCH   1   7
HETATM    7  C3  UNL     1     -10.623 -31.706  16.635  1.00  0.00     0.007 C 
BRANCH   7   8
HETATM    8  C4  UNL     1      -9.129 -31.702  16.650  1.00  0.00     0.000 C 
HETATM    9  C5  UNL     1      -8.428 -33.008  16.725  1.00  0.00     0.007 C 
HETATM   10  C6  UNL     1      -7.510 -32.519  15.616  1.00  0.00     0.016 C 
HETATM   11  C7  UNL     1      -8.621 -31.573  15.204  1.00  0.00     0.062 C 
HETATM   12 BR1  UNL     1      -8.062 -29.804  14.737  1.00  0.00    -0.091 Br
ENDBRANCH   7   8
ENDBRANCH   1   7
TORSDOF 4
ENDMDL
