MODEL 1
REMARK VINA RESULT: -6.178894803      0.000      0.000
REMARK  3 active torsions:
REMARK  status: ('A' for Active; 'I' for Inactive)
REMARK    1  A    between atoms: C2_2  and  C3_3 
REMARK    2  A    between atoms: C3_3  and  N1_4 
REMARK    3  A    between atoms: C6_7  and  C7_8 
ROOT
HETATM    1  N1  UNL     1      -8.710 -31.994  16.550  1.00  0.00    -0.232 NA
HETATM    2  C4  UNL     1      -7.632 -32.529  17.403  1.00  0.00     0.114 C 
HETATM    3  C5  UNL     1      -8.340 -33.048  18.643  1.00  0.00     0.026 C 
HETATM    4  C6  UNL     1      -8.827 -31.808  19.365  1.00  0.00     0.044 C 
HETATM    5  C8  UNL     1      -9.716 -31.015  18.484  1.00  0.00     0.040 C 
HETATM    6  C9  UNL     1      -9.733 -29.589  19.078  1.00  0.00     0.039 C 
HETATM    7  C10 UNL     1     -11.176 -31.450  18.535  1.00  0.00     0.039 C 
HETATM    8  N2  UNL     1      -9.270 -30.860  17.129  1.00  0.00    -0.345 N 
ATOM      9  H2  UNL     1      -9.357 -29.978  16.625  1.00  0.00     0.175 HD
ENDROOT
BRANCH   1  10
HETATM   10  C3  UNL     1      -7.996 -31.535  15.350  1.00  0.00     0.139 C 
BRANCH  10  11
HETATM   11  C2  UNL     1      -8.583 -30.353  14.725  1.00  0.00    -0.021 C 
HETATM   12  C1  UNL     1      -7.914 -29.270  14.396  1.00  0.00     0.008 C 
ENDBRANCH  10  11
ENDBRANCH   1  10
BRANCH   4  13
HETATM   13  C7  UNL     1      -9.423 -32.244  20.655  1.00  0.00     0.229 C 
HETATM   14  F1  UNL     1      -9.443 -33.615  20.804  1.00  0.00    -0.255 F 
ENDBRANCH   4  13
TORSDOF 3
ENDMDL
MODEL 2
REMARK VINA RESULT: -6.010730564      1.244      1.568
REMARK  3 active torsions:
REMARK  status: ('A' for Active; 'I' for Inactive)
REMARK    1  A    between atoms: C2_2  and  C3_3 
REMARK    2  A    between atoms: C3_3  and  N1_4 
REMARK    3  A    between atoms: C6_7  and  C7_8 
ROOT
HETATM    1  N1  UNL     1      -8.708 -31.608  15.068  1.00  0.00    -0.232 NA
HETATM    2  C4  UNL     1      -7.461 -32.150  15.642  1.00  0.00     0.114 C 
HETATM    3  C5  UNL     1      -7.919 -33.138  16.701  1.00  0.00     0.026 C 
HETATM    4  C6  UNL     1      -8.514 -32.284  17.803  1.00  0.00     0.044 C 
HETATM    5  C8  UNL     1      -9.622 -31.457  17.270  1.00  0.00     0.040 C 
HETATM    6  C9  UNL     1      -9.805 -30.301  18.279  1.00  0.00     0.039 C 
HETATM    7  C10 UNL     1     -10.973 -32.164  17.277  1.00  0.00     0.039 C 
HETATM    8  N2  UNL     1      -9.374 -30.827  16.006  1.00  0.00    -0.345 N 
ATOM      9  H2  UNL     1      -9.667 -29.870  15.809  1.00  0.00     0.175 HD
ENDROOT
BRANCH   1  10
HETATM   10  C3  UNL     1      -8.230 -30.686  14.028  1.00  0.00     0.139 C 
BRANCH  10  11
HETATM   11  C2  UNL     1      -7.869 -29.363  14.526  1.00  0.00    -0.021 C 
HETATM   12  C1  UNL     1      -8.221 -28.228  13.963  1.00  0.00     0.008 C 
ENDBRANCH  10  11
ENDBRANCH   1  10
BRANCH   4  13
HETATM   13  C7  UNL     1      -8.870 -33.188  18.928  1.00  0.00     0.229 C 
HETATM   14  F1  UNL     1      -7.807 -33.456  19.764  1.00  0.00    -0.255 F 
ENDBRANCH   4  13
TORSDOF 3
ENDMDL
MODEL 3
REMARK VINA RESULT: -5.784022933      1.082      2.207
REMARK  3 active torsions:
REMARK  status: ('A' for Active; 'I' for Inactive)
REMARK    1  A    between atoms: C2_2  and  C3_3 
REMARK    2  A    between atoms: C3_3  and  N1_4 
REMARK    3  A    between atoms: C6_7  and  C7_8 
ROOT
HETATM    1  N1  UNL     1      -8.682 -31.362  16.710  1.00  0.00    -0.232 NA
HETATM    2  C4  UNL     1     -10.144 -31.441  16.887  1.00  0.00     0.114 C 
HETATM    3  C5  UNL     1     -10.400 -30.868  18.270  1.00  0.00     0.026 C 
HETATM    4  C6  UNL     1      -9.837 -31.896  19.231  1.00  0.00     0.044 C 
HETATM    5  C8  UNL     1      -8.398 -32.121  18.958  1.00  0.00     0.040 C 
HETATM    6  C9  UNL     1      -8.059 -33.488  19.594  1.00  0.00     0.039 C 
HETATM    7  C10 UNL     1      -7.476 -31.144  19.680  1.00  0.00     0.039 C 
HETATM    8  N2  UNL     1      -8.040 -32.242  17.574  1.00  0.00    -0.345 N 
ATOM      9  H2  UNL     1      -7.361 -32.929  17.246  1.00  0.00     0.175 HD
ENDROOT
BRANCH   1  10
HETATM   10  C3  UNL     1      -8.475 -31.889  15.354  1.00  0.00     0.139 C 
BRANCH  10  11
HETATM   11  C2  UNL     1      -8.061 -30.883  14.381  1.00  0.00    -0.021 C 
HETATM   12  C1  UNL     1      -7.917 -29.602  14.644  1.00  0.00     0.008 C 
ENDBRANCH  10  11
ENDBRANCH   1  10
BRANCH   4  13
HETATM   13  C7  UNL     1     -10.167 -31.449  20.609  1.00  0.00     0.229 C 
HETATM   14  F1  UNL     1     -10.205 -32.484  21.519  1.00  0.00    -0.255 F 
ENDBRANCH   4  13
TORSDOF 3
ENDMDL
MODEL 4
REMARK VINA RESULT: -5.581604031      1.612      2.477
REMARK  3 active torsions:
REMARK  status: ('A' for Active; 'I' for Inactive)
REMARK    1  A    between atoms: C2_2  and  C3_3 
REMARK    2  A    between atoms: C3_3  and  N1_4 
REMARK    3  A    between atoms: C6_7  and  C7_8 
ROOT
HETATM    1  N1  UNL     1      -8.169 -31.696  16.544  1.00  0.00    -0.232 NA
HETATM    2  C4  UNL     1      -9.642 -31.628  16.484  1.00  0.00     0.114 C 
HETATM    3  C5  UNL     1     -10.048 -30.877  17.740  1.00  0.00     0.026 C 
HETATM    4  C6  UNL     1      -9.750 -31.829  18.880  1.00  0.00     0.044 C 
HETATM    5  C8  UNL     1      -8.317 -32.207  18.874  1.00  0.00     0.040 C 
HETATM    6  C9  UNL     1      -8.224 -33.514  19.694  1.00  0.00     0.039 C 
HETATM    7  C10 UNL     1      -7.424 -31.234  19.635  1.00  0.00     0.039 C 
HETATM    8  N2  UNL     1      -7.764 -32.520  17.589  1.00  0.00    -0.345 N 
ATOM      9  H2  UNL     1      -7.117 -33.296  17.450  1.00  0.00     0.175 HD
ENDROOT
BRANCH   1  10
HETATM   10  C3  UNL     1      -7.810 -32.395  15.302  1.00  0.00     0.139 C 
BRANCH  10  11
HETATM   11  C2  UNL     1      -7.715 -31.523  14.136  1.00  0.00    -0.021 C 
HETATM   12  C1  UNL     1      -7.778 -30.210  14.175  1.00  0.00     0.008 C 
ENDBRANCH  10  11
ENDBRANCH   1  10
BRANCH   4  13
HETATM   13  C7  UNL     1     -10.243 -31.197  20.132  1.00  0.00     0.229 C 
HETATM   14  F1  UNL     1     -10.358 -29.827  20.037  1.00  0.00    -0.255 F 
ENDBRANCH   4  13
TORSDOF 3
ENDMDL
MODEL 5
REMARK VINA RESULT: -5.115855962      2.603      4.621
REMARK  3 active torsions:
REMARK  status: ('A' for Active; 'I' for Inactive)
REMARK    1  A    between atoms: C2_2  and  C3_3 
REMARK    2  A    between atoms: C3_3  and  N1_4 
REMARK    3  A    between atoms: C6_7  and  C7_8 
ROOT
HETATM    1  N1  UNL     1      -8.062 -32.295  18.304  1.00  0.00    -0.232 NA
HETATM    2  C4  UNL     1      -7.481 -33.102  17.214  1.00  0.00     0.114 C 
HETATM    3  C5  UNL     1      -7.302 -32.128  16.062  1.00  0.00     0.026 C 
HETATM    4  C6  UNL     1      -8.709 -31.805  15.599  1.00  0.00     0.044 C 
HETATM    5  C8  UNL     1      -9.500 -31.237  16.715  1.00  0.00     0.040 C 
HETATM    6  C9  UNL     1     -10.981 -31.425  16.318  1.00  0.00     0.039 C 
HETATM    7  C10 UNL     1      -9.351 -29.727  16.866  1.00  0.00     0.039 C 
HETATM    8  N2  UNL     1      -9.355 -31.899  17.979  1.00  0.00    -0.345 N 
ATOM      9  H2  UNL     1     -10.148 -32.070  18.598  1.00  0.00     0.175 HD
ENDROOT
BRANCH   1  10
HETATM   10  C3  UNL     1      -8.188 -33.256  19.408  1.00  0.00     0.139 C 
BRANCH  10  11
HETATM   11  C2  UNL     1      -8.579 -32.653  20.679  1.00  0.00    -0.021 C 
HETATM   12  C1  UNL     1      -9.809 -32.611  21.141  1.00  0.00     0.008 C 
ENDBRANCH  10  11
ENDBRANCH   1  10
BRANCH   4  13
HETATM   13  C7  UNL     1      -8.596 -30.949  14.389  1.00  0.00     0.229 C 
HETATM   14  F1  UNL     1      -8.010 -31.595  13.321  1.00  0.00    -0.255 F 
ENDBRANCH   4  13
TORSDOF 3
ENDMDL
