MODEL 1
REMARK VINA RESULT: -5.887059093      0.000      0.000
REMARK  3 active torsions:
REMARK  status: ('A' for Active; 'I' for Inactive)
REMARK    1  A    between atoms: C2_2  and  C3_3 
REMARK    2  A    between atoms: C3_3  and  N1_4 
REMARK    3  A    between atoms: N1_4  and  C4_6 
ROOT
HETATM    1  C4  UNL     1      -8.612 -31.578  17.017  1.00  0.00     0.119 C 
HETATM    2  C5  UNL     1      -7.590 -32.537  17.608  1.00  0.00     0.226 C 
HETATM    3  F1  UNL     1      -7.379 -33.603  16.741  1.00  0.00    -0.245 F 
HETATM    4  C6  UNL     1      -8.595 -32.971  18.667  1.00  0.00     0.264 C 
HETATM    5  C7  UNL     1      -9.502 -31.857  18.182  1.00  0.00     0.049 C 
HETATM    6  C8  UNL     1      -9.417 -30.812  19.285  1.00  0.00     0.039 C 
HETATM    7  C9  UNL     1      -8.170 -31.205  20.039  1.00  0.00     0.273 C 
HETATM    8  N2  UNL     1      -8.276 -32.648  20.025  1.00  0.00     0.092 N 
HETATM    9  C10 UNL     1      -9.477 -32.957  20.811  1.00  0.00     0.310 C 
ENDROOT
BRANCH   1  10
HETATM   10  N1  UNL     1      -9.093 -31.840  15.712  1.00  0.00    -0.414 N 
ATOM     11  H1  UNL     1     -10.002 -32.276  15.554  1.00  0.00     0.153 HD
BRANCH  10  12
HETATM   12  C3  UNL     1      -8.251 -31.466  14.639  1.00  0.00     0.114 C 
BRANCH  12  13
HETATM   13  C2  UNL     1      -7.465 -30.208  14.986  1.00  0.00     0.015 C 
HETATM   14  C1  UNL     1      -8.112 -29.045  14.319  1.00  0.00     0.006 C 
ENDBRANCH  12  13
ENDBRANCH  10  12
ENDBRANCH   1  10
TORSDOF 3
ENDMDL
MODEL 2
REMARK VINA RESULT: -5.709324617      0.996      1.070
REMARK  3 active torsions:
REMARK  status: ('A' for Active; 'I' for Inactive)
REMARK    1  A    between atoms: C2_2  and  C3_3 
REMARK    2  A    between atoms: C3_3  and  N1_4 
REMARK    3  A    between atoms: N1_4  and  C4_6 
ROOT
HETATM    1  C4  UNL     1      -8.176 -31.889  17.011  1.00  0.00     0.119 C 
HETATM    2  C5  UNL     1      -7.125 -31.777  18.105  1.00  0.00     0.226 C 
HETATM    3  F1  UNL     1      -6.008 -32.537  17.774  1.00  0.00    -0.245 F 
HETATM    4  C6  UNL     1      -8.001 -32.593  19.046  1.00  0.00     0.264 C 
HETATM    5  C7  UNL     1      -9.103 -32.500  18.009  1.00  0.00     0.049 C 
HETATM    6  C8  UNL     1     -10.091 -31.513  18.615  1.00  0.00     0.039 C 
HETATM    7  C9  UNL     1      -9.275 -30.816  19.677  1.00  0.00     0.273 C 
HETATM    8  N2  UNL     1      -8.500 -31.918  20.205  1.00  0.00     0.092 N 
HETATM    9  C10 UNL     1      -9.481 -32.826  20.815  1.00  0.00     0.310 C 
ENDROOT
BRANCH   1  10
HETATM   10  N1  UNL     1      -7.848 -32.623  15.846  1.00  0.00    -0.414 N 
ATOM     11  H1  UNL     1      -7.725 -33.635  15.867  1.00  0.00     0.153 HD
BRANCH  10  12
HETATM   12  C3  UNL     1      -7.699 -31.881  14.651  1.00  0.00     0.114 C 
BRANCH  12  13
HETATM   13  C2  UNL     1      -8.665 -30.703  14.627  1.00  0.00     0.015 C 
HETATM   14  C1  UNL     1      -7.879 -29.449  14.455  1.00  0.00     0.006 C 
ENDBRANCH  12  13
ENDBRANCH  10  12
ENDBRANCH   1  10
TORSDOF 3
ENDMDL
MODEL 3
REMARK VINA RESULT: -5.558730233      1.443      1.998
REMARK  3 active torsions:
REMARK  status: ('A' for Active; 'I' for Inactive)
REMARK    1  A    between atoms: C2_2  and  C3_3 
REMARK    2  A    between atoms: C3_3  and  N1_4 
REMARK    3  A    between atoms: N1_4  and  C4_6 
ROOT
HETATM    1  C4  UNL     1      -8.431 -33.042  16.580  1.00  0.00     0.119 C 
HETATM    2  C5  UNL     1      -9.841 -32.664  17.007  1.00  0.00     0.226 C 
HETATM    3  F1  UNL     1     -10.486 -31.988  15.977  1.00  0.00    -0.245 F 
HETATM    4  C6  UNL     1      -9.283 -31.636  17.981  1.00  0.00     0.264 C 
HETATM    5  C7  UNL     1      -7.903 -32.188  17.686  1.00  0.00     0.049 C 
HETATM    6  C8  UNL     1      -7.543 -32.964  18.944  1.00  0.00     0.039 C 
HETATM    7  C9  UNL     1      -8.877 -33.160  19.623  1.00  0.00     0.273 C 
HETATM    8  N2  UNL     1      -9.509 -31.882  19.374  1.00  0.00     0.092 N 
HETATM    9  C10 UNL     1      -8.697 -30.898  20.099  1.00  0.00     0.310 C 
ENDROOT
BRANCH   1  10
HETATM   10  N1  UNL     1      -8.038 -32.757  15.251  1.00  0.00    -0.414 N 
ATOM     11  H1  UNL     1      -8.258 -33.387  14.481  1.00  0.00     0.153 HD
BRANCH  10  12
HETATM   12  C3  UNL     1      -7.326 -31.551  15.046  1.00  0.00     0.114 C 
BRANCH  12  13
HETATM   13  C2  UNL     1      -8.089 -30.631  14.101  1.00  0.00     0.015 C 
HETATM   14  C1  UNL     1      -8.355 -29.345  14.804  1.00  0.00     0.006 C 
ENDBRANCH  12  13
ENDBRANCH  10  12
ENDBRANCH   1  10
TORSDOF 3
ENDMDL
MODEL 4
REMARK VINA RESULT: -5.433518862      1.544      4.856
REMARK  3 active torsions:
REMARK  status: ('A' for Active; 'I' for Inactive)
REMARK    1  A    between atoms: C2_2  and  C3_3 
REMARK    2  A    between atoms: C3_3  and  N1_4 
REMARK    3  A    between atoms: N1_4  and  C4_6 
ROOT
HETATM    1  C4  UNL     1      -8.242 -32.034  17.363  1.00  0.00     0.119 C 
HETATM    2  C5  UNL     1      -9.520 -31.403  16.831  1.00  0.00     0.226 C 
HETATM    3  F1  UNL     1     -10.615 -32.198  17.153  1.00  0.00    -0.245 F 
HETATM    4  C6  UNL     1      -9.097 -31.722  15.404  1.00  0.00     0.264 C 
HETATM    5  C7  UNL     1      -7.751 -32.145  15.957  1.00  0.00     0.049 C 
HETATM    6  C8  UNL     1      -6.815 -31.018  15.542  1.00  0.00     0.039 C 
HETATM    7  C9  UNL     1      -7.760 -29.889  15.209  1.00  0.00     0.273 C 
HETATM    8  N2  UNL     1      -8.831 -30.605  14.548  1.00  0.00     0.092 N 
HETATM    9  C10 UNL     1      -8.233 -31.159  13.327  1.00  0.00     0.310 C 
ENDROOT
BRANCH   1  10
HETATM   10  N1  UNL     1      -8.355 -33.210  18.141  1.00  0.00    -0.414 N 
ATOM     11  H1  UNL     1      -8.735 -34.074  17.755  1.00  0.00     0.153 HD
BRANCH  10  12
HETATM   12  C3  UNL     1      -7.912 -33.126  19.483  1.00  0.00     0.114 C 
BRANCH  12  13
HETATM   13  C2  UNL     1      -8.591 -31.967  20.201  1.00  0.00     0.015 C 
HETATM   14  C1  UNL     1      -9.687 -32.512  21.050  1.00  0.00     0.006 C 
ENDBRANCH  12  13
ENDBRANCH  10  12
ENDBRANCH   1  10
TORSDOF 3
ENDMDL
MODEL 5
REMARK VINA RESULT: -5.372375585      1.653      2.171
REMARK  3 active torsions:
REMARK  status: ('A' for Active; 'I' for Inactive)
REMARK    1  A    between atoms: C2_2  and  C3_3 
REMARK    2  A    between atoms: C3_3  and  N1_4 
REMARK    3  A    between atoms: N1_4  and  C4_6 
ROOT
HETATM    1  C4  UNL     1      -8.726 -32.824  17.195  1.00  0.00     0.119 C 
HETATM    2  C5  UNL     1     -10.212 -32.503  17.235  1.00  0.00     0.226 C 
HETATM    3  F1  UNL     1     -10.697 -32.323  15.944  1.00  0.00    -0.245 F 
HETATM    4  C6  UNL     1      -9.911 -31.134  17.831  1.00  0.00     0.264 C 
HETATM    5  C7  UNL     1      -8.468 -31.574  17.971  1.00  0.00     0.049 C 
HETATM    6  C8  UNL     1      -8.299 -31.802  19.466  1.00  0.00     0.039 C 
HETATM    7  C9  UNL     1      -9.721 -31.913  19.961  1.00  0.00     0.273 C 
HETATM    8  N2  UNL     1     -10.376 -30.898  19.164  1.00  0.00     0.092 N 
HETATM    9  C10 UNL     1      -9.776 -29.625  19.586  1.00  0.00     0.310 C 
ENDROOT
BRANCH   1  10
HETATM   10  N1  UNL     1      -8.113 -32.981  15.930  1.00  0.00    -0.414 N 
ATOM     11  H1  UNL     1      -8.226 -33.833  15.381  1.00  0.00     0.153 HD
BRANCH  10  12
HETATM   12  C3  UNL     1      -7.335 -31.894  15.464  1.00  0.00     0.114 C 
BRANCH  12  13
HETATM   13  C2  UNL     1      -8.042 -31.178  14.321  1.00  0.00     0.015 C 
HETATM   14  C1  UNL     1      -8.128 -29.728  14.651  1.00  0.00     0.006 C 
ENDBRANCH  12  13
ENDBRANCH  10  12
ENDBRANCH   1  10
TORSDOF 3
ENDMDL
