MODEL 1
REMARK VINA RESULT: -8.310295671      0.000      0.000
REMARK  4 active torsions:
REMARK  status: ('A' for Active; 'I' for Inactive)
REMARK    1  A    between atoms: N2_4  and  N3_6 
REMARK    2  A    between atoms: N3_6  and  C1_8 
REMARK    3  A    between atoms: C1_8  and  C2_9 
REMARK    4  A    between atoms: C2_9  and  C3_11 
ROOT
HETATM    1  C3  UNL     1       0.155  34.539 101.911  1.00  0.00     0.013 A 
HETATM    2  C4  UNL     1      -0.026  34.886 100.585  1.00  0.00     0.015 A 
HETATM    3  C5  UNL     1      -1.282  35.182 100.028  1.00  0.00     0.002 A 
HETATM    4  C6  UNL     1      -2.366  35.117 100.851  1.00  0.00     0.014 A 
HETATM    5  C7  UNL     1      -2.254  34.779 102.171  1.00  0.00    -0.009 A 
HETATM    6  C8  UNL     1      -3.359  34.782 103.003  1.00  0.00     0.015 A 
HETATM    7  C9  UNL     1      -3.210  34.498 104.325  1.00  0.00     0.018 A 
HETATM    8  C10 UNL     1      -1.945  34.212 104.823  1.00  0.00     0.088 A 
HETATM    9  N5  UNL     1      -0.909  34.226 103.980  1.00  0.00    -0.365 N 
ATOM     10  H5  UNL     1       0.016  34.015 104.355  1.00  0.00     0.165 HD
HETATM   11  C11 UNL     1      -1.007  34.495 102.688  1.00  0.00     0.054 A 
ENDROOT
BRANCH   1  12
HETATM   12  C2  UNL     1       1.441  34.134 102.475  1.00  0.00     0.055 C 
HETATM   13  N4  UNL     1       1.481  32.855 103.081  1.00  0.00    -0.104 NA
BRANCH  12  14
HETATM   14  C1  UNL     1       2.209  35.229 103.139  1.00  0.00     0.195 C 
BRANCH  14  15
HETATM   15  N3  UNL     1       3.617  35.157 102.737  1.00  0.00    -0.317 N 
ATOM     16  H3  UNL     1       4.220  35.933 103.012  1.00  0.00     0.182 HD
BRANCH  15  17
HETATM   17  N2  UNL     1       4.197  34.132 102.021  1.00  0.00    -0.254 N 
HETATM   18  N1  UNL     1       5.404  34.080 101.651  1.00  0.00    -0.331 N 
ATOM     19  H12 UNL     1       5.987  34.874 101.914  1.00  0.00     0.178 HD
ATOM     20  H11 UNL     1       5.834  33.321 101.121  1.00  0.00     0.178 HD
ATOM     21  H2  UNL     1       3.599  33.346 101.767  1.00  0.00     0.207 HD
ENDBRANCH  15  17
ENDBRANCH  14  15
ENDBRANCH  12  14
ENDBRANCH   1  12
TORSDOF 4
ENDMDL
MODEL 2
REMARK VINA RESULT: -7.997679225      1.823      2.475
REMARK  4 active torsions:
REMARK  status: ('A' for Active; 'I' for Inactive)
REMARK    1  A    between atoms: N2_4  and  N3_6 
REMARK    2  A    between atoms: N3_6  and  C1_8 
REMARK    3  A    between atoms: C1_8  and  C2_9 
REMARK    4  A    between atoms: C2_9  and  C3_11 
ROOT
HETATM    1  C3  UNL     1       0.404  36.333 102.610  1.00  0.00     0.013 A 
HETATM    2  C4  UNL     1       0.757  36.222 101.278  1.00  0.00     0.015 A 
HETATM    3  C5  UNL     1      -0.044  35.579 100.318  1.00  0.00     0.002 A 
HETATM    4  C6  UNL     1      -1.223  35.042 100.739  1.00  0.00     0.014 A 
HETATM    5  C7  UNL     1      -1.628  35.118 102.042  1.00  0.00    -0.009 A 
HETATM    6  C8  UNL     1      -2.859  34.624 102.434  1.00  0.00     0.015 A 
HETATM    7  C9  UNL     1      -3.262  34.763 103.726  1.00  0.00     0.018 A 
HETATM    8  C10 UNL     1      -2.432  35.407 104.635  1.00  0.00     0.088 A 
HETATM    9  N5  UNL     1      -1.254  35.871 104.205  1.00  0.00    -0.365 N 
ATOM     10  H5  UNL     1      -0.652  36.342 104.880  1.00  0.00     0.165 HD
HETATM   11  C11 UNL     1      -0.821  35.757 102.961  1.00  0.00     0.054 A 
ENDROOT
BRANCH   1  12
HETATM   12  C2  UNL     1       1.273  36.911 103.634  1.00  0.00     0.055 C 
HETATM   13  N4  UNL     1       1.094  38.290 103.897  1.00  0.00    -0.104 NA
BRANCH  12  14
HETATM   14  C1  UNL     1       2.672  36.390 103.637  1.00  0.00     0.195 C 
BRANCH  14  15
HETATM   15  N3  UNL     1       2.793  35.306 104.616  1.00  0.00    -0.317 N 
ATOM     16  H3  UNL     1       3.159  35.548 105.537  1.00  0.00     0.182 HD
BRANCH  15  17
HETATM   17  N2  UNL     1       2.454  33.988 104.400  1.00  0.00    -0.254 N 
HETATM   18  N1  UNL     1       1.364  33.441 104.731  1.00  0.00    -0.331 N 
ATOM     19  H12 UNL     1       0.686  34.042 105.199  1.00  0.00     0.178 HD
ATOM     20  H11 UNL     1       1.113  32.465 104.571  1.00  0.00     0.178 HD
ATOM     21  H2  UNL     1       3.144  33.401 103.931  1.00  0.00     0.207 HD
ENDBRANCH  15  17
ENDBRANCH  14  15
ENDBRANCH  12  14
ENDBRANCH   1  12
TORSDOF 4
ENDMDL
MODEL 3
REMARK VINA RESULT: -7.896050841      0.914      1.074
REMARK  4 active torsions:
REMARK  status: ('A' for Active; 'I' for Inactive)
REMARK    1  A    between atoms: N2_4  and  N3_6 
REMARK    2  A    between atoms: N3_6  and  C1_8 
REMARK    3  A    between atoms: C1_8  and  C2_9 
REMARK    4  A    between atoms: C2_9  and  C3_11 
ROOT
HETATM    1  C3  UNL     1       0.380  35.013 102.240  1.00  0.00     0.013 A 
HETATM    2  C4  UNL     1       0.363  35.249 100.878  1.00  0.00     0.015 A 
HETATM    3  C5  UNL     1      -0.818  35.295 100.116  1.00  0.00     0.002 A 
HETATM    4  C6  UNL     1      -1.996  35.092 100.769  1.00  0.00     0.014 A 
HETATM    5  C7  UNL     1      -2.047  34.852 102.114  1.00  0.00    -0.009 A 
HETATM    6  C8  UNL     1      -3.258  34.714 102.767  1.00  0.00     0.015 A 
HETATM    7  C9  UNL     1      -3.282  34.533 104.115  1.00  0.00     0.018 A 
HETATM    8  C10 UNL     1      -2.085  34.495 104.820  1.00  0.00     0.088 A 
HETATM    9  N5  UNL     1      -0.942  34.639 104.143  1.00  0.00    -0.365 N 
ATOM     10  H5  UNL     1      -0.068  34.610 104.670  1.00  0.00     0.165 HD
HETATM   11  C11 UNL     1      -0.871  34.815 102.835  1.00  0.00     0.054 A 
ENDROOT
BRANCH   1  12
HETATM   12  C2  UNL     1       1.605  34.865 103.022  1.00  0.00     0.055 C 
HETATM   13  N4  UNL     1       2.120  36.048 103.603  1.00  0.00    -0.104 NA
BRANCH  12  14
HETATM   14  C1  UNL     1       2.591  33.891 102.467  1.00  0.00     0.195 C 
BRANCH  14  15
HETATM   15  N3  UNL     1       3.925  34.498 102.444  1.00  0.00    -0.317 N 
ATOM     16  H3  UNL     1       4.061  35.344 102.998  1.00  0.00     0.182 HD
BRANCH  15  17
HETATM   17  N2  UNL     1       5.011  34.026 101.739  1.00  0.00    -0.254 N 
HETATM   18  N1  UNL     1       5.921  33.278 102.197  1.00  0.00    -0.331 N 
ATOM     19  H12 UNL     1       5.828  33.009 103.176  1.00  0.00     0.178 HD
ATOM     20  H11 UNL     1       6.725  32.927 101.675  1.00  0.00     0.178 HD
ATOM     21  H2  UNL     1       5.087  34.305 100.761  1.00  0.00     0.207 HD
ENDBRANCH  15  17
ENDBRANCH  14  15
ENDBRANCH  12  14
ENDBRANCH   1  12
TORSDOF 4
ENDMDL
MODEL 4
REMARK VINA RESULT: -7.666630908      1.334      2.983
REMARK  4 active torsions:
REMARK  status: ('A' for Active; 'I' for Inactive)
REMARK    1  A    between atoms: N2_4  and  N3_6 
REMARK    2  A    between atoms: N3_6  and  C1_8 
REMARK    3  A    between atoms: C1_8  and  C2_9 
REMARK    4  A    between atoms: C2_9  and  C3_11 
ROOT
HETATM    1  C3  UNL     1       0.650  34.221 102.599  1.00  0.00     0.013 A 
HETATM    2  C4  UNL     1      -0.285  34.263 103.616  1.00  0.00     0.015 A 
HETATM    3  C5  UNL     1      -1.646  34.547 103.404  1.00  0.00     0.002 A 
HETATM    4  C6  UNL     1      -2.046  34.791 102.125  1.00  0.00     0.014 A 
HETATM    5  C7  UNL     1      -1.170  34.766 101.076  1.00  0.00    -0.009 A 
HETATM    6  C8  UNL     1      -1.610  34.953  99.778  1.00  0.00     0.015 A 
HETATM    7  C9  UNL     1      -0.727  34.866  98.746  1.00  0.00     0.018 A 
HETATM    8  C10 UNL     1       0.607  34.583  99.012  1.00  0.00     0.088 A 
HETATM    9  N5  UNL     1       0.981  34.406 100.283  1.00  0.00    -0.365 N 
ATOM     10  H5  UNL     1       1.963  34.199 100.468  1.00  0.00     0.165 HD
HETATM   11  C11 UNL     1       0.159  34.483 101.316  1.00  0.00     0.054 A 
ENDROOT
BRANCH   1  12
HETATM   12  C2  UNL     1       2.081  34.026 102.820  1.00  0.00     0.055 C 
HETATM   13  N4  UNL     1       2.447  32.871 103.552  1.00  0.00    -0.104 NA
BRANCH  12  14
HETATM   14  C1  UNL     1       2.852  35.276 103.087  1.00  0.00     0.195 C 
BRANCH  14  15
HETATM   15  N3  UNL     1       4.163  35.196 102.436  1.00  0.00    -0.317 N 
ATOM     16  H3  UNL     1       4.731  36.043 102.428  1.00  0.00     0.182 HD
BRANCH  15  17
HETATM   17  N2  UNL     1       4.694  34.075 101.835  1.00  0.00    -0.254 N 
HETATM   18  N1  UNL     1       5.550  33.299 102.344  1.00  0.00    -0.331 N 
ATOM     19  H12 UNL     1       5.866  33.536 103.285  1.00  0.00     0.178 HD
ATOM     20  H11 UNL     1       5.943  32.469 101.900  1.00  0.00     0.178 HD
ATOM     21  H2  UNL     1       4.367  33.853 100.895  1.00  0.00     0.207 HD
ENDBRANCH  15  17
ENDBRANCH  14  15
ENDBRANCH  12  14
ENDBRANCH   1  12
TORSDOF 4
ENDMDL
MODEL 5
REMARK VINA RESULT: -7.661304766      2.909      4.328
REMARK  4 active torsions:
REMARK  status: ('A' for Active; 'I' for Inactive)
REMARK    1  A    between atoms: N2_4  and  N3_6 
REMARK    2  A    between atoms: N3_6  and  C1_8 
REMARK    3  A    between atoms: C1_8  and  C2_9 
REMARK    4  A    between atoms: C2_9  and  C3_11 
ROOT
HETATM    1  C3  UNL     1      -0.623  36.661 102.396  1.00  0.00     0.013 A 
HETATM    2  C4  UNL     1      -1.494  36.291 101.388  1.00  0.00     0.015 A 
HETATM    3  C5  UNL     1      -1.287  35.175 100.558  1.00  0.00     0.002 A 
HETATM    4  C6  UNL     1      -0.165  34.432 100.771  1.00  0.00     0.014 A 
HETATM    5  C7  UNL     1       0.735  34.746 101.750  1.00  0.00    -0.009 A 
HETATM    6  C8  UNL     1       1.834  33.941 101.991  1.00  0.00     0.015 A 
HETATM    7  C9  UNL     1       2.684  34.245 103.009  1.00  0.00     0.018 A 
HETATM    8  C10 UNL     1       2.433  35.360 103.798  1.00  0.00     0.088 A 
HETATM    9  N5  UNL     1       1.355  36.103 103.528  1.00  0.00    -0.365 N 
ATOM     10  H5  UNL     1       1.179  36.920 104.114  1.00  0.00     0.165 HD
HETATM   11  C11 UNL     1       0.504  35.847 102.549  1.00  0.00     0.054 A 
ENDROOT
BRANCH   1  12
HETATM   12  C2  UNL     1      -0.778  37.873 103.197  1.00  0.00     0.055 C 
HETATM   13  N4  UNL     1      -1.818  37.858 104.157  1.00  0.00    -0.104 NA
BRANCH  12  14
HETATM   14  C1  UNL     1      -0.551  39.150 102.456  1.00  0.00     0.195 C 
BRANCH  14  15
HETATM   15  N3  UNL     1       0.764  39.696 102.804  1.00  0.00    -0.317 N 
ATOM     16  H3  UNL     1       0.873  40.084 103.741  1.00  0.00     0.182 HD
BRANCH  15  17
HETATM   17  N2  UNL     1       1.865  39.730 101.976  1.00  0.00    -0.254 N 
HETATM   18  N1  UNL     1       2.587  38.741 101.665  1.00  0.00    -0.331 N 
ATOM     19  H12 UNL     1       2.317  37.846 102.072  1.00  0.00     0.178 HD
ATOM     20  H11 UNL     1       3.402  38.766 101.052  1.00  0.00     0.178 HD
ATOM     21  H2  UNL     1       2.119  40.634 101.578  1.00  0.00     0.207 HD
ENDBRANCH  15  17
ENDBRANCH  14  15
ENDBRANCH  12  14
ENDBRANCH   1  12
TORSDOF 4
ENDMDL
