MODEL 1
REMARK VINA RESULT: -7.886746885      0.000      0.000
REMARK  8 active torsions:
REMARK  status: ('A' for Active; 'I' for Inactive)
REMARK    1  A    between atoms: C2_2  and  C3_3 
REMARK    2  A    between atoms: C3_3  and  C5_5 
REMARK    3  A    between atoms: C6_7  and  O2_8 
REMARK    4  A    between atoms: C8_11  and  C9_12 
REMARK    5  A    between atoms: C9_12  and  N1_13 
REMARK    6  A    between atoms: C12_16  and  N2_17 
REMARK    7  A    between atoms: C13_18  and  O3_19 
REMARK    8  A    between atoms: C16_23  and  O4_24 
ROOT
HETATM    1  N1  UNL     1      25.844   3.169  92.598  1.00  0.00    -0.389 N 
HETATM    2  C10 UNL     1      25.392   4.495  92.315  1.00  0.00     0.124 C 
HETATM    3  C11 UNL     1      24.251   5.023  93.088  1.00  0.00     0.045 C 
HETATM    4  C12 UNL     1      23.563   3.906  93.844  1.00  0.00     0.097 C 
HETATM    5  C21 UNL     1      24.653   3.379  94.777  1.00  0.00     0.045 C 
HETATM    6  C22 UNL     1      25.589   2.613  93.873  1.00  0.00     0.124 C 
ENDROOT
BRANCH   4   7
HETATM    7  N2  UNL     1      22.371   4.267  94.512  1.00  0.00    -0.303 N 
HETATM    8  C13 UNL     1      22.264   4.937  95.644  1.00  0.00     0.151 A 
HETATM    9  C14 UNL     1      20.946   5.108  95.953  1.00  0.00     0.004 A 
HETATM   10  C15 UNL     1      20.232   4.507  94.956  1.00  0.00     0.004 A 
HETATM   11  C20 UNL     1      20.207   5.746  97.046  1.00  0.00     0.044 C 
HETATM   12  C16 UNL     1      21.124   3.971  94.034  1.00  0.00     0.151 A 
HETATM   13  C17 UNL     1      18.754   4.485  94.954  1.00  0.00     0.044 C 
HETATM   14  C18 UNL     1      18.144   4.561  96.346  1.00  0.00     0.005 C 
HETATM   15  C19 UNL     1      19.122   4.732  97.452  1.00  0.00     0.005 C 
BRANCH   8  16
HETATM   16  O3  UNL     1      23.375   5.385  96.380  1.00  0.00    -0.345 OA
ATOM     17  H3  UNL     1      23.302   5.778  97.241  1.00  0.00     0.219 HD
ENDBRANCH   8  16
BRANCH  12  18
HETATM   18  O4  UNL     1      20.781   3.277  92.873  1.00  0.00    -0.345 OA
ATOM     19  H4  UNL     1      20.208   3.552  92.167  1.00  0.00     0.219 HD
ENDBRANCH  12  18
ENDBRANCH   4   7
BRANCH   1  20
HETATM   20  C9  UNL     1      27.103   2.895  92.036  1.00  0.00     0.099 C 
BRANCH  20  21
HETATM   21  C8  UNL     1      27.106   1.735  91.129  1.00  0.00     0.014 A 
HETATM   22  C5  UNL     1      27.961   1.718  89.978  1.00  0.00     0.071 A 
HETATM   23  O1  UNL     1      27.757   0.613  89.374  1.00  0.00    -0.291 OA
HETATM   24  C6  UNL     1      26.862  -0.132  89.985  1.00  0.00     0.184 A 
HETATM   25  C7  UNL     1      26.440   0.558  91.087  1.00  0.00     0.079 A 
BRANCH  22  26
HETATM   26  C3  UNL     1      28.845   2.883  89.765  1.00  0.00     0.039 C 
HETATM   27  C4  UNL     1      30.282   2.323  90.137  1.00  0.00     0.017 C 
BRANCH  26  28
HETATM   28  C2  UNL     1      28.996   3.289  88.308  1.00  0.00     0.006 C 
HETATM   29  C1  UNL     1      29.251   4.769  88.169  1.00  0.00     0.006 C 
ENDBRANCH  26  28
ENDBRANCH  22  26
BRANCH  24  30
HETATM   30  O2  UNL     1      26.382  -1.397  89.637  1.00  0.00    -0.341 OA
ATOM     31  H2  UNL     1      25.657  -1.627  89.066  1.00  0.00     0.220 HD
ENDBRANCH  24  30
ENDBRANCH  20  21
ENDBRANCH   1  20
TORSDOF 8
ENDMDL
MODEL 2
REMARK VINA RESULT: -7.878348353      1.828      2.842
REMARK  8 active torsions:
REMARK  status: ('A' for Active; 'I' for Inactive)
REMARK    1  A    between atoms: C2_2  and  C3_3 
REMARK    2  A    between atoms: C3_3  and  C5_5 
REMARK    3  A    between atoms: C6_7  and  O2_8 
REMARK    4  A    between atoms: C8_11  and  C9_12 
REMARK    5  A    between atoms: C9_12  and  N1_13 
REMARK    6  A    between atoms: C12_16  and  N2_17 
REMARK    7  A    between atoms: C13_18  and  O3_19 
REMARK    8  A    between atoms: C16_23  and  O4_24 
ROOT
HETATM    1  N1  UNL     1      25.530   2.297  92.682  1.00  0.00    -0.389 N 
HETATM    2  C10 UNL     1      24.850   1.401  93.565  1.00  0.00     0.124 C 
HETATM    3  C11 UNL     1      23.560   1.832  94.139  1.00  0.00     0.045 C 
HETATM    4  C12 UNL     1      23.352   3.315  93.914  1.00  0.00     0.097 C 
HETATM    5  C21 UNL     1      23.341   3.450  92.392  1.00  0.00     0.045 C 
HETATM    6  C22 UNL     1      24.782   3.274  91.984  1.00  0.00     0.124 C 
ENDROOT
BRANCH   4   7
HETATM    7  N2  UNL     1      22.214   3.873  94.542  1.00  0.00    -0.303 N 
HETATM    8  C13 UNL     1      22.197   4.691  95.577  1.00  0.00     0.151 A 
HETATM    9  C14 UNL     1      20.908   5.026  95.874  1.00  0.00     0.004 A 
HETATM   10  C15 UNL     1      20.119   4.374  94.973  1.00  0.00     0.004 A 
HETATM   11  C20 UNL     1      20.258   5.868  96.882  1.00  0.00     0.044 C 
HETATM   12  C16 UNL     1      20.935   3.639  94.119  1.00  0.00     0.151 A 
HETATM   13  C17 UNL     1      18.645   4.493  94.989  1.00  0.00     0.044 C 
HETATM   14  C18 UNL     1      18.077   4.807  96.364  1.00  0.00     0.005 C 
HETATM   15  C19 UNL     1      19.092   5.024  97.428  1.00  0.00     0.005 C 
BRANCH   8  16
HETATM   16  O3  UNL     1      23.362   5.121  96.237  1.00  0.00    -0.345 OA
ATOM     17  H3  UNL     1      23.842   4.576  96.850  1.00  0.00     0.219 HD
ENDBRANCH   8  16
BRANCH  12  18
HETATM   18  O4  UNL     1      20.502   2.838  93.063  1.00  0.00    -0.345 OA
ATOM     19  H4  UNL     1      19.615   2.699  92.749  1.00  0.00     0.219 HD
ENDBRANCH  12  18
ENDBRANCH   4   7
BRANCH   1  20
HETATM   20  C9  UNL     1      26.564   1.670  91.967  1.00  0.00     0.099 C 
BRANCH  20  21
HETATM   21  C8  UNL     1      27.376   2.599  91.164  1.00  0.00     0.014 A 
HETATM   22  C5  UNL     1      28.334   3.457  91.797  1.00  0.00     0.071 A 
HETATM   23  O1  UNL     1      28.881   4.153  90.878  1.00  0.00    -0.291 OA
HETATM   24  C6  UNL     1      28.411   3.863  89.685  1.00  0.00     0.184 A 
HETATM   25  C7  UNL     1      27.462   2.892  89.845  1.00  0.00     0.079 A 
BRANCH  22  26
HETATM   26  C3  UNL     1      28.488   3.347  93.263  1.00  0.00     0.039 C 
HETATM   27  C4  UNL     1      29.957   2.772  93.432  1.00  0.00     0.017 C 
BRANCH  26  28
HETATM   28  C2  UNL     1      28.553   4.685  93.983  1.00  0.00     0.006 C 
HETATM   29  C1  UNL     1      27.219   5.387  93.966  1.00  0.00     0.006 C 
ENDBRANCH  26  28
ENDBRANCH  22  26
BRANCH  24  30
HETATM   30  O2  UNL     1      28.761   4.401  88.444  1.00  0.00    -0.341 OA
ATOM     31  H2  UNL     1      29.190   5.226  88.247  1.00  0.00     0.220 HD
ENDBRANCH  24  30
ENDBRANCH  20  21
ENDBRANCH   1  20
TORSDOF 8
ENDMDL
MODEL 3
REMARK VINA RESULT: -7.796635559      1.732      2.369
REMARK  8 active torsions:
REMARK  status: ('A' for Active; 'I' for Inactive)
REMARK    1  A    between atoms: C2_2  and  C3_3 
REMARK    2  A    between atoms: C3_3  and  C5_5 
REMARK    3  A    between atoms: C6_7  and  O2_8 
REMARK    4  A    between atoms: C8_11  and  C9_12 
REMARK    5  A    between atoms: C9_12  and  N1_13 
REMARK    6  A    between atoms: C12_16  and  N2_17 
REMARK    7  A    between atoms: C13_18  and  O3_19 
REMARK    8  A    between atoms: C16_23  and  O4_24 
ROOT
HETATM    1  N1  UNL     1      25.392   2.871  92.093  1.00  0.00    -0.389 N 
HETATM    2  C10 UNL     1      24.604   1.809  92.636  1.00  0.00     0.124 C 
HETATM    3  C11 UNL     1      23.330   2.152  93.299  1.00  0.00     0.045 C 
HETATM    4  C12 UNL     1      23.253   3.643  93.553  1.00  0.00     0.097 C 
HETATM    5  C21 UNL     1      23.317   4.250  92.151  1.00  0.00     0.045 C 
HETATM    6  C22 UNL     1      24.755   4.081  91.729  1.00  0.00     0.124 C 
ENDROOT
BRANCH   4   7
HETATM    7  N2  UNL     1      22.138   4.075  94.308  1.00  0.00    -0.303 N 
HETATM    8  C13 UNL     1      22.154   4.839  95.384  1.00  0.00     0.151 A 
HETATM    9  C14 UNL     1      20.876   5.053  95.812  1.00  0.00     0.004 A 
HETATM   10  C15 UNL     1      20.060   4.383  94.949  1.00  0.00     0.004 A 
HETATM   11  C20 UNL     1      20.260   5.790  96.918  1.00  0.00     0.044 C 
HETATM   12  C16 UNL     1      20.847   3.759  93.988  1.00  0.00     0.151 A 
HETATM   13  C17 UNL     1      18.589   4.381  95.102  1.00  0.00     0.044 C 
HETATM   14  C18 UNL     1      18.128   4.581  96.537  1.00  0.00     0.005 C 
HETATM   15  C19 UNL     1      19.217   4.829  97.518  1.00  0.00     0.005 C 
BRANCH   8  16
HETATM   16  O3  UNL     1      23.338   5.330  95.961  1.00  0.00    -0.345 OA
ATOM     17  H3  UNL     1      24.023   5.755  95.459  1.00  0.00     0.219 HD
ENDBRANCH   8  16
BRANCH  12  18
HETATM   18  O4  UNL     1      20.381   2.976  92.931  1.00  0.00    -0.345 OA
ATOM     19  H4  UNL     1      20.522   3.095  91.999  1.00  0.00     0.219 HD
ENDBRANCH  12  18
ENDBRANCH   4   7
BRANCH   1  20
HETATM   20  C9  UNL     1      26.401   2.410  91.231  1.00  0.00     0.099 C 
BRANCH  20  21
HETATM   21  C8  UNL     1      27.758   2.535  91.789  1.00  0.00     0.014 A 
HETATM   22  C5  UNL     1      28.860   2.880  90.940  1.00  0.00     0.071 A 
HETATM   23  O1  UNL     1      29.904   2.911  91.674  1.00  0.00    -0.291 OA
HETATM   24  C6  UNL     1      29.639   2.633  92.931  1.00  0.00     0.184 A 
HETATM   25  C7  UNL     1      28.297   2.391  93.021  1.00  0.00     0.079 A 
BRANCH  22  26
HETATM   26  C3  UNL     1      28.573   3.129  89.512  1.00  0.00     0.039 C 
HETATM   27  C4  UNL     1      29.573   4.302  89.139  1.00  0.00     0.017 C 
BRANCH  26  28
HETATM   28  C2  UNL     1      29.001   2.000  88.587  1.00  0.00     0.006 C 
HETATM   29  C1  UNL     1      29.172   2.481  87.169  1.00  0.00     0.006 C 
ENDBRANCH  26  28
ENDBRANCH  22  26
BRANCH  24  30
HETATM   30  O2  UNL     1      30.508   2.575  94.023  1.00  0.00    -0.341 OA
ATOM     31  H2  UNL     1      30.348   2.246  94.900  1.00  0.00     0.220 HD
ENDBRANCH  24  30
ENDBRANCH  20  21
ENDBRANCH   1  20
TORSDOF 8
ENDMDL
MODEL 4
REMARK VINA RESULT: -7.754929384      0.983      2.019
REMARK  8 active torsions:
REMARK  status: ('A' for Active; 'I' for Inactive)
REMARK    1  A    between atoms: C2_2  and  C3_3 
REMARK    2  A    between atoms: C3_3  and  C5_5 
REMARK    3  A    between atoms: C6_7  and  O2_8 
REMARK    4  A    between atoms: C8_11  and  C9_12 
REMARK    5  A    between atoms: C9_12  and  N1_13 
REMARK    6  A    between atoms: C12_16  and  N2_17 
REMARK    7  A    between atoms: C13_18  and  O3_19 
REMARK    8  A    between atoms: C16_23  and  O4_24 
ROOT
HETATM    1  N1  UNL     1      25.798   4.119  91.800  1.00  0.00    -0.389 N 
HETATM    2  C10 UNL     1      25.056   5.337  91.701  1.00  0.00     0.124 C 
HETATM    3  C11 UNL     1      23.920   5.539  92.623  1.00  0.00     0.045 C 
HETATM    4  C12 UNL     1      23.562   4.239  93.312  1.00  0.00     0.097 C 
HETATM    5  C21 UNL     1      24.830   3.880  94.084  1.00  0.00     0.045 C 
HETATM    6  C22 UNL     1      25.800   3.413  93.027  1.00  0.00     0.124 C 
ENDROOT
BRANCH   4   7
HETATM    7  N2  UNL     1      22.399   4.276  94.116  1.00  0.00    -0.303 N 
HETATM    8  C13 UNL     1      21.207   3.797  93.815  1.00  0.00     0.151 A 
HETATM    9  C14 UNL     1      20.353   4.005  94.858  1.00  0.00     0.004 A 
HETATM   10  C15 UNL     1      21.071   4.642  95.828  1.00  0.00     0.004 A 
HETATM   11  C20 UNL     1      18.941   3.713  95.121  1.00  0.00     0.044 C 
HETATM   12  C16 UNL     1      22.373   4.819  95.371  1.00  0.00     0.151 A 
HETATM   13  C17 UNL     1      20.468   5.039  97.117  1.00  0.00     0.044 C 
HETATM   14  C18 UNL     1      18.970   5.289  97.035  1.00  0.00     0.005 C 
HETATM   15  C19 UNL     1      18.358   5.010  95.709  1.00  0.00     0.005 C 
BRANCH   8  16
HETATM   16  O3  UNL     1      20.917   3.174  92.589  1.00  0.00    -0.345 OA
ATOM     17  H3  UNL     1      20.353   3.562  91.930  1.00  0.00     0.219 HD
ENDBRANCH   8  16
BRANCH  12  18
HETATM   18  O4  UNL     1      23.410   5.432  96.075  1.00  0.00    -0.345 OA
ATOM     19  H4  UNL     1      23.357   5.984  96.846  1.00  0.00     0.219 HD
ENDBRANCH  12  18
ENDBRANCH   4   7
BRANCH   1  20
HETATM   20  C9  UNL     1      27.018   4.171  91.106  1.00  0.00     0.099 C 
BRANCH  20  21
HETATM   21  C8  UNL     1      27.360   2.916  90.415  1.00  0.00     0.014 A 
HETATM   22  C5  UNL     1      28.389   2.896  89.418  1.00  0.00     0.071 A 
HETATM   23  O1  UNL     1      28.469   1.698  88.985  1.00  0.00    -0.291 OA
HETATM   24  C6  UNL     1      27.615   0.894  89.578  1.00  0.00     0.184 A 
HETATM   25  C7  UNL     1      26.908   1.642  90.478  1.00  0.00     0.079 A 
BRANCH  22  26
HETATM   26  C3  UNL     1      29.099   4.162  89.140  1.00  0.00     0.039 C 
HETATM   27  C4  UNL     1      30.526   3.930  89.792  1.00  0.00     0.017 C 
BRANCH  26  28
HETATM   28  C2  UNL     1      29.419   4.385  87.671  1.00  0.00     0.006 C 
HETATM   29  C1  UNL     1      30.836   3.986  87.347  1.00  0.00     0.006 C 
ENDBRANCH  26  28
ENDBRANCH  22  26
BRANCH  24  30
HETATM   30  O2  UNL     1      27.408  -0.473  89.382  1.00  0.00    -0.341 OA
ATOM     31  H2  UNL     1      26.755  -1.044  89.771  1.00  0.00     0.220 HD
ENDBRANCH  24  30
ENDBRANCH  20  21
ENDBRANCH   1  20
TORSDOF 8
ENDMDL
MODEL 5
REMARK VINA RESULT: -7.576287920      1.803      2.270
REMARK  8 active torsions:
REMARK  status: ('A' for Active; 'I' for Inactive)
REMARK    1  A    between atoms: C2_2  and  C3_3 
REMARK    2  A    between atoms: C3_3  and  C5_5 
REMARK    3  A    between atoms: C6_7  and  O2_8 
REMARK    4  A    between atoms: C8_11  and  C9_12 
REMARK    5  A    between atoms: C9_12  and  N1_13 
REMARK    6  A    between atoms: C12_16  and  N2_17 
REMARK    7  A    between atoms: C13_18  and  O3_19 
REMARK    8  A    between atoms: C16_23  and  O4_24 
ROOT
HETATM    1  N1  UNL     1      25.369   2.430  92.124  1.00  0.00    -0.389 N 
HETATM    2  C10 UNL     1      24.475   1.440  92.637  1.00  0.00     0.124 C 
HETATM    3  C11 UNL     1      23.219   1.894  93.268  1.00  0.00     0.045 C 
HETATM    4  C12 UNL     1      23.268   3.384  93.530  1.00  0.00     0.097 C 
HETATM    5  C21 UNL     1      23.425   3.990  92.135  1.00  0.00     0.045 C 
HETATM    6  C22 UNL     1      24.854   3.694  91.751  1.00  0.00     0.124 C 
ENDROOT
BRANCH   4   7
HETATM    7  N2  UNL     1      22.177   3.911  94.258  1.00  0.00    -0.303 N 
HETATM    8  C13 UNL     1      22.231   4.716  95.302  1.00  0.00     0.151 A 
HETATM    9  C14 UNL     1      20.965   5.022  95.710  1.00  0.00     0.004 A 
HETATM   10  C15 UNL     1      20.116   4.365  94.869  1.00  0.00     0.004 A 
HETATM   11  C20 UNL     1      20.386   5.839  96.780  1.00  0.00     0.044 C 
HETATM   12  C16 UNL     1      20.871   3.657  93.940  1.00  0.00     0.151 A 
HETATM   13  C17 UNL     1      18.647   4.455  95.009  1.00  0.00     0.044 C 
HETATM   14  C18 UNL     1      18.190   4.741  96.431  1.00  0.00     0.005 C 
HETATM   15  C19 UNL     1      19.286   4.965  97.410  1.00  0.00     0.005 C 
BRANCH   8  16
HETATM   16  O3  UNL     1      23.438   5.161  95.868  1.00  0.00    -0.345 OA
ATOM     17  H3  UNL     1      24.061   5.706  95.402  1.00  0.00     0.219 HD
ENDBRANCH   8  16
BRANCH  12  18
HETATM   18  O4  UNL     1      20.366   2.860  92.913  1.00  0.00    -0.345 OA
ATOM     19  H4  UNL     1      19.491   2.504  92.815  1.00  0.00     0.219 HD
ENDBRANCH  12  18
ENDBRANCH   4   7
BRANCH   1  20
HETATM   20  C9  UNL     1      26.356   1.884  91.286  1.00  0.00     0.099 C 
BRANCH  20  21
HETATM   21  C8  UNL     1      27.526   1.363  92.012  1.00  0.00     0.014 A 
HETATM   22  C5  UNL     1      28.695   2.176  92.179  1.00  0.00     0.071 A 
HETATM   23  O1  UNL     1      29.546   1.481  92.830  1.00  0.00    -0.291 OA
HETATM   24  C6  UNL     1      29.088   0.287  93.135  1.00  0.00     0.184 A 
HETATM   25  C7  UNL     1      27.822   0.194  92.626  1.00  0.00     0.079 A 
BRANCH  22  26
HETATM   26  C3  UNL     1      28.663   3.545  91.623  1.00  0.00     0.039 C 
HETATM   27  C4  UNL     1      28.435   4.452  92.905  1.00  0.00     0.017 C 
BRANCH  26  28
HETATM   28  C2  UNL     1      30.000   4.029  91.087  1.00  0.00     0.006 C 
HETATM   29  C1  UNL     1      29.955   4.238  89.595  1.00  0.00     0.006 C 
ENDBRANCH  26  28
ENDBRANCH  22  26
BRANCH  24  30
HETATM   30  O2  UNL     1      29.713  -0.744  93.838  1.00  0.00    -0.341 OA
ATOM     31  H2  UNL     1      30.326  -0.691  94.563  1.00  0.00     0.220 HD
ENDBRANCH  24  30
ENDBRANCH  20  21
ENDBRANCH   1  20
TORSDOF 8
ENDMDL
