MODEL 1
REMARK VINA RESULT: -7.848646073      0.000      0.000
REMARK  8 active torsions:
REMARK  status: ('A' for Active; 'I' for Inactive)
REMARK    1  A    between atoms: C3_3  and  C5_5 
REMARK    2  A    between atoms: C8_8  and  C9_9 
REMARK    3  A    between atoms: C9_9  and  O1_10 
REMARK    4  A    between atoms: C13_15  and  C15_17 
REMARK    5  A    between atoms: C15_17  and  C16_18 
REMARK    6  A    between atoms: C16_18  and  C17_19 
REMARK    7  A    between atoms: C19_22  and  O3_23 
REMARK    8  A    between atoms: C20_25  and  O4_26 
ROOT
HETATM    1  C5  UNL     1      27.818   3.378  89.770  1.00  0.00     0.052 C 
HETATM    2  C6  UNL     1      28.840   4.407  89.425  1.00  0.00     0.016 C 
HETATM    3  C7  UNL     1      29.200   4.539  88.007  1.00  0.00     0.037 C 
HETATM    4  C8  UNL     1      29.139   3.374  87.142  1.00  0.00    -0.060 C 
HETATM    5  C10 UNL     1      29.139   2.053  87.208  1.00  0.00    -0.021 C 
HETATM    6  C11 UNL     1      29.204   1.013  88.244  1.00  0.00     0.038 C 
HETATM    7  C12 UNL     1      29.522   1.607  89.558  1.00  0.00     0.064 C 
HETATM    8  C13 UNL     1      30.152   0.711  90.556  1.00  0.00     0.100 C 
HETATM    9  C14 UNL     1      29.695  -0.737  90.422  1.00  0.00     0.050 C 
HETATM   10  O5  UNL     1      29.694   1.199  91.767  1.00  0.00    -0.229 OA
HETATM   11  O6  UNL     1      28.954   2.248  91.585  1.00  0.00    -0.228 OA
HETATM   12  C21 UNL     1      28.337   2.109  90.337  1.00  0.00     0.107 C 
HETATM   13  C22 UNL     1      27.238   1.116  90.503  1.00  0.00     0.050 C 
ENDROOT
BRANCH   8  14
HETATM   14  C15 UNL     1      31.628   0.720  90.418  1.00  0.00     0.048 C 
BRANCH  14  15
HETATM   15  C16 UNL     1      32.349   1.927  90.901  1.00  0.00     0.071 C 
BRANCH  15  16
HETATM   16  C17 UNL     1      32.790   2.746  89.711  1.00  0.00     0.088 A 
HETATM   17  O2  UNL     1      32.256   2.695  88.516  1.00  0.00    -0.321 OA
HETATM   18  C18 UNL     1      32.832   3.506  87.686  1.00  0.00     0.181 A 
HETATM   19  C19 UNL     1      33.833   4.152  88.377  1.00  0.00     0.123 A 
HETATM   20  C20 UNL     1      33.797   3.664  89.652  1.00  0.00     0.130 A 
BRANCH  19  21
HETATM   21  O3  UNL     1      34.704   5.113  87.862  1.00  0.00    -0.356 OA
ATOM     22  H3  UNL     1      34.672   6.048  88.029  1.00  0.00     0.218 HD
ENDBRANCH  19  21
BRANCH  20  23
HETATM   23  O4  UNL     1      34.615   4.014  90.716  1.00  0.00    -0.356 OA
ATOM     24  H4  UNL     1      34.894   4.899  90.919  1.00  0.00     0.218 HD
ENDBRANCH  20  23
ENDBRANCH  15  16
ENDBRANCH  14  15
ENDBRANCH   8  14
BRANCH   1  25
HETATM   25  C3  UNL     1      26.768   3.927  90.682  1.00  0.00    -0.081 C 
HETATM   26  C2  UNL     1      27.074   4.623  91.777  1.00  0.00    -0.028 C 
HETATM   27  C1  UNL     1      26.011   5.153  92.660  1.00  0.00     0.036 C 
HETATM   28  C4  UNL     1      25.318   3.692  90.364  1.00  0.00     0.043 C 
ENDBRANCH   1  25
BRANCH   4  29
HETATM   29  C9  UNL     1      29.049   3.794  85.714  1.00  0.00     0.198 C 
BRANCH  29  30
HETATM   30  O1  UNL     1      28.282   4.928  85.534  1.00  0.00    -0.397 OA
ATOM     31  H1  UNL     1      27.684   5.088  86.255  1.00  0.00     0.209 HD
ENDBRANCH  29  30
ENDBRANCH   4  29
TORSDOF 8
ENDMDL
MODEL 2
REMARK VINA RESULT: -7.712963397      2.466      6.242
REMARK  8 active torsions:
REMARK  status: ('A' for Active; 'I' for Inactive)
REMARK    1  A    between atoms: C3_3  and  C5_5 
REMARK    2  A    between atoms: C8_8  and  C9_9 
REMARK    3  A    between atoms: C9_9  and  O1_10 
REMARK    4  A    between atoms: C13_15  and  C15_17 
REMARK    5  A    between atoms: C15_17  and  C16_18 
REMARK    6  A    between atoms: C16_18  and  C17_19 
REMARK    7  A    between atoms: C19_22  and  O3_23 
REMARK    8  A    between atoms: C20_25  and  O4_26 
ROOT
HETATM    1  C5  UNL     1      30.628   1.100  88.173  1.00  0.00     0.052 C 
HETATM    2  C6  UNL     1      29.349   0.775  87.481  1.00  0.00     0.016 C 
HETATM    3  C7  UNL     1      28.891   1.717  86.451  1.00  0.00     0.037 C 
HETATM    4  C8  UNL     1      29.218   3.127  86.575  1.00  0.00    -0.060 C 
HETATM    5  C10 UNL     1      29.579   4.014  87.486  1.00  0.00    -0.021 C 
HETATM    6  C11 UNL     1      29.854   4.045  88.929  1.00  0.00     0.038 C 
HETATM    7  C12 UNL     1      29.458   2.770  89.561  1.00  0.00     0.064 C 
HETATM    8  C13 UNL     1      29.149   2.816  91.010  1.00  0.00     0.100 C 
HETATM    9  C14 UNL     1      29.973   3.858  91.757  1.00  0.00     0.050 C 
HETATM   10  O5  UNL     1      29.522   1.563  91.462  1.00  0.00    -0.229 OA
HETATM   11  O6  UNL     1      29.940   0.829  90.479  1.00  0.00    -0.228 OA
HETATM   12  C21 UNL     1      30.504   1.690  89.530  1.00  0.00     0.107 C 
HETATM   13  C22 UNL     1      31.838   2.101  90.052  1.00  0.00     0.050 C 
ENDROOT
BRANCH   8  14
HETATM   14  C15 UNL     1      27.720   3.142  91.236  1.00  0.00     0.048 C 
BRANCH  14  15
HETATM   15  C16 UNL     1      27.404   4.079  92.345  1.00  0.00     0.071 C 
BRANCH  15  16
HETATM   16  C17 UNL     1      26.158   4.856  91.994  1.00  0.00     0.088 A 
HETATM   17  O2  UNL     1      25.417   4.660  90.931  1.00  0.00    -0.321 OA
HETATM   18  C18 UNL     1      24.407   5.469  90.881  1.00  0.00     0.181 A 
HETATM   19  C19 UNL     1      24.475   6.275  91.996  1.00  0.00     0.123 A 
HETATM   20  C20 UNL     1      25.583   5.878  92.689  1.00  0.00     0.130 A 
BRANCH  19  21
HETATM   21  O3  UNL     1      23.581   7.290  92.336  1.00  0.00    -0.356 OA
ATOM     22  H3  UNL     1      23.605   7.819  93.126  1.00  0.00     0.218 HD
ENDBRANCH  19  21
BRANCH  20  23
HETATM   23  O4  UNL     1      26.064   6.396  93.883  1.00  0.00    -0.356 OA
ATOM     24  H4  UNL     1      25.713   7.159  94.326  1.00  0.00     0.218 HD
ENDBRANCH  20  23
ENDBRANCH  15  16
ENDBRANCH  14  15
ENDBRANCH   8  14
BRANCH   1  25
HETATM   25  C3  UNL     1      31.538  -0.084  88.237  1.00  0.00    -0.081 C 
HETATM   26  C2  UNL     1      32.796  -0.035  87.796  1.00  0.00    -0.028 C 
HETATM   27  C1  UNL     1      33.673  -1.224  87.872  1.00  0.00     0.036 C 
HETATM   28  C4  UNL     1      31.032  -1.376  88.812  1.00  0.00     0.043 C 
ENDBRANCH   1  25
BRANCH   4  29
HETATM   29  C9  UNL     1      29.114   3.800  85.248  1.00  0.00     0.198 C 
BRANCH  29  30
HETATM   30  O1  UNL     1      28.321   4.930  85.280  1.00  0.00    -0.397 OA
ATOM     31  H1  UNL     1      27.534   4.845  84.754  1.00  0.00     0.209 HD
ENDBRANCH  29  30
ENDBRANCH   4  29
TORSDOF 8
ENDMDL
MODEL 3
REMARK VINA RESULT: -7.676440023      2.200      2.517
REMARK  8 active torsions:
REMARK  status: ('A' for Active; 'I' for Inactive)
REMARK    1  A    between atoms: C3_3  and  C5_5 
REMARK    2  A    between atoms: C8_8  and  C9_9 
REMARK    3  A    between atoms: C9_9  and  O1_10 
REMARK    4  A    between atoms: C13_15  and  C15_17 
REMARK    5  A    between atoms: C15_17  and  C16_18 
REMARK    6  A    between atoms: C16_18  and  C17_19 
REMARK    7  A    between atoms: C19_22  and  O3_23 
REMARK    8  A    between atoms: C20_25  and  O4_26 
ROOT
HETATM    1  C5  UNL     1      28.410   3.148  89.530  1.00  0.00     0.052 C 
HETATM    2  C6  UNL     1      29.641   3.889  89.133  1.00  0.00     0.016 C 
HETATM    3  C7  UNL     1      29.833   4.142  87.699  1.00  0.00     0.037 C 
HETATM    4  C8  UNL     1      29.308   3.197  86.729  1.00  0.00    -0.060 C 
HETATM    5  C10 UNL     1      28.915   1.938  86.641  1.00  0.00    -0.021 C 
HETATM    6  C11 UNL     1      28.798   0.768  87.523  1.00  0.00     0.038 C 
HETATM    7  C12 UNL     1      29.452   1.027  88.821  1.00  0.00     0.064 C 
HETATM    8  C13 UNL     1      29.906  -0.159  89.584  1.00  0.00     0.100 C 
HETATM    9  C14 UNL     1      29.018  -1.378  89.364  1.00  0.00     0.050 C 
HETATM   10  O5  UNL     1      29.782   0.236  90.904  1.00  0.00    -0.229 OA
HETATM   11  O6  UNL     1      29.378   1.465  90.976  1.00  0.00    -0.228 OA
HETATM   12  C21 UNL     1      28.588   1.709  89.846  1.00  0.00     0.107 C 
HETATM   13  C22 UNL     1      27.272   1.053  90.085  1.00  0.00     0.050 C 
ENDROOT
BRANCH   8  14
HETATM   14  C15 UNL     1      31.284  -0.544  89.192  1.00  0.00     0.048 C 
BRANCH  14  15
HETATM   15  C16 UNL     1      32.228   0.555  88.860  1.00  0.00     0.071 C 
BRANCH  15  16
HETATM   16  C17 UNL     1      33.199   0.069  87.810  1.00  0.00     0.088 A 
HETATM   17  O2  UNL     1      33.359  -1.179  87.446  1.00  0.00    -0.321 OA
HETATM   18  C18 UNL     1      34.260  -1.309  86.524  1.00  0.00     0.181 A 
HETATM   19  C19 UNL     1      34.745  -0.051  86.248  1.00  0.00     0.123 A 
HETATM   20  C20 UNL     1      34.068   0.810  87.065  1.00  0.00     0.130 A 
BRANCH  19  21
HETATM   21  O3  UNL     1      35.732   0.268  85.315  1.00  0.00    -0.356 OA
ATOM     22  H3  UNL     1      36.571   0.673  85.500  1.00  0.00     0.218 HD
ENDBRANCH  19  21
BRANCH  20  23
HETATM   23  O4  UNL     1      34.211   2.187  87.148  1.00  0.00    -0.356 OA
ATOM     24  H4  UNL     1      34.186   2.782  86.409  1.00  0.00     0.218 HD
ENDBRANCH  20  23
ENDBRANCH  15  16
ENDBRANCH  14  15
ENDBRANCH   8  14
BRANCH   1  25
HETATM   25  C3  UNL     1      27.705   3.815  90.667  1.00  0.00    -0.081 C 
HETATM   26  C2  UNL     1      26.445   4.238  90.568  1.00  0.00    -0.028 C 
HETATM   27  C1  UNL     1      25.774   4.895  91.713  1.00  0.00     0.036 C 
HETATM   28  C4  UNL     1      28.431   4.022  91.966  1.00  0.00     0.043 C 
ENDBRANCH   1  25
BRANCH   4  29
HETATM   29  C9  UNL     1      29.162   3.851  85.397  1.00  0.00     0.198 C 
BRANCH  29  30
HETATM   30  O1  UNL     1      28.301   4.931  85.419  1.00  0.00    -0.397 OA
ATOM     31  H1  UNL     1      27.597   4.856  84.785  1.00  0.00     0.209 HD
ENDBRANCH  29  30
ENDBRANCH   4  29
TORSDOF 8
ENDMDL
MODEL 4
REMARK VINA RESULT: -7.644344193      5.747     10.554
REMARK  8 active torsions:
REMARK  status: ('A' for Active; 'I' for Inactive)
REMARK    1  A    between atoms: C3_3  and  C5_5 
REMARK    2  A    between atoms: C8_8  and  C9_9 
REMARK    3  A    between atoms: C9_9  and  O1_10 
REMARK    4  A    between atoms: C13_15  and  C15_17 
REMARK    5  A    between atoms: C15_17  and  C16_18 
REMARK    6  A    between atoms: C16_18  and  C17_19 
REMARK    7  A    between atoms: C19_22  and  O3_23 
REMARK    8  A    between atoms: C20_25  and  O4_26 
ROOT
HETATM    1  C5  UNL     1      26.381   4.469  93.186  1.00  0.00     0.052 C 
HETATM    2  C6  UNL     1      26.600   5.862  93.670  1.00  0.00     0.016 C 
HETATM    3  C7  UNL     1      27.450   6.028  94.856  1.00  0.00     0.037 C 
HETATM    4  C8  UNL     1      27.487   4.982  95.862  1.00  0.00    -0.060 C 
HETATM    5  C10 UNL     1      26.777   3.953  96.291  1.00  0.00    -0.021 C 
HETATM    6  C11 UNL     1      25.508   3.290  95.959  1.00  0.00     0.038 C 
HETATM    7  C12 UNL     1      24.739   4.095  94.988  1.00  0.00     0.064 C 
HETATM    8  C13 UNL     1      23.272   3.886  94.967  1.00  0.00     0.100 C 
HETATM    9  C14 UNL     1      22.874   2.456  95.315  1.00  0.00     0.050 C 
HETATM   10  O5  UNL     1      22.929   4.122  93.648  1.00  0.00    -0.229 OA
HETATM   11  O6  UNL     1      23.971   4.474  92.962  1.00  0.00    -0.228 OA
HETATM   12  C21 UNL     1      25.080   3.851  93.544  1.00  0.00     0.107 C 
HETATM   13  C22 UNL     1      25.043   2.420  93.130  1.00  0.00     0.050 C 
ENDROOT
BRANCH   8  14
HETATM   14  C15 UNL     1      22.597   4.778  95.940  1.00  0.00     0.048 C 
BRANCH  14  15
HETATM   15  C16 UNL     1      21.527   5.668  95.417  1.00  0.00     0.071 C 
BRANCH  15  16
HETATM   16  C17 UNL     1      20.182   5.078  95.765  1.00  0.00     0.088 A 
HETATM   17  O2  UNL     1      19.467   5.391  96.818  1.00  0.00    -0.321 OA
HETATM   18  C18 UNL     1      18.353   4.732  96.868  1.00  0.00     0.181 A 
HETATM   19  C19 UNL     1      18.316   3.910  95.765  1.00  0.00     0.123 A 
HETATM   20  C20 UNL     1      19.475   4.137  95.077  1.00  0.00     0.130 A 
BRANCH  19  21
HETATM   21  O3  UNL     1      17.291   3.025  95.428  1.00  0.00    -0.356 OA
ATOM     22  H3  UNL     1      17.208   2.124  95.720  1.00  0.00     0.218 HD
ENDBRANCH  19  21
BRANCH  20  23
HETATM   23  O4  UNL     1      19.888   3.541  93.895  1.00  0.00    -0.356 OA
ATOM     24  H4  UNL     1      19.307   3.192  93.229  1.00  0.00     0.218 HD
ENDBRANCH  20  23
ENDBRANCH  15  16
ENDBRANCH  14  15
ENDBRANCH   8  14
BRANCH   1  25
HETATM   25  C3  UNL     1      26.584   4.359  91.709  1.00  0.00    -0.081 C 
HETATM   26  C2  UNL     1      27.680   3.809  91.184  1.00  0.00    -0.028 C 
HETATM   27  C1  UNL     1      27.852   3.715  89.717  1.00  0.00     0.036 C 
HETATM   28  C4  UNL     1      25.528   4.882  90.776  1.00  0.00     0.043 C 
ENDBRANCH   1  25
BRANCH   4  29
HETATM   29  C9  UNL     1      28.726   5.100  96.685  1.00  0.00     0.198 C 
BRANCH  29  30
HETATM   30  O1  UNL     1      28.524   5.787  97.866  1.00  0.00    -0.397 OA
ATOM     31  H1  UNL     1      29.334   5.995  98.316  1.00  0.00     0.209 HD
ENDBRANCH  29  30
ENDBRANCH   4  29
TORSDOF 8
ENDMDL
MODEL 5
REMARK VINA RESULT: -7.573267282      2.375      6.284
REMARK  8 active torsions:
REMARK  status: ('A' for Active; 'I' for Inactive)
REMARK    1  A    between atoms: C3_3  and  C5_5 
REMARK    2  A    between atoms: C8_8  and  C9_9 
REMARK    3  A    between atoms: C9_9  and  O1_10 
REMARK    4  A    between atoms: C13_15  and  C15_17 
REMARK    5  A    between atoms: C15_17  and  C16_18 
REMARK    6  A    between atoms: C16_18  and  C17_19 
REMARK    7  A    between atoms: C19_22  and  O3_23 
REMARK    8  A    between atoms: C20_25  and  O4_26 
ROOT
HETATM    1  C5  UNL     1      31.038   1.408  88.115  1.00  0.00     0.052 C 
HETATM    2  C6  UNL     1      29.826   0.844  87.456  1.00  0.00     0.016 C 
HETATM    3  C7  UNL     1      29.156   1.689  86.460  1.00  0.00     0.037 C 
HETATM    4  C8  UNL     1      29.200   3.134  86.601  1.00  0.00    -0.060 C 
HETATM    5  C10 UNL     1      29.409   4.064  87.517  1.00  0.00    -0.021 C 
HETATM    6  C11 UNL     1      29.721   4.130  88.951  1.00  0.00     0.038 C 
HETATM    7  C12 UNL     1      29.608   2.794  89.571  1.00  0.00     0.064 C 
HETATM    8  C13 UNL     1      29.345   2.758  91.029  1.00  0.00     0.100 C 
HETATM    9  C14 UNL     1      29.971   3.934  91.770  1.00  0.00     0.050 C 
HETATM   10  O5  UNL     1      29.975   1.599  91.445  1.00  0.00    -0.229 OA
HETATM   11  O6  UNL     1      30.496   0.976  90.435  1.00  0.00    -0.228 OA
HETATM   12  C21 UNL     1      30.846   1.943  89.486  1.00  0.00     0.107 C 
HETATM   13  C22 UNL     1      32.088   2.605  89.974  1.00  0.00     0.050 C 
ENDROOT
BRANCH   8  14
HETATM   14  C15 UNL     1      27.889   2.791  91.305  1.00  0.00     0.048 C 
BRANCH  14  15
HETATM   15  C16 UNL     1      27.039   3.581  90.376  1.00  0.00     0.071 C 
BRANCH  15  16
HETATM   16  C17 UNL     1      26.220   4.566  91.175  1.00  0.00     0.088 A 
HETATM   17  O2  UNL     1      26.554   5.057  92.343  1.00  0.00    -0.321 OA
HETATM   18  C18 UNL     1      25.666   5.882  92.800  1.00  0.00     0.181 A 
HETATM   19  C19 UNL     1      24.655   5.950  91.868  1.00  0.00     0.123 A 
HETATM   20  C20 UNL     1      25.016   5.116  90.848  1.00  0.00     0.130 A 
BRANCH  19  21
HETATM   21  O3  UNL     1      23.497   6.723  91.961  1.00  0.00    -0.356 OA
ATOM     22  H3  UNL     1      22.849   6.849  91.277  1.00  0.00     0.218 HD
ENDBRANCH  19  21
BRANCH  20  23
HETATM   23  O4  UNL     1      24.314   4.854  89.681  1.00  0.00    -0.356 OA
ATOM     24  H4  UNL     1      23.487   4.388  89.637  1.00  0.00     0.218 HD
ENDBRANCH  20  23
ENDBRANCH  15  16
ENDBRANCH  14  15
ENDBRANCH   8  14
BRANCH   1  25
HETATM   25  C3  UNL     1      32.167   0.428  88.128  1.00  0.00    -0.081 C 
HETATM   26  C2  UNL     1      32.077  -0.747  88.751  1.00  0.00    -0.028 C 
HETATM   27  C1  UNL     1      33.213  -1.697  88.745  1.00  0.00     0.036 C 
HETATM   28  C4  UNL     1      33.448   0.768  87.420  1.00  0.00     0.043 C 
ENDBRANCH   1  25
BRANCH   4  29
HETATM   29  C9  UNL     1      28.919   3.790  85.291  1.00  0.00     0.198 C 
BRANCH  29  30
HETATM   30  O1  UNL     1      28.261   4.997  85.424  1.00  0.00    -0.397 OA
ATOM     31  H1  UNL     1      28.654   5.692  84.909  1.00  0.00     0.209 HD
ENDBRANCH  29  30
ENDBRANCH   4  29
TORSDOF 8
ENDMDL
