MODEL 1
REMARK VINA RESULT: -7.661996941      0.000      0.000
REMARK  9 active torsions:
REMARK  status: ('A' for Active; 'I' for Inactive)
REMARK    1  A    between atoms: C2_2  and  C3_4 
REMARK    2  A    between atoms: C4_5  and  O2_6 
REMARK    3  A    between atoms: C5_8  and  C6_9 
REMARK    4  A    between atoms: C6_9  and  C7_10 
REMARK    5  A    between atoms: C11_14  and  O3_15 
REMARK    6  A    between atoms: C12_17  and  N1_18 
REMARK    7  A    between atoms: N1_18  and  O4_19 
REMARK    8  A    between atoms: N1_18  and  C13_21 
REMARK    9  A    between atoms: C21_30  and  O6_31 
ROOT
HETATM    1  C3  UNL     1      24.665   4.972  93.017  1.00  0.00     0.079 A 
HETATM    2  C4  UNL     1      23.358   4.553  93.290  1.00  0.00     0.091 A 
HETATM    3  C5  UNL     1      23.026   4.273  94.624  1.00  0.00     0.015 A 
HETATM    4  C11 UNL     1      23.979   4.419  95.591  1.00  0.00     0.107 A 
HETATM    5  C12 UNL     1      25.264   4.831  95.316  1.00  0.00     0.130 A 
HETATM    6  C21 UNL     1      25.643   5.122  94.004  1.00  0.00     0.114 A 
ENDROOT
BRANCH   5   7
HETATM    7  N1  UNL     1      26.190   4.958  96.355  1.00  0.00    -0.223 N 
BRANCH   7   8
HETATM    8  O4  UNL     1      25.971   5.877  97.224  1.00  0.00    -0.282 OA
ATOM      9  H4  UNL     1      26.481   6.676  97.148  1.00  0.00     0.245 HD
ENDBRANCH   7   8
BRANCH   7  10
HETATM   10  C13 UNL     1      27.358   4.225  96.616  1.00  0.00     0.047 C 
HETATM   11  C14 UNL     1      27.274   2.780  96.882  1.00  0.00     0.071 C 
HETATM   12  C15 UNL     1      28.525   4.827  96.661  1.00  0.00     0.012 C 
HETATM   13  C16 UNL     1      28.585   6.293  96.433  1.00  0.00     0.044 C 
HETATM   14  C20 UNL     1      29.776   4.132  96.933  1.00  0.00     0.157 C 
HETATM   15  C17 UNL     1      30.006   6.751  96.579  1.00  0.00     0.005 C 
HETATM   16  C18 UNL     1      30.680   6.247  97.839  1.00  0.00     0.008 C 
HETATM   17  C19 UNL     1      30.856   4.740  97.784  1.00  0.00     0.084 C 
HETATM   18  O5  UNL     1      29.948   2.999  96.443  1.00  0.00    -0.293 OA
ENDBRANCH   7  10
ENDBRANCH   5   7
BRANCH   4  19
HETATM   19  O3  UNL     1      23.669   4.146  96.911  1.00  0.00    -0.358 OA
ATOM     20  H3  UNL     1      23.195   3.353  97.133  1.00  0.00     0.217 HD
ENDBRANCH   4  19
BRANCH   6  21
HETATM   21  O6  UNL     1      26.877   5.520  93.732  1.00  0.00    -0.357 OA
ATOM     22  H6  UNL     1      27.085   6.416  93.493  1.00  0.00     0.217 HD
ENDBRANCH   6  21
BRANCH   3  23
HETATM   23  C6  UNL     1      21.658   3.823  94.929  1.00  0.00     0.072 C 
BRANCH  23  24
HETATM   24  C7  UNL     1      20.897   4.691  95.837  1.00  0.00    -0.020 C 
HETATM   25  C8  UNL     1      19.601   4.730  96.023  1.00  0.00    -0.091 C 
HETATM   26  C9  UNL     1      19.020   5.689  96.999  1.00  0.00     0.042 C 
HETATM   27  C10 UNL     1      18.633   3.867  95.298  1.00  0.00     0.042 C 
ENDBRANCH  23  24
ENDBRANCH   3  23
BRANCH   1  28
HETATM   28  C2  UNL     1      25.009   5.264  91.635  1.00  0.00     0.161 C 
HETATM   29  C1  UNL     1      25.911   4.476  90.801  1.00  0.00     0.097 C 
HETATM   30  O1  UNL     1      24.471   6.303  91.109  1.00  0.00    -0.293 OA
ENDBRANCH   1  28
BRANCH   2  31
HETATM   31  O2  UNL     1      22.498   4.439  92.298  1.00  0.00    -0.359 OA
ATOM     32  H2  UNL     1      21.628   4.103  92.475  1.00  0.00     0.217 HD
ENDBRANCH   2  31
TORSDOF 9
ENDMDL
MODEL 2
REMARK VINA RESULT: -7.505534445      3.691      5.640
REMARK  9 active torsions:
REMARK  status: ('A' for Active; 'I' for Inactive)
REMARK    1  A    between atoms: C2_2  and  C3_4 
REMARK    2  A    between atoms: C4_5  and  O2_6 
REMARK    3  A    between atoms: C5_8  and  C6_9 
REMARK    4  A    between atoms: C6_9  and  C7_10 
REMARK    5  A    between atoms: C11_14  and  O3_15 
REMARK    6  A    between atoms: C12_17  and  N1_18 
REMARK    7  A    between atoms: N1_18  and  O4_19 
REMARK    8  A    between atoms: N1_18  and  C13_21 
REMARK    9  A    between atoms: C21_30  and  O6_31 
ROOT
HETATM    1  C3  UNL     1      23.355   3.570  95.948  1.00  0.00     0.079 A 
HETATM    2  C4  UNL     1      22.165   4.305  95.887  1.00  0.00     0.091 A 
HETATM    3  C5  UNL     1      21.292   4.051  94.819  1.00  0.00     0.015 A 
HETATM    4  C11 UNL     1      21.633   3.107  93.892  1.00  0.00     0.107 A 
HETATM    5  C12 UNL     1      22.805   2.387  93.958  1.00  0.00     0.130 A 
HETATM    6  C21 UNL     1      23.707   2.604  95.002  1.00  0.00     0.114 A 
ENDROOT
BRANCH   5   7
HETATM    7  N1  UNL     1      23.092   1.436  92.974  1.00  0.00    -0.223 N 
BRANCH   7   8
HETATM    8  O4  UNL     1      22.175   0.579  92.705  1.00  0.00    -0.282 OA
ATOM      9  H4  UNL     1      21.307   0.751  93.050  1.00  0.00     0.245 HD
ENDBRANCH   7   8
BRANCH   7  10
HETATM   10  C13 UNL     1      24.252   1.256  92.206  1.00  0.00     0.047 C 
HETATM   11  C14 UNL     1      25.010  -0.002  92.302  1.00  0.00     0.071 C 
HETATM   12  C15 UNL     1      24.689   2.219  91.426  1.00  0.00     0.012 C 
HETATM   13  C16 UNL     1      23.935   3.498  91.374  1.00  0.00     0.044 C 
HETATM   14  C20 UNL     1      25.888   2.106  90.606  1.00  0.00     0.157 C 
HETATM   15  C17 UNL     1      24.650   4.448  90.458  1.00  0.00     0.005 C 
HETATM   16  C18 UNL     1      26.134   4.563  90.739  1.00  0.00     0.008 C 
HETATM   17  C19 UNL     1      26.839   3.256  90.424  1.00  0.00     0.084 C 
HETATM   18  O5  UNL     1      26.125   1.020  90.043  1.00  0.00    -0.293 OA
ENDBRANCH   7  10
ENDBRANCH   5   7
BRANCH   4  19
HETATM   19  O3  UNL     1      20.785   2.844  92.832  1.00  0.00    -0.358 OA
ATOM     20  H3  UNL     1      21.003   2.160  92.210  1.00  0.00     0.217 HD
ENDBRANCH   4  19
BRANCH   6  21
HETATM   21  O6  UNL     1      24.836   1.914  95.071  1.00  0.00    -0.357 OA
ATOM     22  H6  UNL     1      25.231   1.501  94.312  1.00  0.00     0.217 HD
ENDBRANCH   6  21
BRANCH   3  23
HETATM   23  C6  UNL     1      20.041   4.820  94.734  1.00  0.00     0.072 C 
BRANCH  23  24
HETATM   24  C7  UNL     1      18.818   4.073  95.059  1.00  0.00    -0.020 C 
HETATM   25  C8  UNL     1      18.139   4.080  96.179  1.00  0.00    -0.091 C 
HETATM   26  C9  UNL     1      16.914   3.247  96.309  1.00  0.00     0.042 C 
HETATM   27  C10 UNL     1      18.519   4.876  97.374  1.00  0.00     0.042 C 
ENDBRANCH  23  24
ENDBRANCH   3  23
BRANCH   1  28
HETATM   28  C2  UNL     1      24.258   3.832  97.056  1.00  0.00     0.161 C 
HETATM   29  C1  UNL     1      24.383   3.018  98.261  1.00  0.00     0.097 C 
HETATM   30  O1  UNL     1      25.008   4.869  96.961  1.00  0.00    -0.293 OA
ENDBRANCH   1  28
BRANCH   2  31
HETATM   31  O2  UNL     1      21.912   5.197  96.824  1.00  0.00    -0.359 OA
ATOM     32  H2  UNL     1      22.115   6.111  96.661  1.00  0.00     0.217 HD
ENDBRANCH   2  31
TORSDOF 9
ENDMDL
MODEL 3
REMARK VINA RESULT: -7.476673965      2.413      7.411
REMARK  9 active torsions:
REMARK  status: ('A' for Active; 'I' for Inactive)
REMARK    1  A    between atoms: C2_2  and  C3_4 
REMARK    2  A    between atoms: C4_5  and  O2_6 
REMARK    3  A    between atoms: C5_8  and  C6_9 
REMARK    4  A    between atoms: C6_9  and  C7_10 
REMARK    5  A    between atoms: C11_14  and  O3_15 
REMARK    6  A    between atoms: C12_17  and  N1_18 
REMARK    7  A    between atoms: N1_18  and  O4_19 
REMARK    8  A    between atoms: N1_18  and  C13_21 
REMARK    9  A    between atoms: C21_30  and  O6_31 
ROOT
HETATM    1  C3  UNL     1      25.876   4.007  98.145  1.00  0.00     0.079 A 
HETATM    2  C4  UNL     1      27.128   4.522  97.789  1.00  0.00     0.091 A 
HETATM    3  C5  UNL     1      27.268   5.072  96.506  1.00  0.00     0.015 A 
HETATM    4  C11 UNL     1      26.191   5.084  95.666  1.00  0.00     0.107 A 
HETATM    5  C12 UNL     1      24.962   4.575  96.023  1.00  0.00     0.130 A 
HETATM    6  C21 UNL     1      24.772   4.017  97.289  1.00  0.00     0.114 A 
ENDROOT
BRANCH   5   7
HETATM    7  N1  UNL     1      23.902   4.618  95.113  1.00  0.00    -0.223 N 
BRANCH   7   8
HETATM    8  O4  UNL     1      23.056   5.575  95.246  1.00  0.00    -0.282 OA
ATOM      9  H4  UNL     1      23.235   6.380  94.774  1.00  0.00     0.245 HD
ENDBRANCH   7   8
BRANCH   7  10
HETATM   10  C13 UNL     1      23.597   3.763  94.043  1.00  0.00     0.047 C 
HETATM   11  C14 UNL     1      23.177   2.378  94.306  1.00  0.00     0.071 C 
HETATM   12  C15 UNL     1      23.720   4.181  92.803  1.00  0.00     0.012 C 
HETATM   13  C16 UNL     1      24.187   5.569  92.556  1.00  0.00     0.044 C 
HETATM   14  C20 UNL     1      23.428   3.348  91.644  1.00  0.00     0.157 C 
HETATM   15  C17 UNL     1      24.289   5.793  91.076  1.00  0.00     0.005 C 
HETATM   16  C18 UNL     1      25.043   4.699  90.347  1.00  0.00     0.008 C 
HETATM   17  C19 UNL     1      24.271   3.393  90.399  1.00  0.00     0.084 C 
HETATM   18  O5  UNL     1      22.450   2.577  91.693  1.00  0.00    -0.293 OA
ENDBRANCH   7  10
ENDBRANCH   5   7
BRANCH   4  19
HETATM   19  O3  UNL     1      26.312   5.621  94.398  1.00  0.00    -0.358 OA
ATOM     20  H3  UNL     1      25.538   5.750  93.862  1.00  0.00     0.217 HD
ENDBRANCH   4  19
BRANCH   6  21
HETATM   21  O6  UNL     1      23.592   3.526  97.639  1.00  0.00    -0.357 OA
ATOM     22  H6  UNL     1      22.930   4.049  98.076  1.00  0.00     0.217 HD
ENDBRANCH   6  21
BRANCH   3  23
HETATM   23  C6  UNL     1      28.580   5.611  96.111  1.00  0.00     0.072 C 
BRANCH  23  24
HETATM   24  C7  UNL     1      28.899   6.944  96.640  1.00  0.00    -0.020 C 
HETATM   25  C8  UNL     1      29.897   7.289  97.416  1.00  0.00    -0.091 C 
HETATM   26  C9  UNL     1      30.048   8.705  97.845  1.00  0.00     0.042 C 
HETATM   27  C10 UNL     1      30.917   6.338  97.927  1.00  0.00     0.042 C 
ENDBRANCH  23  24
ENDBRANCH   3  23
BRANCH   1  28
HETATM   28  C2  UNL     1      25.731   3.439  99.475  1.00  0.00     0.161 C 
HETATM   29  C1  UNL     1      25.628   2.016  99.783  1.00  0.00     0.097 C 
HETATM   30  O1  UNL     1      25.691   4.262 100.458  1.00  0.00    -0.293 OA
ENDBRANCH   1  28
BRANCH   2  31
HETATM   31  O2  UNL     1      28.116   4.473  98.660  1.00  0.00    -0.359 OA
ATOM     32  H2  UNL     1      28.628   5.256  98.825  1.00  0.00     0.217 HD
ENDBRANCH   2  31
TORSDOF 9
ENDMDL
MODEL 4
REMARK VINA RESULT: -7.400307428      0.898      4.283
REMARK  9 active torsions:
REMARK  status: ('A' for Active; 'I' for Inactive)
REMARK    1  A    between atoms: C2_2  and  C3_4 
REMARK    2  A    between atoms: C4_5  and  O2_6 
REMARK    3  A    between atoms: C5_8  and  C6_9 
REMARK    4  A    between atoms: C6_9  and  C7_10 
REMARK    5  A    between atoms: C11_14  and  O3_15 
REMARK    6  A    between atoms: C12_17  and  N1_18 
REMARK    7  A    between atoms: N1_18  and  O4_19 
REMARK    8  A    between atoms: N1_18  and  C13_21 
REMARK    9  A    between atoms: C21_30  and  O6_31 
ROOT
HETATM    1  C3  UNL     1      23.012   4.323  94.593  1.00  0.00     0.079 A 
HETATM    2  C4  UNL     1      23.439   4.637  93.297  1.00  0.00     0.091 A 
HETATM    3  C5  UNL     1      24.763   5.070  93.130  1.00  0.00     0.015 A 
HETATM    4  C11 UNL     1      25.574   5.166  94.225  1.00  0.00     0.107 A 
HETATM    5  C12 UNL     1      25.148   4.857  95.498  1.00  0.00     0.130 A 
HETATM    6  C21 UNL     1      23.839   4.421  95.715  1.00  0.00     0.114 A 
ENDROOT
BRANCH   5   7
HETATM    7  N1  UNL     1      26.031   4.979  96.575  1.00  0.00    -0.223 N 
BRANCH   7   8
HETATM    8  O4  UNL     1      25.785   5.904  97.429  1.00  0.00    -0.282 OA
ATOM      9  H4  UNL     1      26.366   5.967  98.179  1.00  0.00     0.245 HD
ENDBRANCH   7   8
BRANCH   7  10
HETATM   10  C13 UNL     1      27.178   4.234  96.889  1.00  0.00     0.047 C 
HETATM   11  C14 UNL     1      27.052   2.828  97.302  1.00  0.00     0.071 C 
HETATM   12  C15 UNL     1      28.366   4.796  96.851  1.00  0.00     0.012 C 
HETATM   13  C16 UNL     1      28.470   6.228  96.472  1.00  0.00     0.044 C 
HETATM   14  C20 UNL     1      29.598   4.088  97.169  1.00  0.00     0.157 C 
HETATM   15  C17 UNL     1      29.909   6.648  96.546  1.00  0.00     0.005 C 
HETATM   16  C18 UNL     1      30.593   6.251  97.838  1.00  0.00     0.008 C 
HETATM   17  C19 UNL     1      30.717   4.741  97.934  1.00  0.00     0.084 C 
HETATM   18  O5  UNL     1      29.721   2.906  96.794  1.00  0.00    -0.293 OA
ENDBRANCH   7  10
ENDBRANCH   5   7
BRANCH   4  19
HETATM   19  O3  UNL     1      26.881   5.592  94.080  1.00  0.00    -0.358 OA
ATOM     20  H3  UNL     1      27.109   6.495  94.265  1.00  0.00     0.217 HD
ENDBRANCH   4  19
BRANCH   6  21
HETATM   21  O6  UNL     1      23.423   4.121  96.937  1.00  0.00    -0.357 OA
ATOM     22  H6  UNL     1      23.997   3.750  97.596  1.00  0.00     0.217 HD
ENDBRANCH   6  21
BRANCH   3  23
HETATM   23  C6  UNL     1      25.226   5.412  91.776  1.00  0.00     0.072 C 
BRANCH  23  24
HETATM   24  C7  UNL     1      26.289   4.553  91.238  1.00  0.00    -0.020 C 
HETATM   25  C8  UNL     1      26.168   3.390  90.646  1.00  0.00    -0.091 C 
HETATM   26  C9  UNL     1      27.378   2.672  90.166  1.00  0.00     0.042 C 
HETATM   27  C10 UNL     1      24.869   2.706  90.421  1.00  0.00     0.042 C 
ENDBRANCH  23  24
ENDBRANCH   3  23
BRANCH   1  28
HETATM   28  C2  UNL     1      21.641   3.873  94.765  1.00  0.00     0.161 C 
HETATM   29  C1  UNL     1      20.542   4.681  95.284  1.00  0.00     0.097 C 
HETATM   30  O1  UNL     1      21.380   2.663  94.430  1.00  0.00    -0.293 OA
ENDBRANCH   1  28
BRANCH   2  31
HETATM   31  O2  UNL     1      22.592   4.515  92.294  1.00  0.00    -0.359 OA
ATOM     32  H2  UNL     1      22.165   3.679  92.147  1.00  0.00     0.217 HD
ENDBRANCH   2  31
TORSDOF 9
ENDMDL
MODEL 5
REMARK VINA RESULT: -7.366777632      3.816      7.466
REMARK  9 active torsions:
REMARK  status: ('A' for Active; 'I' for Inactive)
REMARK    1  A    between atoms: C2_2  and  C3_4 
REMARK    2  A    between atoms: C4_5  and  O2_6 
REMARK    3  A    between atoms: C5_8  and  C6_9 
REMARK    4  A    between atoms: C6_9  and  C7_10 
REMARK    5  A    between atoms: C11_14  and  O3_15 
REMARK    6  A    between atoms: C12_17  and  N1_18 
REMARK    7  A    between atoms: N1_18  and  O4_19 
REMARK    8  A    between atoms: N1_18  and  C13_21 
REMARK    9  A    between atoms: C21_30  and  O6_31 
ROOT
HETATM    1  C3  UNL     1      25.876   4.613  92.151  1.00  0.00     0.079 A 
HETATM    2  C4  UNL     1      26.178   4.817  93.502  1.00  0.00     0.091 A 
HETATM    3  C5  UNL     1      27.415   4.353  93.973  1.00  0.00     0.015 A 
HETATM    4  C11 UNL     1      28.266   3.729  93.106  1.00  0.00     0.107 A 
HETATM    5  C12 UNL     1      27.963   3.531  91.777  1.00  0.00     0.130 A 
HETATM    6  C21 UNL     1      26.744   3.975  91.260  1.00  0.00     0.114 A 
ENDROOT
BRANCH   5   7
HETATM    7  N1  UNL     1      28.880   2.883  90.944  1.00  0.00    -0.223 N 
BRANCH   7   8
HETATM    8  O4  UNL     1      28.905   1.601  90.989  1.00  0.00    -0.282 OA
ATOM      9  H4  UNL     1      29.736   1.178  90.806  1.00  0.00     0.245 HD
ENDBRANCH   7   8
BRANCH   7  10
HETATM   10  C13 UNL     1      29.807   3.418  90.037  1.00  0.00     0.047 C 
HETATM   11  C14 UNL     1      30.720   4.489  90.465  1.00  0.00     0.071 C 
HETATM   12  C15 UNL     1      29.841   2.993  88.794  1.00  0.00     0.012 C 
HETATM   13  C16 UNL     1      28.883   1.941  88.368  1.00  0.00     0.044 C 
HETATM   14  C20 UNL     1      30.771   3.506  87.796  1.00  0.00     0.157 C 
HETATM   15  C17 UNL     1      29.085   1.660  86.908  1.00  0.00     0.005 C 
HETATM   16  C18 UNL     1      29.128   2.907  86.049  1.00  0.00     0.008 C 
HETATM   17  C19 UNL     1      30.361   3.733  86.368  1.00  0.00     0.084 C 
HETATM   18  O5  UNL     1      31.940   3.763  88.146  1.00  0.00    -0.293 OA
ENDBRANCH   7  10
ENDBRANCH   5   7
BRANCH   4  19
HETATM   19  O3  UNL     1      29.489   3.264  93.554  1.00  0.00    -0.358 OA
ATOM     20  H3  UNL     1      30.243   3.841  93.557  1.00  0.00     0.217 HD
ENDBRANCH   4  19
BRANCH   6  21
HETATM   21  O6  UNL     1      26.446   3.788  89.983  1.00  0.00    -0.357 OA
ATOM     22  H6  UNL     1      26.758   4.365  89.295  1.00  0.00     0.217 HD
ENDBRANCH   6  21
BRANCH   3  23
HETATM   23  C6  UNL     1      27.746   4.551  95.394  1.00  0.00     0.072 C 
BRANCH  23  24
HETATM   24  C7  UNL     1      28.440   5.806  95.710  1.00  0.00    -0.020 C 
HETATM   25  C8  UNL     1      29.505   5.978  96.453  1.00  0.00    -0.091 C 
HETATM   26  C9  UNL     1      30.061   7.343  96.651  1.00  0.00     0.042 C 
HETATM   27  C10 UNL     1      30.218   4.875  97.147  1.00  0.00     0.042 C 
ENDBRANCH  23  24
ENDBRANCH   3  23
BRANCH   1  28
HETATM   28  C2  UNL     1      24.595   5.095  91.662  1.00  0.00     0.161 C 
HETATM   29  C1  UNL     1      24.213   6.497  91.524  1.00  0.00     0.097 C 
HETATM   30  O1  UNL     1      23.731   4.209  91.324  1.00  0.00    -0.293 OA
ENDBRANCH   1  28
BRANCH   2  31
HETATM   31  O2  UNL     1      25.301   5.430  94.272  1.00  0.00    -0.359 OA
ATOM     32  H2  UNL     1      25.318   5.273  95.209  1.00  0.00     0.217 HD
ENDBRANCH   2  31
TORSDOF 9
ENDMDL
