MODEL 1
REMARK VINA RESULT: -6.751003794      0.000      0.000
REMARK  8 active torsions:
REMARK  status: ('A' for Active; 'I' for Inactive)
REMARK    1  A    between atoms: C2_2  and  C3_3 
REMARK    2  A    between atoms: C3_3  and  C5_5 
REMARK    3  A    between atoms: C6_7  and  O2_8 
REMARK    4  A    between atoms: C7_10  and  C8_11 
REMARK    5  A    between atoms: C8_11  and  C9_12 
REMARK    6  A    between atoms: C13_16  and  O3_17 
REMARK    7  A    between atoms: C18_23  and  O4_24 
REMARK    8  A    between atoms: O4_24  and  O5_25 
ROOT
HETATM    1  C5  UNL     1      25.170   5.056  93.647  1.00  0.00     0.081 A 
HETATM    2  O1  UNL     1      24.107   4.418  93.967  1.00  0.00    -0.290 OA
HETATM    3  C6  UNL     1      24.128   3.924  95.183  1.00  0.00     0.191 A 
HETATM    4  C7  UNL     1      25.336   4.266  95.736  1.00  0.00     0.024 A 
HETATM    5  C21 UNL     1      26.002   4.994  94.748  1.00  0.00     0.085 A 
HETATM    6  C22 UNL     1      27.327   5.592  94.808  1.00  0.00     0.102 C 
HETATM    7  N1  UNL     1      28.378   6.078  94.833  1.00  0.00    -0.191 NA
ENDROOT
BRANCH   1   8
HETATM    8  C3  UNL     1      25.428   5.731  92.322  1.00  0.00     0.040 C 
HETATM    9  C4  UNL     1      24.168   6.439  91.932  1.00  0.00     0.017 C 
BRANCH   8  10
HETATM   10  C2  UNL     1      25.645   4.630  91.305  1.00  0.00     0.006 C 
HETATM   11  C1  UNL     1      27.028   4.052  91.347  1.00  0.00     0.006 C 
ENDBRANCH   8  10
ENDBRANCH   1   8
BRANCH   4  12
HETATM   12  C8  UNL     1      25.880   3.945  97.064  1.00  0.00     0.051 C 
BRANCH  12  13
HETATM   13  C9  UNL     1      27.095   3.042  97.112  1.00  0.00     0.005 C 
HETATM   14  C10 UNL     1      26.848   1.653  96.673  1.00  0.00    -0.011 C 
HETATM   15  C11 UNL     1      27.097   1.488  95.173  1.00  0.00     0.010 C 
HETATM   16  C12 UNL     1      27.663   0.561  97.312  1.00  0.00     0.037 C 
HETATM   17  C13 UNL     1      27.797   0.729  98.790  1.00  0.00     0.123 C 
HETATM   18  C14 UNL     1      28.544   2.033  98.953  1.00  0.00     0.025 C 
HETATM   19  C15 UNL     1      29.943   1.830  98.456  1.00  0.00     0.008 C 
HETATM   20  C19 UNL     1      27.825   3.224  98.409  1.00  0.00    -0.005 C 
HETATM   21  C16 UNL     1      30.357   2.621  97.272  1.00  0.00     0.003 C 
HETATM   22  C17 UNL     1      29.910   4.058  97.276  1.00  0.00     0.036 C 
HETATM   23  C18 UNL     1      28.860   4.321  98.328  1.00  0.00     0.169 C 
HETATM   24  C20 UNL     1      26.865   3.684  99.521  1.00  0.00     0.019 C 
BRANCH  17  25
HETATM   25  O3  UNL     1      26.574   0.708  99.399  1.00  0.00    -0.395 OA
ATOM     26  H3  UNL     1      26.271   1.588  99.586  1.00  0.00     0.210 HD
ENDBRANCH  17  25
BRANCH  23  27
HETATM   27  O4  UNL     1      28.269   5.536  98.079  1.00  0.00    -0.237 OA
BRANCH  27  28
HETATM   28  O5  UNL     1      29.115   6.477  97.757  1.00  0.00    -0.250 OA
ATOM     29  H5  UNL     1      28.972   6.842  96.892  1.00  0.00     0.253 HD
ENDBRANCH  27  28
ENDBRANCH  23  27
ENDBRANCH  12  13
ENDBRANCH   4  12
BRANCH   3  30
HETATM   30  O2  UNL     1      23.047   3.203  95.700  1.00  0.00    -0.340 OA
ATOM     31  H2  UNL     1      22.181   3.586  95.774  1.00  0.00     0.220 HD
ENDBRANCH   3  30
TORSDOF 8
ENDMDL
MODEL 2
REMARK VINA RESULT: -6.741990906      2.543      3.811
REMARK  8 active torsions:
REMARK  status: ('A' for Active; 'I' for Inactive)
REMARK    1  A    between atoms: C2_2  and  C3_3 
REMARK    2  A    between atoms: C3_3  and  C5_5 
REMARK    3  A    between atoms: C6_7  and  O2_8 
REMARK    4  A    between atoms: C7_10  and  C8_11 
REMARK    5  A    between atoms: C8_11  and  C9_12 
REMARK    6  A    between atoms: C13_16  and  O3_17 
REMARK    7  A    between atoms: C18_23  and  O4_24 
REMARK    8  A    between atoms: O4_24  and  O5_25 
ROOT
HETATM    1  C5  UNL     1      23.001   4.065  95.878  1.00  0.00     0.081 A 
HETATM    2  O1  UNL     1      23.633   5.073  96.353  1.00  0.00    -0.290 OA
HETATM    3  C6  UNL     1      24.837   4.790  96.790  1.00  0.00     0.191 A 
HETATM    4  C7  UNL     1      25.033   3.447  96.588  1.00  0.00     0.024 A 
HETATM    5  C21 UNL     1      23.853   2.985  96.002  1.00  0.00     0.085 A 
HETATM    6  C22 UNL     1      23.523   1.631  95.584  1.00  0.00     0.102 C 
HETATM    7  N1  UNL     1      23.239   0.561  95.243  1.00  0.00    -0.191 NA
ENDROOT
BRANCH   1   8
HETATM    8  C3  UNL     1      21.605   4.090  95.305  1.00  0.00     0.040 C 
HETATM    9  C4  UNL     1      21.736   4.001  93.816  1.00  0.00     0.017 C 
BRANCH   8  10
HETATM   10  C2  UNL     1      21.030   5.457  95.613  1.00  0.00     0.006 C 
HETATM   11  C1  UNL     1      20.175   5.473  96.845  1.00  0.00     0.006 C 
ENDBRANCH   8  10
ENDBRANCH   1   8
BRANCH   4  12
HETATM   12  C8  UNL     1      26.198   2.612  96.919  1.00  0.00     0.051 C 
BRANCH  12  13
HETATM   13  C9  UNL     1      27.557   3.122  96.486  1.00  0.00     0.005 C 
HETATM   14  C10 UNL     1      27.977   2.692  95.137  1.00  0.00    -0.011 C 
HETATM   15  C11 UNL     1      27.540   3.695  94.069  1.00  0.00     0.010 C 
HETATM   16  C12 UNL     1      29.448   2.496  94.891  1.00  0.00     0.037 C 
HETATM   17  C13 UNL     1      30.132   1.780  96.009  1.00  0.00     0.123 C 
HETATM   18  C14 UNL     1      29.971   2.701  97.197  1.00  0.00     0.025 C 
HETATM   19  C15 UNL     1      30.802   3.923  96.952  1.00  0.00     0.008 C 
HETATM   20  C19 UNL     1      28.552   2.946  97.595  1.00  0.00    -0.005 C 
HETATM   21  C16 UNL     1      30.080   5.212  96.821  1.00  0.00     0.003 C 
HETATM   22  C17 UNL     1      28.960   5.419  97.804  1.00  0.00     0.036 C 
HETATM   23  C18 UNL     1      28.590   4.141  98.517  1.00  0.00     0.169 C 
HETATM   24  C20 UNL     1      28.158   1.770  98.507  1.00  0.00     0.019 C 
BRANCH  17  25
HETATM   25  O3  UNL     1      29.600   0.535  96.193  1.00  0.00    -0.395 OA
ATOM     26  H3  UNL     1      30.192  -0.019  96.687  1.00  0.00     0.210 HD
ENDBRANCH  17  25
BRANCH  23  27
HETATM   27  O4  UNL     1      27.382   4.313  99.149  1.00  0.00    -0.237 OA
BRANCH  27  28
HETATM   28  O5  UNL     1      27.465   4.330 100.452  1.00  0.00    -0.250 OA
ATOM     29  H5  UNL     1      26.842   4.912 100.868  1.00  0.00     0.253 HD
ENDBRANCH  27  28
ENDBRANCH  23  27
ENDBRANCH  12  13
ENDBRANCH   4  12
BRANCH   3  30
HETATM   30  O2  UNL     1      25.670   5.771  97.336  1.00  0.00    -0.340 OA
ATOM     31  H2  UNL     1      26.570   5.875  97.053  1.00  0.00     0.220 HD
ENDBRANCH   3  30
TORSDOF 8
ENDMDL
MODEL 3
REMARK VINA RESULT: -6.711917124      4.673      7.034
REMARK  8 active torsions:
REMARK  status: ('A' for Active; 'I' for Inactive)
REMARK    1  A    between atoms: C2_2  and  C3_3 
REMARK    2  A    between atoms: C3_3  and  C5_5 
REMARK    3  A    between atoms: C6_7  and  O2_8 
REMARK    4  A    between atoms: C7_10  and  C8_11 
REMARK    5  A    between atoms: C8_11  and  C9_12 
REMARK    6  A    between atoms: C13_16  and  O3_17 
REMARK    7  A    between atoms: C18_23  and  O4_24 
REMARK    8  A    between atoms: O4_24  and  O5_25 
ROOT
HETATM    1  C5  UNL     1      26.148   4.975  92.008  1.00  0.00     0.081 A 
HETATM    2  O1  UNL     1      26.113   4.476  90.829  1.00  0.00    -0.290 OA
HETATM    3  C6  UNL     1      27.211   3.847  90.483  1.00  0.00     0.191 A 
HETATM    4  C7  UNL     1      28.077   3.936  91.543  1.00  0.00     0.024 A 
HETATM    5  C21 UNL     1      27.392   4.660  92.521  1.00  0.00     0.085 A 
HETATM    6  C22 UNL     1      27.851   5.047  93.846  1.00  0.00     0.102 C 
HETATM    7  N1  UNL     1      28.196   5.363  94.905  1.00  0.00    -0.191 NA
ENDROOT
BRANCH   1   8
HETATM    8  C3  UNL     1      25.034   5.747  92.673  1.00  0.00     0.040 C 
HETATM    9  C4  UNL     1      24.151   4.750  93.356  1.00  0.00     0.017 C 
BRANCH   8  10
HETATM   10  C2  UNL     1      24.213   6.371  91.564  1.00  0.00     0.006 C 
HETATM   11  C1  UNL     1      23.676   7.726  91.918  1.00  0.00     0.006 C 
ENDBRANCH   8  10
ENDBRANCH   1   8
BRANCH   4  12
HETATM   12  C8  UNL     1      29.450   3.426  91.674  1.00  0.00     0.051 C 
BRANCH  12  13
HETATM   13  C9  UNL     1      29.821   2.219  90.838  1.00  0.00     0.005 C 
HETATM   14  C10 UNL     1      29.692   0.923  91.534  1.00  0.00    -0.011 C 
HETATM   15  C11 UNL     1      28.301   0.318  91.337  1.00  0.00     0.010 C 
HETATM   16  C12 UNL     1      30.640  -0.178  91.145  1.00  0.00     0.037 C 
HETATM   17  C13 UNL     1      32.046   0.299  90.981  1.00  0.00     0.123 C 
HETATM   18  C14 UNL     1      31.975   1.286  89.838  1.00  0.00     0.025 C 
HETATM   19  C15 UNL     1      31.675   0.523  88.584  1.00  0.00     0.008 C 
HETATM   20  C19 UNL     1      31.105   2.472  90.105  1.00  0.00    -0.005 C 
HETATM   21  C16 UNL     1      30.385   0.816  87.912  1.00  0.00     0.003 C 
HETATM   22  C17 UNL     1      30.015   2.273  87.847  1.00  0.00     0.036 C 
HETATM   23  C18 UNL     1      30.873   3.116  88.759  1.00  0.00     0.169 C 
HETATM   24  C20 UNL     1      31.984   3.480  90.867  1.00  0.00     0.019 C 
BRANCH  17  25
HETATM   25  O3  UNL     1      32.523   0.829  92.146  1.00  0.00    -0.395 OA
ATOM     26  H3  UNL     1      33.374   1.229  92.015  1.00  0.00     0.210 HD
ENDBRANCH  17  25
BRANCH  23  27
HETATM   27  O4  UNL     1      30.296   4.354  88.901  1.00  0.00    -0.237 OA
BRANCH  27  28
HETATM   28  O5  UNL     1      29.558   4.711  87.884  1.00  0.00    -0.250 OA
ATOM     29  H5  UNL     1      29.616   5.636  87.674  1.00  0.00     0.253 HD
ENDBRANCH  27  28
ENDBRANCH  23  27
ENDBRANCH  12  13
ENDBRANCH   4  12
BRANCH   3  30
HETATM   30  O2  UNL     1      27.344   3.236  89.232  1.00  0.00    -0.340 OA
ATOM     31  H2  UNL     1      28.124   2.747  88.996  1.00  0.00     0.220 HD
ENDBRANCH   3  30
TORSDOF 8
ENDMDL
MODEL 4
REMARK VINA RESULT: -6.677671425      1.825      6.578
REMARK  8 active torsions:
REMARK  status: ('A' for Active; 'I' for Inactive)
REMARK    1  A    between atoms: C2_2  and  C3_3 
REMARK    2  A    between atoms: C3_3  and  C5_5 
REMARK    3  A    between atoms: C6_7  and  O2_8 
REMARK    4  A    between atoms: C7_10  and  C8_11 
REMARK    5  A    between atoms: C8_11  and  C9_12 
REMARK    6  A    between atoms: C13_16  and  O3_17 
REMARK    7  A    between atoms: C18_23  and  O4_24 
REMARK    8  A    between atoms: O4_24  and  O5_25 
ROOT
HETATM    1  C5  UNL     1      28.444   3.525  97.351  1.00  0.00     0.081 A 
HETATM    2  O1  UNL     1      27.603   2.589  97.588  1.00  0.00    -0.290 OA
HETATM    3  C6  UNL     1      26.428   2.775  97.036  1.00  0.00     0.191 A 
HETATM    4  C7  UNL     1      26.486   3.966  96.357  1.00  0.00     0.024 A 
HETATM    5  C21 UNL     1      27.782   4.445  96.561  1.00  0.00     0.085 A 
HETATM    6  C22 UNL     1      28.378   5.676  96.065  1.00  0.00     0.102 C 
HETATM    7  N1  UNL     1      28.873   6.649  95.680  1.00  0.00    -0.191 NA
ENDROOT
BRANCH   1   8
HETATM    8  C3  UNL     1      29.867   3.579  97.851  1.00  0.00     0.040 C 
HETATM    9  C4  UNL     1      30.748   3.117  96.732  1.00  0.00     0.017 C 
BRANCH   8  10
HETATM   10  C2  UNL     1      29.983   2.548  98.953  1.00  0.00     0.006 C 
HETATM   11  C1  UNL     1      30.681   3.066 100.175  1.00  0.00     0.006 C 
ENDBRANCH   8  10
ENDBRANCH   1   8
BRANCH   4  12
HETATM   12  C8  UNL     1      25.440   4.656  95.587  1.00  0.00     0.051 C 
BRANCH  12  13
HETATM   13  C9  UNL     1      25.306   4.290  94.124  1.00  0.00     0.005 C 
HETATM   14  C10 UNL     1      26.114   5.117  93.204  1.00  0.00    -0.011 C 
HETATM   15  C11 UNL     1      27.497   4.507  92.971  1.00  0.00     0.010 C 
HETATM   16  C12 UNL     1      25.572   5.361  91.822  1.00  0.00     0.037 C 
HETATM   17  C13 UNL     1      24.112   5.679  91.820  1.00  0.00     0.123 C 
HETATM   18  C14 UNL     1      23.457   4.433  92.371  1.00  0.00     0.025 C 
HETATM   19  C15 UNL     1      23.618   3.339  91.360  1.00  0.00     0.008 C 
HETATM   20  C19 UNL     1      23.862   4.094  93.770  1.00  0.00    -0.005 C 
HETATM   21  C16 UNL     1      24.434   2.166  91.762  1.00  0.00     0.003 C 
HETATM   22  C17 UNL     1      24.197   1.676  93.165  1.00  0.00     0.036 C 
HETATM   23  C18 UNL     1      23.413   2.669  93.987  1.00  0.00     0.169 C 
HETATM   24  C20 UNL     1      22.951   4.928  94.688  1.00  0.00     0.019 C 
BRANCH  17  25
HETATM   25  O3  UNL     1      23.855   6.809  92.543  1.00  0.00    -0.395 OA
ATOM     26  H3  UNL     1      23.525   6.594  93.407  1.00  0.00     0.210 HD
ENDBRANCH  17  25
BRANCH  23  27
HETATM   27  O4  UNL     1      23.503   2.323  95.314  1.00  0.00    -0.237 OA
BRANCH  27  28
HETATM   28  O5  UNL     1      23.317   1.051  95.542  1.00  0.00    -0.250 OA
ATOM     29  H5  UNL     1      22.402   0.801  95.593  1.00  0.00     0.253 HD
ENDBRANCH  27  28
ENDBRANCH  23  27
ENDBRANCH  12  13
ENDBRANCH   4  12
BRANCH   3  30
HETATM   30  O2  UNL     1      25.391   1.849  97.185  1.00  0.00    -0.340 OA
ATOM     31  H2  UNL     1      24.493   2.064  96.962  1.00  0.00     0.220 HD
ENDBRANCH   3  30
TORSDOF 8
ENDMDL
MODEL 5
REMARK VINA RESULT: -6.677005239      3.184      5.525
REMARK  8 active torsions:
REMARK  status: ('A' for Active; 'I' for Inactive)
REMARK    1  A    between atoms: C2_2  and  C3_3 
REMARK    2  A    between atoms: C3_3  and  C5_5 
REMARK    3  A    between atoms: C6_7  and  O2_8 
REMARK    4  A    between atoms: C7_10  and  C8_11 
REMARK    5  A    between atoms: C8_11  and  C9_12 
REMARK    6  A    between atoms: C13_16  and  O3_17 
REMARK    7  A    between atoms: C18_23  and  O4_24 
REMARK    8  A    between atoms: O4_24  and  O5_25 
ROOT
HETATM    1  C5  UNL     1      21.421   4.667  95.474  1.00  0.00     0.081 A 
HETATM    2  O1  UNL     1      22.266   4.972  96.387  1.00  0.00    -0.290 OA
HETATM    3  C6  UNL     1      23.461   4.465  96.198  1.00  0.00     0.191 A 
HETATM    4  C7  UNL     1      23.412   3.740  95.034  1.00  0.00     0.024 A 
HETATM    5  C21 UNL     1      22.101   3.873  94.572  1.00  0.00     0.085 A 
HETATM    6  C22 UNL     1      21.504   3.300  93.375  1.00  0.00     0.102 C 
HETATM    7  N1  UNL     1      21.009   2.855  92.427  1.00  0.00    -0.191 NA
ENDROOT
BRANCH   1   8
HETATM    8  C3  UNL     1      19.978   5.107  95.425  1.00  0.00     0.040 C 
HETATM    9  C4  UNL     1      19.649   5.697  96.761  1.00  0.00     0.017 C 
BRANCH   8  10
HETATM   10  C2  UNL     1      19.143   3.852  95.284  1.00  0.00     0.006 C 
HETATM   11  C1  UNL     1      17.903   3.870  96.127  1.00  0.00     0.006 C 
ENDBRANCH   8  10
ENDBRANCH   1   8
BRANCH   4  12
HETATM   12  C8  UNL     1      24.466   2.952  94.378  1.00  0.00     0.051 C 
BRANCH  12  13
HETATM   13  C9  UNL     1      25.662   3.710  93.842  1.00  0.00     0.005 C 
HETATM   14  C10 UNL     1      25.481   4.272  92.488  1.00  0.00    -0.011 C 
HETATM   15  C11 UNL     1      24.921   5.694  92.544  1.00  0.00     0.010 C 
HETATM   16  C12 UNL     1      26.695   4.379  91.606  1.00  0.00     0.037 C 
HETATM   17  C13 UNL     1      27.559   3.162  91.660  1.00  0.00     0.123 C 
HETATM   18  C14 UNL     1      28.024   3.097  93.098  1.00  0.00     0.025 C 
HETATM   19  C15 UNL     1      28.956   4.246  93.335  1.00  0.00     0.008 C 
HETATM   20  C19 UNL     1      26.921   2.934  94.092  1.00  0.00    -0.005 C 
HETATM   21  C16 UNL     1      28.524   5.268  94.320  1.00  0.00     0.003 C 
HETATM   22  C17 UNL     1      27.892   4.722  95.571  1.00  0.00     0.036 C 
HETATM   23  C18 UNL     1      27.533   3.263  95.433  1.00  0.00     0.169 C 
HETATM   24  C20 UNL     1      26.632   1.424  94.162  1.00  0.00     0.019 C 
BRANCH  17  25
HETATM   25  O3  UNL     1      26.874   2.055  91.246  1.00  0.00    -0.395 OA
ATOM     26  H3  UNL     1      26.742   2.067  90.306  1.00  0.00     0.210 HD
ENDBRANCH  17  25
BRANCH  23  27
HETATM   27  O4  UNL     1      26.689   2.909  96.458  1.00  0.00    -0.237 OA
BRANCH  27  28
HETATM   28  O5  UNL     1      27.007   3.436  97.609  1.00  0.00    -0.250 OA
ATOM     29  H5  UNL     1      26.943   2.831  98.339  1.00  0.00     0.253 HD
ENDBRANCH  27  28
ENDBRANCH  23  27
ENDBRANCH  12  13
ENDBRANCH   4  12
BRANCH   3  30
HETATM   30  O2  UNL     1      24.508   4.701  97.094  1.00  0.00    -0.340 OA
ATOM     31  H2  UNL     1      25.324   5.100  96.814  1.00  0.00     0.220 HD
ENDBRANCH   3  30
TORSDOF 8
ENDMDL
