MODEL 1
REMARK VINA RESULT: -6.061849947      0.000      0.000
REMARK  5 active torsions:
REMARK  status: ('A' for Active; 'I' for Inactive)
REMARK    1  A    between atoms: C2_2  and  C3_3 
REMARK    2  A    between atoms: C3_3  and  C4_4 
REMARK    3  A    between atoms: C4_4  and  C5_5 
REMARK    4  A    between atoms: N2_9  and  C7_10 
REMARK    5  A    between atoms: C15_18  and  O1_19 
ROOT
HETATM    1  C7  UNL     1      34.649  10.940  -7.293  1.00  0.00     0.116 C 
HETATM    2  C8  UNL     1      33.916  11.904  -6.350  1.00  0.00     0.033 C 
HETATM    3  C9  UNL     1      35.288  12.400  -5.958  1.00  0.00     0.002 C 
HETATM    4  C10 UNL     1      35.512  12.815  -4.559  1.00  0.00    -0.001 C 
HETATM    5  C11 UNL     1      34.265  12.817  -3.686  1.00  0.00     0.033 C 
HETATM    6  C12 UNL     1      34.660  13.553  -2.458  1.00  0.00    -0.023 C 
HETATM    7  C13 UNL     1      35.851  13.452  -1.960  1.00  0.00    -0.072 C 
HETATM    8  C14 UNL     1      36.188  14.212  -0.729  1.00  0.00     0.066 C 
HETATM    9  C15 UNL     1      37.262  13.561   0.061  1.00  0.00     0.122 C 
HETATM   10  C16 UNL     1      37.506  12.124  -0.144  1.00  0.00     0.033 C 
HETATM   11  C17 UNL     1      37.132  11.535  -1.473  1.00  0.00     0.016 C 
HETATM   12  C18 UNL     1      36.917  12.617  -2.525  1.00  0.00    -0.017 C 
HETATM   13  C19 UNL     1      38.254  13.396  -2.532  1.00  0.00     0.020 C 
HETATM   14  C20 UNL     1      36.649  12.094  -3.874  1.00  0.00     0.003 C 
HETATM   15  C21 UNL     1      36.557  10.595  -4.008  1.00  0.00     0.007 C 
HETATM   16  C22 UNL     1      35.677  10.122  -5.119  1.00  0.00     0.012 C 
HETATM   17  C23 UNL     1      35.808  11.023  -6.293  1.00  0.00    -0.017 C 
HETATM   18  C24 UNL     1      37.115  10.969  -7.013  1.00  0.00     0.018 C 
ENDROOT
BRANCH   1  19
HETATM   19  N2  UNL     1      34.029   9.637  -7.367  1.00  0.00    -0.298 N 
HETATM   20  N1  UNL     1      34.595   8.474  -7.624  1.00  0.00    -0.309 N 
HETATM   21  C6  UNL     1      33.691   7.507  -7.602  1.00  0.00     0.115 A 
ATOM     22  H1  UNL     1      35.589   8.339  -7.812  1.00  0.00     0.186 HD
HETATM   23  C5  UNL     1      32.459   8.060  -7.316  1.00  0.00    -0.024 A 
HETATM   24  C25 UNL     1      32.715   9.427  -7.172  1.00  0.00     0.119 A 
BRANCH  23  25
HETATM   25  C4  UNL     1      31.145   7.378  -7.185  1.00  0.00     0.041 C 
BRANCH  25  26
HETATM   26  C3  UNL     1      30.313   8.067  -6.126  1.00  0.00     0.004 C 
BRANCH  26  27
HETATM   27  C2  UNL     1      29.030   7.290  -5.856  1.00  0.00    -0.004 C 
HETATM   28  C1  UNL     1      29.273   5.857  -6.263  1.00  0.00     0.005 C 
ENDBRANCH  26  27
ENDBRANCH  25  26
ENDBRANCH  23  25
ENDBRANCH   1  19
BRANCH   9  29
HETATM   29  O1  UNL     1      36.888  13.739   1.423  1.00  0.00    -0.395 OA
ATOM     30  H1  UNL     1      36.104  14.275   1.401  1.00  0.00     0.210 HD
ENDBRANCH   9  29
TORSDOF 5
ENDMDL
MODEL 2
REMARK VINA RESULT: -5.792134497      1.138      1.457
REMARK  5 active torsions:
REMARK  status: ('A' for Active; 'I' for Inactive)
REMARK    1  A    between atoms: C2_2  and  C3_3 
REMARK    2  A    between atoms: C3_3  and  C4_4 
REMARK    3  A    between atoms: C4_4  and  C5_5 
REMARK    4  A    between atoms: N2_9  and  C7_10 
REMARK    5  A    between atoms: C15_18  and  O1_19 
ROOT
HETATM    1  C7  UNL     1      33.372  11.337  -6.365  1.00  0.00     0.116 C 
HETATM    2  C8  UNL     1      33.050  12.439  -5.347  1.00  0.00     0.033 C 
HETATM    3  C9  UNL     1      34.536  12.708  -5.323  1.00  0.00     0.002 C 
HETATM    4  C10 UNL     1      35.155  13.122  -4.048  1.00  0.00    -0.001 C 
HETATM    5  C11 UNL     1      34.173  13.362  -2.910  1.00  0.00     0.033 C 
HETATM    6  C12 UNL     1      34.963  14.058  -1.863  1.00  0.00    -0.023 C 
HETATM    7  C13 UNL     1      36.209  13.772  -1.651  1.00  0.00    -0.072 C 
HETATM    8  C14 UNL     1      36.948  14.502  -0.590  1.00  0.00     0.066 C 
HETATM    9  C15 UNL     1      38.066  13.704  -0.029  1.00  0.00     0.122 C 
HETATM   10  C16 UNL     1      38.025  12.241  -0.183  1.00  0.00     0.033 C 
HETATM   11  C17 UNL     1      37.252  11.683  -1.344  1.00  0.00     0.016 C 
HETATM   12  C18 UNL     1      36.961  12.752  -2.390  1.00  0.00    -0.017 C 
HETATM   13  C19 UNL     1      38.362  13.294  -2.764  1.00  0.00     0.020 C 
HETATM   14  C20 UNL     1      36.296  12.242  -3.599  1.00  0.00     0.003 C 
HETATM   15  C21 UNL     1      35.941  10.776  -3.602  1.00  0.00     0.007 C 
HETATM   16  C22 UNL     1      34.755  10.424  -4.439  1.00  0.00     0.012 C 
HETATM   17  C23 UNL     1      34.738  11.253  -5.673  1.00  0.00    -0.017 C 
HETATM   18  C24 UNL     1      35.806  10.957  -6.673  1.00  0.00     0.018 C 
ENDROOT
BRANCH   1  19
HETATM   19  N2  UNL     1      32.557  10.156  -6.201  1.00  0.00    -0.298 N 
HETATM   20  N1  UNL     1      31.773   9.835  -5.190  1.00  0.00    -0.309 N 
HETATM   21  C6  UNL     1      31.190   8.668  -5.412  1.00  0.00     0.115 A 
ATOM     22  H1  UNL     1      31.635  10.406  -4.356  1.00  0.00     0.186 HD
HETATM   23  C5  UNL     1      31.610   8.188  -6.636  1.00  0.00    -0.024 A 
HETATM   24  C25 UNL     1      32.486   9.169  -7.113  1.00  0.00     0.119 A 
BRANCH  23  25
HETATM   25  C4  UNL     1      31.233   6.921  -7.315  1.00  0.00     0.041 C 
BRANCH  25  26
HETATM   26  C3  UNL     1      29.733   6.732  -7.250  1.00  0.00     0.004 C 
BRANCH  26  27
HETATM   27  C2  UNL     1      29.366   5.690  -6.200  1.00  0.00    -0.004 C 
HETATM   28  C1  UNL     1      29.434   4.335  -6.861  1.00  0.00     0.005 C 
ENDBRANCH  26  27
ENDBRANCH  25  26
ENDBRANCH  23  25
ENDBRANCH   1  19
BRANCH   9  29
HETATM   29  O1  UNL     1      38.066  13.984   1.367  1.00  0.00    -0.395 OA
ATOM     30  H1  UNL     1      38.967  14.195   1.581  1.00  0.00     0.210 HD
ENDBRANCH   9  29
TORSDOF 5
ENDMDL
MODEL 3
REMARK VINA RESULT: -5.732568913      3.278      8.484
REMARK  5 active torsions:
REMARK  status: ('A' for Active; 'I' for Inactive)
REMARK    1  A    between atoms: C2_2  and  C3_3 
REMARK    2  A    between atoms: C3_3  and  C4_4 
REMARK    3  A    between atoms: C4_4  and  C5_5 
REMARK    4  A    between atoms: N2_9  and  C7_10 
REMARK    5  A    between atoms: C15_18  and  O1_19 
ROOT
HETATM    1  C7  UNL     1      34.321  12.110  -6.251  1.00  0.00     0.116 C 
HETATM    2  C8  UNL     1      34.748  10.766  -6.857  1.00  0.00     0.033 C 
HETATM    3  C9  UNL     1      33.358  10.707  -7.444  1.00  0.00     0.002 C 
HETATM    4  C10 UNL     1      32.698   9.390  -7.557  1.00  0.00    -0.001 C 
HETATM    5  C11 UNL     1      33.573   8.203  -7.178  1.00  0.00     0.033 C 
HETATM    6  C12 UNL     1      32.831   7.012  -7.663  1.00  0.00    -0.023 C 
HETATM    7  C13 UNL     1      31.538   6.956  -7.626  1.00  0.00    -0.072 C 
HETATM    8  C14 UNL     1      30.852   5.737  -8.125  1.00  0.00     0.066 C 
HETATM    9  C15 UNL     1      29.535   5.523  -7.475  1.00  0.00     0.122 C 
HETATM   10  C16 UNL     1      29.287   6.165  -6.174  1.00  0.00     0.033 C 
HETATM   11  C17 UNL     1      30.053   7.417  -5.856  1.00  0.00     0.016 C 
HETATM   12  C18 UNL     1      30.678   8.025  -7.106  1.00  0.00    -0.017 C 
HETATM   13  C19 UNL     1      29.472   8.243  -8.052  1.00  0.00     0.020 C 
HETATM   14  C20 UNL     1      31.355   9.311  -6.873  1.00  0.00     0.003 C 
HETATM   15  C21 UNL     1      31.394   9.799  -5.447  1.00  0.00     0.007 C 
HETATM   16  C22 UNL     1      32.568  10.663  -5.116  1.00  0.00     0.012 C 
HETATM   17  C23 UNL     1      32.898  11.538  -6.271  1.00  0.00    -0.017 C 
HETATM   18  C24 UNL     1      31.912  12.617  -6.574  1.00  0.00     0.018 C 
ENDROOT
BRANCH   1  19
HETATM   19  N2  UNL     1      34.847  12.328  -4.924  1.00  0.00    -0.298 N 
HETATM   20  N1  UNL     1      34.469  13.220  -4.028  1.00  0.00    -0.309 N 
HETATM   21  C6  UNL     1      35.196  13.103  -2.928  1.00  0.00     0.115 A 
ATOM     22  H1  UNL     1      33.723  13.901  -4.164  1.00  0.00     0.186 HD
HETATM   23  C5  UNL     1      36.105  12.080  -3.104  1.00  0.00    -0.024 A 
HETATM   24  C25 UNL     1      35.851  11.606  -4.395  1.00  0.00     0.119 A 
BRANCH  23  25
HETATM   25  C4  UNL     1      37.130  11.576  -2.152  1.00  0.00     0.041 C 
BRANCH  25  26
HETATM   26  C3  UNL     1      37.972  12.728  -1.648  1.00  0.00     0.004 C 
BRANCH  26  27
HETATM   27  C2  UNL     1      38.246  12.583  -0.156  1.00  0.00    -0.004 C 
HETATM   28  C1  UNL     1      36.914  12.603   0.555  1.00  0.00     0.005 C 
ENDBRANCH  26  27
ENDBRANCH  25  26
ENDBRANCH  23  25
ENDBRANCH   1  19
BRANCH   9  29
HETATM   29  O1  UNL     1      29.435   4.117  -7.280  1.00  0.00    -0.395 OA
ATOM     30  H1  UNL     1      28.518   3.953  -7.093  1.00  0.00     0.210 HD
ENDBRANCH   9  29
TORSDOF 5
ENDMDL
MODEL 4
REMARK VINA RESULT: -5.695171136      3.339      7.982
REMARK  5 active torsions:
REMARK  status: ('A' for Active; 'I' for Inactive)
REMARK    1  A    between atoms: C2_2  and  C3_3 
REMARK    2  A    between atoms: C3_3  and  C4_4 
REMARK    3  A    between atoms: C4_4  and  C5_5 
REMARK    4  A    between atoms: N2_9  and  C7_10 
REMARK    5  A    between atoms: C15_18  and  O1_19 
ROOT
HETATM    1  C7  UNL     1      36.047  10.670  -5.586  1.00  0.00     0.116 C 
HETATM    2  C8  UNL     1      35.101   9.525  -5.196  1.00  0.00     0.033 C 
HETATM    3  C9  UNL     1      34.320   9.886  -6.438  1.00  0.00     0.002 C 
HETATM    4  C10 UNL     1      32.849   9.752  -6.407  1.00  0.00    -0.001 C 
HETATM    5  C11 UNL     1      32.292   9.126  -5.137  1.00  0.00     0.033 C 
HETATM    6  C12 UNL     1      30.878   8.806  -5.458  1.00  0.00    -0.023 C 
HETATM    7  C13 UNL     1      30.165   9.574  -6.219  1.00  0.00    -0.072 C 
HETATM    8  C14 UNL     1      28.755   9.202  -6.504  1.00  0.00     0.066 C 
HETATM    9  C15 UNL     1      27.909  10.384  -6.805  1.00  0.00     0.122 C 
HETATM   10  C16 UNL     1      28.362  11.703  -6.338  1.00  0.00     0.033 C 
HETATM   11  C17 UNL     1      29.837  11.905  -6.139  1.00  0.00     0.016 C 
HETATM   12  C18 UNL     1      30.650  10.816  -6.829  1.00  0.00    -0.017 C 
HETATM   13  C19 UNL     1      30.194  10.896  -8.306  1.00  0.00     0.020 C 
HETATM   14  C20 UNL     1      32.106  11.019  -6.755  1.00  0.00     0.003 C 
HETATM   15  C21 UNL     1      32.579  12.212  -5.964  1.00  0.00     0.007 C 
HETATM   16  C22 UNL     1      33.930  12.055  -5.348  1.00  0.00     0.012 C 
HETATM   17  C23 UNL     1      34.823  11.299  -6.264  1.00  0.00    -0.017 C 
HETATM   18  C24 UNL     1      35.233  12.011  -7.510  1.00  0.00     0.018 C 
ENDROOT
BRANCH   1  19
HETATM   19  N2  UNL     1      36.536  11.414  -4.449  1.00  0.00    -0.298 N 
HETATM   20  N1  UNL     1      37.081  12.615  -4.429  1.00  0.00    -0.309 N 
HETATM   21  C6  UNL     1      37.399  12.956  -3.190  1.00  0.00     0.115 A 
ATOM     22  H1  UNL     1      37.234  13.199  -5.252  1.00  0.00     0.186 HD
HETATM   23  C5  UNL     1      37.047  11.924  -2.344  1.00  0.00    -0.024 A 
HETATM   24  C25 UNL     1      36.496  10.954  -3.186  1.00  0.00     0.119 A 
BRANCH  23  25
HETATM   25  C4  UNL     1      37.206  11.840  -0.868  1.00  0.00     0.041 C 
BRANCH  25  26
HETATM   26  C3  UNL     1      38.366  12.706  -0.427  1.00  0.00     0.004 C 
BRANCH  26  27
HETATM   27  C2  UNL     1      38.071  13.359   0.918  1.00  0.00    -0.004 C 
HETATM   28  C1  UNL     1      36.666  12.975   1.311  1.00  0.00     0.005 C 
ENDBRANCH  26  27
ENDBRANCH  25  26
ENDBRANCH  23  25
ENDBRANCH   1  19
BRANCH   9  29
HETATM   29  O1  UNL     1      26.657  10.119  -6.182  1.00  0.00    -0.395 OA
ATOM     30  H1  UNL     1      26.000  10.343  -6.831  1.00  0.00     0.210 HD
ENDBRANCH   9  29
TORSDOF 5
ENDMDL
MODEL 5
REMARK VINA RESULT: -5.692705477      3.293      8.606
REMARK  5 active torsions:
REMARK  status: ('A' for Active; 'I' for Inactive)
REMARK    1  A    between atoms: C2_2  and  C3_3 
REMARK    2  A    between atoms: C3_3  and  C4_4 
REMARK    3  A    between atoms: C4_4  and  C5_5 
REMARK    4  A    between atoms: N2_9  and  C7_10 
REMARK    5  A    between atoms: C15_18  and  O1_19 
ROOT
HETATM    1  C7  UNL     1      34.637  11.290  -6.309  1.00  0.00     0.116 C 
HETATM    2  C8  UNL     1      34.843   9.989  -7.098  1.00  0.00     0.033 C 
HETATM    3  C9  UNL     1      33.397  10.135  -7.514  1.00  0.00     0.002 C 
HETATM    4  C10 UNL     1      32.587   8.911  -7.680  1.00  0.00    -0.001 C 
HETATM    5  C11 UNL     1      33.361   7.609  -7.535  1.00  0.00     0.033 C 
HETATM    6  C12 UNL     1      32.443   6.560  -8.046  1.00  0.00    -0.023 C 
HETATM    7  C13 UNL     1      31.163   6.627  -7.856  1.00  0.00    -0.072 C 
HETATM    8  C14 UNL     1      30.295   5.548  -8.390  1.00  0.00     0.066 C 
HETATM    9  C15 UNL     1      29.043   5.391  -7.608  1.00  0.00     0.122 C 
HETATM   10  C16 UNL     1      29.014   5.899  -6.228  1.00  0.00     0.033 C 
HETATM   11  C17 UNL     1      29.945   7.025  -5.879  1.00  0.00     0.016 C 
HETATM   12  C18 UNL     1      30.491   7.709  -7.127  1.00  0.00    -0.017 C 
HETATM   13  C19 UNL     1      29.219   8.152  -7.891  1.00  0.00     0.020 C 
HETATM   14  C20 UNL     1      31.328   8.886  -6.847  1.00  0.00     0.003 C 
HETATM   15  C21 UNL     1      31.580   9.201  -5.394  1.00  0.00     0.007 C 
HETATM   16  C22 UNL     1      32.872   9.900  -5.124  1.00  0.00     0.012 C 
HETATM   17  C23 UNL     1      33.167  10.866  -6.213  1.00  0.00    -0.017 C 
HETATM   18  C24 UNL     1      32.279  12.065  -6.280  1.00  0.00     0.018 C 
ENDROOT
BRANCH   1  19
HETATM   19  N2  UNL     1      35.329  11.301  -5.042  1.00  0.00    -0.298 N 
HETATM   20  N1  UNL     1      35.974  10.313  -4.452  1.00  0.00    -0.309 N 
HETATM   21  C6  UNL     1      36.478  10.718  -3.296  1.00  0.00     0.115 A 
ATOM     22  H1  UNL     1      36.071   9.371  -4.832  1.00  0.00     0.186 HD
HETATM   23  C5  UNL     1      36.149  12.045  -3.110  1.00  0.00    -0.024 A 
HETATM   24  C25 UNL     1      35.413  12.385  -4.250  1.00  0.00     0.119 A 
BRANCH  23  25
HETATM   25  C4  UNL     1      36.488  12.933  -1.968  1.00  0.00     0.041 C 
BRANCH  25  26
HETATM   26  C3  UNL     1      37.958  12.800  -1.634  1.00  0.00     0.004 C 
BRANCH  26  27
HETATM   27  C2  UNL     1      38.143  12.260  -0.220  1.00  0.00    -0.004 C 
HETATM   28  C1  UNL     1      36.875  12.547   0.546  1.00  0.00     0.005 C 
ENDBRANCH  26  27
ENDBRANCH  25  26
ENDBRANCH  23  25
ENDBRANCH   1  19
BRANCH   9  29
HETATM   29  O1  UNL     1      28.810   3.988  -7.549  1.00  0.00    -0.395 OA
ATOM     30  H1  UNL     1      27.894   3.875  -7.777  1.00  0.00     0.210 HD
ENDBRANCH   9  29
TORSDOF 5
ENDMDL
