MODEL 1
REMARK VINA RESULT: -5.419076040      0.000      0.000
REMARK  6 active torsions:
REMARK  status: ('A' for Active; 'I' for Inactive)
REMARK    1  A    between atoms: C3_3  and  C4_4 
REMARK    2  A    between atoms: C4_4  and  C5_5 
REMARK    3  A    between atoms: C5_5  and  C6_6 
REMARK    4  A    between atoms: C6_6  and  O1_7 
REMARK    5  A    between atoms: C6_6  and  C7_9 
REMARK    6  A    between atoms: C12_14  and  O2_15 
ROOT
HETATM    1  C7  UNL     1      32.674  10.586  -5.467  1.00  0.00     0.113 C 
HETATM    2  C8  UNL     1      33.342  10.613  -6.774  1.00  0.00     0.046 C 
HETATM    3  C9  UNL     1      32.577  10.192  -7.998  1.00  0.00     0.011 C 
HETATM    4  C10 UNL     1      31.425   9.289  -7.748  1.00  0.00     0.022 C 
HETATM    5  C11 UNL     1      30.354   9.394  -8.821  1.00  0.00     0.039 C 
HETATM    6  C12 UNL     1      29.685  10.729  -8.875  1.00  0.00     0.122 C 
HETATM    7  C13 UNL     1      29.239  11.221  -7.512  1.00  0.00     0.017 C 
HETATM    8  C14 UNL     1      29.765  12.573  -7.283  1.00  0.00     0.007 C 
HETATM    9  C15 UNL     1      30.240  12.947  -5.941  1.00  0.00     0.001 C 
HETATM   10  C16 UNL     1      31.774  12.922  -5.887  1.00  0.00     0.007 C 
HETATM   11  C17 UNL     1      32.269  11.915  -4.881  1.00  0.00     0.023 C 
HETATM   12  C18 UNL     1      33.233  12.618  -3.981  1.00  0.00     0.013 C 
HETATM   13  C19 UNL     1      29.412  10.160  -6.511  1.00  0.00     0.045 C 
HETATM   14  C20 UNL     1      30.764   9.483  -6.424  1.00  0.00     0.063 C 
HETATM   15  C21 UNL     1      30.407   8.014  -5.999  1.00  0.00     0.046 C 
HETATM   16  O3  UNL     1      31.500   9.855  -5.385  1.00  0.00    -0.362 OA
ENDROOT
BRANCH   1  17
HETATM   17  C6  UNL     1      33.578   9.907  -4.472  1.00  0.00     0.078 C 
BRANCH  17  18
HETATM   18  C5  UNL     1      34.986   9.734  -4.489  1.00  0.00     0.036 C 
BRANCH  18  19
HETATM   19  C4  UNL     1      35.953  10.247  -3.780  1.00  0.00     0.010 C 
BRANCH  19  20
HETATM   20  C3  UNL     1      36.653  11.481  -4.092  1.00  0.00    -0.056 C 
HETATM   21  C2  UNL     1      37.216  12.145  -3.074  1.00  0.00    -0.077 C 
HETATM   22  C1  UNL     1      37.118  11.624  -1.670  1.00  0.00     0.044 C 
HETATM   23  C25 UNL     1      37.965  13.414  -3.231  1.00  0.00     0.034 C 
HETATM   24  C24 UNL     1      37.977  13.973  -4.609  1.00  0.00     0.005 C 
HETATM   25  C23 UNL     1      36.687  13.578  -5.286  1.00  0.00     0.005 C 
HETATM   26  C22 UNL     1      36.783  12.052  -5.459  1.00  0.00     0.039 C 
ENDBRANCH  19  20
ENDBRANCH  18  19
ENDBRANCH  17  18
BRANCH  17  27
HETATM   27  O1  UNL     1      33.018   9.377  -3.415  1.00  0.00    -0.362 OA
ATOM     28  H1  UNL     1      32.379   9.952  -3.012  1.00  0.00     0.217 HD
ENDBRANCH  17  27
ENDBRANCH   1  17
BRANCH   6  29
HETATM   29  O2  UNL     1      28.609  10.589  -9.779  1.00  0.00    -0.395 OA
ATOM     30  H2  UNL     1      28.575  11.399 -10.274  1.00  0.00     0.210 HD
ENDBRANCH   6  29
TORSDOF 6
ENDMDL
MODEL 2
REMARK VINA RESULT: -5.330772174      2.971      7.779
REMARK  6 active torsions:
REMARK  status: ('A' for Active; 'I' for Inactive)
REMARK    1  A    between atoms: C3_3  and  C4_4 
REMARK    2  A    between atoms: C4_4  and  C5_5 
REMARK    3  A    between atoms: C5_5  and  C6_6 
REMARK    4  A    between atoms: C6_6  and  O1_7 
REMARK    5  A    between atoms: C6_6  and  C7_9 
REMARK    6  A    between atoms: C12_14  and  O2_15 
ROOT
HETATM    1  C7  UNL     1      35.966  11.808  -3.889  1.00  0.00     0.113 C 
HETATM    2  C8  UNL     1      34.826  12.691  -3.612  1.00  0.00     0.046 C 
HETATM    3  C9  UNL     1      34.923  13.685  -2.488  1.00  0.00     0.011 C 
HETATM    4  C10 UNL     1      35.904  13.348  -1.425  1.00  0.00     0.022 C 
HETATM    5  C11 UNL     1      36.427  14.577  -0.699  1.00  0.00     0.039 C 
HETATM    6  C12 UNL     1      37.224  15.495  -1.567  1.00  0.00     0.122 C 
HETATM    7  C13 UNL     1      38.277  14.770  -2.382  1.00  0.00     0.017 C 
HETATM    8  C14 UNL     1      38.131  15.126  -3.799  1.00  0.00     0.007 C 
HETATM    9  C15 UNL     1      38.334  14.095  -4.829  1.00  0.00     0.001 C 
HETATM   10  C16 UNL     1      36.984  13.601  -5.369  1.00  0.00     0.007 C 
HETATM   11  C17 UNL     1      36.796  12.129  -5.106  1.00  0.00     0.023 C 
HETATM   12  C18 UNL     1      36.433  11.484  -6.404  1.00  0.00     0.013 C 
HETATM   13  C19 UNL     1      38.366  13.366  -1.958  1.00  0.00     0.045 C 
HETATM   14  C20 UNL     1      37.082  12.563  -1.898  1.00  0.00     0.063 C 
HETATM   15  C21 UNL     1      37.333  11.569  -0.709  1.00  0.00     0.046 C 
HETATM   16  O3  UNL     1      36.925  11.702  -2.894  1.00  0.00    -0.362 OA
ENDROOT
BRANCH   1  17
HETATM   17  C6  UNL     1      35.463  10.396  -4.041  1.00  0.00     0.078 C 
BRANCH  17  18
HETATM   18  C5  UNL     1      34.150   9.916  -4.283  1.00  0.00     0.036 C 
BRANCH  18  19
HETATM   19  C4  UNL     1      33.367   9.961  -5.325  1.00  0.00     0.010 C 
BRANCH  19  20
HETATM   20  C3  UNL     1      33.276   8.930  -6.346  1.00  0.00    -0.056 C 
HETATM   21  C2  UNL     1      32.080   8.361  -6.543  1.00  0.00    -0.077 C 
HETATM   22  C1  UNL     1      30.888   8.780  -5.733  1.00  0.00     0.044 C 
HETATM   23  C25 UNL     1      31.826   7.301  -7.546  1.00  0.00     0.034 C 
HETATM   24  C24 UNL     1      33.030   6.824  -8.278  1.00  0.00     0.005 C 
HETATM   25  C23 UNL     1      34.219   6.953  -7.358  1.00  0.00     0.005 C 
HETATM   26  C22 UNL     1      34.419   8.468  -7.179  1.00  0.00     0.039 C 
ENDBRANCH  19  20
ENDBRANCH  18  19
ENDBRANCH  17  18
BRANCH  17  27
HETATM   27  O1  UNL     1      36.341   9.431  -3.935  1.00  0.00    -0.362 OA
ATOM     28  H1  UNL     1      36.239   8.929  -3.135  1.00  0.00     0.217 HD
ENDBRANCH  17  27
ENDBRANCH   1  17
BRANCH   6  29
HETATM   29  O2  UNL     1      37.781  16.463  -0.702  1.00  0.00    -0.395 OA
ATOM     30  H2  UNL     1      37.340  17.279  -0.903  1.00  0.00     0.210 HD
ENDBRANCH   6  29
TORSDOF 6
ENDMDL
MODEL 3
REMARK VINA RESULT: -5.167701158      3.758      7.675
REMARK  6 active torsions:
REMARK  status: ('A' for Active; 'I' for Inactive)
REMARK    1  A    between atoms: C3_3  and  C4_4 
REMARK    2  A    between atoms: C4_4  and  C5_5 
REMARK    3  A    between atoms: C5_5  and  C6_6 
REMARK    4  A    between atoms: C6_6  and  O1_7 
REMARK    5  A    between atoms: C6_6  and  C7_9 
REMARK    6  A    between atoms: C12_14  and  O2_15 
ROOT
HETATM    1  C7  UNL     1      35.887  12.178  -3.988  1.00  0.00     0.113 C 
HETATM    2  C8  UNL     1      34.776  13.053  -3.596  1.00  0.00     0.046 C 
HETATM    3  C9  UNL     1      34.922  13.923  -2.379  1.00  0.00     0.011 C 
HETATM    4  C10 UNL     1      35.916  13.457  -1.379  1.00  0.00     0.022 C 
HETATM    5  C11 UNL     1      36.484  14.593  -0.544  1.00  0.00     0.039 C 
HETATM    6  C12 UNL     1      37.285  15.578  -1.331  1.00  0.00     0.122 C 
HETATM    7  C13 UNL     1      38.302  14.917  -2.241  1.00  0.00     0.017 C 
HETATM    8  C14 UNL     1      38.135  15.421  -3.610  1.00  0.00     0.007 C 
HETATM    9  C15 UNL     1      38.291  14.496  -4.746  1.00  0.00     0.001 C 
HETATM   10  C16 UNL     1      36.918  14.091  -5.301  1.00  0.00     0.007 C 
HETATM   11  C17 UNL     1      36.699  12.604  -5.186  1.00  0.00     0.023 C 
HETATM   12  C18 UNL     1      36.293  12.104  -6.534  1.00  0.00     0.013 C 
HETATM   13  C19 UNL     1      38.366  13.475  -1.966  1.00  0.00     0.045 C 
HETATM   14  C20 UNL     1      37.064  12.699  -1.957  1.00  0.00     0.063 C 
HETATM   15  C21 UNL     1      37.315  11.582  -0.883  1.00  0.00     0.046 C 
HETATM   16  O3  UNL     1      36.865  11.949  -3.033  1.00  0.00    -0.362 OA
ENDROOT
BRANCH   1  17
HETATM   17  C6  UNL     1      35.347  10.801  -4.272  1.00  0.00     0.078 C 
BRANCH  17  18
HETATM   18  C5  UNL     1      36.008   9.545  -4.272  1.00  0.00     0.036 C 
BRANCH  18  19
HETATM   19  C4  UNL     1      36.637   8.872  -5.195  1.00  0.00     0.010 C 
BRANCH  19  20
HETATM   20  C3  UNL     1      36.057   7.801  -5.989  1.00  0.00    -0.056 C 
HETATM   21  C2  UNL     1      36.728   6.645  -6.048  1.00  0.00    -0.077 C 
HETATM   22  C1  UNL     1      38.029   6.474  -5.318  1.00  0.00     0.044 C 
HETATM   23  C25 UNL     1      36.267   5.461  -6.811  1.00  0.00     0.034 C 
HETATM   24  C24 UNL     1      35.028   5.668  -7.607  1.00  0.00     0.005 C 
HETATM   25  C23 UNL     1      34.985   7.113  -8.038  1.00  0.00     0.005 C 
HETATM   26  C22 UNL     1      34.776   7.908  -6.737  1.00  0.00     0.039 C 
ENDBRANCH  19  20
ENDBRANCH  18  19
ENDBRANCH  17  18
BRANCH  17  27
HETATM   27  O1  UNL     1      34.078  10.703  -4.574  1.00  0.00    -0.362 OA
ATOM     28  H1  UNL     1      33.799  11.358  -5.202  1.00  0.00     0.217 HD
ENDBRANCH  17  27
ENDBRANCH   1  17
BRANCH   6  29
HETATM   29  O2  UNL     1      37.884  16.438  -0.385  1.00  0.00    -0.395 OA
ATOM     30  H2  UNL     1      38.820  16.300  -0.460  1.00  0.00     0.210 HD
ENDBRANCH   6  29
TORSDOF 6
ENDMDL
MODEL 4
REMARK VINA RESULT: -5.128087637      2.453      7.612
REMARK  6 active torsions:
REMARK  status: ('A' for Active; 'I' for Inactive)
REMARK    1  A    between atoms: C3_3  and  C4_4 
REMARK    2  A    between atoms: C4_4  and  C5_5 
REMARK    3  A    between atoms: C5_5  and  C6_6 
REMARK    4  A    between atoms: C6_6  and  O1_7 
REMARK    5  A    between atoms: C6_6  and  C7_9 
REMARK    6  A    between atoms: C12_14  and  O2_15 
ROOT
HETATM    1  C7  UNL     1      35.842  11.629  -4.070  1.00  0.00     0.113 C 
HETATM    2  C8  UNL     1      34.750  12.574  -3.808  1.00  0.00     0.046 C 
HETATM    3  C9  UNL     1      34.922  13.617  -2.740  1.00  0.00     0.011 C 
HETATM    4  C10 UNL     1      35.918  13.291  -1.688  1.00  0.00     0.022 C 
HETATM    5  C11 UNL     1      36.514  14.530  -1.040  1.00  0.00     0.039 C 
HETATM    6  C12 UNL     1      37.325  15.368  -1.974  1.00  0.00     0.122 C 
HETATM    7  C13 UNL     1      38.321  14.556  -2.779  1.00  0.00     0.017 C 
HETATM    8  C14 UNL     1      38.149  14.848  -4.208  1.00  0.00     0.007 C 
HETATM    9  C15 UNL     1      38.277  13.758  -5.190  1.00  0.00     0.001 C 
HETATM   10  C16 UNL     1      36.893  13.299  -5.667  1.00  0.00     0.007 C 
HETATM   11  C17 UNL     1      36.649  11.851  -5.324  1.00  0.00     0.023 C 
HETATM   12  C18 UNL     1      36.221  11.159  -6.577  1.00  0.00     0.013 C 
HETATM   13  C19 UNL     1      38.362  13.173  -2.287  1.00  0.00     0.045 C 
HETATM   14  C20 UNL     1      37.047  12.432  -2.151  1.00  0.00     0.063 C 
HETATM   15  C21 UNL     1      37.289  11.488  -0.921  1.00  0.00     0.046 C 
HETATM   16  O3  UNL     1      36.824  11.530  -3.098  1.00  0.00    -0.362 OA
ENDROOT
BRANCH   1  17
HETATM   17  C6  UNL     1      35.275  10.234  -4.136  1.00  0.00     0.078 C 
BRANCH  17  18
HETATM   18  C5  UNL     1      33.934   9.802  -4.309  1.00  0.00     0.036 C 
BRANCH  18  19
HETATM   19  C4  UNL     1      33.198   9.592  -5.364  1.00  0.00     0.010 C 
BRANCH  19  20
HETATM   20  C3  UNL     1      31.988  10.326  -5.697  1.00  0.00    -0.056 C 
HETATM   21  C2  UNL     1      30.876   9.614  -5.916  1.00  0.00    -0.077 C 
HETATM   22  C1  UNL     1      30.891   8.117  -5.819  1.00  0.00     0.044 C 
HETATM   23  C25 UNL     1      29.566  10.216  -6.261  1.00  0.00     0.034 C 
HETATM   24  C24 UNL     1      29.580  11.691  -6.449  1.00  0.00     0.005 C 
HETATM   25  C23 UNL     1      30.939  12.084  -6.974  1.00  0.00     0.005 C 
HETATM   26  C22 UNL     1      31.908  11.807  -5.812  1.00  0.00     0.039 C 
ENDBRANCH  19  20
ENDBRANCH  18  19
ENDBRANCH  17  18
BRANCH  17  27
HETATM   27  O1  UNL     1      36.114   9.238  -4.016  1.00  0.00    -0.362 OA
ATOM     28  H1  UNL     1      36.395   9.101  -3.118  1.00  0.00     0.217 HD
ENDBRANCH  17  27
ENDBRANCH   1  17
BRANCH   6  29
HETATM   29  O2  UNL     1      37.947  16.351  -1.175  1.00  0.00    -0.395 OA
ATOM     30  H2  UNL     1      38.328  15.888  -0.439  1.00  0.00     0.210 HD
ENDBRANCH   6  29
TORSDOF 6
ENDMDL
MODEL 5
REMARK VINA RESULT: -5.056678843      2.254      4.098
REMARK  6 active torsions:
REMARK  status: ('A' for Active; 'I' for Inactive)
REMARK    1  A    between atoms: C3_3  and  C4_4 
REMARK    2  A    between atoms: C4_4  and  C5_5 
REMARK    3  A    between atoms: C5_5  and  C6_6 
REMARK    4  A    between atoms: C6_6  and  O1_7 
REMARK    5  A    between atoms: C6_6  and  C7_9 
REMARK    6  A    between atoms: C12_14  and  O2_15 
ROOT
HETATM    1  C7  UNL     1      35.447  12.602  -5.804  1.00  0.00     0.113 C 
HETATM    2  C8  UNL     1      35.106  12.395  -7.216  1.00  0.00     0.046 C 
HETATM    3  C9  UNL     1      34.520  11.078  -7.644  1.00  0.00     0.011 C 
HETATM    4  C10 UNL     1      34.827   9.928  -6.756  1.00  0.00     0.022 C 
HETATM    5  C11 UNL     1      33.774   8.834  -6.829  1.00  0.00     0.039 C 
HETATM    6  C12 UNL     1      32.432   9.255  -6.326  1.00  0.00     0.122 C 
HETATM    7  C13 UNL     1      32.499   9.954  -4.983  1.00  0.00     0.017 C 
HETATM    8  C14 UNL     1      31.799  11.243  -5.065  1.00  0.00     0.007 C 
HETATM    9  C15 UNL     1      32.349  12.412  -4.360  1.00  0.00     0.001 C 
HETATM   10  C16 UNL     1      33.064  13.347  -5.345  1.00  0.00     0.007 C 
HETATM   11  C17 UNL     1      34.526  13.487  -5.002  1.00  0.00     0.023 C 
HETATM   12  C18 UNL     1      34.831  14.947  -4.927  1.00  0.00     0.013 C 
HETATM   13  C19 UNL     1      33.857   9.863  -4.432  1.00  0.00     0.045 C 
HETATM   14  C20 UNL     1      35.010  10.288  -5.319  1.00  0.00     0.063 C 
HETATM   15  C21 UNL     1      36.179   9.342  -4.873  1.00  0.00     0.046 C 
HETATM   16  O3  UNL     1      35.533  11.468  -5.013  1.00  0.00    -0.362 OA
ENDROOT
BRANCH   1  17
HETATM   17  C6  UNL     1      36.831  13.192  -5.718  1.00  0.00     0.078 C 
BRANCH  17  18
HETATM   18  C5  UNL     1      37.807  13.083  -4.694  1.00  0.00     0.036 C 
BRANCH  18  19
HETATM   19  C4  UNL     1      38.004  13.734  -3.581  1.00  0.00     0.010 C 
BRANCH  19  20
HETATM   20  C3  UNL     1      37.601  13.274  -2.263  1.00  0.00    -0.056 C 
HETATM   21  C2  UNL     1      37.680  14.151  -1.254  1.00  0.00    -0.077 C 
HETATM   22  C1  UNL     1      38.167  15.551  -1.489  1.00  0.00     0.044 C 
HETATM   23  C25 UNL     1      37.303  13.835   0.144  1.00  0.00     0.034 C 
HETATM   24  C24 UNL     1      36.913  12.421   0.388  1.00  0.00     0.005 C 
HETATM   25  C23 UNL     1      37.680  11.550  -0.577  1.00  0.00     0.005 C 
HETATM   26  C22 UNL     1      37.114  11.901  -1.964  1.00  0.00     0.039 C 
ENDBRANCH  19  20
ENDBRANCH  18  19
ENDBRANCH  17  18
BRANCH  17  27
HETATM   27  O1  UNL     1      37.233  13.930  -6.721  1.00  0.00    -0.362 OA
ATOM     28  H1  UNL     1      36.532  14.447  -7.100  1.00  0.00     0.217 HD
ENDBRANCH  17  27
ENDBRANCH   1  17
BRANCH   6  29
HETATM   29  O2  UNL     1      31.645   8.084  -6.289  1.00  0.00    -0.395 OA
ATOM     30  H2  UNL     1      30.899   8.287  -5.738  1.00  0.00     0.210 HD
ENDBRANCH   6  29
TORSDOF 6
ENDMDL
