MODEL 1
REMARK VINA RESULT: -5.768476389      0.000      0.000
REMARK  4 active torsions:
REMARK  status: ('A' for Active; 'I' for Inactive)
REMARK    1  A    between atoms: N1_2  and  C1_4 
REMARK    2  A    between atoms: C2_5  and  C3_6 
REMARK    3  A    between atoms: C9_16  and  C10_17 
REMARK    4  A    between atoms: C16_23  and  C17_24 
ROOT
HETATM    1  C1  UNL     1      -9.504  37.841 -15.625  1.00  0.00     0.202 C 
HETATM    2  C2  UNL     1      -9.142  36.429 -15.366  1.00  0.00     0.249 C 
HETATM    3  N2  UNL     1      -9.324  35.660 -16.583  1.00  0.00    -0.056 N 
ATOM      4  H21 UNL     1      -9.494  34.665 -16.437  1.00  0.00     0.278 HD
ATOM      5  H22 UNL     1      -8.478  35.539 -17.141  1.00  0.00     0.278 HD
HETATM    6  C9  UNL     1     -10.418  36.381 -17.267  1.00  0.00     0.230 C 
HETATM    7  C16 UNL     1     -10.038  37.788 -17.072  1.00  0.00     0.092 C 
ENDROOT
BRANCH   7   8
HETATM    8  C17 UNL     1     -11.146  38.779 -17.112  1.00  0.00    -0.007 A 
HETATM    9  C18 UNL     1     -12.467  38.618 -16.782  1.00  0.00     0.027 A 
HETATM   10  C19 UNL     1     -13.266  39.705 -16.904  1.00  0.00    -0.018 A 
HETATM   11  C20 UNL     1     -14.639  39.760 -16.621  1.00  0.00     0.013 A 
HETATM   12  C24 UNL     1     -12.694  40.859 -17.341  1.00  0.00     0.015 A 
HETATM   13  C21 UNL     1     -15.355  40.904 -16.777  1.00  0.00     0.001 A 
HETATM   14  C22 UNL     1     -14.784  42.084 -17.222  1.00  0.00     0.001 A 
HETATM   15  C23 UNL     1     -13.441  42.035 -17.499  1.00  0.00     0.019 A 
HETATM   16  S1  UNL     1     -11.061  40.415 -17.575  1.00  0.00    -0.093 SA
ENDBRANCH   7   8
BRANCH   1  17
HETATM   17  N1  UNL     1      -8.465  38.812 -15.516  1.00  0.00    -0.147 N 
HETATM   18  O1  UNL     1      -8.290  39.434 -14.451  1.00  0.00    -0.536 OA
HETATM   19  O2  UNL     1      -7.635  39.089 -16.565  1.00  0.00    -0.536 OA
ENDBRANCH   1  17
BRANCH   6  20
HETATM   20  C10 UNL     1     -10.402  35.861 -18.640  1.00  0.00    -0.027 A 
HETATM   21  C11 UNL     1      -9.274  35.456 -19.266  1.00  0.00     0.009 A 
HETATM   22  C12 UNL     1      -9.270  34.964 -20.575  1.00  0.00     0.001 A 
HETATM   23  C13 UNL     1     -10.458  34.883 -21.267  1.00  0.00     0.000 A 
HETATM   24  C14 UNL     1     -11.623  35.291 -20.650  1.00  0.00     0.001 A 
HETATM   25  C15 UNL     1     -11.601  35.772 -19.359  1.00  0.00     0.009 A 
ENDBRANCH   6  20
BRANCH   2  26
HETATM   26  C3  UNL     1      -7.862  36.178 -14.711  1.00  0.00    -0.025 A 
HETATM   27  C4  UNL     1      -7.836  36.033 -13.341  1.00  0.00     0.011 A 
HETATM   28  C5  UNL     1      -6.685  35.780 -12.635  1.00  0.00     0.024 A 
HETATM   29  C6  UNL     1      -5.505  35.667 -13.325  1.00  0.00     0.034 A 
HETATM   30 CL1  UNL     1      -4.055  35.344 -12.388  1.00  0.00    -0.084 Cl
HETATM   31  C7  UNL     1      -5.499  35.806 -14.684  1.00  0.00     0.024 A 
HETATM   32  C8  UNL     1      -6.663  36.060 -15.383  1.00  0.00     0.011 A 
ENDBRANCH   2  26
TORSDOF 4
ENDMDL
MODEL 2
REMARK VINA RESULT: -5.637609741      4.637      8.693
REMARK  4 active torsions:
REMARK  status: ('A' for Active; 'I' for Inactive)
REMARK    1  A    between atoms: N1_2  and  C1_4 
REMARK    2  A    between atoms: C2_5  and  C3_6 
REMARK    3  A    between atoms: C9_16  and  C10_17 
REMARK    4  A    between atoms: C16_23  and  C17_24 
ROOT
HETATM    1  C1  UNL     1     -13.463  38.933 -17.380  1.00  0.00     0.202 C 
HETATM    2  C2  UNL     1     -14.474  39.920 -16.936  1.00  0.00     0.249 C 
HETATM    3  N2  UNL     1     -13.887  41.246 -16.960  1.00  0.00    -0.056 N 
ATOM      4  H21 UNL     1     -14.321  41.916 -16.325  1.00  0.00     0.278 HD
ATOM      5  H22 UNL     1     -14.070  41.778 -17.811  1.00  0.00     0.278 HD
HETATM    6  C9  UNL     1     -12.458  40.979 -16.695  1.00  0.00     0.230 C 
HETATM    7  C16 UNL     1     -12.197  39.802 -17.537  1.00  0.00     0.092 C 
ENDROOT
BRANCH   7   8
HETATM    8  C17 UNL     1     -11.072  38.926 -17.112  1.00  0.00    -0.007 A 
HETATM    9  C18 UNL     1     -10.938  38.178 -15.970  1.00  0.00     0.027 A 
HETATM   10  C19 UNL     1      -9.800  37.455 -15.841  1.00  0.00    -0.018 A 
HETATM   11  C20 UNL     1      -9.463  36.627 -14.760  1.00  0.00     0.013 A 
HETATM   12  C24 UNL     1      -8.890  37.532 -16.849  1.00  0.00     0.015 A 
HETATM   13  C21 UNL     1      -8.291  35.942 -14.725  1.00  0.00     0.001 A 
HETATM   14  C22 UNL     1      -7.357  36.012 -15.744  1.00  0.00     0.001 A 
HETATM   15  C23 UNL     1      -7.682  36.821 -16.803  1.00  0.00     0.019 A 
HETATM   16  S1  UNL     1      -9.629  38.604 -17.954  1.00  0.00    -0.093 SA
ENDBRANCH   7   8
BRANCH   1  17
HETATM   17  N1  UNL     1     -13.730  38.224 -18.588  1.00  0.00    -0.147 N 
HETATM   18  O1  UNL     1     -14.239  37.088 -18.555  1.00  0.00    -0.536 OA
HETATM   19  O2  UNL     1     -13.439  38.762 -19.810  1.00  0.00    -0.536 OA
ENDBRANCH   1  17
BRANCH   6  20
HETATM   20  C10 UNL     1     -11.775  42.229 -17.052  1.00  0.00    -0.027 A 
HETATM   21  C11 UNL     1     -10.485  42.485 -16.739  1.00  0.00     0.009 A 
HETATM   22  C12 UNL     1      -9.845  43.679 -17.084  1.00  0.00     0.001 A 
HETATM   23  C13 UNL     1     -10.546  44.643 -17.772  1.00  0.00     0.000 A 
HETATM   24  C14 UNL     1     -11.864  44.406 -18.104  1.00  0.00     0.001 A 
HETATM   25  C15 UNL     1     -12.473  43.221 -17.753  1.00  0.00     0.009 A 
ENDBRANCH   6  20
BRANCH   2  26
HETATM   26  C3  UNL     1     -15.788  39.858 -17.568  1.00  0.00    -0.025 A 
HETATM   27  C4  UNL     1     -16.036  40.658 -18.662  1.00  0.00     0.011 A 
HETATM   28  C5  UNL     1     -17.233  40.661 -19.334  1.00  0.00     0.024 A 
HETATM   29  C6  UNL     1     -18.232  39.829 -18.896  1.00  0.00     0.034 A 
HETATM   30 CL1  UNL     1     -19.749  39.861 -19.780  1.00  0.00    -0.084 Cl
HETATM   31  C7  UNL     1     -18.016  39.024 -17.813  1.00  0.00     0.024 A 
HETATM   32  C8  UNL     1     -16.807  39.029 -17.146  1.00  0.00     0.011 A 
ENDBRANCH   2  26
TORSDOF 4
ENDMDL
MODEL 3
REMARK VINA RESULT: -5.629062903      0.987      1.446
REMARK  4 active torsions:
REMARK  status: ('A' for Active; 'I' for Inactive)
REMARK    1  A    between atoms: N1_2  and  C1_4 
REMARK    2  A    between atoms: C2_5  and  C3_6 
REMARK    3  A    between atoms: C9_16  and  C10_17 
REMARK    4  A    between atoms: C16_23  and  C17_24 
ROOT
HETATM    1  C1  UNL     1      -8.716  37.710 -14.962  1.00  0.00     0.202 C 
HETATM    2  C2  UNL     1      -8.392  36.295 -14.670  1.00  0.00     0.249 C 
HETATM    3  N2  UNL     1      -8.430  35.534 -15.904  1.00  0.00    -0.056 N 
ATOM      4  H21 UNL     1      -8.620  34.538 -15.785  1.00  0.00     0.278 HD
ATOM      5  H22 UNL     1      -7.525  35.412 -16.358  1.00  0.00     0.278 HD
HETATM    6  C9  UNL     1      -9.433  36.262 -16.709  1.00  0.00     0.230 C 
HETATM    7  C16 UNL     1      -9.074  37.666 -16.463  1.00  0.00     0.092 C 
ENDROOT
BRANCH   7   8
HETATM    8  C17 UNL     1     -10.166  38.662 -16.629  1.00  0.00    -0.007 A 
HETATM    9  C18 UNL     1     -11.521  38.493 -16.506  1.00  0.00     0.027 A 
HETATM   10  C19 UNL     1     -12.295  39.587 -16.703  1.00  0.00    -0.018 A 
HETATM   11  C20 UNL     1     -13.695  39.635 -16.627  1.00  0.00     0.013 A 
HETATM   12  C24 UNL     1     -11.667  40.755 -17.005  1.00  0.00     0.015 A 
HETATM   13  C21 UNL     1     -14.382  40.787 -16.843  1.00  0.00     0.001 A 
HETATM   14  C22 UNL     1     -13.754  41.982 -17.151  1.00  0.00     0.001 A 
HETATM   15  C23 UNL     1     -12.385  41.939 -17.227  1.00  0.00     0.019 A 
HETATM   16  S1  UNL     1     -10.017  40.315 -17.010  1.00  0.00    -0.093 SA
ENDBRANCH   7   8
BRANCH   1  17
HETATM   17  N1  UNL     1      -7.694  38.676 -14.725  1.00  0.00    -0.147 N 
HETATM   18  O1  UNL     1      -7.648  39.296 -13.646  1.00  0.00    -0.536 OA
HETATM   19  O2  UNL     1      -6.740  38.951 -15.664  1.00  0.00    -0.536 OA
ENDBRANCH   1  17
BRANCH   6  20
HETATM   20  C10 UNL     1      -9.255  35.749 -18.074  1.00  0.00    -0.027 A 
HETATM   21  C11 UNL     1      -8.051  35.417 -18.590  1.00  0.00     0.009 A 
HETATM   22  C12 UNL     1      -7.893  34.931 -19.891  1.00  0.00     0.001 A 
HETATM   23  C13 UNL     1      -9.002  34.778 -20.692  1.00  0.00     0.000 A 
HETATM   24  C14 UNL     1     -10.243  35.110 -20.188  1.00  0.00     0.001 A 
HETATM   25  C15 UNL     1     -10.374  35.588 -18.902  1.00  0.00     0.009 A 
ENDBRANCH   6  20
BRANCH   2  26
HETATM   26  C3  UNL     1      -7.200  36.036 -13.868  1.00  0.00    -0.025 A 
HETATM   27  C4  UNL     1      -5.985  35.918 -14.506  1.00  0.00     0.011 A 
HETATM   28  C5  UNL     1      -4.806  35.690 -13.840  1.00  0.00     0.024 A 
HETATM   29  C6  UNL     1      -4.838  35.572 -12.473  1.00  0.00     0.034 A 
HETATM   30 CL1  UNL     1      -3.312  35.281 -11.656  1.00  0.00    -0.084 Cl
HETATM   31  C7  UNL     1      -6.029  35.684 -11.812  1.00  0.00     0.024 A 
HETATM   32  C8  UNL     1      -7.208  35.915 -12.494  1.00  0.00     0.011 A 
ENDBRANCH   2  26
TORSDOF 4
ENDMDL
MODEL 4
REMARK VINA RESULT: -5.594845071      2.606      4.760
REMARK  4 active torsions:
REMARK  status: ('A' for Active; 'I' for Inactive)
REMARK    1  A    between atoms: N1_2  and  C1_4 
REMARK    2  A    between atoms: C2_5  and  C3_6 
REMARK    3  A    between atoms: C9_16  and  C10_17 
REMARK    4  A    between atoms: C16_23  and  C17_24 
ROOT
HETATM    1  C1  UNL     1     -10.359  38.036 -16.809  1.00  0.00     0.202 C 
HETATM    2  C2  UNL     1      -8.990  38.474 -17.164  1.00  0.00     0.249 C 
HETATM    3  N2  UNL     1      -8.887  39.910 -16.984  1.00  0.00    -0.056 N 
ATOM      4  H21 UNL     1      -8.168  40.360 -17.550  1.00  0.00     0.278 HD
ATOM      5  H22 UNL     1      -8.504  40.200 -16.083  1.00  0.00     0.278 HD
HETATM    6  C9  UNL     1     -10.265  40.374 -17.248  1.00  0.00     0.230 C 
HETATM    7  C16 UNL     1     -11.075  39.376 -16.534  1.00  0.00     0.092 C 
ENDROOT
BRANCH   7   8
HETATM    8  C17 UNL     1     -12.464  39.181 -17.030  1.00  0.00    -0.007 A 
HETATM    9  C18 UNL     1     -13.641  39.682 -16.535  1.00  0.00     0.027 A 
HETATM   10  C19 UNL     1     -14.774  39.350 -17.197  1.00  0.00    -0.018 A 
HETATM   11  C20 UNL     1     -16.076  39.750 -16.862  1.00  0.00     0.013 A 
HETATM   12  C24 UNL     1     -14.652  38.551 -18.291  1.00  0.00     0.015 A 
HETATM   13  C21 UNL     1     -17.153  39.360 -17.593  1.00  0.00     0.001 A 
HETATM   14  C22 UNL     1     -17.041  38.548 -18.708  1.00  0.00     0.001 A 
HETATM   15  C23 UNL     1     -15.770  38.154 -19.039  1.00  0.00     0.019 A 
HETATM   16  S1  UNL     1     -12.968  38.277 -18.381  1.00  0.00    -0.093 SA
ENDBRANCH   7   8
BRANCH   1  17
HETATM   17  N1  UNL     1     -10.497  37.163 -15.691  1.00  0.00    -0.147 N 
HETATM   18  O1  UNL     1     -10.576  37.621 -14.536  1.00  0.00    -0.536 OA
HETATM   19  O2  UNL     1     -10.546  35.806 -15.848  1.00  0.00    -0.536 OA
ENDBRANCH   1  17
BRANCH   6  20
HETATM   20  C10 UNL     1     -10.294  41.753 -16.744  1.00  0.00    -0.027 A 
HETATM   21  C11 UNL     1     -11.298  42.618 -17.009  1.00  0.00     0.009 A 
HETATM   22  C12 UNL     1     -11.315  43.930 -16.524  1.00  0.00     0.001 A 
HETATM   23  C13 UNL     1     -10.272  44.371 -15.740  1.00  0.00     0.000 A 
HETATM   24  C14 UNL     1      -9.235  43.506 -15.455  1.00  0.00     0.001 A 
HETATM   25  C15 UNL     1      -9.241  42.218 -15.945  1.00  0.00     0.009 A 
ENDBRANCH   6  20
BRANCH   2  26
HETATM   26  C3  UNL     1      -7.879  37.736 -16.568  1.00  0.00    -0.025 A 
HETATM   27  C4  UNL     1      -7.263  38.255 -15.450  1.00  0.00     0.011 A 
HETATM   28  C5  UNL     1      -6.222  37.630 -14.809  1.00  0.00     0.024 A 
HETATM   29  C6  UNL     1      -5.772  36.432 -15.305  1.00  0.00     0.034 A 
HETATM   30 CL1  UNL     1      -4.439  35.663 -14.460  1.00  0.00    -0.084 Cl
HETATM   31  C7  UNL     1      -6.364  35.893 -16.412  1.00  0.00     0.024 A 
HETATM   32  C8  UNL     1      -7.411  36.531 -17.048  1.00  0.00     0.011 A 
ENDBRANCH   2  26
TORSDOF 4
ENDMDL
MODEL 5
REMARK VINA RESULT: -5.447873207      2.655      4.798
REMARK  4 active torsions:
REMARK  status: ('A' for Active; 'I' for Inactive)
REMARK    1  A    between atoms: N1_2  and  C1_4 
REMARK    2  A    between atoms: C2_5  and  C3_6 
REMARK    3  A    between atoms: C9_16  and  C10_17 
REMARK    4  A    between atoms: C16_23  and  C17_24 
ROOT
HETATM    1  C1  UNL     1     -10.448  38.148 -16.789  1.00  0.00     0.202 C 
HETATM    2  C2  UNL     1      -9.091  38.616 -17.152  1.00  0.00     0.249 C 
HETATM    3  N2  UNL     1      -9.033  40.059 -17.020  1.00  0.00    -0.056 N 
ATOM      4  H21 UNL     1      -8.326  40.512 -17.599  1.00  0.00     0.278 HD
ATOM      5  H22 UNL     1      -8.664  40.391 -16.129  1.00  0.00     0.278 HD
HETATM    6  C9  UNL     1     -10.423  40.471 -17.306  1.00  0.00     0.230 C 
HETATM    7  C16 UNL     1     -11.206  39.474 -16.561  1.00  0.00     0.092 C 
ENDROOT
BRANCH   7   8
HETATM    8  C17 UNL     1     -12.586  39.219 -17.056  1.00  0.00    -0.007 A 
HETATM    9  C18 UNL     1     -13.781  39.682 -16.570  1.00  0.00     0.027 A 
HETATM   10  C19 UNL     1     -14.900  39.298 -17.228  1.00  0.00    -0.018 A 
HETATM   11  C20 UNL     1     -16.217  39.654 -16.901  1.00  0.00     0.013 A 
HETATM   12  C24 UNL     1     -14.746  38.489 -18.311  1.00  0.00     0.015 A 
HETATM   13  C21 UNL     1     -17.277  39.213 -17.627  1.00  0.00     0.001 A 
HETATM   14  C22 UNL     1     -17.132  38.390 -18.731  1.00  0.00     0.001 A 
HETATM   15  C23 UNL     1     -15.847  38.039 -19.054  1.00  0.00     0.019 A 
HETATM   16  S1  UNL     1     -13.053  38.278 -18.395  1.00  0.00    -0.093 SA
ENDBRANCH   7   8
BRANCH   1  17
HETATM   17  N1  UNL     1     -10.564  37.308 -15.643  1.00  0.00    -0.147 N 
HETATM   18  O1  UNL     1     -10.677  37.802 -14.505  1.00  0.00    -0.536 OA
HETATM   19  O2  UNL     1     -10.556  35.946 -15.753  1.00  0.00    -0.536 OA
ENDBRANCH   1  17
BRANCH   6  20
HETATM   20  C10 UNL     1     -10.497  41.865 -16.848  1.00  0.00    -0.027 A 
HETATM   21  C11 UNL     1      -9.520  42.463 -16.131  1.00  0.00     0.009 A 
HETATM   22  C12 UNL     1      -9.602  43.791 -15.700  1.00  0.00     0.001 A 
HETATM   23  C13 UNL     1     -10.719  44.532 -16.012  1.00  0.00     0.000 A 
HETATM   24  C14 UNL     1     -11.731  43.944 -16.743  1.00  0.00     0.001 A 
HETATM   25  C15 UNL     1     -11.628  42.633 -17.157  1.00  0.00     0.009 A 
ENDBRANCH   6  20
BRANCH   2  26
HETATM   26  C3  UNL     1      -7.961  37.933 -16.527  1.00  0.00    -0.025 A 
HETATM   27  C4  UNL     1      -7.488  36.773 -17.101  1.00  0.00     0.011 A 
HETATM   28  C5  UNL     1      -6.423  36.068 -16.598  1.00  0.00     0.024 A 
HETATM   29  C6  UNL     1      -5.799  36.538 -15.470  1.00  0.00     0.034 A 
HETATM   30 CL1  UNL     1      -4.441  35.610 -14.856  1.00  0.00    -0.084 Cl
HETATM   31  C7  UNL     1      -6.246  37.687 -14.879  1.00  0.00     0.024 A 
HETATM   32  C8  UNL     1      -7.318  38.388 -15.395  1.00  0.00     0.011 A 
ENDBRANCH   2  26
TORSDOF 4
ENDMDL
