MODEL 1
REMARK VINA RESULT: -5.274211533      0.000      0.000
REMARK  4 active torsions:
REMARK  status: ('A' for Active; 'I' for Inactive)
REMARK    1  A    between atoms: O1_2  and  C2_3 
REMARK    2  A    between atoms: C16_19  and  O3_20 
REMARK    3  A    between atoms: C16_19  and  C17_22 
REMARK    4  A    between atoms: C18_23  and  C19_24 
ROOT
HETATM    1  C2  UNL     1      -5.609  37.654 -18.553  1.00  0.00     0.129 C 
HETATM    2  C3  UNL     1      -7.091  37.552 -18.670  1.00  0.00     0.067 C 
HETATM    3  C4  UNL     1      -7.609  36.814 -17.473  1.00  0.00    -0.063 C 
HETATM    4  C5  UNL     1      -8.452  37.258 -16.578  1.00  0.00    -0.008 C 
HETATM    5  C6  UNL     1      -9.056  38.581 -16.535  1.00  0.00    -0.009 C 
HETATM    6  C7  UNL     1      -8.494  39.722 -16.866  1.00  0.00    -0.015 C 
HETATM    7  C8  UNL     1      -9.063  41.067 -16.848  1.00  0.00     0.028 C 
HETATM    8  C9  UNL     1     -10.449  41.146 -17.462  1.00  0.00     0.013 C 
HETATM    9  C10 UNL     1     -11.429  40.534 -16.553  1.00  0.00     0.048 C 
HETATM   10  C11 UNL     1     -12.857  40.392 -16.897  1.00  0.00     0.176 C 
HETATM   11  O2  UNL     1     -12.754  39.052 -16.407  1.00  0.00    -0.376 OA
HETATM   12  C12 UNL     1     -11.455  39.021 -16.823  1.00  0.00     0.103 C 
HETATM   13  C13 UNL     1     -11.368  38.643 -18.283  1.00  0.00     0.050 C 
HETATM   14  C14 UNL     1     -10.404  38.442 -15.953  1.00  0.00     0.165 C 
HETATM   15  F1  UNL     1     -10.423  39.206 -14.753  1.00  0.00    -0.234 F 
HETATM   16  C15 UNL     1     -10.559  37.042 -15.505  1.00  0.00     0.099 C 
HETATM   17  C16 UNL     1      -9.103  36.499 -15.490  1.00  0.00     0.107 C 
HETATM   18  C23 UNL     1      -6.925  35.470 -17.349  1.00  0.00     0.016 C 
HETATM   19  C24 UNL     1      -6.814  34.778 -18.677  1.00  0.00     0.009 C 
HETATM   20  C25 UNL     1      -5.554  35.292 -19.334  1.00  0.00     0.008 C 
HETATM   21  C26 UNL     1      -4.965  36.288 -18.373  1.00  0.00     0.015 C 
HETATM   22  C27 UNL     1      -5.437  35.782 -17.042  1.00  0.00     0.016 C 
ENDROOT
BRANCH  17  23
HETATM   23  O3  UNL     1      -9.248  35.185 -15.839  1.00  0.00    -0.381 OA
ATOM     24  H3  UNL     1     -10.006  34.807 -15.410  1.00  0.00     0.211 HD
ENDBRANCH  17  23
BRANCH  17  25
HETATM   25  C17 UNL     1      -8.493  36.669 -14.180  1.00  0.00     0.018 C 
HETATM   26  C18 UNL     1      -7.384  36.078 -13.784  1.00  0.00     0.036 C 
BRANCH  26  27
HETATM   27  C19 UNL     1      -6.790  36.261 -12.473  1.00  0.00     0.074 A 
HETATM   28  C20 UNL     1      -6.865  35.342 -11.425  1.00  0.00     0.039 A 
HETATM   29  C21 UNL     1      -6.176  35.884 -10.349  1.00  0.00     0.027 A 
HETATM   30  C22 UNL     1      -5.720  37.104 -10.806  1.00  0.00     0.142 A 
HETATM   31  O4  UNL     1      -6.106  37.265 -12.039  1.00  0.00    -0.323 OA
ENDBRANCH  26  27
ENDBRANCH  17  25
BRANCH   1  32
HETATM   32  O1  UNL     1      -4.990  38.268 -19.605  1.00  0.00    -0.390 OA
HETATM   33  C1  UNL     1      -5.941  38.942 -20.365  1.00  0.00     0.202 C 
ENDBRANCH   1  32
TORSDOF 4
ENDMDL
MODEL 2
REMARK VINA RESULT: -5.145788476      2.761      6.402
REMARK  4 active torsions:
REMARK  status: ('A' for Active; 'I' for Inactive)
REMARK    1  A    between atoms: O1_2  and  C2_3 
REMARK    2  A    between atoms: C16_19  and  O3_20 
REMARK    3  A    between atoms: C16_19  and  C17_22 
REMARK    4  A    between atoms: C18_23  and  C19_24 
ROOT
HETATM    1  C2  UNL     1      -7.479  37.570 -13.308  1.00  0.00     0.129 C 
HETATM    2  C3  UNL     1      -6.936  38.600 -14.237  1.00  0.00     0.067 C 
HETATM    3  C4  UNL     1      -7.928  38.811 -15.340  1.00  0.00    -0.063 C 
HETATM    4  C5  UNL     1      -8.541  39.923 -15.646  1.00  0.00    -0.008 C 
HETATM    5  C6  UNL     1      -8.413  41.202 -14.965  1.00  0.00    -0.009 C 
HETATM    6  C7  UNL     1      -8.264  41.403 -13.675  1.00  0.00    -0.015 C 
HETATM    7  C8  UNL     1      -8.122  42.663 -12.949  1.00  0.00     0.028 C 
HETATM    8  C9  UNL     1      -7.132  43.620 -13.589  1.00  0.00     0.013 C 
HETATM    9  C10 UNL     1      -7.714  44.191 -14.812  1.00  0.00     0.048 C 
HETATM   10  C11 UNL     1      -6.970  45.106 -15.700  1.00  0.00     0.176 C 
HETATM   11  O2  UNL     1      -7.463  44.315 -16.785  1.00  0.00    -0.376 OA
HETATM   12  C12 UNL     1      -7.442  43.221 -15.973  1.00  0.00     0.103 C 
HETATM   13  C13 UNL     1      -6.068  42.591 -15.955  1.00  0.00     0.050 C 
HETATM   14  C14 UNL     1      -8.577  42.268 -15.971  1.00  0.00     0.165 C 
HETATM   15  F1  UNL     1      -9.723  43.023 -15.597  1.00  0.00    -0.234 F 
HETATM   16  C15 UNL     1      -8.955  41.626 -17.248  1.00  0.00     0.099 C 
HETATM   17  C16 UNL     1      -9.390  40.196 -16.826  1.00  0.00     0.107 C 
HETATM   18  C23 UNL     1      -8.240  37.496 -16.023  1.00  0.00     0.016 C 
HETATM   19  C24 UNL     1      -6.998  36.686 -16.262  1.00  0.00     0.009 C 
HETATM   20  C25 UNL     1      -6.737  35.900 -14.998  1.00  0.00     0.008 C 
HETATM   21  C26 UNL     1      -7.832  36.285 -14.041  1.00  0.00     0.015 C 
HETATM   22  C27 UNL     1      -8.966  36.632 -14.959  1.00  0.00     0.016 C 
ENDROOT
BRANCH  17  23
HETATM   23  O3  UNL     1      -9.008  39.420 -17.884  1.00  0.00    -0.381 OA
ATOM     24  H3  UNL     1      -8.441  39.909 -18.469  1.00  0.00     0.211 HD
ENDBRANCH  17  23
BRANCH  17  25
HETATM   25  C17 UNL     1     -10.822  40.136 -16.571  1.00  0.00     0.018 C 
HETATM   26  C18 UNL     1     -11.737  40.785 -17.263  1.00  0.00     0.036 C 
BRANCH  26  27
HETATM   27  C19 UNL     1     -13.160  40.712 -16.993  1.00  0.00     0.074 A 
HETATM   28  C20 UNL     1     -13.867  39.539 -16.726  1.00  0.00     0.039 A 
HETATM   29  C21 UNL     1     -15.194  39.891 -16.525  1.00  0.00     0.027 A 
HETATM   30  C22 UNL     1     -15.218  41.262 -16.681  1.00  0.00     0.142 A 
HETATM   31  O4  UNL     1     -14.015  41.679 -16.949  1.00  0.00    -0.323 OA
ENDBRANCH  26  27
ENDBRANCH  17  25
BRANCH   1  32
HETATM   32  O1  UNL     1      -6.654  37.239 -12.269  1.00  0.00    -0.390 OA
HETATM   33  C1  UNL     1      -5.660  38.205 -12.151  1.00  0.00     0.202 C 
ENDBRANCH   1  32
TORSDOF 4
ENDMDL
MODEL 3
REMARK VINA RESULT: -5.038692923      2.554      6.319
REMARK  4 active torsions:
REMARK  status: ('A' for Active; 'I' for Inactive)
REMARK    1  A    between atoms: O1_2  and  C2_3 
REMARK    2  A    between atoms: C16_19  and  O3_20 
REMARK    3  A    between atoms: C16_19  and  C17_22 
REMARK    4  A    between atoms: C18_23  and  C19_24 
ROOT
HETATM    1  C2  UNL     1      -9.374  36.382 -15.049  1.00  0.00     0.129 C 
HETATM    2  C3  UNL     1      -8.400  37.278 -15.735  1.00  0.00     0.067 C 
HETATM    3  C4  UNL     1      -9.123  38.023 -16.815  1.00  0.00    -0.063 C 
HETATM    4  C5  UNL     1      -9.261  39.318 -16.921  1.00  0.00    -0.008 C 
HETATM    5  C6  UNL     1      -8.760  40.324 -15.997  1.00  0.00    -0.009 C 
HETATM    6  C7  UNL     1      -8.692  40.236 -14.687  1.00  0.00    -0.015 C 
HETATM    7  C8  UNL     1      -8.191  41.212 -13.724  1.00  0.00     0.028 C 
HETATM    8  C9  UNL     1      -6.860  41.825 -14.122  1.00  0.00     0.013 C 
HETATM    9  C10 UNL     1      -7.062  42.768 -15.232  1.00  0.00     0.048 C 
HETATM   10  C11 UNL     1      -5.947  43.476 -15.891  1.00  0.00     0.176 C 
HETATM   11  O2  UNL     1      -6.566  43.119 -17.130  1.00  0.00    -0.376 OA
HETATM   12  C12 UNL     1      -7.027  41.975 -16.548  1.00  0.00     0.103 C 
HETATM   13  C13 UNL     1      -5.980  40.887 -16.598  1.00  0.00     0.050 C 
HETATM   14  C14 UNL     1      -8.421  41.527 -16.780  1.00  0.00     0.165 C 
HETATM   15  F1  UNL     1      -9.255  42.580 -16.312  1.00  0.00    -0.234 F 
HETATM   16  C15 UNL     1      -8.859  41.295 -18.173  1.00  0.00     0.099 C 
HETATM   17  C16 UNL     1      -9.820  40.080 -18.058  1.00  0.00     0.107 C 
HETATM   18  C23 UNL     1      -9.806  37.052 -17.754  1.00  0.00     0.016 C 
HETATM   19  C24 UNL     1      -8.918  35.892 -18.097  1.00  0.00     0.009 C 
HETATM   20  C25 UNL     1      -9.096  34.865 -17.002  1.00  0.00     0.008 C 
HETATM   21  C26 UNL     1     -10.080  35.463 -16.034  1.00  0.00     0.015 C 
HETATM   22  C27 UNL     1     -10.906  36.356 -16.911  1.00  0.00     0.016 C 
ENDROOT
BRANCH  17  23
HETATM   23  O3  UNL     1      -9.626  39.407 -19.231  1.00  0.00    -0.381 OA
ATOM     24  H3  UNL     1      -9.684  38.469 -19.092  1.00  0.00     0.211 HD
ENDBRANCH  17  23
BRANCH  17  25
HETATM   25  C17 UNL     1     -11.198  40.515 -17.879  1.00  0.00     0.018 C 
HETATM   26  C18 UNL     1     -12.090  39.899 -17.129  1.00  0.00     0.036 C 
BRANCH  26  27
HETATM   27  C19 UNL     1     -13.459  40.348 -16.964  1.00  0.00     0.074 A 
HETATM   28  C20 UNL     1     -14.564  39.510 -16.813  1.00  0.00     0.039 A 
HETATM   29  C21 UNL     1     -15.684  40.320 -16.684  1.00  0.00     0.027 A 
HETATM   30  C22 UNL     1     -15.193  41.607 -16.764  1.00  0.00     0.142 A 
HETATM   31  O4  UNL     1     -13.903  41.559 -16.924  1.00  0.00    -0.323 OA
ENDBRANCH  26  27
ENDBRANCH  17  25
BRANCH   1  32
HETATM   32  O1  UNL     1      -8.842  35.600 -14.062  1.00  0.00    -0.390 OA
HETATM   33  C1  UNL     1      -7.596  36.103 -13.703  1.00  0.00     0.202 C 
ENDBRANCH   1  32
TORSDOF 4
ENDMDL
MODEL 4
REMARK VINA RESULT: -5.024477912      3.481      8.269
REMARK  4 active torsions:
REMARK  status: ('A' for Active; 'I' for Inactive)
REMARK    1  A    between atoms: O1_2  and  C2_3 
REMARK    2  A    between atoms: C16_19  and  O3_20 
REMARK    3  A    between atoms: C16_19  and  C17_22 
REMARK    4  A    between atoms: C18_23  and  C19_24 
ROOT
HETATM    1  C2  UNL     1     -15.440  39.668 -17.864  1.00  0.00     0.129 C 
HETATM    2  C3  UNL     1     -14.054  39.490 -18.381  1.00  0.00     0.067 C 
HETATM    3  C4  UNL     1     -13.365  40.819 -18.354  1.00  0.00    -0.063 C 
HETATM    4  C5  UNL     1     -12.284  41.133 -17.690  1.00  0.00    -0.008 C 
HETATM    5  C6  UNL     1     -11.523  40.261 -16.808  1.00  0.00    -0.009 C 
HETATM    6  C7  UNL     1     -11.997  39.341 -15.998  1.00  0.00    -0.015 C 
HETATM    7  C8  UNL     1     -11.274  38.439 -15.105  1.00  0.00     0.028 C 
HETATM    8  C9  UNL     1     -10.075  37.775 -15.758  1.00  0.00     0.013 C 
HETATM    9  C10 UNL     1      -8.993  38.757 -15.924  1.00  0.00     0.048 C 
HETATM   10  C11 UNL     1      -7.718  38.435 -16.593  1.00  0.00     0.176 C 
HETATM   11  O2  UNL     1      -7.873  39.672 -17.294  1.00  0.00    -0.376 OA
HETATM   12  C12 UNL     1      -9.225  39.510 -17.243  1.00  0.00     0.103 C 
HETATM   13  C13 UNL     1      -9.705  38.643 -18.384  1.00  0.00     0.050 C 
HETATM   14  C14 UNL     1     -10.105  40.653 -16.901  1.00  0.00     0.165 C 
HETATM   15  F1  UNL     1      -9.703  41.082 -15.605  1.00  0.00    -0.234 F 
HETATM   16  C15 UNL     1     -10.028  41.870 -17.737  1.00  0.00     0.099 C 
HETATM   17  C16 UNL     1     -11.495  42.380 -17.778  1.00  0.00     0.107 C 
HETATM   18  C23 UNL     1     -14.166  41.841 -19.133  1.00  0.00     0.016 C 
HETATM   19  C24 UNL     1     -14.677  41.277 -20.427  1.00  0.00     0.009 C 
HETATM   20  C25 UNL     1     -15.981  40.580 -20.116  1.00  0.00     0.008 C 
HETATM   21  C26 UNL     1     -16.192  40.742 -18.635  1.00  0.00     0.015 C 
HETATM   22  C27 UNL     1     -15.486  42.032 -18.341  1.00  0.00     0.016 C 
ENDROOT
BRANCH  17  23
HETATM   23  O3  UNL     1     -11.606  42.933 -19.023  1.00  0.00    -0.381 OA
ATOM     24  H3  UNL     1     -11.269  43.821 -19.026  1.00  0.00     0.211 HD
ENDBRANCH  17  23
BRANCH  17  25
HETATM   25  C17 UNL     1     -11.749  43.337 -16.712  1.00  0.00     0.018 C 
HETATM   26  C18 UNL     1     -10.844  44.140 -16.190  1.00  0.00     0.036 C 
BRANCH  26  27
HETATM   27  C19 UNL     1     -11.117  45.088 -15.126  1.00  0.00     0.074 A 
HETATM   28  C20 UNL     1     -10.169  45.926 -14.537  1.00  0.00     0.039 A 
HETATM   29  C21 UNL     1     -10.823  46.674 -13.567  1.00  0.00     0.027 A 
HETATM   30  C22 UNL     1     -12.135  46.247 -13.625  1.00  0.00     0.142 A 
HETATM   31  O4  UNL     1     -12.242  45.331 -14.543  1.00  0.00    -0.323 OA
ENDBRANCH  26  27
ENDBRANCH  17  25
BRANCH   1  32
HETATM   32  O1  UNL     1     -16.209  38.538 -17.873  1.00  0.00    -0.390 OA
HETATM   33  C1  UNL     1     -17.367  38.768 -17.138  1.00  0.00     0.202 C 
ENDBRANCH   1  32
TORSDOF 4
ENDMDL
MODEL 5
REMARK VINA RESULT: -4.987237186      3.247      6.405
REMARK  4 active torsions:
REMARK  status: ('A' for Active; 'I' for Inactive)
REMARK    1  A    between atoms: O1_2  and  C2_3 
REMARK    2  A    between atoms: C16_19  and  O3_20 
REMARK    3  A    between atoms: C16_19  and  C17_22 
REMARK    4  A    between atoms: C18_23  and  C19_24 
ROOT
HETATM    1  C2  UNL     1     -11.802  43.369 -16.695  1.00  0.00     0.129 C 
HETATM    2  C3  UNL     1     -12.432  42.729 -17.883  1.00  0.00     0.067 C 
HETATM    3  C4  UNL     1     -11.681  41.471 -18.196  1.00  0.00    -0.063 C 
HETATM    4  C5  UNL     1     -12.156  40.253 -18.212  1.00  0.00    -0.008 C 
HETATM    5  C6  UNL     1     -13.520  39.849 -17.906  1.00  0.00    -0.009 C 
HETATM    6  C7  UNL     1     -14.316  40.363 -16.996  1.00  0.00    -0.015 C 
HETATM    7  C8  UNL     1     -15.690  39.998 -16.661  1.00  0.00     0.028 C 
HETATM    8  C9  UNL     1     -16.582  39.826 -17.877  1.00  0.00     0.013 C 
HETATM    9  C10 UNL     1     -16.237  38.578 -18.573  1.00  0.00     0.048 C 
HETATM   10  C11 UNL     1     -16.882  38.162 -19.834  1.00  0.00     0.176 C 
HETATM   11  O2  UNL     1     -15.566  37.856 -20.305  1.00  0.00    -0.376 OA
HETATM   12  C12 UNL     1     -15.076  38.869 -19.536  1.00  0.00     0.103 C 
HETATM   13  C13 UNL     1     -15.178  40.192 -20.260  1.00  0.00     0.050 C 
HETATM   14  C14 UNL     1     -13.840  38.675 -18.740  1.00  0.00     0.165 C 
HETATM   15  F1  UNL     1     -14.109  37.594 -17.856  1.00  0.00    -0.234 F 
HETATM   16  C15 UNL     1     -12.606  38.278 -19.450  1.00  0.00     0.099 C 
HETATM   17  C16 UNL     1     -11.482  39.022 -18.678  1.00  0.00     0.107 C 
HETATM   18  C23 UNL     1     -10.210  41.772 -18.388  1.00  0.00     0.016 C 
HETATM   19  C24 UNL     1     -10.000  43.006 -19.216  1.00  0.00     0.009 C 
HETATM   20  C25 UNL     1     -10.056  44.183 -18.270  1.00  0.00     0.008 C 
HETATM   21  C26 UNL     1     -10.314  43.603 -16.907  1.00  0.00     0.015 C 
HETATM   22  C27 UNL     1      -9.693  42.241 -17.004  1.00  0.00     0.016 C 
ENDROOT
BRANCH  17  23
HETATM   23  O3  UNL     1     -10.566  39.314 -19.649  1.00  0.00    -0.381 OA
ATOM     24  H3  UNL     1     -10.917  39.118 -20.510  1.00  0.00     0.211 HD
ENDBRANCH  17  23
BRANCH  17  25
HETATM   25  C17 UNL     1     -10.934  38.191 -17.617  1.00  0.00     0.018 C 
HETATM   26  C18 UNL     1      -9.789  38.412 -17.003  1.00  0.00     0.036 C 
BRANCH  26  27
HETATM   27  C19 UNL     1      -9.259  37.571 -15.947  1.00  0.00     0.074 A 
HETATM   28  C20 UNL     1      -9.789  36.338 -15.562  1.00  0.00     0.039 A 
HETATM   29  C21 UNL     1      -9.002  35.855 -14.525  1.00  0.00     0.027 A 
HETATM   30  C22 UNL     1      -8.036  36.824 -14.341  1.00  0.00     0.142 A 
HETATM   31  O4  UNL     1      -8.237  37.789 -15.190  1.00  0.00    -0.323 OA
ENDBRANCH  26  27
ENDBRANCH  17  25
BRANCH   1  32
HETATM   32  O1  UNL     1     -12.358  44.559 -16.319  1.00  0.00    -0.390 OA
HETATM   33  C1  UNL     1     -13.457  44.826 -17.129  1.00  0.00     0.202 C 
ENDBRANCH   1  32
TORSDOF 4
ENDMDL
