MODEL 1
REMARK VINA RESULT: -4.605414795      0.000      0.000
REMARK  2 active torsions:
REMARK  status: ('A' for Active; 'I' for Inactive)
REMARK    1  A    between atoms: C2_2  and  N1_4 
REMARK    2  A    between atoms: C2_2  and  C4_8 
ROOT
HETATM    1  C4  UNL     1      18.772   1.974  10.503  1.00  0.00     0.046 C 
HETATM    2  C5  UNL     1      19.156   0.559  10.788  1.00  0.00     0.010 C 
HETATM    3  C6  UNL     1      17.851  -0.241  10.653  1.00  0.00     0.028 C 
HETATM    4  C7  UNL     1      16.997   0.047  11.860  1.00  0.00     0.232 C 
HETATM    5  N2  UNL     1      17.335   1.351  12.392  1.00  0.00    -0.075 N 
ATOM      6  H21 UNL     1      18.122   1.288  13.038  1.00  0.00     0.277 HD
ATOM      7  H22 UNL     1      16.617   1.679  13.037  1.00  0.00     0.277 HD
HETATM    8  C8  UNL     1      17.590   2.330  11.362  1.00  0.00     0.239 C 
ENDROOT
BRANCH   1   9
HETATM    9  C2  UNL     1      19.857   2.973  10.726  1.00  0.00     0.121 C 
HETATM   10  C1  UNL     1      19.221   4.353  10.739  1.00  0.00     0.046 C 
HETATM   11  C3  UNL     1      20.902   2.945   9.629  1.00  0.00     0.046 C 
BRANCH   9  12
HETATM   12  N1  UNL     1      20.542   2.803  11.979  1.00  0.00    -0.071 N 
ATOM     13  H13 UNL     1      21.529   2.572  11.866  1.00  0.00     0.275 HD
ATOM     14  H12 UNL     1      20.668   3.679  12.486  1.00  0.00     0.275 HD
ATOM     15  H11 UNL     1      20.028   2.103  12.515  1.00  0.00     0.275 HD
ENDBRANCH   9  12
ENDBRANCH   1   9
TORSDOF 2
ENDMDL
MODEL 2
REMARK VINA RESULT: -4.458657492      1.072      1.101
REMARK  2 active torsions:
REMARK  status: ('A' for Active; 'I' for Inactive)
REMARK    1  A    between atoms: C2_2  and  N1_4 
REMARK    2  A    between atoms: C2_2  and  C4_8 
ROOT
HETATM    1  C4  UNL     1      18.156   1.881  10.798  1.00  0.00     0.046 C 
HETATM    2  C5  UNL     1      18.935   0.608  10.804  1.00  0.00     0.010 C 
HETATM    3  C6  UNL     1      17.907  -0.488  10.483  1.00  0.00     0.028 C 
HETATM    4  C7  UNL     1      17.050  -0.699  11.703  1.00  0.00     0.232 C 
HETATM    5  N2  UNL     1      17.023   0.515  12.492  1.00  0.00    -0.075 N 
ATOM      6  H21 UNL     1      17.818   0.553  13.130  1.00  0.00     0.277 HD
ATOM      7  H22 UNL     1      16.264   0.491  13.173  1.00  0.00     0.277 HD
HETATM    8  C8  UNL     1      16.953   1.709  11.684  1.00  0.00     0.239 C 
ENDROOT
BRANCH   1   9
HETATM    9  C2  UNL     1      18.920   3.083  11.239  1.00  0.00     0.121 C 
HETATM   10  C1  UNL     1      18.591   4.219  10.285  1.00  0.00     0.046 C 
HETATM   11  C3  UNL     1      20.418   2.860  11.208  1.00  0.00     0.046 C 
BRANCH   9  12
HETATM   12  N1  UNL     1      18.577   3.524  12.565  1.00  0.00    -0.071 N 
ATOM     13  H13 UNL     1      18.919   4.462  12.774  1.00  0.00     0.275 HD
ATOM     14  H12 UNL     1      17.582   3.717  12.676  1.00  0.00     0.275 HD
ATOM     15  H11 UNL     1      18.921   2.820  13.218  1.00  0.00     0.275 HD
ENDBRANCH   9  12
ENDBRANCH   1   9
TORSDOF 2
ENDMDL
MODEL 3
REMARK VINA RESULT: -4.233403479      1.296      3.894
REMARK  2 active torsions:
REMARK  status: ('A' for Active; 'I' for Inactive)
REMARK    1  A    between atoms: C2_2  and  N1_4 
REMARK    2  A    between atoms: C2_2  and  C4_8 
ROOT
HETATM    1  C4  UNL     1      17.867   2.207  10.888  1.00  0.00     0.046 C 
HETATM    2  C5  UNL     1      17.523   3.202  11.947  1.00  0.00     0.010 C 
HETATM    3  C6  UNL     1      18.338   4.455  11.592  1.00  0.00     0.028 C 
HETATM    4  C7  UNL     1      19.780   4.191  11.940  1.00  0.00     0.232 C 
HETATM    5  N2  UNL     1      20.037   2.767  11.887  1.00  0.00    -0.075 N 
ATOM      6  H21 UNL     1      19.803   2.321  12.774  1.00  0.00     0.277 HD
ATOM      7  H22 UNL     1      21.039   2.578  11.865  1.00  0.00     0.277 HD
HETATM    8  C8  UNL     1      19.365   2.114  10.789  1.00  0.00     0.239 C 
ENDROOT
BRANCH   1   9
HETATM    9  C2  UNL     1      17.308   0.842  11.108  1.00  0.00     0.121 C 
HETATM   10  C1  UNL     1      16.934   0.724  12.576  1.00  0.00     0.046 C 
HETATM   11  C3  UNL     1      18.306  -0.251  10.786  1.00  0.00     0.046 C 
BRANCH   9  12
HETATM   12  N1  UNL     1      16.119   0.581  10.340  1.00  0.00    -0.071 N 
ATOM     13  H13 UNL     1      15.261   0.782  10.854  1.00  0.00     0.275 HD
ATOM     14  H12 UNL     1      15.980   1.249   9.582  1.00  0.00     0.275 HD
ATOM     15  H11 UNL     1      16.172  -0.384  10.016  1.00  0.00     0.275 HD
ENDBRANCH   9  12
ENDBRANCH   1   9
TORSDOF 2
ENDMDL
MODEL 4
REMARK VINA RESULT: -4.223115246      2.122      2.940
REMARK  2 active torsions:
REMARK  status: ('A' for Active; 'I' for Inactive)
REMARK    1  A    between atoms: C2_2  and  N1_4 
REMARK    2  A    between atoms: C2_2  and  C4_8 
ROOT
HETATM    1  C4  UNL     1      17.249   3.453  12.427  1.00  0.00     0.046 C 
HETATM    2  C5  UNL     1      18.017   2.679  11.407  1.00  0.00     0.010 C 
HETATM    3  C6  UNL     1      16.995   1.711  10.792  1.00  0.00     0.028 C 
HETATM    4  C7  UNL     1      16.720   0.621  11.795  1.00  0.00     0.232 C 
HETATM    5  N2  UNL     1      16.965   1.120  13.132  1.00  0.00    -0.075 N 
ATOM      6  H21 UNL     1      17.948   1.021  13.383  1.00  0.00     0.277 HD
ATOM      7  H22 UNL     1      16.552   0.504  13.832  1.00  0.00     0.277 HD
HETATM    8  C8  UNL     1      16.520   2.481  13.314  1.00  0.00     0.239 C 
ENDROOT
BRANCH   1   9
HETATM    9  C2  UNL     1      18.074   4.362  13.273  1.00  0.00     0.121 C 
HETATM   10  C1  UNL     1      17.553   4.271  14.698  1.00  0.00     0.046 C 
HETATM   11  C3  UNL     1      17.981   5.808  12.829  1.00  0.00     0.046 C 
BRANCH   9  12
HETATM   12  N1  UNL     1      19.468   4.008  13.302  1.00  0.00    -0.071 N 
ATOM     13  H13 UNL     1      19.870   3.898  12.371  1.00  0.00     0.275 HD
ATOM     14  H12 UNL     1      20.067   4.772  13.616  1.00  0.00     0.275 HD
ATOM     15  H11 UNL     1      19.558   3.170  13.876  1.00  0.00     0.275 HD
ENDBRANCH   9  12
ENDBRANCH   1   9
TORSDOF 2
ENDMDL
MODEL 5
REMARK VINA RESULT: -4.213661259      2.703      4.068
REMARK  2 active torsions:
REMARK  status: ('A' for Active; 'I' for Inactive)
REMARK    1  A    between atoms: C2_2  and  N1_4 
REMARK    2  A    between atoms: C2_2  and  C4_8 
ROOT
HETATM    1  C4  UNL     1      16.914   3.646  12.776  1.00  0.00     0.046 C 
HETATM    2  C5  UNL     1      18.315   3.825  12.290  1.00  0.00     0.010 C 
HETATM    3  C6  UNL     1      18.313   3.263  10.860  1.00  0.00     0.028 C 
HETATM    4  C7  UNL     1      18.255   1.761  10.946  1.00  0.00     0.232 C 
HETATM    5  N2  UNL     1      17.620   1.371  12.188  1.00  0.00    -0.075 N 
ATOM      6  H21 UNL     1      18.300   1.329  12.947  1.00  0.00     0.277 HD
ATOM      7  H22 UNL     1      17.339   0.391  12.162  1.00  0.00     0.277 HD
HETATM    8  C8  UNL     1      16.505   2.218  12.540  1.00  0.00     0.239 C 
ENDROOT
BRANCH   1   9
HETATM    9  C2  UNL     1      16.704   3.982  14.214  1.00  0.00     0.121 C 
HETATM   10  C1  UNL     1      15.368   3.394  14.638  1.00  0.00     0.046 C 
HETATM   11  C3  UNL     1      16.660   5.477  14.457  1.00  0.00     0.046 C 
BRANCH   9  12
HETATM   12  N1  UNL     1      17.710   3.432  15.083  1.00  0.00    -0.071 N 
ATOM     13  H13 UNL     1      18.631   3.847  14.939  1.00  0.00     0.275 HD
ATOM     14  H12 UNL     1      17.590   3.710  16.057  1.00  0.00     0.275 HD
ATOM     15  H11 UNL     1      17.705   2.421  14.954  1.00  0.00     0.275 HD
ENDBRANCH   9  12
ENDBRANCH   1   9
TORSDOF 2
ENDMDL
