MODEL 1
REMARK VINA RESULT: -4.369829284      0.000      0.000
REMARK  2 active torsions:
REMARK  status: ('A' for Active; 'I' for Inactive)
REMARK    1  A    between atoms: N1_2  and  C2_5 
REMARK    2  A    between atoms: C8_11  and  N2_12 
ROOT
HETATM    1  C2  UNL     1      17.580   2.152  11.520  1.00  0.00     0.149 C 
HETATM    2  C3  UNL     1      17.186   3.383  10.683  1.00  0.00     0.048 C 
HETATM    3  C4  UNL     1      16.463   1.149  11.242  1.00  0.00     0.041 C 
HETATM    4  C5  UNL     1      16.942  -0.187  11.672  1.00  0.00     0.002 C 
HETATM    5  C6  UNL     1      18.006  -0.645  10.709  1.00  0.00     0.002 C 
HETATM    6  C7  UNL     1      19.012   0.409  10.377  1.00  0.00     0.035 C 
HETATM    7  C8  UNL     1      18.930   1.662  11.163  1.00  0.00     0.219 C 
ENDROOT
BRANCH   1   8
HETATM    8  N1  UNL     1      17.495   2.465  12.932  1.00  0.00    -0.068 N 
HETATM    9  C1  UNL     1      16.339   3.199  13.304  1.00  0.00     0.267 C 
ATOM     10  H12 UNL     1      18.338   2.950  13.240  1.00  0.00     0.277 HD
ATOM     11  H11 UNL     1      17.570   1.614  13.490  1.00  0.00     0.277 HD
ENDBRANCH   1   8
BRANCH   7  12
HETATM   12  N2  UNL     1      19.585   2.721  10.375  1.00  0.00    -0.073 N 
ATOM     13  H23 UNL     1      19.730   2.461   9.399  1.00  0.00     0.274 HD
ATOM     14  H22 UNL     1      18.982   3.527  10.208  1.00  0.00     0.274 HD
ATOM     15  H21 UNL     1      20.451   2.964  10.855  1.00  0.00     0.274 HD
ENDBRANCH   7  12
TORSDOF 2
ENDMDL
MODEL 2
REMARK VINA RESULT: -4.339677125      2.589      4.903
REMARK  2 active torsions:
REMARK  status: ('A' for Active; 'I' for Inactive)
REMARK    1  A    between atoms: N1_2  and  C2_5 
REMARK    2  A    between atoms: C8_11  and  N2_12 
ROOT
HETATM    1  C2  UNL     1      16.667   2.855  14.582  1.00  0.00     0.149 C 
HETATM    2  C3  UNL     1      17.114   2.013  15.791  1.00  0.00     0.048 C 
HETATM    3  C4  UNL     1      15.232   3.250  14.922  1.00  0.00     0.041 C 
HETATM    4  C5  UNL     1      14.850   4.372  14.031  1.00  0.00     0.002 C 
HETATM    5  C6  UNL     1      15.612   5.600  14.459  1.00  0.00     0.002 C 
HETATM    6  C7  UNL     1      17.061   5.348  14.723  1.00  0.00     0.035 C 
HETATM    7  C8  UNL     1      17.569   4.006  14.358  1.00  0.00     0.219 C 
ENDROOT
BRANCH   1   8
HETATM    8  N1  UNL     1      16.582   2.021  13.400  1.00  0.00    -0.068 N 
HETATM    9  C1  UNL     1      17.204   2.567  12.248  1.00  0.00     0.267 C 
ATOM     10  H12 UNL     1      15.610   1.785  13.201  1.00  0.00     0.277 HD
ATOM     11  H11 UNL     1      16.951   1.090  13.596  1.00  0.00     0.277 HD
ENDBRANCH   1   8
BRANCH   7  12
HETATM   12  N2  UNL     1      18.789   3.766  15.150  1.00  0.00    -0.073 N 
ATOM     13  H23 UNL     1      18.886   4.407  15.937  1.00  0.00     0.274 HD
ATOM     14  H22 UNL     1      18.751   2.901  15.689  1.00  0.00     0.274 HD
ATOM     15  H21 UNL     1      19.579   3.801  14.506  1.00  0.00     0.274 HD
ENDBRANCH   7  12
TORSDOF 2
ENDMDL
MODEL 3
REMARK VINA RESULT: -4.307571329      1.120      1.181
REMARK  2 active torsions:
REMARK  status: ('A' for Active; 'I' for Inactive)
REMARK    1  A    between atoms: N1_2  and  C2_5 
REMARK    2  A    between atoms: C8_11  and  N2_12 
ROOT
HETATM    1  C2  UNL     1      18.124   2.472  11.185  1.00  0.00     0.149 C 
HETATM    2  C3  UNL     1      18.086   3.557  10.091  1.00  0.00     0.048 C 
HETATM    3  C4  UNL     1      16.724   1.864  11.142  1.00  0.00     0.041 C 
HETATM    4  C5  UNL     1      16.775   0.568  11.863  1.00  0.00     0.002 C 
HETATM    5  C6  UNL     1      17.557  -0.412  11.026  1.00  0.00     0.002 C 
HETATM    6  C7  UNL     1      18.821   0.152  10.464  1.00  0.00     0.035 C 
HETATM    7  C8  UNL     1      19.210   1.497  10.946  1.00  0.00     0.219 C 
ENDROOT
BRANCH   1   8
HETATM    8  N1  UNL     1      18.252   3.088  12.490  1.00  0.00    -0.068 N 
HETATM    9  C1  UNL     1      18.851   4.375  12.477  1.00  0.00     0.267 C 
ATOM     10  H12 UNL     1      18.755   2.469  13.127  1.00  0.00     0.277 HD
ATOM     11  H11 UNL     1      17.346   3.122  12.958  1.00  0.00     0.277 HD
ENDBRANCH   1   8
BRANCH   7  12
HETATM   12  N2  UNL     1      20.111   2.084   9.938  1.00  0.00    -0.073 N 
ATOM     13  H23 UNL     1      20.432   3.020  10.186  1.00  0.00     0.274 HD
ATOM     14  H22 UNL     1      21.026   1.634   9.910  1.00  0.00     0.274 HD
ATOM     15  H21 UNL     1      19.624   2.054   9.043  1.00  0.00     0.274 HD
ENDBRANCH   7  12
TORSDOF 2
ENDMDL
MODEL 4
REMARK VINA RESULT: -4.295476635      2.854      5.096
REMARK  2 active torsions:
REMARK  status: ('A' for Active; 'I' for Inactive)
REMARK    1  A    between atoms: N1_2  and  C2_5 
REMARK    2  A    between atoms: C8_11  and  N2_12 
ROOT
HETATM    1  C2  UNL     1      16.518   2.560  14.774  1.00  0.00     0.149 C 
HETATM    2  C3  UNL     1      17.395   3.824  14.850  1.00  0.00     0.048 C 
HETATM    3  C4  UNL     1      17.036   1.687  15.914  1.00  0.00     0.041 C 
HETATM    4  C5  UNL     1      16.017   0.642  16.179  1.00  0.00     0.002 C 
HETATM    5  C6  UNL     1      14.819   1.295  16.818  1.00  0.00     0.002 C 
HETATM    6  C7  UNL     1      14.396   2.563  16.149  1.00  0.00     0.035 C 
HETATM    7  C8  UNL     1      15.080   2.890  14.876  1.00  0.00     0.219 C 
ENDROOT
BRANCH   1   8
HETATM    8  N1  UNL     1      16.801   1.832  13.553  1.00  0.00    -0.068 N 
HETATM    9  C1  UNL     1      16.902   2.644  12.394  1.00  0.00     0.267 C 
ATOM     10  H12 UNL     1      16.111   1.095  13.411  1.00  0.00     0.277 HD
ATOM     11  H11 UNL     1      17.642   1.266  13.665  1.00  0.00     0.277 HD
ENDBRANCH   1   8
BRANCH   7  12
HETATM   12  N2  UNL     1      14.949   4.343  14.667  1.00  0.00    -0.073 N 
ATOM     13  H23 UNL     1      15.368   4.894  15.416  1.00  0.00     0.274 HD
ATOM     14  H22 UNL     1      15.532   4.691  13.905  1.00  0.00     0.274 HD
ATOM     15  H21 UNL     1      13.957   4.541  14.532  1.00  0.00     0.274 HD
ENDBRANCH   7  12
TORSDOF 2
ENDMDL
MODEL 5
REMARK VINA RESULT: -4.138990197      2.660      4.911
REMARK  2 active torsions:
REMARK  status: ('A' for Active; 'I' for Inactive)
REMARK    1  A    between atoms: N1_2  and  C2_5 
REMARK    2  A    between atoms: C8_11  and  N2_12 
ROOT
HETATM    1  C2  UNL     1      17.489   3.989  13.753  1.00  0.00     0.149 C 
HETATM    2  C3  UNL     1      17.046   3.180  14.987  1.00  0.00     0.048 C 
HETATM    3  C4  UNL     1      16.351   4.985  13.544  1.00  0.00     0.041 C 
HETATM    4  C5  UNL     1      16.850   6.055  12.645  1.00  0.00     0.002 C 
HETATM    5  C6  UNL     1      17.848   6.890  13.407  1.00  0.00     0.002 C 
HETATM    6  C7  UNL     1      18.834   6.084  14.188  1.00  0.00     0.035 C 
HETATM    7  C8  UNL     1      18.809   4.620  13.963  1.00  0.00     0.219 C 
ENDROOT
BRANCH   1   8
HETATM    8  N1  UNL     1      17.497   3.139  12.580  1.00  0.00    -0.068 N 
HETATM    9  C1  UNL     1      16.632   2.016  12.660  1.00  0.00     0.267 C 
ATOM     10  H12 UNL     1      18.448   2.840  12.365  1.00  0.00     0.277 HD
ATOM     11  H11 UNL     1      17.292   3.686  11.743  1.00  0.00     0.277 HD
ENDBRANCH   1   8
BRANCH   7  12
HETATM   12  N2  UNL     1      19.417   3.982  15.144  1.00  0.00    -0.073 N 
ATOM     13  H23 UNL     1      18.935   4.210  16.013  1.00  0.00     0.274 HD
ATOM     14  H22 UNL     1      19.271   2.973  15.172  1.00  0.00     0.274 HD
ATOM     15  H21 UNL     1      20.403   4.243  15.155  1.00  0.00     0.274 HD
ENDBRANCH   7  12
TORSDOF 2
ENDMDL
