MODEL 1
REMARK VINA RESULT: -4.765750087      0.000      0.000
REMARK  3 active torsions:
REMARK  status: ('A' for Active; 'I' for Inactive)
REMARK    1  A    between atoms: C2_2  and  N1_3 
REMARK    2  A    between atoms: C2_2  and  C3_7 
REMARK    3  A    between atoms: C3_7  and  N2_8 
ROOT
HETATM    1  C3  UNL     1      16.481   2.829  14.547  1.00  0.00     0.151 C 
HETATM    2  C4  UNL     1      17.592   3.784  14.598  1.00  0.00     0.041 C 
HETATM    3  C5  UNL     1      17.285   5.235  14.561  1.00  0.00     0.002 C 
HETATM    4  C6  UNL     1      15.976   5.584  13.920  1.00  0.00     0.000 C 
HETATM    5  C7  UNL     1      14.926   4.799  14.674  1.00  0.00     0.002 C 
HETATM    6  C8  UNL     1      15.129   3.365  14.234  1.00  0.00     0.041 C 
ENDROOT
BRANCH   1   7
HETATM    7  C2  UNL     1      16.402   1.986  15.830  1.00  0.00     0.215 C 
HETATM    8  C1  UNL     1      14.970   1.751  16.239  1.00  0.00     0.042 C 
BRANCH   7   9
HETATM    9  N1  UNL     1      16.962   0.660  15.530  1.00  0.00    -0.073 N 
ATOM     10  H13 UNL     1      16.666  -0.064  16.185  1.00  0.00     0.274 HD
ATOM     11  H12 UNL     1      16.570   0.234  14.689  1.00  0.00     0.274 HD
ATOM     12  H11 UNL     1      17.974   0.783  15.491  1.00  0.00     0.274 HD
ENDBRANCH   7   9
ENDBRANCH   1   7
BRANCH   1  13
HETATM   13  N2  UNL     1      16.774   1.828  13.500  1.00  0.00    -0.068 N 
ATOM     14  H23 UNL     1      17.767   1.680  13.321  1.00  0.00     0.275 HD
ATOM     15  H22 UNL     1      16.570   0.864  13.766  1.00  0.00     0.275 HD
ATOM     16  H21 UNL     1      16.244   2.166  12.697  1.00  0.00     0.275 HD
ENDBRANCH   1  13
TORSDOF 3
ENDMDL
MODEL 2
REMARK VINA RESULT: -4.408817644      1.346      2.696
REMARK  3 active torsions:
REMARK  status: ('A' for Active; 'I' for Inactive)
REMARK    1  A    between atoms: C2_2  and  N1_3 
REMARK    2  A    between atoms: C2_2  and  C3_7 
REMARK    3  A    between atoms: C3_7  and  N2_8 
ROOT
HETATM    1  C3  UNL     1      16.576   3.070  14.045  1.00  0.00     0.151 C 
HETATM    2  C4  UNL     1      15.216   3.500  14.383  1.00  0.00     0.041 C 
HETATM    3  C5  UNL     1      14.934   4.954  14.478  1.00  0.00     0.002 C 
HETATM    4  C6  UNL     1      16.129   5.808  14.781  1.00  0.00     0.000 C 
HETATM    5  C7  UNL     1      17.142   5.494  13.702  1.00  0.00     0.002 C 
HETATM    6  C8  UNL     1      17.644   4.106  14.038  1.00  0.00     0.041 C 
ENDROOT
BRANCH   1   7
HETATM    7  C2  UNL     1      16.611   2.306  12.711  1.00  0.00     0.215 C 
HETATM    8  C1  UNL     1      17.726   2.805  11.827  1.00  0.00     0.042 C 
BRANCH   7   9
HETATM    9  N1  UNL     1      16.924   0.900  13.007  1.00  0.00    -0.073 N 
ATOM     10  H13 UNL     1      16.118   0.280  12.935  1.00  0.00     0.274 HD
ATOM     11  H12 UNL     1      17.492   0.450  12.289  1.00  0.00     0.274 HD
ATOM     12  H11 UNL     1      17.358   0.897  13.931  1.00  0.00     0.274 HD
ENDBRANCH   7   9
ENDBRANCH   1   7
BRANCH   1  13
HETATM   13  N2  UNL     1      17.002   2.053  15.029  1.00  0.00    -0.068 N 
ATOM     14  H23 UNL     1      17.688   2.382  15.709  1.00  0.00     0.275 HD
ATOM     15  H22 UNL     1      16.289   1.801  15.713  1.00  0.00     0.275 HD
ATOM     16  H21 UNL     1      17.321   1.280  14.445  1.00  0.00     0.275 HD
ENDBRANCH   1  13
TORSDOF 3
ENDMDL
MODEL 3
REMARK VINA RESULT: -4.302691022      4.025      5.359
REMARK  3 active torsions:
REMARK  status: ('A' for Active; 'I' for Inactive)
REMARK    1  A    between atoms: C2_2  and  N1_3 
REMARK    2  A    between atoms: C2_2  and  C3_7 
REMARK    3  A    between atoms: C3_7  and  N2_8 
ROOT
HETATM    1  C3  UNL     1      17.668   2.355  11.496  1.00  0.00     0.151 C 
HETATM    2  C4  UNL     1      18.931   1.753  11.058  1.00  0.00     0.041 C 
HETATM    3  C5  UNL     1      18.915   0.362  10.544  1.00  0.00     0.002 C 
HETATM    4  C6  UNL     1      17.771  -0.476  11.031  1.00  0.00     0.000 C 
HETATM    5  C7  UNL     1      16.517   0.284  10.658  1.00  0.00     0.002 C 
HETATM    6  C8  UNL     1      16.484   1.461  11.609  1.00  0.00     0.041 C 
ENDROOT
BRANCH   1   7
HETATM    7  C2  UNL     1      17.296   3.574  10.636  1.00  0.00     0.215 C 
HETATM    8  C1  UNL     1      17.122   4.806  11.486  1.00  0.00     0.042 C 
BRANCH   7   9
HETATM    9  N1  UNL     1      18.429   3.853   9.742  1.00  0.00    -0.073 N 
ATOM     10  H13 UNL     1      18.838   3.014   9.329  1.00  0.00     0.274 HD
ATOM     11  H12 UNL     1      18.156   4.301   8.866  1.00  0.00     0.274 HD
ATOM     12  H11 UNL     1      19.092   4.401  10.290  1.00  0.00     0.274 HD
ENDBRANCH   7   9
ENDBRANCH   1   7
BRANCH   1  13
HETATM   13  N2  UNL     1      17.868   2.936  12.840  1.00  0.00    -0.068 N 
ATOM     14  H23 UNL     1      18.283   3.868  12.841  1.00  0.00     0.275 HD
ATOM     15  H22 UNL     1      17.009   3.203  13.319  1.00  0.00     0.275 HD
ATOM     16  H21 UNL     1      18.420   2.226  13.323  1.00  0.00     0.275 HD
ENDBRANCH   1  13
TORSDOF 3
ENDMDL
MODEL 4
REMARK VINA RESULT: -4.280537924      1.008      1.012
REMARK  3 active torsions:
REMARK  status: ('A' for Active; 'I' for Inactive)
REMARK    1  A    between atoms: C2_2  and  N1_3 
REMARK    2  A    between atoms: C2_2  and  C3_7 
REMARK    3  A    between atoms: C3_7  and  N2_8 
ROOT
HETATM    1  C3  UNL     1      16.565   3.074  14.314  1.00  0.00     0.151 C 
HETATM    2  C4  UNL     1      17.599   4.098  14.135  1.00  0.00     0.041 C 
HETATM    3  C5  UNL     1      17.186   5.522  14.066  1.00  0.00     0.002 C 
HETATM    4  C6  UNL     1      15.772   5.745  13.623  1.00  0.00     0.000 C 
HETATM    5  C7  UNL     1      14.910   4.947  14.577  1.00  0.00     0.002 C 
HETATM    6  C8  UNL     1      15.146   3.503  14.191  1.00  0.00     0.041 C 
ENDROOT
BRANCH   1   7
HETATM    7  C2  UNL     1      16.747   2.315  15.638  1.00  0.00     0.215 C 
HETATM    8  C1  UNL     1      16.537   0.834  15.449  1.00  0.00     0.042 C 
BRANCH   7   9
HETATM    9  N1  UNL     1      18.147   2.476  16.058  1.00  0.00    -0.073 N 
ATOM     10  H13 UNL     1      18.266   2.524  17.070  1.00  0.00     0.274 HD
ATOM     11  H12 UNL     1      18.716   1.643  15.906  1.00  0.00     0.274 HD
ATOM     12  H11 UNL     1      18.495   3.301  15.569  1.00  0.00     0.274 HD
ENDBRANCH   7   9
ENDBRANCH   1   7
BRANCH   1  13
HETATM   13  N2  UNL     1      16.764   2.027  13.291  1.00  0.00    -0.068 N 
ATOM     14  H23 UNL     1      17.689   2.024  12.860  1.00  0.00     0.275 HD
ATOM     15  H22 UNL     1      16.817   1.078  13.661  1.00  0.00     0.275 HD
ATOM     16  H21 UNL     1      15.994   2.185  12.640  1.00  0.00     0.275 HD
ENDBRANCH   1  13
TORSDOF 3
ENDMDL
MODEL 5
REMARK VINA RESULT: -4.275854648      4.597      5.958
REMARK  3 active torsions:
REMARK  status: ('A' for Active; 'I' for Inactive)
REMARK    1  A    between atoms: C2_2  and  N1_3 
REMARK    2  A    between atoms: C2_2  and  C3_7 
REMARK    3  A    between atoms: C3_7  and  N2_8 
ROOT
HETATM    1  C3  UNL     1      19.174   2.383  10.968  1.00  0.00     0.151 C 
HETATM    2  C4  UNL     1      19.453   0.990  10.603  1.00  0.00     0.041 C 
HETATM    3  C5  UNL     1      18.346   0.005  10.660  1.00  0.00     0.002 C 
HETATM    4  C6  UNL     1      17.231   0.366  11.595  1.00  0.00     0.000 C 
HETATM    5  C7  UNL     1      16.754   1.733  11.159  1.00  0.00     0.002 C 
HETATM    6  C8  UNL     1      17.855   2.679  11.588  1.00  0.00     0.041 C 
ENDROOT
BRANCH   1   7
HETATM    7  C2  UNL     1      19.394   3.332   9.778  1.00  0.00     0.215 C 
HETATM    8  C1  UNL     1      19.693   4.733  10.249  1.00  0.00     0.042 C 
BRANCH   7   9
HETATM    9  N1  UNL     1      20.594   2.879   9.060  1.00  0.00    -0.073 N 
ATOM     10  H13 UNL     1      20.387   2.284   8.258  1.00  0.00     0.274 HD
ATOM     11  H12 UNL     1      21.064   3.624   8.543  1.00  0.00     0.274 HD
ATOM     12  H11 UNL     1      21.188   2.430   9.757  1.00  0.00     0.274 HD
ENDBRANCH   7   9
ENDBRANCH   1   7
BRANCH   1  13
HETATM   13  N2  UNL     1      20.192   2.822  11.945  1.00  0.00    -0.068 N 
ATOM     14  H23 UNL     1      19.898   2.760  12.920  1.00  0.00     0.275 HD
ATOM     15  H22 UNL     1      20.990   2.194  12.036  1.00  0.00     0.275 HD
ATOM     16  H21 UNL     1      20.426   3.764  11.633  1.00  0.00     0.275 HD
ENDBRANCH   1  13
TORSDOF 3
ENDMDL
