MODEL 1
REMARK VINA RESULT: -4.607418258      0.000      0.000
REMARK  1 active torsions:
REMARK  status: ('A' for Active; 'I' for Inactive)
REMARK    1  A    between atoms: N1_2  and  C2_5 
ROOT
HETATM    1  C2  UNL     1      17.355  -0.283  11.088  1.00  0.00     0.190 C 
HETATM    2  C3  UNL     1      18.727  -0.081  10.576  1.00  0.00     0.077 C 
HETATM    3  C4  UNL     1      19.403   1.194  10.875  1.00  0.00     0.058 C 
HETATM    4  N2  UNL     1      18.647   2.258  11.372  1.00  0.00    -0.398 N 
ATOM      5  H2  UNL     1      19.011   2.839  12.126  1.00  0.00     0.159 HD
HETATM    6  C5  UNL     1      17.383   2.519  10.821  1.00  0.00     0.076 C 
HETATM    7  C6  UNL     1      17.140   4.024  10.860  1.00  0.00     0.032 C 
HETATM    8  C7  UNL     1      16.338   1.857  11.725  1.00  0.00     0.027 C 
HETATM    9  C8  UNL     1      17.006   0.609  12.270  1.00  0.00     0.035 C 
ENDROOT
BRANCH   1  10
HETATM   10  N1  UNL     1      17.095  -1.641  11.566  1.00  0.00    -0.074 N 
HETATM   11  C1  UNL     1      18.128  -2.572  11.269  1.00  0.00     0.267 C 
ATOM     12  H12 UNL     1      16.198  -1.977  11.214  1.00  0.00     0.277 HD
ATOM     13  H11 UNL     1      16.896  -1.635  12.567  1.00  0.00     0.277 HD
ENDBRANCH   1  10
TORSDOF 1
ENDMDL
MODEL 2
REMARK VINA RESULT: -4.421160765      2.014      2.609
REMARK  1 active torsions:
REMARK  status: ('A' for Active; 'I' for Inactive)
REMARK    1  A    between atoms: N1_2  and  C2_5 
ROOT
HETATM    1  C2  UNL     1      16.494   2.081  11.285  1.00  0.00     0.190 C 
HETATM    2  C3  UNL     1      17.672   2.730  10.673  1.00  0.00     0.077 C 
HETATM    3  C4  UNL     1      18.652   3.377  11.562  1.00  0.00     0.058 C 
HETATM    4  N2  UNL     1      18.306   3.605  12.896  1.00  0.00    -0.398 N 
ATOM      5  H2  UNL     1      18.982   3.432  13.640  1.00  0.00     0.159 HD
HETATM    6  C5  UNL     1      17.019   4.074  13.201  1.00  0.00     0.076 C 
HETATM    7  C6  UNL     1      17.112   4.980  14.424  1.00  0.00     0.032 C 
HETATM    8  C7  UNL     1      16.164   2.862  13.587  1.00  0.00     0.027 C 
HETATM    9  C8  UNL     1      16.689   1.713  12.747  1.00  0.00     0.035 C 
ENDROOT
BRANCH   1  10
HETATM   10  N1  UNL     1      16.108   0.825  10.640  1.00  0.00    -0.074 N 
HETATM   11  C1  UNL     1      16.838  -0.310  11.089  1.00  0.00     0.267 C 
ATOM     12  H12 UNL     1      16.169   0.911   9.626  1.00  0.00     0.277 HD
ATOM     13  H11 UNL     1      15.105   0.666  10.741  1.00  0.00     0.277 HD
ENDBRANCH   1  10
TORSDOF 1
ENDMDL
MODEL 3
REMARK VINA RESULT: -4.270939106      1.509      4.122
REMARK  1 active torsions:
REMARK  status: ('A' for Active; 'I' for Inactive)
REMARK    1  A    between atoms: N1_2  and  C2_5 
ROOT
HETATM    1  C2  UNL     1      18.332   2.705  10.357  1.00  0.00     0.190 C 
HETATM    2  C3  UNL     1      17.233   3.174  11.227  1.00  0.00     0.077 C 
HETATM    3  C4  UNL     1      16.840   2.332  12.370  1.00  0.00     0.058 C 
HETATM    4  N2  UNL     1      17.306   1.018  12.432  1.00  0.00    -0.398 N 
ATOM      5  H2  UNL     1      17.631   0.627  13.316  1.00  0.00     0.159 HD
HETATM    6  C5  UNL     1      17.324   0.239  11.264  1.00  0.00     0.076 C 
HETATM    7  C6  UNL     1      17.052  -1.212  11.647  1.00  0.00     0.032 C 
HETATM    8  C7  UNL     1      18.739   0.308  10.682  1.00  0.00     0.027 C 
HETATM    9  C8  UNL     1      19.251   1.694  11.025  1.00  0.00     0.035 C 
ENDROOT
BRANCH   1  10
HETATM   10  N1  UNL     1      19.228   3.771   9.907  1.00  0.00    -0.074 N 
HETATM   11  C1  UNL     1      20.231   3.343   8.994  1.00  0.00     0.267 C 
ATOM     12  H12 UNL     1      19.650   4.244  10.706  1.00  0.00     0.277 HD
ATOM     13  H11 UNL     1      18.692   4.544   9.511  1.00  0.00     0.277 HD
ENDBRANCH   1  10
TORSDOF 1
ENDMDL
MODEL 4
REMARK VINA RESULT: -4.246875167      0.979      2.194
REMARK  1 active torsions:
REMARK  status: ('A' for Active; 'I' for Inactive)
REMARK    1  A    between atoms: N1_2  and  C2_5 
ROOT
HETATM    1  C2  UNL     1      17.611  -0.123  11.640  1.00  0.00     0.190 C 
HETATM    2  C3  UNL     1      16.566   0.881  11.934  1.00  0.00     0.077 C 
HETATM    3  C4  UNL     1      16.616   2.169  11.221  1.00  0.00     0.058 C 
HETATM    4  N2  UNL     1      17.776   2.509  10.522  1.00  0.00    -0.398 N 
ATOM      5  H2  UNL     1      17.714   2.943   9.601  1.00  0.00     0.159 HD
HETATM    6  C5  UNL     1      19.028   2.248  11.100  1.00  0.00     0.076 C 
HETATM    7  C6  UNL     1      20.000   3.339  10.661  1.00  0.00     0.032 C 
HETATM    8  C7  UNL     1      19.534   0.920  10.529  1.00  0.00     0.027 C 
HETATM    9  C8  UNL     1      18.292   0.080  10.296  1.00  0.00     0.035 C 
ENDROOT
BRANCH   1  10
HETATM   10  N1  UNL     1      17.115  -1.499  11.594  1.00  0.00    -0.074 N 
HETATM   11  C1  UNL     1      18.109  -2.467  11.282  1.00  0.00     0.267 C 
ATOM     12  H12 UNL     1      16.328  -1.573  10.949  1.00  0.00     0.277 HD
ATOM     13  H11 UNL     1      16.645  -1.738  12.468  1.00  0.00     0.277 HD
ENDBRANCH   1  10
TORSDOF 1
ENDMDL
MODEL 5
REMARK VINA RESULT: -4.219537816      3.423      4.269
REMARK  1 active torsions:
REMARK  status: ('A' for Active; 'I' for Inactive)
REMARK    1  A    between atoms: N1_2  and  C2_5 
ROOT
HETATM    1  C2  UNL     1      16.598   2.836  14.694  1.00  0.00     0.190 C 
HETATM    2  C3  UNL     1      16.514   2.210  13.358  1.00  0.00     0.077 C 
HETATM    3  C4  UNL     1      16.940   2.999  12.190  1.00  0.00     0.058 C 
HETATM    4  N2  UNL     1      17.133   4.374  12.338  1.00  0.00    -0.398 N 
ATOM      5  H2  UNL     1      17.932   4.833  11.902  1.00  0.00     0.159 HD
HETATM    6  C5  UNL     1      16.213   5.119  13.094  1.00  0.00     0.076 C 
HETATM    7  C6  UNL     1      16.104   6.513  12.485  1.00  0.00     0.032 C 
HETATM    8  C7  UNL     1      16.792   5.274  14.505  1.00  0.00     0.027 C 
HETATM    9  C8  UNL     1      17.573   4.000  14.764  1.00  0.00     0.035 C 
ENDROOT
BRANCH   1  10
HETATM   10  N1  UNL     1      17.041   1.924  15.750  1.00  0.00    -0.074 N 
HETATM   11  C1  UNL     1      16.571   0.590  15.603  1.00  0.00     0.267 C 
ATOM     12  H12 UNL     1      16.790   2.292  16.668  1.00  0.00     0.277 HD
ATOM     13  H11 UNL     1      18.058   1.938  15.830  1.00  0.00     0.277 HD
ENDBRANCH   1  10
TORSDOF 1
ENDMDL
