MODEL 1
REMARK VINA RESULT: -9.118562081      0.000      0.000
REMARK  2 active torsions:
REMARK  status: ('A' for Active; 'I' for Inactive)
REMARK    1  A    between atoms: C6_6  and  N1_7 
REMARK       I    between atoms: N1_7  and  C7_9 
REMARK    2  A    between atoms: C7_9  and  C8_11 
ROOT
HETATM    1  C1  UNL     1     -14.602  26.970  -0.033  1.00  0.00     0.018 C 
HETATM    2  C2  UNL     1     -14.928  28.088  -0.386  1.00  0.00    -0.078 C 
HETATM    3  C3  UNL     1     -15.331  29.394  -0.813  1.00  0.00     0.017 A 
HETATM    4  C4  UNL     1     -14.593  30.481  -0.394  1.00  0.00     0.023 A 
HETATM    5  C5  UNL     1     -14.921  31.764  -0.766  1.00  0.00     0.031 A 
HETATM    6  C6  UNL     1     -16.035  31.996  -1.597  1.00  0.00     0.034 A 
HETATM    7  C15 UNL     1     -16.745  30.906  -1.996  1.00  0.00     0.031 A 
HETATM    8  C16 UNL     1     -16.421  29.599  -1.625  1.00  0.00     0.023 A 
ENDROOT
BRANCH   6   9
HETATM    9  N1  UNL     1     -16.329  33.328  -1.950  1.00  0.00    -0.324 N 
HETATM   10  C7  UNL     1     -17.159  34.246  -1.285  1.00  0.00     0.269 C 
HETATM   11  O1  UNL     1     -17.787  33.999  -0.232  1.00  0.00    -0.269 OA
ATOM     12  H1  UNL     1     -15.881  33.670  -2.800  1.00  0.00     0.169 HD
BRANCH  10  13
HETATM   13  C8  UNL     1     -17.337  35.630  -1.837  1.00  0.00     0.370 C 
HETATM   14  O2  UNL     1     -18.616  35.788  -2.401  1.00  0.00    -0.316 OA
HETATM   15  C9  UNL     1     -18.943  36.711  -3.372  1.00  0.00     0.106 A 
HETATM   16  C10 UNL     1     -20.304  36.920  -3.650  1.00  0.00     0.040 A 
HETATM   17  C14 UNL     1     -18.044  37.455  -4.102  1.00  0.00     0.122 A 
HETATM   18  C11 UNL     1     -20.715  37.822  -4.602  1.00  0.00     0.003 A 
HETATM   19  C12 UNL     1     -19.814  38.566  -5.332  1.00  0.00     0.003 A 
HETATM   20  C13 UNL     1     -18.481  38.364  -5.064  1.00  0.00     0.041 A 
HETATM   21  O3  UNL     1     -16.671  37.338  -3.919  1.00  0.00    -0.228 OA
HETATM   22  S1  UNL     1     -16.132  35.938  -3.117  1.00  0.00     0.307 S 
HETATM   23  O4  UNL     1     -14.775  36.172  -2.580  1.00  0.00    -0.195 OA
HETATM   24  O5  UNL     1     -16.196  34.774  -4.071  1.00  0.00    -0.195 OA
ENDBRANCH  10  13
ENDBRANCH   6   9
TORSDOF 2
ENDMDL
MODEL 2
REMARK VINA RESULT: -8.658188050      2.831      8.341
REMARK  2 active torsions:
REMARK  status: ('A' for Active; 'I' for Inactive)
REMARK    1  A    between atoms: C6_6  and  N1_7 
REMARK       I    between atoms: N1_7  and  C7_9 
REMARK    2  A    between atoms: C7_9  and  C8_11 
ROOT
HETATM    1  C1  UNL     1     -20.621  38.161  -2.656  1.00  0.00     0.018 C 
HETATM    2  C2  UNL     1     -19.747  37.319  -2.569  1.00  0.00    -0.078 C 
HETATM    3  C3  UNL     1     -18.729  36.320  -2.445  1.00  0.00     0.017 A 
HETATM    4  C4  UNL     1     -17.804  36.194  -3.460  1.00  0.00     0.023 A 
HETATM    5  C5  UNL     1     -16.797  35.257  -3.408  1.00  0.00     0.031 A 
HETATM    6  C6  UNL     1     -16.691  34.395  -2.299  1.00  0.00     0.034 A 
HETATM    7  C15 UNL     1     -17.616  34.542  -1.313  1.00  0.00     0.031 A 
HETATM    8  C16 UNL     1     -18.641  35.489  -1.354  1.00  0.00     0.023 A 
ENDROOT
BRANCH   6   9
HETATM    9  N1  UNL     1     -15.643  33.454  -2.293  1.00  0.00    -0.324 N 
HETATM   10  C7  UNL     1     -15.727  32.052  -2.262  1.00  0.00     0.269 C 
HETATM   11  O1  UNL     1     -16.799  31.407  -2.232  1.00  0.00    -0.269 OA
ATOM     12  H1  UNL     1     -14.699  33.840  -2.315  1.00  0.00     0.169 HD
BRANCH  10  13
HETATM   13  C8  UNL     1     -14.474  31.226  -2.261  1.00  0.00     0.370 C 
HETATM   14  O2  UNL     1     -14.602  30.115  -1.407  1.00  0.00    -0.316 OA
HETATM   15  C9  UNL     1     -13.549  29.446  -0.818  1.00  0.00     0.106 A 
HETATM   16  C10 UNL     1     -13.816  28.212  -0.202  1.00  0.00     0.040 A 
HETATM   17  C14 UNL     1     -12.246  29.885  -0.779  1.00  0.00     0.122 A 
HETATM   18  C11 UNL     1     -12.825  27.481   0.407  1.00  0.00     0.003 A 
HETATM   19  C12 UNL     1     -11.520  27.921   0.445  1.00  0.00     0.003 A 
HETATM   20  C13 UNL     1     -11.254  29.129  -0.156  1.00  0.00     0.041 A 
HETATM   21  O3  UNL     1     -11.856  31.090  -1.353  1.00  0.00    -0.228 OA
HETATM   22  S1  UNL     1     -13.098  32.204  -1.684  1.00  0.00     0.307 S 
HETATM   23  O4  UNL     1     -12.627  33.178  -2.692  1.00  0.00    -0.195 OA
HETATM   24  O5  UNL     1     -13.527  32.853  -0.395  1.00  0.00    -0.195 OA
ENDBRANCH  10  13
ENDBRANCH   6   9
TORSDOF 2
ENDMDL
MODEL 3
REMARK VINA RESULT: -8.609470793      4.855      5.976
REMARK  2 active torsions:
REMARK  status: ('A' for Active; 'I' for Inactive)
REMARK    1  A    between atoms: C6_6  and  N1_7 
REMARK       I    between atoms: N1_7  and  C7_9 
REMARK    2  A    between atoms: C7_9  and  C8_11 
ROOT
HETATM    1  C1  UNL     1     -16.029  24.792   0.208  1.00  0.00     0.018 C 
HETATM    2  C2  UNL     1     -15.615  25.920   0.014  1.00  0.00    -0.078 C 
HETATM    3  C3  UNL     1     -15.152  27.254  -0.218  1.00  0.00     0.017 A 
HETATM    4  C4  UNL     1     -13.800  27.508  -0.120  1.00  0.00     0.023 A 
HETATM    5  C5  UNL     1     -13.284  28.766  -0.331  1.00  0.00     0.031 A 
HETATM    6  C6  UNL     1     -14.141  29.836  -0.656  1.00  0.00     0.034 A 
HETATM    7  C15 UNL     1     -15.469  29.557  -0.747  1.00  0.00     0.031 A 
HETATM    8  C16 UNL     1     -16.004  28.285  -0.536  1.00  0.00     0.023 A 
ENDROOT
BRANCH   6   9
HETATM    9  N1  UNL     1     -13.563  31.104  -0.863  1.00  0.00    -0.324 N 
HETATM   10  C7  UNL     1     -13.527  31.867  -2.042  1.00  0.00     0.269 C 
HETATM   11  O1  UNL     1     -14.028  31.511  -3.132  1.00  0.00    -0.269 OA
ATOM     12  H1  UNL     1     -13.112  31.524  -0.050  1.00  0.00     0.169 HD
BRANCH  10  13
HETATM   13  C8  UNL     1     -12.853  33.208  -2.046  1.00  0.00     0.370 C 
HETATM   14  O2  UNL     1     -11.994  33.345  -0.942  1.00  0.00    -0.316 OA
HETATM   15  C9  UNL     1     -11.604  34.547  -0.389  1.00  0.00     0.106 A 
HETATM   16  C10 UNL     1     -10.550  34.533   0.541  1.00  0.00     0.040 A 
HETATM   17  C14 UNL     1     -12.160  35.774  -0.670  1.00  0.00     0.122 A 
HETATM   18  C11 UNL     1     -10.100  35.686   1.139  1.00  0.00     0.003 A 
HETATM   19  C12 UNL     1     -10.658  36.913   0.856  1.00  0.00     0.003 A 
HETATM   20  C13 UNL     1     -11.689  36.932  -0.053  1.00  0.00     0.041 A 
HETATM   21  O3  UNL     1     -13.208  35.918  -1.572  1.00  0.00    -0.228 OA
HETATM   22  S1  UNL     1     -14.075  34.506  -1.954  1.00  0.00     0.307 S 
HETATM   23  O4  UNL     1     -14.796  34.703  -3.230  1.00  0.00    -0.195 OA
HETATM   24  O5  UNL     1     -14.990  34.169  -0.807  1.00  0.00    -0.195 OA
ENDBRANCH  10  13
ENDBRANCH   6   9
TORSDOF 2
ENDMDL
MODEL 4
REMARK VINA RESULT: -8.482664166      3.140      8.879
REMARK  2 active torsions:
REMARK  status: ('A' for Active; 'I' for Inactive)
REMARK    1  A    between atoms: C6_6  and  N1_7 
REMARK       I    between atoms: N1_7  and  C7_9 
REMARK    2  A    between atoms: C7_9  and  C8_11 
ROOT
HETATM    1  C1  UNL     1     -17.602  38.583  -4.300  1.00  0.00     0.018 C 
HETATM    2  C2  UNL     1     -17.399  37.485  -3.815  1.00  0.00    -0.078 C 
HETATM    3  C3  UNL     1     -17.142  36.190  -3.262  1.00  0.00     0.017 A 
HETATM    4  C4  UNL     1     -17.885  35.780  -2.175  1.00  0.00     0.023 A 
HETATM    5  C5  UNL     1     -17.693  34.548  -1.591  1.00  0.00     0.031 A 
HETATM    6  C6  UNL     1     -16.718  33.669  -2.103  1.00  0.00     0.034 A 
HETATM    7  C15 UNL     1     -16.001  34.099  -3.175  1.00  0.00     0.031 A 
HETATM    8  C16 UNL     1     -16.187  35.346  -3.776  1.00  0.00     0.023 A 
ENDROOT
BRANCH   6   9
HETATM    9  N1  UNL     1     -16.560  32.419  -1.471  1.00  0.00    -0.324 N 
HETATM   10  C7  UNL     1     -15.377  31.808  -1.026  1.00  0.00     0.269 C 
HETATM   11  O1  UNL     1     -14.236  32.310  -1.134  1.00  0.00    -0.269 OA
ATOM     12  H1  UNL     1     -17.418  31.890  -1.316  1.00  0.00     0.169 HD
BRANCH  10  13
HETATM   13  C8  UNL     1     -15.430  30.459  -0.372  1.00  0.00     0.370 C 
HETATM   14  O2  UNL     1     -14.137  29.971  -0.112  1.00  0.00    -0.316 OA
HETATM   15  C9  UNL     1     -13.808  28.639   0.029  1.00  0.00     0.106 A 
HETATM   16  C10 UNL     1     -12.536  28.325   0.535  1.00  0.00     0.040 A 
HETATM   17  C14 UNL     1     -14.625  27.577  -0.286  1.00  0.00     0.122 A 
HETATM   18  C11 UNL     1     -12.129  27.024   0.706  1.00  0.00     0.003 A 
HETATM   19  C12 UNL     1     -12.948  25.961   0.392  1.00  0.00     0.003 A 
HETATM   20  C13 UNL     1     -14.193  26.264  -0.104  1.00  0.00     0.041 A 
HETATM   21  O3  UNL     1     -15.906  27.758  -0.794  1.00  0.00    -0.228 OA
HETATM   22  S1  UNL     1     -16.250  29.291  -1.445  1.00  0.00     0.307 S 
HETATM   23  O4  UNL     1     -17.715  29.488  -1.489  1.00  0.00    -0.195 OA
HETATM   24  O5  UNL     1     -15.600  29.404  -2.798  1.00  0.00    -0.195 OA
ENDBRANCH  10  13
ENDBRANCH   6   9
TORSDOF 2
ENDMDL
MODEL 5
REMARK VINA RESULT: -8.400850087      3.128      8.721
REMARK  2 active torsions:
REMARK  status: ('A' for Active; 'I' for Inactive)
REMARK    1  A    between atoms: C6_6  and  N1_7 
REMARK       I    between atoms: N1_7  and  C7_9 
REMARK    2  A    between atoms: C7_9  and  C8_11 
ROOT
HETATM    1  C1  UNL     1     -19.167  38.014  -3.290  1.00  0.00     0.018 C 
HETATM    2  C2  UNL     1     -18.544  36.993  -3.063  1.00  0.00    -0.078 C 
HETATM    3  C3  UNL     1     -17.826  35.789  -2.777  1.00  0.00     0.017 A 
HETATM    4  C4  UNL     1     -16.817  35.404  -3.634  1.00  0.00     0.023 A 
HETATM    5  C5  UNL     1     -16.085  34.259  -3.421  1.00  0.00     0.031 A 
HETATM    6  C6  UNL     1     -16.356  33.445  -2.304  1.00  0.00     0.034 A 
HETATM    7  C15 UNL     1     -17.355  33.848  -1.474  1.00  0.00     0.031 A 
HETATM    8  C16 UNL     1     -18.105  35.008  -1.680  1.00  0.00     0.023 A 
ENDROOT
BRANCH   6   9
HETATM    9  N1  UNL     1     -15.577  32.283  -2.129  1.00  0.00    -0.324 N 
HETATM   10  C7  UNL     1     -15.957  30.942  -2.304  1.00  0.00     0.269 C 
HETATM   11  O1  UNL     1     -17.098  30.569  -2.656  1.00  0.00    -0.269 OA
ATOM     12  H1  UNL     1     -14.611  32.436  -1.838  1.00  0.00     0.169 HD
BRANCH  10  13
HETATM   13  C8  UNL     1     -14.963  29.844  -2.062  1.00  0.00     0.370 C 
HETATM   14  O2  UNL     1     -15.598  28.682  -1.590  1.00  0.00    -0.316 OA
HETATM   15  C9  UNL     1     -14.987  27.694  -0.847  1.00  0.00     0.106 A 
HETATM   16  C10 UNL     1     -15.677  26.483  -0.668  1.00  0.00     0.040 A 
HETATM   17  C14 UNL     1     -13.747  27.789  -0.258  1.00  0.00     0.122 A 
HETATM   18  C11 UNL     1     -15.140  25.447   0.058  1.00  0.00     0.003 A 
HETATM   19  C12 UNL     1     -13.898  25.543   0.647  1.00  0.00     0.003 A 
HETATM   20  C13 UNL     1     -13.219  26.727   0.475  1.00  0.00     0.041 A 
HETATM   21  O3  UNL     1     -12.967  28.935  -0.363  1.00  0.00    -0.228 OA
HETATM   22  S1  UNL     1     -13.774  30.356  -0.833  1.00  0.00     0.307 S 
HETATM   23  O4  UNL     1     -12.791  31.327  -1.359  1.00  0.00    -0.195 OA
HETATM   24  O5  UNL     1     -14.554  30.885   0.341  1.00  0.00    -0.195 OA
ENDBRANCH  10  13
ENDBRANCH   6   9
TORSDOF 2
ENDMDL
