MODEL 1
REMARK VINA RESULT: -8.458525550      0.000      0.000
REMARK  3 active torsions:
REMARK  status: ('A' for Active; 'I' for Inactive)
REMARK    1  A    between atoms: C6_6  and  C7_7 
REMARK    2  A    between atoms: C10_13  and  O1_14 
REMARK    3  A    between atoms: O1_14  and  C11_15 
REMARK       I    between atoms: C11_15  and  N2_17 
ROOT
HETATM    1  C7  UNL     1     -13.433  30.742  -1.348  1.00  0.00     0.328 C 
HETATM    2  N1  UNL     1     -12.615  31.918  -1.113  1.00  0.00    -0.048 N 
ATOM      3  H11 UNL     1     -12.631  32.229  -0.142  1.00  0.00     0.280 HD
ATOM      4  H12 UNL     1     -13.003  32.766  -1.528  1.00  0.00     0.280 HD
HETATM    5  C8  UNL     1     -11.280  31.610  -1.591  1.00  0.00     0.240 C 
HETATM    6  C9  UNL     1     -10.731  30.624  -0.551  1.00  0.00     0.089 C 
HETATM    7  C10 UNL     1     -11.637  29.415  -0.632  1.00  0.00     0.275 C 
HETATM    8  O4  UNL     1     -12.700  29.573  -1.469  1.00  0.00    -0.328 OA
ENDROOT
BRANCH   1   9
HETATM    9  C6  UNL     1     -14.560  30.613  -0.381  1.00  0.00     0.052 A 
HETATM   10  C5  UNL     1     -15.970  30.620  -0.704  1.00  0.00    -0.000 A 
HETATM   11  C4  UNL     1     -16.609  30.293  -1.985  1.00  0.00     0.010 C 
HETATM   12  C16 UNL     1     -15.286  29.322  -0.182  1.00  0.00     0.006 A 
HETATM   13  C3  UNL     1     -17.643  29.190  -1.737  1.00  0.00     0.034 C 
HETATM   14  C2  UNL     1     -16.826  27.968  -1.433  1.00  0.00    -0.085 C 
HETATM   15  C1  UNL     1     -17.348  26.770  -1.375  1.00  0.00     0.014 C 
HETATM   16  C17 UNL     1     -15.358  28.247  -1.207  1.00  0.00     0.014 C 
HETATM   17  C18 UNL     1     -14.773  26.993  -0.595  1.00  0.00     0.015 C 
ENDBRANCH   1   9
BRANCH   7  18
HETATM   18  O1  UNL     1     -11.991  29.023   0.679  1.00  0.00    -0.272 OA
BRANCH  18  19
HETATM   19  C11 UNL     1     -11.375  27.945   1.286  1.00  0.00     0.365 C 
HETATM   20  O2  UNL     1     -11.674  26.767   0.965  1.00  0.00    -0.238 OA
HETATM   21  N2  UNL     1     -10.385  28.094   2.290  1.00  0.00    -0.324 N 
HETATM   22  C12 UNL     1      -9.730  26.983   2.936  1.00  0.00     0.154 C 
HETATM   23  C15 UNL     1     -10.009  29.430   2.690  1.00  0.00     0.154 C 
HETATM   24  C13 UNL     1      -8.453  27.551   3.562  1.00  0.00     0.187 C 
HETATM   25  O3  UNL     1      -8.723  28.510   4.510  1.00  0.00    -0.388 OA
HETATM   26  C14 UNL     1      -9.763  29.360   4.200  1.00  0.00     0.187 C 
ENDBRANCH  18  19
ENDBRANCH   7  18
TORSDOF 3
ENDMDL
MODEL 2
REMARK VINA RESULT: -8.141909646      1.034      1.322
REMARK  3 active torsions:
REMARK  status: ('A' for Active; 'I' for Inactive)
REMARK    1  A    between atoms: C6_6  and  C7_7 
REMARK    2  A    between atoms: C10_13  and  O1_14 
REMARK    3  A    between atoms: O1_14  and  C11_15 
REMARK       I    between atoms: C11_15  and  N2_17 
ROOT
HETATM    1  C7  UNL     1     -13.361  29.816  -1.138  1.00  0.00     0.328 C 
HETATM    2  N1  UNL     1     -12.908  31.195  -1.154  1.00  0.00    -0.048 N 
ATOM      3  H11 UNL     1     -13.028  31.667  -0.258  1.00  0.00     0.280 HD
ATOM      4  H12 UNL     1     -13.509  31.808  -1.705  1.00  0.00     0.280 HD
HETATM    5  C8  UNL     1     -11.532  31.186  -1.613  1.00  0.00     0.240 C 
HETATM    6  C9  UNL     1     -10.748  30.606  -0.428  1.00  0.00     0.089 C 
HETATM    7  C10 UNL     1     -11.279  29.200  -0.250  1.00  0.00     0.275 C 
HETATM    8  O4  UNL     1     -12.328  28.896  -1.065  1.00  0.00    -0.328 OA
ENDROOT
BRANCH   1   9
HETATM    9  C6  UNL     1     -14.424  29.563  -0.125  1.00  0.00     0.052 A 
HETATM   10  C5  UNL     1     -15.783  29.149  -0.396  1.00  0.00    -0.000 A 
HETATM   11  C4  UNL     1     -16.300  28.455  -1.583  1.00  0.00     0.010 C 
HETATM   12  C16 UNL     1     -14.788  28.181   0.310  1.00  0.00     0.006 A 
HETATM   13  C3  UNL     1     -17.012  27.180  -1.121  1.00  0.00     0.034 C 
HETATM   14  C2  UNL     1     -15.906  26.282  -0.647  1.00  0.00    -0.085 C 
HETATM   15  C1  UNL     1     -16.096  25.016  -0.372  1.00  0.00     0.014 C 
HETATM   16  C17 UNL     1     -14.565  26.967  -0.519  1.00  0.00     0.014 C 
HETATM   17  C18 UNL     1     -13.678  26.031   0.271  1.00  0.00     0.015 C 
ENDBRANCH   1   9
BRANCH   7  18
HETATM   18  O1  UNL     1     -11.534  28.979   1.122  1.00  0.00    -0.272 OA
BRANCH  18  19
HETATM   19  C11 UNL     1     -10.736  28.127   1.862  1.00  0.00     0.365 C 
HETATM   20  O2  UNL     1     -10.742  26.888   1.645  1.00  0.00    -0.238 OA
HETATM   21  N2  UNL     1      -9.877  28.584   2.892  1.00  0.00    -0.324 N 
HETATM   22  C12 UNL     1      -9.037  27.712   3.676  1.00  0.00     0.154 C 
HETATM   23  C15 UNL     1      -9.838  30.000   3.176  1.00  0.00     0.154 C 
HETATM   24  C13 UNL     1      -7.965  28.609   4.304  1.00  0.00     0.187 C 
HETATM   25  O3  UNL     1      -8.508  29.558   5.138  1.00  0.00    -0.388 OA
HETATM   26  C14 UNL     1      -9.687  30.117   4.696  1.00  0.00     0.187 C 
ENDBRANCH  18  19
ENDBRANCH   7  18
TORSDOF 3
ENDMDL
MODEL 3
REMARK VINA RESULT: -7.570348466      3.405      6.832
REMARK  3 active torsions:
REMARK  status: ('A' for Active; 'I' for Inactive)
REMARK    1  A    between atoms: C6_6  and  C7_7 
REMARK    2  A    between atoms: C10_13  and  O1_14 
REMARK    3  A    between atoms: O1_14  and  C11_15 
REMARK       I    between atoms: C11_15  and  N2_17 
ROOT
HETATM    1  C7  UNL     1     -14.155  28.910  -2.044  1.00  0.00     0.328 C 
HETATM    2  N1  UNL     1     -15.195  28.888  -3.057  1.00  0.00    -0.048 N 
ATOM      3  H11 UNL     1     -16.113  29.147  -2.694  1.00  0.00     0.280 HD
ATOM      4  H12 UNL     1     -15.438  27.945  -3.362  1.00  0.00     0.280 HD
HETATM    5  C8  UNL     1     -14.750  29.740  -4.142  1.00  0.00     0.240 C 
HETATM    6  C9  UNL     1     -14.883  31.161  -3.578  1.00  0.00     0.089 C 
HETATM    7  C10 UNL     1     -13.925  31.215  -2.407  1.00  0.00     0.275 C 
HETATM    8  O4  UNL     1     -13.333  30.022  -2.119  1.00  0.00    -0.328 OA
ENDROOT
BRANCH   1   9
HETATM    9  C6  UNL     1     -14.676  28.676  -0.667  1.00  0.00     0.052 A 
HETATM   10  C5  UNL     1     -15.088  27.406  -0.112  1.00  0.00    -0.000 A 
HETATM   11  C4  UNL     1     -14.686  26.058  -0.535  1.00  0.00     0.010 C 
HETATM   12  C16 UNL     1     -13.813  28.125   0.421  1.00  0.00     0.006 A 
HETATM   13  C3  UNL     1     -14.112  25.325   0.682  1.00  0.00     0.034 C 
HETATM   14  C2  UNL     1     -12.804  26.010   0.952  1.00  0.00    -0.085 C 
HETATM   15  C1  UNL     1     -11.918  25.530   1.787  1.00  0.00     0.014 C 
HETATM   16  C17 UNL     1     -12.606  27.292   0.177  1.00  0.00     0.014 C 
HETATM   17  C18 UNL     1     -11.428  27.999   0.811  1.00  0.00     0.015 C 
ENDBRANCH   1   9
BRANCH   7  18
HETATM   18  O1  UNL     1     -14.582  31.812  -1.308  1.00  0.00    -0.272 OA
BRANCH  18  19
HETATM   19  C11 UNL     1     -15.929  32.115  -1.369  1.00  0.00     0.365 C 
HETATM   20  O2  UNL     1     -16.797  31.208  -1.309  1.00  0.00    -0.238 OA
HETATM   21  N2  UNL     1     -16.410  33.442  -1.500  1.00  0.00    -0.324 N 
HETATM   22  C12 UNL     1     -17.810  33.781  -1.566  1.00  0.00     0.154 C 
HETATM   23  C15 UNL     1     -15.447  34.517  -1.571  1.00  0.00     0.154 C 
HETATM   24  C13 UNL     1     -17.902  35.271  -1.225  1.00  0.00     0.187 C 
HETATM   25  O3  UNL     1     -17.221  36.052  -2.130  1.00  0.00    -0.388 OA
HETATM   26  C14 UNL     1     -16.025  35.528  -2.567  1.00  0.00     0.187 C 
ENDBRANCH  18  19
ENDBRANCH   7  18
TORSDOF 3
ENDMDL
MODEL 4
REMARK VINA RESULT: -7.549640664      5.435      8.912
REMARK  3 active torsions:
REMARK  status: ('A' for Active; 'I' for Inactive)
REMARK    1  A    between atoms: C6_6  and  C7_7 
REMARK    2  A    between atoms: C10_13  and  O1_14 
REMARK    3  A    between atoms: O1_14  and  C11_15 
REMARK       I    between atoms: C11_15  and  N2_17 
ROOT
HETATM    1  C7  UNL     1     -15.161  32.594  -1.586  1.00  0.00     0.328 C 
HETATM    2  N1  UNL     1     -14.192  33.147  -2.515  1.00  0.00    -0.048 N 
ATOM      3  H11 UNL     1     -14.546  33.215  -3.469  1.00  0.00     0.280 HD
ATOM      4  H12 UNL     1     -13.416  32.514  -2.709  1.00  0.00     0.280 HD
HETATM    5  C8  UNL     1     -13.764  34.424  -1.974  1.00  0.00     0.240 C 
HETATM    6  C9  UNL     1     -14.974  35.343  -2.188  1.00  0.00     0.089 C 
HETATM    7  C10 UNL     1     -16.086  34.738  -1.357  1.00  0.00     0.275 C 
HETATM    8  O4  UNL     1     -15.761  33.548  -0.779  1.00  0.00    -0.328 OA
ENDROOT
BRANCH   1   9
HETATM    9  C6  UNL     1     -16.153  31.696  -2.242  1.00  0.00     0.052 A 
HETATM   10  C5  UNL     1     -15.855  30.616  -3.157  1.00  0.00    -0.000 A 
HETATM   11  C4  UNL     1     -14.601  29.864  -3.294  1.00  0.00     0.010 C 
HETATM   12  C16 UNL     1     -16.423  30.316  -1.739  1.00  0.00     0.006 A 
HETATM   13  C3  UNL     1     -14.917  28.373  -3.136  1.00  0.00     0.034 C 
HETATM   14  C2  UNL     1     -15.262  28.214  -1.683  1.00  0.00    -0.085 C 
HETATM   15  C1  UNL     1     -15.384  27.042  -1.114  1.00  0.00     0.014 C 
HETATM   16  C17 UNL     1     -15.450  29.519  -0.946  1.00  0.00     0.014 C 
HETATM   17  C18 UNL     1     -16.107  29.176   0.373  1.00  0.00     0.015 C 
ENDBRANCH   1   9
BRANCH   7  18
HETATM   18  O1  UNL     1     -17.265  34.697  -2.135  1.00  0.00    -0.272 OA
BRANCH  18  19
HETATM   19  C11 UNL     1     -18.388  35.407  -1.756  1.00  0.00     0.365 C 
HETATM   20  O2  UNL     1     -18.976  35.152  -0.674  1.00  0.00    -0.238 OA
HETATM   21  N2  UNL     1     -18.938  36.448  -2.545  1.00  0.00    -0.324 N 
HETATM   22  C12 UNL     1     -20.109  37.201  -2.167  1.00  0.00     0.154 C 
HETATM   23  C15 UNL     1     -18.293  36.776  -3.795  1.00  0.00     0.154 C 
HETATM   24  C13 UNL     1     -20.076  38.483  -3.005  1.00  0.00     0.187 C 
HETATM   25  O3  UNL     1     -20.141  38.221  -4.354  1.00  0.00    -0.388 OA
HETATM   26  C14 UNL     1     -19.424  37.120  -4.770  1.00  0.00     0.187 C 
ENDBRANCH  18  19
ENDBRANCH   7  18
TORSDOF 3
ENDMDL
MODEL 5
REMARK VINA RESULT: -7.165681105      3.233      5.346
REMARK  3 active torsions:
REMARK  status: ('A' for Active; 'I' for Inactive)
REMARK    1  A    between atoms: C6_6  and  C7_7 
REMARK    2  A    between atoms: C10_13  and  O1_14 
REMARK    3  A    between atoms: O1_14  and  C11_15 
REMARK       I    between atoms: C11_15  and  N2_17 
ROOT
HETATM    1  C7  UNL     1     -14.645  29.012  -2.084  1.00  0.00     0.328 C 
HETATM    2  N1  UNL     1     -15.787  29.438  -2.873  1.00  0.00    -0.048 N 
ATOM      3  H11 UNL     1     -16.479  29.955  -2.329  1.00  0.00     0.280 HD
ATOM      4  H12 UNL     1     -16.392  28.665  -3.152  1.00  0.00     0.280 HD
HETATM    5  C8  UNL     1     -15.269  30.191  -3.999  1.00  0.00     0.240 C 
HETATM    6  C9  UNL     1     -14.798  31.513  -3.379  1.00  0.00     0.089 C 
HETATM    7  C10 UNL     1     -13.693  31.129  -2.418  1.00  0.00     0.275 C 
HETATM    8  O4  UNL     1     -13.514  29.785  -2.286  1.00  0.00    -0.328 OA
ENDROOT
BRANCH   1   9
HETATM    9  C6  UNL     1     -14.966  28.837  -0.639  1.00  0.00     0.052 A 
HETATM   10  C5  UNL     1     -15.343  27.601   0.010  1.00  0.00    -0.000 A 
HETATM   11  C4  UNL     1     -15.063  26.227  -0.424  1.00  0.00     0.010 C 
HETATM   12  C16 UNL     1     -13.976  28.276   0.328  1.00  0.00     0.006 A 
HETATM   13  C3  UNL     1     -14.347  25.500   0.719  1.00  0.00     0.034 C 
HETATM   14  C2  UNL     1     -12.986  26.133   0.774  1.00  0.00    -0.085 C 
HETATM   15  C1  UNL     1     -12.007  25.635   1.485  1.00  0.00     0.014 C 
HETATM   16  C17 UNL     1     -12.852  27.384  -0.063  1.00  0.00     0.014 C 
HETATM   17  C18 UNL     1     -11.567  28.053   0.369  1.00  0.00     0.015 C 
ENDBRANCH   1   9
BRANCH   7  18
HETATM   18  O1  UNL     1     -13.899  31.804  -1.194  1.00  0.00    -0.272 OA
BRANCH  18  19
HETATM   19  C11 UNL     1     -13.602  33.148  -1.068  1.00  0.00     0.365 C 
HETATM   20  O2  UNL     1     -14.503  34.020  -1.171  1.00  0.00    -0.238 OA
HETATM   21  N2  UNL     1     -12.289  33.622  -0.821  1.00  0.00    -0.324 N 
HETATM   22  C12 UNL     1     -11.958  35.020  -0.687  1.00  0.00     0.154 C 
HETATM   23  C15 UNL     1     -11.223  32.656  -0.695  1.00  0.00     0.154 C 
HETATM   24  C13 UNL     1     -10.602  35.067   0.025  1.00  0.00     0.187 C 
HETATM   25  O3  UNL     1      -9.612  34.451  -0.705  1.00  0.00    -0.388 OA
HETATM   26  C14 UNL     1      -9.998  33.299  -1.355  1.00  0.00     0.187 C 
ENDBRANCH  18  19
ENDBRANCH   7  18
TORSDOF 3
ENDMDL
