MODEL 1
REMARK VINA RESULT: -9.854353429      0.000      0.000
REMARK  3 active torsions:
REMARK  status: ('A' for Active; 'I' for Inactive)
REMARK    1  A    between atoms: C6_7  and  C7_8 
REMARK    2  A    between atoms: C10_11  and  C11_12 
REMARK    3  A    between atoms: C15_17  and  O2_18 
ROOT
HETATM    1  N1  UNL     1       3.514  60.201   1.999  1.00  0.00    -0.191 NA
HETATM    2  C1  UNL     1       4.508  59.887   1.499  1.00  0.00     0.099 C 
HETATM    3  C2  UNL     1       5.746  59.500   0.881  1.00  0.00     0.045 A 
HETATM    4  C3  UNL     1       6.432  60.470   0.184  1.00  0.00     0.023 A 
HETATM    5  C4  UNL     1       7.620  60.119  -0.416  1.00  0.00     0.002 A 
HETATM    6  C5  UNL     1       8.118  58.812  -0.322  1.00  0.00     0.014 A 
HETATM    7  C6  UNL     1       7.432  57.848   0.372  1.00  0.00    -0.001 A 
HETATM    8  C20 UNL     1       6.250  58.217   0.963  1.00  0.00     0.037 A 
ENDROOT
BRANCH   7   9
HETATM    9  C7  UNL     1       7.926  56.477   0.487  1.00  0.00     0.086 A 
HETATM   10  C8  UNL     1       9.248  56.105   0.728  1.00  0.00     0.041 A 
HETATM   11  C9  UNL     1       9.226  54.730   0.751  1.00  0.00     0.040 A 
HETATM   12  C10 UNL     1       7.940  54.283   0.534  1.00  0.00     0.079 A 
HETATM   13  O4  UNL     1       7.214  55.395   0.383  1.00  0.00    -0.310 OA
BRANCH  12  14
HETATM   14  C11 UNL     1       7.400  52.936   0.468  1.00  0.00     0.080 C 
HETATM   15  C12 UNL     1       6.849  52.207   1.399  1.00  0.00     0.146 A 
HETATM   16  O1  UNL     1       6.424  50.906   1.014  1.00  0.00    -0.303 OA
HETATM   17  C19 UNL     1       6.639  52.622   2.764  1.00  0.00     0.280 A 
HETATM   18  C13 UNL     1       5.831  50.053   1.897  1.00  0.00     0.105 A 
HETATM   19  C14 UNL     1       5.431  48.779   1.464  1.00  0.00     0.076 A 
HETATM   20  C18 UNL     1       5.628  50.437   3.195  1.00  0.00     0.069 A 
HETATM   21  C15 UNL     1       4.840  47.906   2.314  1.00  0.00     0.068 A 
HETATM   22  C16 UNL     1       4.629  48.278   3.626  1.00  0.00     0.039 A 
HETATM   23  C17 UNL     1       5.025  49.542   4.056  1.00  0.00     0.035 A 
HETATM   24  N2  UNL     1       6.014  51.711   3.682  1.00  0.00    -0.319 N 
ATOM     25  H2  UNL     1       5.853  51.972   4.655  1.00  0.00     0.169 HD
HETATM   26  O3  UNL     1       6.989  53.754   3.148  1.00  0.00    -0.265 OA
BRANCH  21  27
HETATM   27  O2  UNL     1       4.442  46.635   1.878  1.00  0.00    -0.361 OA
ATOM     28  H2  UNL     1       4.846  46.233   1.119  1.00  0.00     0.217 HD
ENDBRANCH  21  27
ENDBRANCH  12  14
ENDBRANCH   7   9
TORSDOF 3
ENDMDL
MODEL 2
REMARK VINA RESULT: -9.719025050      4.543      9.898
REMARK  3 active torsions:
REMARK  status: ('A' for Active; 'I' for Inactive)
REMARK    1  A    between atoms: C6_7  and  C7_8 
REMARK    2  A    between atoms: C10_11  and  C11_12 
REMARK    3  A    between atoms: C15_17  and  O2_18 
ROOT
HETATM    1  N1  UNL     1      -2.941  44.871   4.148  1.00  0.00    -0.191 NA
HETATM    2  C1  UNL     1      -2.566  45.774   3.532  1.00  0.00     0.099 C 
HETATM    3  C2  UNL     1      -2.099  46.899   2.770  1.00  0.00     0.045 A 
HETATM    4  C3  UNL     1      -3.009  47.897   2.498  1.00  0.00     0.023 A 
HETATM    5  C4  UNL     1      -2.582  48.984   1.769  1.00  0.00     0.002 A 
HETATM    6  C5  UNL     1      -1.258  49.073   1.315  1.00  0.00     0.014 A 
HETATM    7  C6  UNL     1      -0.355  48.077   1.587  1.00  0.00    -0.001 A 
HETATM    8  C20 UNL     1      -0.800  47.003   2.315  1.00  0.00     0.037 A 
ENDROOT
BRANCH   7   9
HETATM    9  C7  UNL     1       1.031  48.143   1.126  1.00  0.00     0.086 A 
HETATM   10  C8  UNL     1       1.865  47.049   0.893  1.00  0.00     0.041 A 
HETATM   11  C9  UNL     1       3.056  47.599   0.478  1.00  0.00     0.040 A 
HETATM   12  C10 UNL     1       2.950  48.974   0.460  1.00  0.00     0.079 A 
HETATM   13  O4  UNL     1       1.701  49.225   0.864  1.00  0.00    -0.310 OA
BRANCH  12  14
HETATM   14  C11 UNL     1       3.917  49.996   0.100  1.00  0.00     0.080 C 
HETATM   15  C12 UNL     1       4.665  50.749   0.860  1.00  0.00     0.146 A 
HETATM   16  O1  UNL     1       5.514  51.674   0.193  1.00  0.00    -0.303 OA
HETATM   17  C19 UNL     1       4.695  50.704   2.301  1.00  0.00     0.280 A 
HETATM   18  C13 UNL     1       6.344  52.510   0.879  1.00  0.00     0.105 A 
HETATM   19  C14 UNL     1       7.161  53.405   0.170  1.00  0.00     0.076 A 
HETATM   20  C18 UNL     1       6.379  52.477   2.247  1.00  0.00     0.069 A 
HETATM   21  C15 UNL     1       7.997  54.250   0.819  1.00  0.00     0.068 A 
HETATM   22  C16 UNL     1       8.044  54.229   2.198  1.00  0.00     0.039 A 
HETATM   23  C17 UNL     1       7.233  53.342   2.901  1.00  0.00     0.035 A 
HETATM   24  N2  UNL     1       5.574  51.593   3.008  1.00  0.00    -0.319 N 
ATOM     25  H2  UNL     1       5.617  51.589   4.027  1.00  0.00     0.169 HD
HETATM   26  O3  UNL     1       3.973  49.908   2.930  1.00  0.00    -0.265 OA
BRANCH  21  27
HETATM   27  O2  UNL     1       8.812  55.142   0.108  1.00  0.00    -0.361 OA
ATOM     28  H2  UNL     1       9.624  55.464   0.482  1.00  0.00     0.217 HD
ENDBRANCH  21  27
ENDBRANCH  12  14
ENDBRANCH   7   9
TORSDOF 3
ENDMDL
MODEL 3
REMARK VINA RESULT: -9.646114090      2.483      8.943
REMARK  3 active torsions:
REMARK  status: ('A' for Active; 'I' for Inactive)
REMARK    1  A    between atoms: C6_7  and  C7_8 
REMARK    2  A    between atoms: C10_11  and  C11_12 
REMARK    3  A    between atoms: C15_17  and  O2_18 
ROOT
HETATM    1  N1  UNL     1       1.261  47.598   4.345  1.00  0.00    -0.191 NA
HETATM    2  C1  UNL     1       1.784  48.174   3.490  1.00  0.00     0.099 C 
HETATM    3  C2  UNL     1       2.430  48.892   2.427  1.00  0.00     0.045 A 
HETATM    4  C3  UNL     1       1.933  48.716   1.155  1.00  0.00     0.023 A 
HETATM    5  C4  UNL     1       2.539  49.396   0.122  1.00  0.00     0.002 A 
HETATM    6  C5  UNL     1       3.632  50.242   0.358  1.00  0.00     0.014 A 
HETATM    7  C6  UNL     1       4.124  50.415   1.626  1.00  0.00    -0.001 A 
HETATM    8  C20 UNL     1       3.507  49.729   2.642  1.00  0.00     0.037 A 
ENDROOT
BRANCH   7   9
HETATM    9  C7  UNL     1       5.262  51.291   1.903  1.00  0.00     0.086 A 
HETATM   10  C8  UNL     1       6.093  51.220   3.021  1.00  0.00     0.041 A 
HETATM   11  C9  UNL     1       7.006  52.233   2.843  1.00  0.00     0.040 A 
HETATM   12  C10 UNL     1       6.741  52.894   1.662  1.00  0.00     0.079 A 
HETATM   13  O4  UNL     1       5.676  52.268   1.153  1.00  0.00    -0.310 OA
BRANCH  12  14
HETATM   14  C11 UNL     1       7.410  54.019   1.032  1.00  0.00     0.080 C 
HETATM   15  C12 UNL     1       7.066  55.277   0.981  1.00  0.00     0.146 A 
HETATM   16  O1  UNL     1       7.942  56.142   0.269  1.00  0.00    -0.303 OA
HETATM   17  C19 UNL     1       5.886  55.841   1.587  1.00  0.00     0.280 A 
HETATM   18  C13 UNL     1       7.692  57.478   0.150  1.00  0.00     0.105 A 
HETATM   19  C14 UNL     1       8.590  58.286  -0.564  1.00  0.00     0.076 A 
HETATM   20  C18 UNL     1       6.574  58.023   0.720  1.00  0.00     0.069 A 
HETATM   21  C15 UNL     1       8.372  59.616  -0.704  1.00  0.00     0.068 A 
HETATM   22  C16 UNL     1       7.250  60.181  -0.134  1.00  0.00     0.039 A 
HETATM   23  C17 UNL     1       6.359  59.378   0.574  1.00  0.00     0.035 A 
HETATM   24  N2  UNL     1       5.637  57.249   1.450  1.00  0.00    -0.319 N 
ATOM     25  H2  UNL     1       4.810  57.680   1.865  1.00  0.00     0.169 HD
HETATM   26  O3  UNL     1       5.091  55.125   2.224  1.00  0.00    -0.265 OA
BRANCH  21  27
HETATM   27  O2  UNL     1       9.271  60.420  -1.417  1.00  0.00    -0.361 OA
ATOM     28  H2  UNL     1       9.265  61.365  -1.316  1.00  0.00     0.217 HD
ENDBRANCH  21  27
ENDBRANCH  12  14
ENDBRANCH   7   9
TORSDOF 3
ENDMDL
MODEL 4
REMARK VINA RESULT: -9.544816971      2.369      3.509
REMARK  3 active torsions:
REMARK  status: ('A' for Active; 'I' for Inactive)
REMARK    1  A    between atoms: C6_7  and  C7_8 
REMARK    2  A    between atoms: C10_11  and  C11_12 
REMARK    3  A    between atoms: C15_17  and  O2_18 
ROOT
HETATM    1  N1  UNL     1       8.422  59.838  -0.744  1.00  0.00    -0.191 NA
HETATM    2  C1  UNL     1       7.680  59.116  -0.231  1.00  0.00     0.099 C 
HETATM    3  C2  UNL     1       6.754  58.220   0.405  1.00  0.00     0.045 A 
HETATM    4  C3  UNL     1       5.606  58.769   0.930  1.00  0.00     0.023 A 
HETATM    5  C4  UNL     1       4.705  57.926   1.543  1.00  0.00     0.002 A 
HETATM    6  C5  UNL     1       4.952  56.548   1.631  1.00  0.00     0.014 A 
HETATM    7  C6  UNL     1       6.097  56.005   1.108  1.00  0.00    -0.001 A 
HETATM    8  C20 UNL     1       6.981  56.861   0.501  1.00  0.00     0.037 A 
ENDROOT
BRANCH   7   9
HETATM    9  C7  UNL     1       6.380  54.573   1.185  1.00  0.00     0.086 A 
HETATM   10  C8  UNL     1       7.466  53.924   0.598  1.00  0.00     0.041 A 
HETATM   11  C9  UNL     1       7.310  52.601   0.941  1.00  0.00     0.040 A 
HETATM   12  C10 UNL     1       6.174  52.451   1.707  1.00  0.00     0.079 A 
HETATM   13  O4  UNL     1       5.668  53.683   1.810  1.00  0.00    -0.310 OA
BRANCH  12  14
HETATM   14  C11 UNL     1       5.583  51.269   2.309  1.00  0.00     0.080 C 
HETATM   15  C12 UNL     1       4.889  50.308   1.763  1.00  0.00     0.146 A 
HETATM   16  O1  UNL     1       4.436  49.281   2.636  1.00  0.00    -0.303 OA
HETATM   17  C19 UNL     1       4.560  50.212   0.362  1.00  0.00     0.280 A 
HETATM   18  C13 UNL     1       3.707  48.222   2.183  1.00  0.00     0.105 A 
HETATM   19  C14 UNL     1       3.285  47.236   3.089  1.00  0.00     0.076 A 
HETATM   20  C18 UNL     1       3.388  48.123   0.856  1.00  0.00     0.069 A 
HETATM   21  C15 UNL     1       2.558  46.171   2.674  1.00  0.00     0.068 A 
HETATM   22  C16 UNL     1       2.228  46.057   1.339  1.00  0.00     0.039 A 
HETATM   23  C17 UNL     1       2.647  47.035   0.440  1.00  0.00     0.035 A 
HETATM   24  N2  UNL     1       3.789  49.091  -0.098  1.00  0.00    -0.319 N 
ATOM     25  H2  UNL     1       3.538  48.995  -1.082  1.00  0.00     0.169 HD
HETATM   26  O3  UNL     1       4.938  51.084  -0.442  1.00  0.00    -0.265 OA
BRANCH  21  27
HETATM   27  O2  UNL     1       2.139  45.189   3.581  1.00  0.00    -0.361 OA
ATOM     28  H2  UNL     1       1.323  45.283   4.058  1.00  0.00     0.217 HD
ENDBRANCH  21  27
ENDBRANCH  12  14
ENDBRANCH   7   9
TORSDOF 3
ENDMDL
MODEL 5
REMARK VINA RESULT: -9.429397507      2.404      9.177
REMARK  3 active torsions:
REMARK  status: ('A' for Active; 'I' for Inactive)
REMARK    1  A    between atoms: C6_7  and  C7_8 
REMARK    2  A    between atoms: C10_11  and  C11_12 
REMARK    3  A    between atoms: C15_17  and  O2_18 
ROOT
HETATM    1  N1  UNL     1       3.838  45.494   2.362  1.00  0.00    -0.191 NA
HETATM    2  C1  UNL     1       3.761  46.577   1.964  1.00  0.00     0.099 C 
HETATM    3  C2  UNL     1       3.660  47.922   1.471  1.00  0.00     0.045 A 
HETATM    4  C3  UNL     1       2.610  48.207   0.627  1.00  0.00     0.023 A 
HETATM    5  C4  UNL     1       2.497  49.492   0.144  1.00  0.00     0.002 A 
HETATM    6  C5  UNL     1       3.424  50.481   0.500  1.00  0.00     0.014 A 
HETATM    7  C6  UNL     1       4.469  50.194   1.341  1.00  0.00    -0.001 A 
HETATM    8  C20 UNL     1       4.565  48.909   1.811  1.00  0.00     0.037 A 
ENDROOT
BRANCH   7   9
HETATM    9  C7  UNL     1       5.451  51.205   1.730  1.00  0.00     0.086 A 
HETATM   10  C8  UNL     1       6.073  51.301   2.974  1.00  0.00     0.041 A 
HETATM   11  C9  UNL     1       6.902  52.393   2.867  1.00  0.00     0.040 A 
HETATM   12  C10 UNL     1       6.789  52.939   1.606  1.00  0.00     0.079 A 
HETATM   13  O4  UNL     1       5.896  52.169   0.980  1.00  0.00    -0.310 OA
BRANCH  12  14
HETATM   14  C11 UNL     1       7.449  54.085   1.005  1.00  0.00     0.080 C 
HETATM   15  C12 UNL     1       7.071  55.333   0.944  1.00  0.00     0.146 A 
HETATM   16  O1  UNL     1       7.948  56.226   0.268  1.00  0.00    -0.303 OA
HETATM   17  C19 UNL     1       5.854  55.862   1.508  1.00  0.00     0.280 A 
HETATM   18  C13 UNL     1       7.664  57.554   0.143  1.00  0.00     0.105 A 
HETATM   19  C14 UNL     1       8.565  58.390  -0.535  1.00  0.00     0.076 A 
HETATM   20  C18 UNL     1       6.511  58.065   0.673  1.00  0.00     0.069 A 
HETATM   21  C15 UNL     1       8.315  59.714  -0.679  1.00  0.00     0.068 A 
HETATM   22  C16 UNL     1       7.156  60.245  -0.150  1.00  0.00     0.039 A 
HETATM   23  C17 UNL     1       6.263  59.415   0.522  1.00  0.00     0.035 A 
HETATM   24  N2  UNL     1       5.570  57.263   1.366  1.00  0.00    -0.319 N 
ATOM     25  H2  UNL     1       4.717  57.668   1.751  1.00  0.00     0.169 HD
HETATM   26  O3  UNL     1       5.057  55.121   2.113  1.00  0.00    -0.265 OA
BRANCH  21  27
HETATM   27  O2  UNL     1       9.216  60.546  -1.356  1.00  0.00    -0.361 OA
ATOM     28  H2  UNL     1       9.274  61.472  -1.150  1.00  0.00     0.217 HD
ENDBRANCH  21  27
ENDBRANCH  12  14
ENDBRANCH   7   9
TORSDOF 3
ENDMDL
