MODEL 1
REMARK VINA RESULT: -8.390544991      0.000      0.000
REMARK  3 active torsions:
REMARK  status: ('A' for Active; 'I' for Inactive)
REMARK    1  A    between atoms: C2_2  and  N1_4 
REMARK    2  A    between atoms: N1_4  and  C3_6 
REMARK    3  A    between atoms: C3_6  and  C4_7 
ROOT
HETATM    1  C4  UNL     1       7.468  51.452   2.324  1.00  0.00     0.003 C 
HETATM    2  C5  UNL     1       8.354  52.601   2.748  1.00  0.00     0.009 C 
HETATM    3  C6  UNL     1       8.373  53.691   1.736  1.00  0.00     0.044 C 
HETATM    4  C7  UNL     1       7.003  54.228   1.417  1.00  0.00     0.120 C 
HETATM    5  C8  UNL     1       6.118  53.042   1.070  1.00  0.00     0.044 C 
HETATM    6  C9  UNL     1       6.059  52.029   2.187  1.00  0.00     0.009 C 
HETATM    7  C10 UNL     1       6.486  54.982   2.595  1.00  0.00     0.251 C 
HETATM    8  O1  UNL     1       6.888  56.284   2.678  1.00  0.00    -0.235 OA
HETATM    9  O2  UNL     1       7.755  56.666   1.799  1.00  0.00    -0.198 OA
HETATM   10  C11 UNL     1       7.017  57.144   0.690  1.00  0.00     0.229 C 
HETATM   11  C12 UNL     1       7.952  57.366  -0.458  1.00  0.00     0.074 C 
HETATM   12  C13 UNL     1       8.988  58.395  -0.138  1.00  0.00     0.006 C 
HETATM   13  C14 UNL     1       8.553  59.734  -0.665  1.00  0.00     0.000 C 
HETATM   14  C15 UNL     1       7.393  60.309   0.108  1.00  0.00     0.000 C 
HETATM   15  C16 UNL     1       6.175  59.423   0.059  1.00  0.00     0.006 C 
HETATM   16  C17 UNL     1       6.237  58.333   1.098  1.00  0.00     0.074 C 
HETATM   17  O3  UNL     1       6.202  56.039   0.342  1.00  0.00    -0.197 OA
HETATM   18  O4  UNL     1       7.050  55.022   0.273  1.00  0.00    -0.224 OA
ENDROOT
BRANCH   1  19
HETATM   19  C3  UNL     1       7.433  50.399   3.390  1.00  0.00     0.124 C 
BRANCH  19  20
HETATM   20  N1  UNL     1       6.122  50.425   4.036  1.00  0.00    -0.384 N 
ATOM     21  H1  UNL     1       5.800  51.274   4.502  1.00  0.00     0.160 HD
BRANCH  20  22
HETATM   22  C2  UNL     1       5.296  49.272   4.018  1.00  0.00     0.069 C 
HETATM   23  C1  UNL     1       5.885  47.928   4.224  1.00  0.00     0.081 C 
HETATM   24  S1  UNL     1       3.693  49.400   3.773  1.00  0.00    -0.066 SA
ENDBRANCH  20  22
ENDBRANCH  19  20
ENDBRANCH   1  19
TORSDOF 3
ENDMDL
MODEL 2
REMARK VINA RESULT: -8.259764525      1.625      2.651
REMARK  3 active torsions:
REMARK  status: ('A' for Active; 'I' for Inactive)
REMARK    1  A    between atoms: C2_2  and  N1_4 
REMARK    2  A    between atoms: N1_4  and  C3_6 
REMARK    3  A    between atoms: C3_6  and  C4_7 
ROOT
HETATM    1  C4  UNL     1       6.639  51.494   2.621  1.00  0.00     0.003 C 
HETATM    2  C5  UNL     1       5.656  52.248   1.753  1.00  0.00     0.009 C 
HETATM    3  C6  UNL     1       5.684  53.709   2.023  1.00  0.00     0.044 C 
HETATM    4  C7  UNL     1       7.050  54.319   1.848  1.00  0.00     0.120 C 
HETATM    5  C8  UNL     1       8.026  53.493   2.670  1.00  0.00     0.044 C 
HETATM    6  C9  UNL     1       8.023  52.039   2.267  1.00  0.00     0.009 C 
HETATM    7  C10 UNL     1       7.404  54.320   0.400  1.00  0.00     0.251 C 
HETATM    8  O1  UNL     1       6.929  55.379  -0.318  1.00  0.00    -0.235 OA
HETATM    9  O2  UNL     1       6.138  56.182   0.315  1.00  0.00    -0.198 OA
HETATM   10  C11 UNL     1       6.960  57.171   0.906  1.00  0.00     0.229 C 
HETATM   11  C12 UNL     1       6.136  57.983   1.857  1.00  0.00     0.074 C 
HETATM   12  C13 UNL     1       5.022  58.692   1.158  1.00  0.00     0.006 C 
HETATM   13  C14 UNL     1       5.438  60.102   0.837  1.00  0.00     0.000 C 
HETATM   14  C15 UNL     1       6.482  60.160  -0.250  1.00  0.00     0.000 C 
HETATM   15  C16 UNL     1       7.743  59.425   0.124  1.00  0.00     0.006 C 
HETATM   16  C17 UNL     1       7.632  57.948  -0.159  1.00  0.00     0.074 C 
HETATM   17  O3  UNL     1       7.862  56.415   1.694  1.00  0.00    -0.197 OA
HETATM   18  O4  UNL     1       7.080  55.602   2.389  1.00  0.00    -0.224 OA
ENDROOT
BRANCH   1  19
HETATM   19  C3  UNL     1       6.619  50.034   2.284  1.00  0.00     0.124 C 
BRANCH  19  20
HETATM   20  N1  UNL     1       6.090  49.868   0.931  1.00  0.00    -0.384 N 
ATOM     21  H1  UNL     1       6.589  50.268   0.136  1.00  0.00     0.160 HD
BRANCH  20  22
HETATM   22  C2  UNL     1       4.884  49.152   0.720  1.00  0.00     0.069 C 
HETATM   23  C1  UNL     1       3.892  49.635  -0.270  1.00  0.00     0.081 C 
HETATM   24  S1  UNL     1       4.566  47.793   1.556  1.00  0.00    -0.066 SA
ENDBRANCH  20  22
ENDBRANCH  19  20
ENDBRANCH   1  19
TORSDOF 3
ENDMDL
MODEL 3
REMARK VINA RESULT: -8.049745832      1.158      2.352
REMARK  3 active torsions:
REMARK  status: ('A' for Active; 'I' for Inactive)
REMARK    1  A    between atoms: C2_2  and  N1_4 
REMARK    2  A    between atoms: N1_4  and  C3_6 
REMARK    3  A    between atoms: C3_6  and  C4_7 
ROOT
HETATM    1  C4  UNL     1       6.693  51.148   2.725  1.00  0.00     0.003 C 
HETATM    2  C5  UNL     1       5.709  51.896   1.852  1.00  0.00     0.009 C 
HETATM    3  C6  UNL     1       5.741  53.360   2.108  1.00  0.00     0.044 C 
HETATM    4  C7  UNL     1       7.108  53.964   1.924  1.00  0.00     0.120 C 
HETATM    5  C8  UNL     1       8.085  53.145   2.751  1.00  0.00     0.044 C 
HETATM    6  C9  UNL     1       8.077  51.687   2.362  1.00  0.00     0.009 C 
HETATM    7  C10 UNL     1       7.458  53.951   0.475  1.00  0.00     0.251 C 
HETATM    8  O1  UNL     1       6.984  55.005  -0.252  1.00  0.00    -0.235 OA
HETATM    9  O2  UNL     1       6.196  55.815   0.375  1.00  0.00    -0.198 OA
HETATM   10  C11 UNL     1       7.022  56.808   0.955  1.00  0.00     0.229 C 
HETATM   11  C12 UNL     1       6.202  57.631   1.900  1.00  0.00     0.074 C 
HETATM   12  C13 UNL     1       5.088  58.336   1.197  1.00  0.00     0.006 C 
HETATM   13  C14 UNL     1       5.506  59.741   0.862  1.00  0.00     0.000 C 
HETATM   14  C15 UNL     1       6.547  59.787  -0.228  1.00  0.00     0.000 C 
HETATM   15  C16 UNL     1       7.807  59.052   0.150  1.00  0.00     0.006 C 
HETATM   16  C17 UNL     1       7.692  57.574  -0.119  1.00  0.00     0.074 C 
HETATM   17  O3  UNL     1       7.924  56.057   1.748  1.00  0.00    -0.197 OA
HETATM   18  O4  UNL     1       7.142  55.253   2.453  1.00  0.00    -0.224 OA
ENDROOT
BRANCH   1  19
HETATM   19  C3  UNL     1       6.669  49.685   2.402  1.00  0.00     0.124 C 
BRANCH  19  20
HETATM   20  N1  UNL     1       5.891  48.988   3.425  1.00  0.00    -0.384 N 
ATOM     21  H1  UNL     1       6.304  48.798   4.338  1.00  0.00     0.160 HD
BRANCH  20  22
HETATM   22  C2  UNL     1       4.561  48.575   3.150  1.00  0.00     0.069 C 
HETATM   23  C1  UNL     1       3.418  49.440   3.528  1.00  0.00     0.081 C 
HETATM   24  S1  UNL     1       4.266  47.153   2.419  1.00  0.00    -0.066 SA
ENDBRANCH  20  22
ENDBRANCH  19  20
ENDBRANCH   1  19
TORSDOF 3
ENDMDL
MODEL 4
REMARK VINA RESULT: -7.986343677      2.889      3.553
REMARK  3 active torsions:
REMARK  status: ('A' for Active; 'I' for Inactive)
REMARK    1  A    between atoms: C2_2  and  N1_4 
REMARK    2  A    between atoms: N1_4  and  C3_6 
REMARK    3  A    between atoms: C3_6  and  C4_7 
ROOT
HETATM    1  C4  UNL     1       9.115  51.944   1.257  1.00  0.00     0.003 C 
HETATM    2  C5  UNL     1       9.672  53.301   1.622  1.00  0.00     0.009 C 
HETATM    3  C6  UNL     1       8.961  54.401   0.920  1.00  0.00     0.044 C 
HETATM    4  C7  UNL     1       7.476  54.404   1.172  1.00  0.00     0.120 C 
HETATM    5  C8  UNL     1       6.960  53.007   0.869  1.00  0.00     0.044 C 
HETATM    6  C9  UNL     1       7.651  51.952   1.698  1.00  0.00     0.009 C 
HETATM    7  C10 UNL     1       7.220  54.798   2.586  1.00  0.00     0.251 C 
HETATM    8  O1  UNL     1       7.180  56.142   2.822  1.00  0.00    -0.235 OA
HETATM    9  O2  UNL     1       7.485  56.900   1.821  1.00  0.00    -0.198 OA
HETATM   10  C11 UNL     1       6.276  57.159   1.132  1.00  0.00     0.229 C 
HETATM   11  C12 UNL     1       6.592  57.821  -0.174  1.00  0.00     0.074 C 
HETATM   12  C13 UNL     1       7.280  59.133   0.023  1.00  0.00     0.006 C 
HETATM   13  C14 UNL     1       6.273  60.248  -0.036  1.00  0.00     0.000 C 
HETATM   14  C15 UNL     1       5.364  60.268   1.168  1.00  0.00     0.000 C 
HETATM   15  C16 UNL     1       4.572  58.994   1.311  1.00  0.00     0.006 C 
HETATM   16  C17 UNL     1       5.364  57.921   2.014  1.00  0.00     0.074 C 
HETATM   17  O3  UNL     1       5.795  55.863   0.824  1.00  0.00    -0.197 OA
HETATM   18  O4  UNL     1       6.835  55.255   0.273  1.00  0.00    -0.224 OA
ENDROOT
BRANCH   1  19
HETATM   19  C3  UNL     1       9.821  50.866   2.023  1.00  0.00     0.124 C 
BRANCH  19  20
HETATM   20  N1  UNL     1      10.865  50.291   1.175  1.00  0.00    -0.384 N 
ATOM     21  H1  UNL     1      10.621  49.881   0.274  1.00  0.00     0.160 HD
BRANCH  20  22
HETATM   22  C2  UNL     1      12.217  50.301   1.605  1.00  0.00     0.069 C 
HETATM   23  C1  UNL     1      12.981  51.572   1.636  1.00  0.00     0.081 C 
HETATM   24  S1  UNL     1      12.953  48.928   2.071  1.00  0.00    -0.066 SA
ENDBRANCH  20  22
ENDBRANCH  19  20
ENDBRANCH   1  19
TORSDOF 3
ENDMDL
MODEL 5
REMARK VINA RESULT: -7.938880501      1.773      2.012
REMARK  3 active torsions:
REMARK  status: ('A' for Active; 'I' for Inactive)
REMARK    1  A    between atoms: C2_2  and  N1_4 
REMARK    2  A    between atoms: N1_4  and  C3_6 
REMARK    3  A    between atoms: C3_6  and  C4_7 
ROOT
HETATM    1  C4  UNL     1       7.913  51.244   2.105  1.00  0.00     0.003 C 
HETATM    2  C5  UNL     1       8.711  52.436   2.584  1.00  0.00     0.009 C 
HETATM    3  C6  UNL     1       8.671  53.559   1.611  1.00  0.00     0.044 C 
HETATM    4  C7  UNL     1       7.273  54.013   1.286  1.00  0.00     0.120 C 
HETATM    5  C8  UNL     1       6.476  52.783   0.883  1.00  0.00     0.044 C 
HETATM    6  C9  UNL     1       6.470  51.729   1.963  1.00  0.00     0.009 C 
HETATM    7  C10 UNL     1       6.687  54.688   2.479  1.00  0.00     0.251 C 
HETATM    8  O1  UNL     1       6.997  56.011   2.614  1.00  0.00    -0.235 OA
HETATM    9  O2  UNL     1       7.850  56.481   1.764  1.00  0.00    -0.198 OA
HETATM   10  C11 UNL     1       7.097  56.947   0.659  1.00  0.00     0.229 C 
HETATM   11  C12 UNL     1       8.033  57.273  -0.463  1.00  0.00     0.074 C 
HETATM   12  C13 UNL     1       8.991  58.358  -0.089  1.00  0.00     0.006 C 
HETATM   13  C14 UNL     1       8.474  59.683  -0.579  1.00  0.00     0.000 C 
HETATM   14  C15 UNL     1       7.265  60.149   0.193  1.00  0.00     0.000 C 
HETATM   15  C16 UNL     1       6.111  59.185   0.092  1.00  0.00     0.006 C 
HETATM   16  C17 UNL     1       6.231  58.065   1.094  1.00  0.00     0.074 C 
HETATM   17  O3  UNL     1       6.366  55.802   0.259  1.00  0.00    -0.197 OA
HETATM   18  O4  UNL     1       7.282  54.849   0.171  1.00  0.00    -0.224 OA
ENDROOT
BRANCH   1  19
HETATM   19  C3  UNL     1       7.934  50.154   3.133  1.00  0.00     0.124 C 
BRANCH  19  20
HETATM   20  N1  UNL     1       8.007  48.863   2.451  1.00  0.00    -0.384 N 
ATOM     21  H1  UNL     1       7.219  48.538   1.890  1.00  0.00     0.160 HD
BRANCH  20  22
HETATM   22  C2  UNL     1       9.171  48.061   2.568  1.00  0.00     0.069 C 
HETATM   23  C1  UNL     1      10.423  48.459   1.882  1.00  0.00     0.081 C 
HETATM   24  S1  UNL     1       9.155  46.695   3.452  1.00  0.00    -0.066 SA
ENDBRANCH  20  22
ENDBRANCH  19  20
ENDBRANCH   1  19
TORSDOF 3
ENDMDL
