MODEL 1
REMARK VINA RESULT: -9.529163092      0.000      0.000
REMARK  4 active torsions:
REMARK  status: ('A' for Active; 'I' for Inactive)
REMARK    1  A    between atoms: N1_5  and  C5_6 
REMARK    2  A    between atoms: C8_9  and  C9_10 
REMARK    3  A    between atoms: C13_17  and  C14_18 
REMARK    4  A    between atoms: C14_18  and  C15_19 
ROOT
HETATM    1  C1  UNL     1       6.192  51.267   1.702  1.00  0.00     0.024 C 
HETATM    2  C2  UNL     1       6.279  52.555   1.524  1.00  0.00    -0.029 A 
HETATM    3  C3  UNL     1       5.096  53.154   1.052  1.00  0.00     0.029 A 
HETATM    4  C4  UNL     1       5.088  54.510   0.832  1.00  0.00     0.101 A 
HETATM    5  N1  UNL     1       6.186  55.233   1.065  1.00  0.00    -0.289 N 
HETATM    6  C12 UNL     1       7.319  54.694   1.509  1.00  0.00     0.263 A 
HETATM    7  O3  UNL     1       8.342  55.454   1.711  1.00  0.00    -0.267 OA
HETATM    8  C13 UNL     1       7.399  53.311   1.757  1.00  0.00     0.043 A 
ENDROOT
BRANCH   8   9
HETATM    9  C14 UNL     1       8.523  52.876   2.182  1.00  0.00     0.029 C 
BRANCH   9  10
HETATM   10  C15 UNL     1       9.718  52.280   1.646  1.00  0.00    -0.034 A 
HETATM   11  C16 UNL     1       9.871  50.890   1.539  1.00  0.00     0.014 A 
HETATM   12  C17 UNL     1      11.046  50.344   1.074  1.00  0.00     0.031 A 
HETATM   13  C18 UNL     1      12.113  51.146   0.699  1.00  0.00     0.045 A 
HETATM   14  N2  UNL     1      13.257  50.607   0.245  1.00  0.00    -0.323 N 
HETATM   15  C22 UNL     1      11.997  52.515   0.792  1.00  0.00    -0.008 A 
HETATM   16  C19 UNL     1      14.303  51.371  -0.123  1.00  0.00     0.245 A 
ATOM     17  H2  UNL     1      13.336  49.592   0.178  1.00  0.00     0.169 HD
HETATM   18  O4  UNL     1      15.361  50.822  -0.544  1.00  0.00    -0.268 OA
HETATM   19  C20 UNL     1      14.247  52.755  -0.053  1.00  0.00     0.075 A 
HETATM   20  C21 UNL     1      13.073  53.312   0.412  1.00  0.00     0.019 A 
HETATM   21  C23 UNL     1      10.822  53.044   1.255  1.00  0.00     0.025 A 
ENDBRANCH   9  10
ENDBRANCH   8   9
BRANCH   5  22
HETATM   22  C5  UNL     1       6.165  56.631   0.835  1.00  0.00     0.042 A 
HETATM   23  C6  UNL     1       5.145  57.399   1.341  1.00  0.00     0.031 A 
HETATM   24  C7  UNL     1       5.115  58.777   1.119  1.00  0.00     0.020 A 
HETATM   25  C8  UNL     1       6.124  59.358   0.384  1.00  0.00     0.041 A 
HETATM   26  C10 UNL     1       7.162  58.592  -0.132  1.00  0.00     0.020 A 
HETATM   27  C11 UNL     1       7.154  57.230   0.110  1.00  0.00     0.031 A 
BRANCH  25  28
HETATM   28  C9  UNL     1       6.110  60.783   0.145  1.00  0.00     0.209 C 
HETATM   29  O1  UNL     1       7.026  61.317  -0.501  1.00  0.00    -0.644 OA
HETATM   30  O2  UNL     1       5.073  61.560   0.635  1.00  0.00    -0.644 OA
ENDBRANCH  25  28
ENDBRANCH   5  22
TORSDOF 4
ENDMDL
MODEL 2
REMARK VINA RESULT: -9.484017940      3.721      9.284
REMARK  4 active torsions:
REMARK  status: ('A' for Active; 'I' for Inactive)
REMARK    1  A    between atoms: N1_5  and  C5_6 
REMARK    2  A    between atoms: C8_9  and  C9_10 
REMARK    3  A    between atoms: C13_17  and  C14_18 
REMARK    4  A    between atoms: C14_18  and  C15_19 
ROOT
HETATM    1  C1  UNL     1       9.059  54.427   0.878  1.00  0.00     0.024 C 
HETATM    2  C2  UNL     1       8.380  53.426   1.363  1.00  0.00    -0.029 A 
HETATM    3  C3  UNL     1       9.167  52.451   2.003  1.00  0.00     0.029 A 
HETATM    4  C4  UNL     1       8.542  51.355   2.548  1.00  0.00     0.101 A 
HETATM    5  N1  UNL     1       7.215  51.231   2.465  1.00  0.00    -0.289 N 
HETATM    6  C12 UNL     1       6.446  52.136   1.864  1.00  0.00     0.263 A 
HETATM    7  O3  UNL     1       5.170  51.950   1.821  1.00  0.00    -0.267 OA
HETATM    8  C13 UNL     1       7.018  53.284   1.285  1.00  0.00     0.043 A 
ENDROOT
BRANCH   8   9
HETATM    9  C14 UNL     1       6.209  54.101   0.729  1.00  0.00     0.029 C 
BRANCH   9  10
HETATM   10  C15 UNL     1       5.845  55.490   0.828  1.00  0.00    -0.034 A 
HETATM   11  C16 UNL     1       4.651  55.903   1.436  1.00  0.00     0.014 A 
HETATM   12  C17 UNL     1       4.299  57.234   1.469  1.00  0.00     0.031 A 
HETATM   13  C18 UNL     1       5.112  58.206   0.904  1.00  0.00     0.045 A 
HETATM   14  N2  UNL     1       4.764  59.503   0.940  1.00  0.00    -0.323 N 
HETATM   15  C22 UNL     1       6.291  57.835   0.299  1.00  0.00    -0.008 A 
HETATM   16  C19 UNL     1       5.541  60.459   0.396  1.00  0.00     0.245 A 
ATOM     17  H2  UNL     1       3.889  59.771   1.390  1.00  0.00     0.169 HD
HETATM   18  O4  UNL     1       5.175  61.668   0.452  1.00  0.00    -0.268 OA
HETATM   19  C20 UNL     1       6.740  60.149  -0.227  1.00  0.00     0.075 A 
HETATM   20  C21 UNL     1       7.100  58.817  -0.265  1.00  0.00     0.019 A 
HETATM   21  C23 UNL     1       6.628  56.507   0.274  1.00  0.00     0.025 A 
ENDBRANCH   9  10
ENDBRANCH   8   9
BRANCH   5  22
HETATM   22  C5  UNL     1       6.582  50.097   3.031  1.00  0.00     0.042 A 
HETATM   23  C6  UNL     1       5.357  50.222   3.641  1.00  0.00     0.031 A 
HETATM   24  C7  UNL     1       4.725  49.111   4.202  1.00  0.00     0.020 A 
HETATM   25  C8  UNL     1       5.347  47.884   4.135  1.00  0.00     0.041 A 
HETATM   26  C10 UNL     1       6.584  47.744   3.520  1.00  0.00     0.020 A 
HETATM   27  C11 UNL     1       7.177  48.871   2.977  1.00  0.00     0.031 A 
BRANCH  25  28
HETATM   28  C9  UNL     1       4.708  46.723   4.710  1.00  0.00     0.209 C 
HETATM   29  O1  UNL     1       5.180  45.591   4.518  1.00  0.00    -0.644 OA
HETATM   30  O2  UNL     1       3.564  46.867   5.477  1.00  0.00    -0.644 OA
ENDBRANCH  25  28
ENDBRANCH   5  22
TORSDOF 4
ENDMDL
MODEL 3
REMARK VINA RESULT: -9.009776453      0.993      1.793
REMARK  4 active torsions:
REMARK  status: ('A' for Active; 'I' for Inactive)
REMARK    1  A    between atoms: N1_5  and  C5_6 
REMARK    2  A    between atoms: C8_9  and  C9_10 
REMARK    3  A    between atoms: C13_17  and  C14_18 
REMARK    4  A    between atoms: C14_18  and  C15_19 
ROOT
HETATM    1  C1  UNL     1       6.109  51.284   1.763  1.00  0.00     0.024 C 
HETATM    2  C2  UNL     1       6.204  52.570   1.578  1.00  0.00    -0.029 A 
HETATM    3  C3  UNL     1       5.015  53.180   1.136  1.00  0.00     0.029 A 
HETATM    4  C4  UNL     1       5.014  54.535   0.912  1.00  0.00     0.101 A 
HETATM    5  N1  UNL     1       6.125  55.248   1.113  1.00  0.00    -0.289 N 
HETATM    6  C12 UNL     1       7.264  54.698   1.528  1.00  0.00     0.263 A 
HETATM    7  O3  UNL     1       8.300  55.448   1.701  1.00  0.00    -0.267 OA
HETATM    8  C13 UNL     1       7.337  53.315   1.779  1.00  0.00     0.043 A 
ENDROOT
BRANCH   8   9
HETATM    9  C14 UNL     1       8.467  52.871   2.175  1.00  0.00     0.029 C 
BRANCH   9  10
HETATM   10  C15 UNL     1       9.611  52.193   1.623  1.00  0.00    -0.034 A 
HETATM   11  C16 UNL     1      10.542  52.852   0.807  1.00  0.00     0.014 A 
HETATM   12  C17 UNL     1      11.598  52.167   0.247  1.00  0.00     0.031 A 
HETATM   13  C18 UNL     1      11.773  50.810   0.470  1.00  0.00     0.045 A 
HETATM   14  N2  UNL     1      12.805  50.147  -0.079  1.00  0.00    -0.323 N 
HETATM   15  C22 UNL     1      10.877  50.132   1.265  1.00  0.00    -0.008 A 
HETATM   16  C19 UNL     1      12.990  48.829   0.126  1.00  0.00     0.245 A 
ATOM     17  H2  UNL     1      13.466  50.655  -0.667  1.00  0.00     0.169 HD
HETATM   18  O4  UNL     1      13.975  48.245  -0.410  1.00  0.00    -0.268 OA
HETATM   19  C20 UNL     1      12.122  48.093   0.918  1.00  0.00     0.075 A 
HETATM   20  C21 UNL     1      11.061  48.770   1.483  1.00  0.00     0.019 A 
HETATM   21  C23 UNL     1       9.832  50.826   1.817  1.00  0.00     0.025 A 
ENDBRANCH   9  10
ENDBRANCH   8   9
BRANCH   5  22
HETATM   22  C5  UNL     1       6.112  56.644   0.878  1.00  0.00     0.042 A 
HETATM   23  C6  UNL     1       5.094  57.419   1.378  1.00  0.00     0.031 A 
HETATM   24  C7  UNL     1       5.071  58.797   1.152  1.00  0.00     0.020 A 
HETATM   25  C8  UNL     1       6.086  59.370   0.420  1.00  0.00     0.041 A 
HETATM   26  C10 UNL     1       7.122  58.599  -0.090  1.00  0.00     0.020 A 
HETATM   27  C11 UNL     1       7.106  57.237   0.156  1.00  0.00     0.031 A 
BRANCH  25  28
HETATM   28  C9  UNL     1       6.079  60.795   0.176  1.00  0.00     0.209 C 
HETATM   29  O1  UNL     1       6.990  61.319  -0.485  1.00  0.00    -0.644 OA
HETATM   30  O2  UNL     1       5.057  61.582   0.680  1.00  0.00    -0.644 OA
ENDBRANCH  25  28
ENDBRANCH   5  22
TORSDOF 4
ENDMDL
MODEL 4
REMARK VINA RESULT: -8.960292737      1.456      1.855
REMARK  4 active torsions:
REMARK  status: ('A' for Active; 'I' for Inactive)
REMARK    1  A    between atoms: N1_5  and  C5_6 
REMARK    2  A    between atoms: C8_9  and  C9_10 
REMARK    3  A    between atoms: C13_17  and  C14_18 
REMARK    4  A    between atoms: C14_18  and  C15_19 
ROOT
HETATM    1  C1  UNL     1       6.768  51.185   1.725  1.00  0.00     0.024 C 
HETATM    2  C2  UNL     1       6.717  52.474   1.543  1.00  0.00    -0.029 A 
HETATM    3  C3  UNL     1       5.419  52.978   1.340  1.00  0.00     0.029 A 
HETATM    4  C4  UNL     1       5.261  54.328   1.139  1.00  0.00     0.101 A 
HETATM    5  N1  UNL     1       6.325  55.134   1.139  1.00  0.00    -0.289 N 
HETATM    6  C12 UNL     1       7.565  54.686   1.326  1.00  0.00     0.263 A 
HETATM    7  O3  UNL     1       8.547  55.523   1.312  1.00  0.00    -0.267 OA
HETATM    8  C13 UNL     1       7.800  53.315   1.539  1.00  0.00     0.043 A 
ENDROOT
BRANCH   8   9
HETATM    9  C14 UNL     1       9.019  52.970   1.711  1.00  0.00     0.029 C 
BRANCH   9  10
HETATM   10  C15 UNL     1      10.240  52.919   0.951  1.00  0.00    -0.034 A 
HETATM   11  C16 UNL     1      11.443  53.442   1.444  1.00  0.00     0.014 A 
HETATM   12  C17 UNL     1      12.586  53.430   0.675  1.00  0.00     0.031 A 
HETATM   13  C18 UNL     1      12.583  52.903  -0.607  1.00  0.00     0.045 A 
HETATM   14  N2  UNL     1      13.700  52.893  -1.353  1.00  0.00    -0.323 N 
HETATM   15  C22 UNL     1      11.418  52.381  -1.123  1.00  0.00    -0.008 A 
HETATM   16  C19 UNL     1      13.715  52.385  -2.600  1.00  0.00     0.245 A 
ATOM     17  H2  UNL     1      14.561  53.281  -0.965  1.00  0.00     0.169 HD
HETATM   18  O4  UNL     1      14.790  52.397  -3.267  1.00  0.00    -0.268 OA
HETATM   19  C20 UNL     1      12.575  51.846  -3.174  1.00  0.00     0.075 A 
HETATM   20  C21 UNL     1      11.425  51.853  -2.411  1.00  0.00     0.019 A 
HETATM   21  C23 UNL     1      10.290  52.399  -0.346  1.00  0.00     0.025 A 
ENDBRANCH   9  10
ENDBRANCH   8   9
BRANCH   5  22
HETATM   22  C5  UNL     1       6.150  56.524   0.930  1.00  0.00     0.042 A 
HETATM   23  C6  UNL     1       5.059  57.170   1.460  1.00  0.00     0.031 A 
HETATM   24  C7  UNL     1       4.877  58.540   1.259  1.00  0.00     0.020 A 
HETATM   25  C8  UNL     1       5.807  59.237   0.522  1.00  0.00     0.041 A 
HETATM   26  C10 UNL     1       6.915  58.596  -0.017  1.00  0.00     0.020 A 
HETATM   27  C11 UNL     1       7.058  57.238   0.204  1.00  0.00     0.031 A 
BRANCH  25  28
HETATM   28  C9  UNL     1       5.635  60.655   0.305  1.00  0.00     0.209 C 
HETATM   29  O1  UNL     1       4.649  61.243   0.776  1.00  0.00    -0.644 OA
HETATM   30  O2  UNL     1       6.570  61.365  -0.429  1.00  0.00    -0.644 OA
ENDBRANCH  25  28
ENDBRANCH   5  22
TORSDOF 4
ENDMDL
MODEL 5
REMARK VINA RESULT: -8.933341378      4.258      6.747
REMARK  4 active torsions:
REMARK  status: ('A' for Active; 'I' for Inactive)
REMARK    1  A    between atoms: N1_5  and  C5_6 
REMARK    2  A    between atoms: C8_9  and  C9_10 
REMARK    3  A    between atoms: C13_17  and  C14_18 
REMARK    4  A    between atoms: C14_18  and  C15_19 
ROOT
HETATM    1  C1  UNL     1       3.745  60.144   1.706  1.00  0.00     0.024 C 
HETATM    2  C2  UNL     1       4.833  59.945   1.018  1.00  0.00    -0.029 A 
HETATM    3  C3  UNL     1       5.477  61.124   0.599  1.00  0.00     0.029 A 
HETATM    4  C4  UNL     1       6.633  61.018  -0.134  1.00  0.00     0.101 A 
HETATM    5  N1  UNL     1       7.127  59.814  -0.437  1.00  0.00    -0.289 N 
HETATM    6  C12 UNL     1       6.539  58.682  -0.057  1.00  0.00     0.263 A 
HETATM    7  O3  UNL     1       7.071  57.554  -0.386  1.00  0.00    -0.267 OA
HETATM    8  C13 UNL     1       5.351  58.716   0.698  1.00  0.00     0.043 A 
ENDROOT
BRANCH   8   9
HETATM    9  C14 UNL     1       4.854  57.584   1.021  1.00  0.00     0.029 C 
BRANCH   9  10
HETATM   10  C15 UNL     1       5.303  56.321   1.544  1.00  0.00    -0.034 A 
HETATM   11  C16 UNL     1       6.307  56.236   2.519  1.00  0.00     0.014 A 
HETATM   12  C17 UNL     1       6.758  55.013   2.963  1.00  0.00     0.031 A 
HETATM   13  C18 UNL     1       6.235  53.830   2.463  1.00  0.00     0.045 A 
HETATM   14  N2  UNL     1       6.678  52.639   2.900  1.00  0.00    -0.323 N 
HETATM   15  C22 UNL     1       5.248  53.877   1.505  1.00  0.00    -0.008 A 
HETATM   16  C19 UNL     1       6.182  51.481   2.425  1.00  0.00     0.245 A 
ATOM     17  H2  UNL     1       7.409  52.611   3.611  1.00  0.00     0.169 HD
HETATM   18  O4  UNL     1       6.628  50.383   2.865  1.00  0.00    -0.268 OA
HETATM   19  C20 UNL     1       5.187  51.463   1.460  1.00  0.00     0.075 A 
HETATM   20  C21 UNL     1       4.729  52.684   1.009  1.00  0.00     0.019 A 
HETATM   21  C23 UNL     1       4.809  55.101   1.073  1.00  0.00     0.025 A 
ENDBRANCH   9  10
ENDBRANCH   8   9
BRANCH   5  22
HETATM   22  C5  UNL     1       8.320  59.718  -1.193  1.00  0.00     0.042 A 
HETATM   23  C6  UNL     1       8.763  60.793  -1.925  1.00  0.00     0.031 A 
HETATM   24  C7  UNL     1       9.938  60.708  -2.675  1.00  0.00     0.020 A 
HETATM   25  C8  UNL     1      10.649  59.528  -2.671  1.00  0.00     0.041 A 
HETATM   26  C10 UNL     1      10.212  58.435  -1.935  1.00  0.00     0.020 A 
HETATM   27  C11 UNL     1       9.042  58.560  -1.206  1.00  0.00     0.031 A 
BRANCH  25  28
HETATM   28  C9  UNL     1      11.867  59.422  -3.441  1.00  0.00     0.209 C 
HETATM   29  O1  UNL     1      12.675  60.365  -3.464  1.00  0.00    -0.644 OA
HETATM   30  O2  UNL     1      12.139  58.268  -4.156  1.00  0.00    -0.644 OA
ENDBRANCH  25  28
ENDBRANCH   5  22
TORSDOF 4
ENDMDL
