MODEL 1
REMARK VINA RESULT: -8.916344740      0.000      0.000
REMARK  5 active torsions:
REMARK  status: ('A' for Active; 'I' for Inactive)
REMARK    1  A    between atoms: C5_5  and  S1_6 
REMARK    2  A    between atoms: S1_6  and  N1_9 
REMARK    3  A    between atoms: N1_9  and  C6_11 
REMARK    4  A    between atoms: C11_16  and  S2_17 
REMARK    5  A    between atoms: S2_17  and  N2_18 
ROOT
HETATM    1  C6  UNL     1       7.321  52.683   1.955  1.00  0.00     0.115 A 
HETATM    2  C7  UNL     1       8.440  51.889   1.904  1.00  0.00     0.050 A 
HETATM    3  C8  UNL     1       8.389  50.600   2.392  1.00  0.00     0.017 A 
HETATM    4  C9  UNL     1       7.220  50.113   2.929  1.00  0.00    -0.008 A 
HETATM    5  C10 UNL     1       7.175  48.824   3.415  1.00  0.00     0.038 A 
HETATM    6  C11 UNL     1       6.006  48.333   3.953  1.00  0.00     0.080 A 
HETATM    7  C12 UNL     1       4.898  49.146   3.995  1.00  0.00     0.027 A 
HETATM    8  C13 UNL     1       4.961  50.446   3.499  1.00  0.00     0.032 A 
HETATM    9  C14 UNL     1       6.123  50.951   2.957  1.00  0.00     0.044 A 
HETATM   10  N3  UNL     1       6.170  52.206   2.483  1.00  0.00    -0.341 N 
ATOM     11  H3  UNL     1       5.340  52.798   2.521  1.00  0.00     0.167 HD
ENDROOT
BRANCH   1  12
HETATM   12  N1  UNL     1       7.386  53.880   1.497  1.00  0.00    -0.266 N 
ATOM     13  H1  UNL     1       8.129  54.080   0.826  1.00  0.00     0.180 HD
BRANCH  12  14
HETATM   14  S1  UNL     1       6.348  55.164   1.906  1.00  0.00     0.264 S 
HETATM   15  O1  UNL     1       4.945  54.779   1.514  1.00  0.00    -0.200 OA
HETATM   16  O2  UNL     1       6.321  55.450   3.400  1.00  0.00    -0.200 OA
BRANCH  14  17
HETATM   17  C5  UNL     1       6.842  56.624   1.039  1.00  0.00     0.079 A 
HETATM   18  C4  UNL     1       5.931  57.596   0.687  1.00  0.00     0.026 A 
HETATM   19  C3  UNL     1       6.340  58.731   0.009  1.00  0.00     0.008 A 
HETATM   20  C2  UNL     1       7.656  58.938  -0.341  1.00  0.00    -0.062 A 
HETATM   21  C1  UNL     1       8.095  60.165  -1.074  1.00  0.00     0.048 C 
HETATM   22  C16 UNL     1       8.570  57.968   0.009  1.00  0.00     0.008 A 
HETATM   23  C15 UNL     1       8.159  56.834   0.688  1.00  0.00     0.026 A 
ENDBRANCH  14  17
ENDBRANCH  12  14
ENDBRANCH   1  12
BRANCH   6  24
HETATM   24  S2  UNL     1       5.931  46.684   4.580  1.00  0.00     0.256 S 
HETATM   25  O3  UNL     1       7.096  46.456   5.472  1.00  0.00    -0.201 OA
HETATM   26  O4  UNL     1       5.985  45.732   3.420  1.00  0.00    -0.201 OA
BRANCH  24  27
HETATM   27  N2  UNL     1       4.463  46.485   5.465  1.00  0.00    -0.324 N 
ATOM     28  H22 UNL     1       3.576  46.924   5.222  1.00  0.00     0.169 HD
ATOM     29  H21 UNL     1       4.634  45.866   6.257  1.00  0.00     0.169 HD
ENDBRANCH  24  27
ENDBRANCH   6  24
TORSDOF 5
ENDMDL
MODEL 2
REMARK VINA RESULT: -8.873563299      0.857      1.415
REMARK  5 active torsions:
REMARK  status: ('A' for Active; 'I' for Inactive)
REMARK    1  A    between atoms: C5_5  and  S1_6 
REMARK    2  A    between atoms: S1_6  and  N1_9 
REMARK    3  A    between atoms: N1_9  and  C6_11 
REMARK    4  A    between atoms: C11_16  and  S2_17 
REMARK    5  A    between atoms: S2_17  and  N2_18 
ROOT
HETATM    1  C6  UNL     1       7.756  52.775   2.054  1.00  0.00     0.115 A 
HETATM    2  C7  UNL     1       8.838  51.941   1.914  1.00  0.00     0.050 A 
HETATM    3  C8  UNL     1       8.738  50.618   2.293  1.00  0.00     0.017 A 
HETATM    4  C9  UNL     1       7.558  50.137   2.809  1.00  0.00    -0.008 A 
HETATM    5  C10 UNL     1       7.464  48.814   3.185  1.00  0.00     0.038 A 
HETATM    6  C11 UNL     1       6.283  48.329   3.701  1.00  0.00     0.080 A 
HETATM    7  C12 UNL     1       5.213  49.182   3.833  1.00  0.00     0.027 A 
HETATM    8  C13 UNL     1       5.324  50.515   3.447  1.00  0.00     0.032 A 
HETATM    9  C14 UNL     1       6.499  51.016   2.928  1.00  0.00     0.044 A 
HETATM   10  N3  UNL     1       6.593  52.303   2.561  1.00  0.00    -0.341 N 
ATOM     11  H3  UNL     1       5.791  52.924   2.665  1.00  0.00     0.167 HD
ENDROOT
BRANCH   1  12
HETATM   12  N1  UNL     1       7.866  54.003   1.697  1.00  0.00    -0.266 N 
ATOM     13  H1  UNL     1       8.731  54.273   1.228  1.00  0.00     0.180 HD
BRANCH  12  14
HETATM   14  S1  UNL     1       6.702  55.219   1.935  1.00  0.00     0.264 S 
HETATM   15  O1  UNL     1       5.373  54.703   1.449  1.00  0.00    -0.200 OA
HETATM   16  O2  UNL     1       6.519  55.585   3.401  1.00  0.00    -0.200 OA
BRANCH  14  17
HETATM   17  C5  UNL     1       7.163  56.664   1.025  1.00  0.00     0.079 A 
HETATM   18  C4  UNL     1       8.475  56.915   0.688  1.00  0.00     0.026 A 
HETATM   19  C3  UNL     1       8.814  58.053  -0.024  1.00  0.00     0.008 A 
HETATM   20  C2  UNL     1       7.868  58.972  -0.423  1.00  0.00    -0.062 A 
HETATM   21  C1  UNL     1       8.237  60.201  -1.192  1.00  0.00     0.048 C 
HETATM   22  C16 UNL     1       6.555  58.724  -0.087  1.00  0.00     0.008 A 
HETATM   23  C15 UNL     1       6.219  57.586   0.624  1.00  0.00     0.026 A 
ENDBRANCH  14  17
ENDBRANCH  12  14
ENDBRANCH   1  12
BRANCH   6  24
HETATM   24  S2  UNL     1       6.146  46.637   4.189  1.00  0.00     0.256 S 
HETATM   25  O3  UNL     1       4.712  46.312   4.395  1.00  0.00    -0.201 OA
HETATM   26  O4  UNL     1       6.899  46.452   5.475  1.00  0.00    -0.201 OA
BRANCH  24  27
HETATM   27  N2  UNL     1       6.804  45.638   2.946  1.00  0.00    -0.324 N 
ATOM     28  H22 UNL     1       7.377  45.976   2.173  1.00  0.00     0.169 HD
ATOM     29  H21 UNL     1       6.527  44.671   3.115  1.00  0.00     0.169 HD
ENDBRANCH  24  27
ENDBRANCH   6  24
TORSDOF 5
ENDMDL
MODEL 3
REMARK VINA RESULT: -8.815940044      1.461      2.309
REMARK  5 active torsions:
REMARK  status: ('A' for Active; 'I' for Inactive)
REMARK    1  A    between atoms: C5_5  and  S1_6 
REMARK    2  A    between atoms: S1_6  and  N1_9 
REMARK    3  A    between atoms: N1_9  and  C6_11 
REMARK    4  A    between atoms: C11_16  and  S2_17 
REMARK    5  A    between atoms: S2_17  and  N2_18 
ROOT
HETATM    1  C6  UNL     1       6.726  53.460   1.143  1.00  0.00     0.115 A 
HETATM    2  C7  UNL     1       5.387  53.196   1.292  1.00  0.00     0.050 A 
HETATM    3  C8  UNL     1       4.981  52.022   1.892  1.00  0.00     0.017 A 
HETATM    4  C9  UNL     1       5.917  51.119   2.338  1.00  0.00    -0.008 A 
HETATM    5  C10 UNL     1       5.506  49.947   2.937  1.00  0.00     0.038 A 
HETATM    6  C11 UNL     1       6.440  49.040   3.386  1.00  0.00     0.080 A 
HETATM    7  C12 UNL     1       7.776  49.325   3.225  1.00  0.00     0.027 A 
HETATM    8  C13 UNL     1       8.174  50.513   2.619  1.00  0.00     0.032 A 
HETATM    9  C14 UNL     1       7.251  51.431   2.165  1.00  0.00     0.044 A 
HETATM   10  N3  UNL     1       7.649  52.572   1.582  1.00  0.00    -0.341 N 
ATOM     11  H3  UNL     1       8.643  52.770   1.469  1.00  0.00     0.167 HD
ENDROOT
BRANCH   1  12
HETATM   12  N1  UNL     1       7.085  54.557   0.582  1.00  0.00    -0.266 N 
ATOM     13  H1  UNL     1       6.897  54.651  -0.416  1.00  0.00     0.180 HD
BRANCH  12  14
HETATM   14  S1  UNL     1       7.847  55.869   1.353  1.00  0.00     0.264 S 
HETATM   15  O1  UNL     1       7.687  55.699   2.841  1.00  0.00    -0.200 OA
HETATM   16  O2  UNL     1       9.342  55.929   1.078  1.00  0.00    -0.200 OA
BRANCH  14  17
HETATM   17  C5  UNL     1       7.094  57.381   0.829  1.00  0.00     0.079 A 
HETATM   18  C4  UNL     1       7.794  58.319   0.102  1.00  0.00     0.026 A 
HETATM   19  C3  UNL     1       7.185  59.496  -0.298  1.00  0.00     0.008 A 
HETATM   20  C2  UNL     1       5.872  59.779   0.008  1.00  0.00    -0.062 A 
HETATM   21  C1  UNL     1       5.217  61.053  -0.425  1.00  0.00     0.048 C 
HETATM   22  C16 UNL     1       5.170  58.843   0.735  1.00  0.00     0.008 A 
HETATM   23  C15 UNL     1       5.780  57.667   1.133  1.00  0.00     0.026 A 
ENDBRANCH  14  17
ENDBRANCH  12  14
ENDBRANCH   1  12
BRANCH   6  24
HETATM   24  S2  UNL     1       5.931  47.534   4.155  1.00  0.00     0.256 S 
HETATM   25  O3  UNL     1       6.924  47.167   5.196  1.00  0.00    -0.201 OA
HETATM   26  O4  UNL     1       5.875  46.462   3.105  1.00  0.00    -0.201 OA
BRANCH  24  27
HETATM   27  N2  UNL     1       4.381  47.766   4.875  1.00  0.00    -0.324 N 
ATOM     28  H22 UNL     1       4.006  48.668   5.167  1.00  0.00     0.169 HD
ATOM     29  H21 UNL     1       3.914  46.863   4.957  1.00  0.00     0.169 HD
ENDBRANCH  24  27
ENDBRANCH   6  24
TORSDOF 5
ENDMDL
MODEL 4
REMARK VINA RESULT: -8.732579084      3.522      4.327
REMARK  5 active torsions:
REMARK  status: ('A' for Active; 'I' for Inactive)
REMARK    1  A    between atoms: C5_5  and  S1_6 
REMARK    2  A    between atoms: S1_6  and  N1_9 
REMARK    3  A    between atoms: N1_9  and  C6_11 
REMARK    4  A    between atoms: C11_16  and  S2_17 
REMARK    5  A    between atoms: S2_17  and  N2_18 
ROOT
HETATM    1  C6  UNL     1       9.423  54.288   1.062  1.00  0.00     0.115 A 
HETATM    2  C7  UNL     1      10.749  54.334   0.709  1.00  0.00     0.050 A 
HETATM    3  C8  UNL     1      11.515  53.188   0.768  1.00  0.00     0.017 A 
HETATM    4  C9  UNL     1      10.950  52.003   1.179  1.00  0.00    -0.008 A 
HETATM    5  C10 UNL     1      11.720  50.861   1.236  1.00  0.00     0.038 A 
HETATM    6  C11 UNL     1      11.157  49.673   1.646  1.00  0.00     0.080 A 
HETATM    7  C12 UNL     1       9.827  49.651   1.995  1.00  0.00     0.027 A 
HETATM    8  C13 UNL     1       9.063  50.814   1.931  1.00  0.00     0.032 A 
HETATM    9  C14 UNL     1       9.612  52.010   1.522  1.00  0.00     0.044 A 
HETATM   10  N3  UNL     1       8.865  53.123   1.466  1.00  0.00    -0.341 N 
ATOM     11  H3  UNL     1       7.879  53.092   1.728  1.00  0.00     0.167 HD
ENDROOT
BRANCH   1  12
HETATM   12  N1  UNL     1       8.726  55.364   1.001  1.00  0.00    -0.266 N 
ATOM     13  H1  UNL     1       9.214  56.218   0.729  1.00  0.00     0.180 HD
BRANCH  12  14
HETATM   14  S1  UNL     1       7.063  55.495   1.333  1.00  0.00     0.264 S 
HETATM   15  O1  UNL     1       6.334  54.467   0.508  1.00  0.00    -0.200 OA
HETATM   16  O2  UNL     1       6.725  55.206   2.788  1.00  0.00    -0.200 OA
BRANCH  14  17
HETATM   17  C5  UNL     1       6.503  57.120   0.914  1.00  0.00     0.079 A 
HETATM   18  C4  UNL     1       5.280  57.592   1.339  1.00  0.00     0.026 A 
HETATM   19  C3  UNL     1       4.861  58.867   1.000  1.00  0.00     0.008 A 
HETATM   20  C2  UNL     1       5.635  59.709   0.232  1.00  0.00    -0.062 A 
HETATM   21  C1  UNL     1       5.180  61.086  -0.134  1.00  0.00     0.048 C 
HETATM   22  C16 UNL     1       6.858  59.240  -0.195  1.00  0.00     0.008 A 
HETATM   23  C15 UNL     1       7.275  57.965   0.146  1.00  0.00     0.026 A 
ENDBRANCH  14  17
ENDBRANCH  12  14
ENDBRANCH   1  12
BRANCH   6  24
HETATM   24  S2  UNL     1      12.128  48.201   1.725  1.00  0.00     0.256 S 
HETATM   25  O3  UNL     1      11.264  47.079   2.172  1.00  0.00    -0.201 OA
HETATM   26  O4  UNL     1      13.235  48.416   2.717  1.00  0.00    -0.201 OA
BRANCH  24  27
HETATM   27  N2  UNL     1      12.768  47.864   0.159  1.00  0.00    -0.324 N 
ATOM     28  H22 UNL     1      12.899  46.928  -0.225  1.00  0.00     0.169 HD
ATOM     29  H21 UNL     1      12.988  48.744  -0.307  1.00  0.00     0.169 HD
ENDBRANCH  24  27
ENDBRANCH   6  24
TORSDOF 5
ENDMDL
MODEL 5
REMARK VINA RESULT: -8.464676532      3.210      3.872
REMARK  5 active torsions:
REMARK  status: ('A' for Active; 'I' for Inactive)
REMARK    1  A    between atoms: C5_5  and  S1_6 
REMARK    2  A    between atoms: S1_6  and  N1_9 
REMARK    3  A    between atoms: N1_9  and  C6_11 
REMARK    4  A    between atoms: C11_16  and  S2_17 
REMARK    5  A    between atoms: S2_17  and  N2_18 
ROOT
HETATM    1  C6  UNL     1       9.097  53.907   1.325  1.00  0.00     0.115 A 
HETATM    2  C7  UNL     1      10.354  53.864   0.773  1.00  0.00     0.050 A 
HETATM    3  C8  UNL     1      11.025  52.661   0.690  1.00  0.00     0.017 A 
HETATM    4  C9  UNL     1      10.435  51.510   1.157  1.00  0.00    -0.008 A 
HETATM    5  C10 UNL     1      11.111  50.311   1.070  1.00  0.00     0.038 A 
HETATM    6  C11 UNL     1      10.524  49.157   1.537  1.00  0.00     0.080 A 
HETATM    7  C12 UNL     1       9.264  49.224   2.085  1.00  0.00     0.027 A 
HETATM    8  C13 UNL     1       8.596  50.443   2.165  1.00  0.00     0.032 A 
HETATM    9  C14 UNL     1       9.170  51.607   1.702  1.00  0.00     0.044 A 
HETATM   10  N3  UNL     1       8.515  52.775   1.785  1.00  0.00    -0.341 N 
ATOM     11  H3  UNL     1       7.581  52.810   2.195  1.00  0.00     0.167 HD
ENDROOT
BRANCH   1  12
HETATM   12  N1  UNL     1       8.487  55.035   1.395  1.00  0.00    -0.266 N 
ATOM     13  H1  UNL     1       9.067  55.874   1.428  1.00  0.00     0.180 HD
BRANCH  12  14
HETATM   14  S1  UNL     1       6.801  55.256   1.438  1.00  0.00     0.264 S 
HETATM   15  O1  UNL     1       6.171  54.271   0.488  1.00  0.00    -0.200 OA
HETATM   16  O2  UNL     1       6.204  54.982   2.811  1.00  0.00    -0.200 OA
BRANCH  14  17
HETATM   17  C5  UNL     1       6.409  56.909   0.948  1.00  0.00     0.079 A 
HETATM   18  C4  UNL     1       7.279  57.661   0.189  1.00  0.00     0.026 A 
HETATM   19  C3  UNL     1       6.953  58.953  -0.184  1.00  0.00     0.008 A 
HETATM   20  C2  UNL     1       5.761  59.539   0.183  1.00  0.00    -0.062 A 
HETATM   21  C1  UNL     1       5.410  60.936  -0.220  1.00  0.00     0.048 C 
HETATM   22  C16 UNL     1       4.889  58.790   0.943  1.00  0.00     0.008 A 
HETATM   23  C15 UNL     1       5.218  57.498   1.313  1.00  0.00     0.026 A 
ENDBRANCH  14  17
ENDBRANCH  12  14
ENDBRANCH   1  12
BRANCH   6  24
HETATM   24  S2  UNL     1      11.374  47.613   1.434  1.00  0.00     0.256 S 
HETATM   25  O3  UNL     1      12.125  47.393   2.696  1.00  0.00    -0.201 OA
HETATM   26  O4  UNL     1      12.331  47.675   0.278  1.00  0.00    -0.201 OA
BRANCH  24  27
HETATM   27  N2  UNL     1      10.222  46.349   1.206  1.00  0.00    -0.324 N 
ATOM     28  H22 UNL     1       9.739  46.157   0.329  1.00  0.00     0.169 HD
ATOM     29  H21 UNL     1      10.111  45.839   2.082  1.00  0.00     0.169 HD
ENDBRANCH  24  27
ENDBRANCH   6  24
TORSDOF 5
ENDMDL
