MODEL 1
REMARK VINA RESULT: -8.387009121      0.000      0.000
REMARK  6 active torsions:
REMARK  status: ('A' for Active; 'I' for Inactive)
REMARK    1  A    between atoms: C4_8  and  C5_9 
REMARK    2  A    between atoms: C5_9  and  C6_10 
REMARK    3  A    between atoms: C9_13  and  O3_14 
REMARK    4  A    between atoms: C10_16  and  O4_17 
REMARK    5  A    between atoms: C11_19  and  C12_20 
REMARK    6  A    between atoms: C12_20  and  C13_21 
ROOT
HETATM    1  C6  UNL     1       9.393  51.670   0.855  1.00  0.00    -0.026 A 
HETATM    2  C7  UNL     1       9.226  50.575   0.003  1.00  0.00     0.015 A 
HETATM    3  C8  UNL     1       9.964  50.488  -1.135  1.00  0.00     0.040 A 
HETATM    4  C9  UNL     1      10.889  51.472  -1.473  1.00  0.00     0.099 A 
HETATM    5  C10 UNL     1      11.052  52.544  -0.635  1.00  0.00     0.106 A 
HETATM    6  C11 UNL     1      10.306  52.643   0.524  1.00  0.00    -0.008 A 
ENDROOT
BRANCH   6   7
HETATM    7  C12 UNL     1      10.527  53.840   1.423  1.00  0.00     0.081 C 
BRANCH   7   8
HETATM    8  C13 UNL     1       9.660  54.979   1.072  1.00  0.00    -0.053 A 
HETATM    9  C14 UNL     1      10.185  56.082   0.419  1.00  0.00     0.010 A 
HETATM   10  C15 UNL     1       9.406  57.201   0.097  1.00  0.00     0.031 A 
HETATM   11  C16 UNL     1       8.085  57.237   0.423  1.00  0.00     0.044 A 
HETATM   12  C17 UNL     1       7.541  56.151   1.074  1.00  0.00    -0.009 A 
HETATM   13  N2  UNL     1       7.349  58.322   0.106  1.00  0.00    -0.354 N 
HETATM   14  C18 UNL     1       6.185  56.218   1.395  1.00  0.00     0.015 A 
HETATM   15  C23 UNL     1       8.308  55.050   1.391  1.00  0.00     0.021 A 
HETATM   16  C19 UNL     1       5.450  57.338   1.062  1.00  0.00     0.025 A 
HETATM   17  C20 UNL     1       6.023  58.411   0.409  1.00  0.00     0.007 A 
HETATM   18  C21 UNL     1       5.227  59.606   0.055  1.00  0.00     0.068 C 
HETATM   19  C22 UNL     1       7.957  59.441  -0.578  1.00  0.00     0.156 C 
ENDBRANCH   7   8
ENDBRANCH   6   7
BRANCH   1  20
HETATM   20  C5  UNL     1       8.588  51.763   2.051  1.00  0.00     0.032 C 
BRANCH  20  21
HETATM   21  C4  UNL     1       7.466  51.188   2.380  1.00  0.00     0.070 A 
HETATM   22  C2  UNL     1       6.161  51.481   2.078  1.00  0.00     0.062 A 
HETATM   23  C1  UNL     1       5.681  52.466   1.368  1.00  0.00     0.046 C 
HETATM   24  N1  UNL     1       5.356  50.536   2.672  1.00  0.00    -0.257 N 
HETATM   25  O1  UNL     1       6.109  49.711   3.301  1.00  0.00    -0.194 OA
ATOM     26  H1  UNL     1       4.338  50.498   2.621  1.00  0.00     0.195 HD
HETATM   27  C3  UNL     1       7.364  50.020   3.181  1.00  0.00     0.317 A 
HETATM   28  O2  UNL     1       8.322  49.417   3.672  1.00  0.00    -0.257 OA
ENDBRANCH  20  21
ENDBRANCH   1  20
BRANCH   5  29
HETATM   29  O4  UNL     1      11.988  53.550  -0.958  1.00  0.00    -0.357 OA
ATOM     30  H4  UNL     1      12.714  53.724  -0.372  1.00  0.00     0.217 HD
ENDBRANCH   5  29
BRANCH   4  31
HETATM   31  O3  UNL     1      11.639  51.376  -2.634  1.00  0.00    -0.358 OA
ATOM     32  H3  UNL     1      12.342  50.740  -2.710  1.00  0.00     0.217 HD
ENDBRANCH   4  31
TORSDOF 6
ENDMDL
MODEL 2
REMARK VINA RESULT: -8.098726910      0.921      1.439
REMARK  6 active torsions:
REMARK  status: ('A' for Active; 'I' for Inactive)
REMARK    1  A    between atoms: C4_8  and  C5_9 
REMARK    2  A    between atoms: C5_9  and  C6_10 
REMARK    3  A    between atoms: C9_13  and  O3_14 
REMARK    4  A    between atoms: C10_16  and  O4_17 
REMARK    5  A    between atoms: C11_19  and  C12_20 
REMARK    6  A    between atoms: C12_20  and  C13_21 
ROOT
HETATM    1  C6  UNL     1       9.298  51.861   0.836  1.00  0.00    -0.026 A 
HETATM    2  C7  UNL     1       9.159  50.763  -0.018  1.00  0.00     0.015 A 
HETATM    3  C8  UNL     1      10.000  50.620  -1.075  1.00  0.00     0.040 A 
HETATM    4  C9  UNL     1      11.005  51.550  -1.329  1.00  0.00     0.099 A 
HETATM    5  C10 UNL     1      11.141  52.625  -0.491  1.00  0.00     0.106 A 
HETATM    6  C11 UNL     1      10.290  52.780   0.586  1.00  0.00    -0.008 A 
ENDROOT
BRANCH   6   7
HETATM    7  C12 UNL     1      10.484  53.978   1.491  1.00  0.00     0.081 C 
BRANCH   7   8
HETATM    8  C13 UNL     1       9.654  55.129   1.090  1.00  0.00    -0.053 A 
HETATM    9  C14 UNL     1      10.207  56.171   0.365  1.00  0.00     0.010 A 
HETATM   10  C15 UNL     1       9.465  57.300  -0.007  1.00  0.00     0.031 A 
HETATM   11  C16 UNL     1       8.154  57.407   0.343  1.00  0.00     0.044 A 
HETATM   12  C17 UNL     1       7.583  56.382   1.065  1.00  0.00    -0.009 A 
HETATM   13  N2  UNL     1       7.454  58.500  -0.024  1.00  0.00    -0.354 N 
HETATM   14  C18 UNL     1       6.238  56.522   1.408  1.00  0.00     0.015 A 
HETATM   15  C23 UNL     1       8.313  55.272   1.431  1.00  0.00     0.021 A 
HETATM   16  C19 UNL     1       5.539  57.649   1.024  1.00  0.00     0.025 A 
HETATM   17  C20 UNL     1       6.138  58.659   0.299  1.00  0.00     0.007 A 
HETATM   18  C21 UNL     1       5.382  59.863  -0.108  1.00  0.00     0.068 C 
HETATM   19  C22 UNL     1       8.090  59.554  -0.782  1.00  0.00     0.156 C 
ENDBRANCH   7   8
ENDBRANCH   6   7
BRANCH   1  20
HETATM   20  C5  UNL     1       8.385  52.015   1.944  1.00  0.00     0.032 C 
BRANCH  20  21
HETATM   21  C4  UNL     1       7.214  51.492   2.173  1.00  0.00     0.070 A 
HETATM   22  C2  UNL     1       6.825  50.390   2.889  1.00  0.00     0.062 A 
HETATM   23  C1  UNL     1       7.560  49.530   3.541  1.00  0.00     0.046 C 
HETATM   24  N1  UNL     1       5.453  50.292   2.823  1.00  0.00    -0.257 N 
HETATM   25  O1  UNL     1       5.020  51.266   2.113  1.00  0.00    -0.194 OA
ATOM     26  H1  UNL     1       4.883  49.570   3.262  1.00  0.00     0.195 HD
HETATM   27  C3  UNL     1       5.987  52.021   1.691  1.00  0.00     0.317 A 
HETATM   28  O2  UNL     1       5.883  53.030   0.989  1.00  0.00    -0.257 OA
ENDBRANCH  20  21
ENDBRANCH   1  20
BRANCH   5  29
HETATM   29  O4  UNL     1      12.156  53.576  -0.731  1.00  0.00    -0.357 OA
ATOM     30  H4  UNL     1      11.922  54.481  -0.899  1.00  0.00     0.217 HD
ENDBRANCH   5  29
BRANCH   4  31
HETATM   31  O3  UNL     1      11.860  51.396  -2.409  1.00  0.00    -0.358 OA
ATOM     32  H3  UNL     1      12.790  51.248  -2.278  1.00  0.00     0.217 HD
ENDBRANCH   4  31
TORSDOF 6
ENDMDL
MODEL 3
REMARK VINA RESULT: -8.008378295      0.469      1.569
REMARK  6 active torsions:
REMARK  status: ('A' for Active; 'I' for Inactive)
REMARK    1  A    between atoms: C4_8  and  C5_9 
REMARK    2  A    between atoms: C5_9  and  C6_10 
REMARK    3  A    between atoms: C9_13  and  O3_14 
REMARK    4  A    between atoms: C10_16  and  O4_17 
REMARK    5  A    between atoms: C11_19  and  C12_20 
REMARK    6  A    between atoms: C12_20  and  C13_21 
ROOT
HETATM    1  C6  UNL     1       9.391  51.546   0.804  1.00  0.00    -0.026 A 
HETATM    2  C7  UNL     1       9.202  50.480  -0.079  1.00  0.00     0.015 A 
HETATM    3  C8  UNL     1       9.861  50.465  -1.268  1.00  0.00     0.040 A 
HETATM    4  C9  UNL     1      10.727  51.494  -1.627  1.00  0.00     0.099 A 
HETATM    5  C10 UNL     1      10.912  52.538  -0.760  1.00  0.00     0.106 A 
HETATM    6  C11 UNL     1      10.246  52.564   0.451  1.00  0.00    -0.008 A 
ENDROOT
BRANCH   6   7
HETATM    7  C12 UNL     1      10.488  53.733   1.382  1.00  0.00     0.081 C 
BRANCH   7   8
HETATM    8  C13 UNL     1       9.561  54.853   1.138  1.00  0.00    -0.053 A 
HETATM    9  C14 UNL     1       8.235  54.761   1.530  1.00  0.00     0.010 A 
HETATM   10  C15 UNL     1       7.311  55.786   1.287  1.00  0.00     0.031 A 
HETATM   11  C16 UNL     1       7.698  56.923   0.645  1.00  0.00     0.044 A 
HETATM   12  C17 UNL     1       9.011  57.035   0.246  1.00  0.00    -0.009 A 
HETATM   13  N2  UNL     1       6.795  57.900   0.420  1.00  0.00    -0.354 N 
HETATM   14  C18 UNL     1       9.376  58.212  -0.409  1.00  0.00     0.015 A 
HETATM   15  C23 UNL     1       9.920  56.028   0.485  1.00  0.00     0.021 A 
HETATM   16  C19 UNL     1       8.437  59.200  -0.630  1.00  0.00     0.025 A 
HETATM   17  C20 UNL     1       7.128  59.058  -0.217  1.00  0.00     0.007 A 
HETATM   18  C21 UNL     1       6.129  60.122  -0.459  1.00  0.00     0.068 C 
HETATM   19  C22 UNL     1       5.426  57.743   0.855  1.00  0.00     0.156 C 
ENDBRANCH   7   8
ENDBRANCH   6   7
BRANCH   1  20
HETATM   20  C5  UNL     1       8.669  51.564   2.055  1.00  0.00     0.032 C 
BRANCH  20  21
HETATM   21  C4  UNL     1       7.529  51.035   2.398  1.00  0.00     0.070 A 
HETATM   22  C2  UNL     1       6.235  51.360   2.085  1.00  0.00     0.062 A 
HETATM   23  C1  UNL     1       5.788  52.339   1.346  1.00  0.00     0.046 C 
HETATM   24  N1  UNL     1       5.399  50.459   2.704  1.00  0.00    -0.257 N 
HETATM   25  O1  UNL     1       6.125  49.629   3.358  1.00  0.00    -0.194 OA
ATOM     26  H1  UNL     1       4.381  50.452   2.652  1.00  0.00     0.195 HD
HETATM   27  C3  UNL     1       7.389  49.894   3.232  1.00  0.00     0.317 A 
HETATM   28  O2  UNL     1       8.327  49.275   3.742  1.00  0.00    -0.257 OA
ENDBRANCH  20  21
ENDBRANCH   1  20
BRANCH   5  29
HETATM   29  O4  UNL     1      11.787  53.589  -1.105  1.00  0.00    -0.357 OA
ATOM     30  H4  UNL     1      11.687  54.440  -0.695  1.00  0.00     0.217 HD
ENDBRANCH   5  29
BRANCH   4  31
HETATM   31  O3  UNL     1      11.396  51.470  -2.840  1.00  0.00    -0.358 OA
ATOM     32  H3  UNL     1      11.302  52.181  -3.464  1.00  0.00     0.217 HD
ENDBRANCH   4  31
TORSDOF 6
ENDMDL
MODEL 4
REMARK VINA RESULT: -7.610750825      1.143      2.000
REMARK  6 active torsions:
REMARK  status: ('A' for Active; 'I' for Inactive)
REMARK    1  A    between atoms: C4_8  and  C5_9 
REMARK    2  A    between atoms: C5_9  and  C6_10 
REMARK    3  A    between atoms: C9_13  and  O3_14 
REMARK    4  A    between atoms: C10_16  and  O4_17 
REMARK    5  A    between atoms: C11_19  and  C12_20 
REMARK    6  A    between atoms: C12_20  and  C13_21 
ROOT
HETATM    1  C6  UNL     1       9.643  51.649   0.077  1.00  0.00    -0.026 A 
HETATM    2  C7  UNL     1      10.193  51.005  -1.034  1.00  0.00     0.015 A 
HETATM    3  C8  UNL     1      11.363  51.453  -1.562  1.00  0.00     0.040 A 
HETATM    4  C9  UNL     1      12.030  52.547  -1.017  1.00  0.00     0.099 A 
HETATM    5  C10 UNL     1      11.489  53.176   0.073  1.00  0.00     0.106 A 
HETATM    6  C11 UNL     1      10.300  52.730   0.617  1.00  0.00    -0.008 A 
ENDROOT
BRANCH   6   7
HETATM    7  C12 UNL     1       9.745  53.451   1.827  1.00  0.00     0.081 C 
BRANCH   7   8
HETATM    8  C13 UNL     1       8.928  54.622   1.462  1.00  0.00    -0.053 A 
HETATM    9  C14 UNL     1       7.547  54.567   1.552  1.00  0.00     0.010 A 
HETATM   10  C15 UNL     1       6.730  55.644   1.182  1.00  0.00     0.031 A 
HETATM   11  C16 UNL     1       7.282  56.798   0.715  1.00  0.00     0.044 A 
HETATM   12  C17 UNL     1       8.654  56.875   0.617  1.00  0.00    -0.009 A 
HETATM   13  N2  UNL     1       6.481  57.825   0.365  1.00  0.00    -0.354 N 
HETATM   14  C18 UNL     1       9.188  58.070   0.134  1.00  0.00     0.015 A 
HETATM   15  C23 UNL     1       9.457  55.816   0.980  1.00  0.00     0.021 A 
HETATM   16  C19 UNL     1       8.352  59.109  -0.219  1.00  0.00     0.025 A 
HETATM   17  C20 UNL     1       6.980  59.002  -0.109  1.00  0.00     0.007 A 
HETATM   18  C21 UNL     1       6.091  60.121  -0.491  1.00  0.00     0.068 C 
HETATM   19  C22 UNL     1       5.045  57.704   0.483  1.00  0.00     0.156 C 
ENDBRANCH   7   8
ENDBRANCH   6   7
BRANCH   1  20
HETATM   20  C5  UNL     1       8.388  51.179   0.617  1.00  0.00     0.032 C 
BRANCH  20  21
HETATM   21  C4  UNL     1       8.090  50.661   1.774  1.00  0.00     0.070 A 
HETATM   22  C2  UNL     1       6.965  50.742   2.553  1.00  0.00     0.062 A 
HETATM   23  C1  UNL     1       5.860  51.403   2.338  1.00  0.00     0.046 C 
HETATM   24  N1  UNL     1       7.166  49.985   3.686  1.00  0.00    -0.257 N 
HETATM   25  O1  UNL     1       8.337  49.469   3.615  1.00  0.00    -0.194 OA
ATOM     26  H1  UNL     1       6.500  49.858   4.447  1.00  0.00     0.195 HD
HETATM   27  C3  UNL     1       8.949  49.814   2.524  1.00  0.00     0.317 A 
HETATM   28  O2  UNL     1      10.084  49.477   2.177  1.00  0.00    -0.257 OA
ENDBRANCH  20  21
ENDBRANCH   1  20
BRANCH   5  29
HETATM   29  O4  UNL     1      12.151  54.285   0.642  1.00  0.00    -0.357 OA
ATOM     30  H4  UNL     1      11.751  54.753   1.365  1.00  0.00     0.217 HD
ENDBRANCH   5  29
BRANCH   4  31
HETATM   31  O3  UNL     1      13.222  52.996  -1.559  1.00  0.00    -0.358 OA
ATOM     32  H3  UNL     1      13.389  52.932  -2.493  1.00  0.00     0.217 HD
ENDBRANCH   4  31
TORSDOF 6
ENDMDL
MODEL 5
REMARK VINA RESULT: -7.536476011      2.803      7.967
REMARK  6 active torsions:
REMARK  status: ('A' for Active; 'I' for Inactive)
REMARK    1  A    between atoms: C4_8  and  C5_9 
REMARK    2  A    between atoms: C5_9  and  C6_10 
REMARK    3  A    between atoms: C9_13  and  O3_14 
REMARK    4  A    between atoms: C10_16  and  O4_17 
REMARK    5  A    between atoms: C11_19  and  C12_20 
REMARK    6  A    between atoms: C12_20  and  C13_21 
ROOT
HETATM    1  C6  UNL     1       6.945  57.179   0.539  1.00  0.00    -0.026 A 
HETATM    2  C7  UNL     1       5.734  57.611  -0.009  1.00  0.00     0.015 A 
HETATM    3  C8  UNL     1       4.561  57.207   0.546  1.00  0.00     0.040 A 
HETATM    4  C9  UNL     1       4.539  56.367   1.657  1.00  0.00     0.099 A 
HETATM    5  C10 UNL     1       5.727  55.945   2.193  1.00  0.00     0.106 A 
HETATM    6  C11 UNL     1       6.925  56.349   1.636  1.00  0.00    -0.008 A 
ENDROOT
BRANCH   6   7
HETATM    7  C12 UNL     1       8.213  55.866   2.268  1.00  0.00     0.081 C 
BRANCH   7   8
HETATM    8  C13 UNL     1       8.745  54.657   1.614  1.00  0.00    -0.053 A 
HETATM    9  C14 UNL     1       7.990  53.497   1.567  1.00  0.00     0.010 A 
HETATM   10  C15 UNL     1       8.470  52.315   0.987  1.00  0.00     0.031 A 
HETATM   11  C16 UNL     1       9.716  52.273   0.442  1.00  0.00     0.044 A 
HETATM   12  C17 UNL     1      10.486  53.415   0.478  1.00  0.00    -0.009 A 
HETATM   13  N2  UNL     1      10.162  51.127  -0.112  1.00  0.00    -0.354 N 
HETATM   14  C18 UNL     1      11.759  53.339  -0.088  1.00  0.00     0.015 A 
HETATM   15  C23 UNL     1      10.014  54.577   1.048  1.00  0.00     0.021 A 
HETATM   16  C19 UNL     1      12.196  52.157  -0.651  1.00  0.00     0.025 A 
HETATM   17  C20 UNL     1      11.402  51.029  -0.672  1.00  0.00     0.007 A 
HETATM   18  C21 UNL     1      11.879  49.766  -1.276  1.00  0.00     0.068 C 
HETATM   19  C22 UNL     1       9.323  49.950  -0.129  1.00  0.00     0.156 C 
ENDBRANCH   7   8
ENDBRANCH   6   7
BRANCH   1  20
HETATM   20  C5  UNL     1       8.186  57.597  -0.071  1.00  0.00     0.032 C 
BRANCH  20  21
HETATM   21  C4  UNL     1       8.508  58.689  -0.704  1.00  0.00     0.070 A 
HETATM   22  C2  UNL     1       8.113  59.992  -0.546  1.00  0.00     0.062 A 
HETATM   23  C1  UNL     1       7.260  60.496   0.304  1.00  0.00     0.046 C 
HETATM   24  N1  UNL     1       8.776  60.762  -1.475  1.00  0.00    -0.257 N 
HETATM   25  O1  UNL     1       9.531  59.990  -2.164  1.00  0.00    -0.194 OA
ATOM     26  H1  UNL     1       8.681  61.770  -1.594  1.00  0.00     0.195 HD
HETATM   27  C3  UNL     1       9.436  58.755  -1.777  1.00  0.00     0.317 A 
HETATM   28  O2  UNL     1      10.038  57.786  -2.248  1.00  0.00    -0.257 OA
ENDBRANCH  20  21
ENDBRANCH   1  20
BRANCH   5  29
HETATM   29  O4  UNL     1       5.725  55.096   3.320  1.00  0.00    -0.357 OA
ATOM     30  H4  UNL     1       4.988  54.516   3.471  1.00  0.00     0.217 HD
ENDBRANCH   5  29
BRANCH   4  31
HETATM   31  O3  UNL     1       3.339  55.960   2.218  1.00  0.00    -0.358 OA
ATOM     32  H3  UNL     1       3.089  56.240   3.091  1.00  0.00     0.217 HD
ENDBRANCH   4  31
TORSDOF 6
ENDMDL
