MODEL 1
REMARK VINA RESULT: -10.278231304      0.000      0.000
REMARK  4 active torsions:
REMARK  status: ('A' for Active; 'I' for Inactive)
REMARK       I    between atoms: C1_2  and  N2_4 
REMARK    1  A    between atoms: N2_4  and  S1_6 
REMARK    2  A    between atoms: S1_6  and  C2_9 
REMARK    3  A    between atoms: C7_14  and  C8_15 
REMARK       I    between atoms: C8_15  and  N3_17 
REMARK    4  A    between atoms: N3_17  and  C9_19 
ROOT
HETATM    1  C8  UNL     1       7.348  55.632   1.868  1.00  0.00     0.257 C 
HETATM    2  O4  UNL     1       6.983  55.865   3.021  1.00  0.00    -0.267 OA
HETATM    3  N3  UNL     1       6.605  56.305   0.839  1.00  0.00    -0.322 N 
ATOM      4  H3  UNL     1       5.772  55.849   0.468  1.00  0.00     0.169 HD
ENDROOT
BRANCH   1   5
HETATM    5  C7  UNL     1       8.426  54.765   1.461  1.00  0.00     0.055 A 
HETATM    6  C2  UNL     1       8.337  53.393   1.460  1.00  0.00     0.095 A 
HETATM    7  C3  UNL     1       9.437  52.620   1.075  1.00  0.00     0.026 A 
HETATM    8  C4  UNL     1      10.626  53.197   0.689  1.00  0.00     0.002 A 
HETATM    9  C5  UNL     1      10.735  54.564   0.682  1.00  0.00     0.001 A 
HETATM   10  C6  UNL     1       9.660  55.309   1.059  1.00  0.00     0.018 A 
BRANCH   6  11
HETATM   11  S1  UNL     1       6.887  52.566   1.897  1.00  0.00     0.267 S 
HETATM   12  O2  UNL     1       6.247  53.320   3.070  1.00  0.00    -0.200 OA
HETATM   13  O3  UNL     1       5.823  52.597   0.830  1.00  0.00    -0.200 OA
BRANCH  11  14
HETATM   14  N2  UNL     1       7.176  50.983   2.507  1.00  0.00    -0.234 N 
HETATM   15  C1  UNL     1       6.119  50.245   3.076  1.00  0.00     0.342 C 
HETATM   16  N1  UNL     1       6.363  48.940   3.577  1.00  0.00    -0.039 NA
HETATM   17  O1  UNL     1       4.942  50.686   3.168  1.00  0.00    -0.250 OA
ATOM     18  H2  UNL     1       8.111  50.579   2.457  1.00  0.00     0.183 HD
ENDBRANCH  11  14
ENDBRANCH   6  11
ENDBRANCH   1   5
BRANCH   3  19
HETATM   19  C9  UNL     1       6.928  57.431   0.369  1.00  0.00     0.046 A 
HETATM   20  C10 UNL     1       8.117  57.624  -0.292  1.00  0.00     0.030 A 
HETATM   21  C11 UNL     1       8.452  58.882  -0.804  1.00  0.00     0.003 A 
HETATM   22  C12 UNL     1       7.626  59.973  -0.676  1.00  0.00     0.012 A 
HETATM   23  C13 UNL     1       6.429  59.829  -0.025  1.00  0.00    -0.024 A 
HETATM   24  C14 UNL     1       5.673  60.971   0.052  1.00  0.00     0.012 C 
HETATM   25  C19 UNL     1       6.086  58.509   0.507  1.00  0.00     0.001 A 
HETATM   26  C15 UNL     1       4.566  61.307   0.800  1.00  0.00     0.001 C 
HETATM   27  C16 UNL     1       3.751  60.382   1.444  1.00  0.00     0.000 C 
HETATM   28  C17 UNL     1       3.864  59.001   1.490  1.00  0.00     0.001 C 
HETATM   29  C18 UNL     1       4.918  58.197   1.190  1.00  0.00     0.014 C 
ENDBRANCH   3  19
TORSDOF 4
ENDMDL
MODEL 2
REMARK VINA RESULT: -10.097493363      1.414      1.690
REMARK  4 active torsions:
REMARK  status: ('A' for Active; 'I' for Inactive)
REMARK       I    between atoms: C1_2  and  N2_4 
REMARK    1  A    between atoms: N2_4  and  S1_6 
REMARK    2  A    between atoms: S1_6  and  C2_9 
REMARK    3  A    between atoms: C7_14  and  C8_15 
REMARK       I    between atoms: C8_15  and  N3_17 
REMARK    4  A    between atoms: N3_17  and  C9_19 
ROOT
HETATM    1  C8  UNL     1       7.632  54.985   1.644  1.00  0.00     0.257 C 
HETATM    2  O4  UNL     1       7.130  54.974   2.768  1.00  0.00    -0.267 OA
HETATM    3  N3  UNL     1       6.886  55.695   0.643  1.00  0.00    -0.322 N 
ATOM      4  H3  UNL     1       6.177  55.184   0.117  1.00  0.00     0.169 HD
ENDROOT
BRANCH   1   5
HETATM    5  C7  UNL     1       8.872  54.365   1.245  1.00  0.00     0.055 A 
HETATM    6  C2  UNL     1       9.052  53.004   1.178  1.00  0.00     0.095 A 
HETATM    7  C3  UNL     1      10.294  52.479   0.805  1.00  0.00     0.026 A 
HETATM    8  C4  UNL     1      11.359  53.294   0.497  1.00  0.00     0.002 A 
HETATM    9  C5  UNL     1      11.200  54.654   0.557  1.00  0.00     0.001 A 
HETATM   10  C6  UNL     1       9.989  55.157   0.921  1.00  0.00     0.018 A 
BRANCH   6  11
HETATM   11  S1  UNL     1       7.777  51.890   1.515  1.00  0.00     0.267 S 
HETATM   12  O2  UNL     1       8.032  50.617   0.698  1.00  0.00    -0.200 OA
HETATM   13  O3  UNL     1       7.758  51.401   2.941  1.00  0.00    -0.200 OA
BRANCH  11  14
HETATM   14  N2  UNL     1       6.240  52.448   0.979  1.00  0.00    -0.234 N 
HETATM   15  C1  UNL     1       5.066  51.808   1.424  1.00  0.00     0.342 C 
HETATM   16  N1  UNL     1       3.801  52.273   0.978  1.00  0.00    -0.039 NA
HETATM   17  O1  UNL     1       5.073  50.825   2.212  1.00  0.00    -0.250 OA
ATOM     18  H2  UNL     1       6.179  53.240   0.340  1.00  0.00     0.183 HD
ENDBRANCH  11  14
ENDBRANCH   6  11
ENDBRANCH   1   5
BRANCH   3  19
HETATM   19  C9  UNL     1       7.060  56.916   0.378  1.00  0.00     0.046 A 
HETATM   20  C10 UNL     1       8.250  57.385  -0.123  1.00  0.00     0.030 A 
HETATM   21  C11 UNL     1       8.418  58.745  -0.408  1.00  0.00     0.003 A 
HETATM   22  C12 UNL     1       7.421  59.668  -0.205  1.00  0.00     0.012 A 
HETATM   23  C13 UNL     1       6.216  59.248   0.294  1.00  0.00    -0.024 A 
HETATM   24  C14 UNL     1       5.283  60.240   0.462  1.00  0.00     0.012 C 
HETATM   25  C19 UNL     1       6.049  57.823   0.589  1.00  0.00     0.001 A 
HETATM   26  C15 UNL     1       4.083  60.286   1.136  1.00  0.00     0.001 C 
HETATM   27  C16 UNL     1       3.379  59.160   1.551  1.00  0.00     0.000 C 
HETATM   28  C17 UNL     1       3.707  57.821   1.405  1.00  0.00     0.001 C 
HETATM   29  C18 UNL     1       4.896  57.238   1.097  1.00  0.00     0.014 C 
ENDBRANCH   3  19
TORSDOF 4
ENDMDL
MODEL 3
REMARK VINA RESULT: -9.973676209      1.030      1.107
REMARK  4 active torsions:
REMARK  status: ('A' for Active; 'I' for Inactive)
REMARK       I    between atoms: C1_2  and  N2_4 
REMARK    1  A    between atoms: N2_4  and  S1_6 
REMARK    2  A    between atoms: S1_6  and  C2_9 
REMARK    3  A    between atoms: C7_14  and  C8_15 
REMARK       I    between atoms: C8_15  and  N3_17 
REMARK    4  A    between atoms: N3_17  and  C9_19 
ROOT
HETATM    1  C8  UNL     1       6.946  55.198   2.119  1.00  0.00     0.257 C 
HETATM    2  O4  UNL     1       6.739  55.503   3.295  1.00  0.00    -0.267 OA
HETATM    3  N3  UNL     1       6.282  56.018   1.145  1.00  0.00    -0.322 N 
ATOM      4  H3  UNL     1       5.341  55.753   0.852  1.00  0.00     0.169 HD
ENDROOT
BRANCH   1   5
HETATM    5  C7  UNL     1       7.774  54.119   1.639  1.00  0.00     0.055 A 
HETATM    6  C2  UNL     1       7.314  52.839   1.445  1.00  0.00     0.095 A 
HETATM    7  C3  UNL     1       8.186  51.840   1.000  1.00  0.00     0.026 A 
HETATM    8  C4  UNL     1       9.513  52.102   0.744  1.00  0.00     0.002 A 
HETATM    9  C5  UNL     1       9.991  53.373   0.930  1.00  0.00     0.001 A 
HETATM   10  C6  UNL     1       9.136  54.339   1.364  1.00  0.00     0.018 A 
BRANCH   6  11
HETATM   11  S1  UNL     1       5.664  52.405   1.708  1.00  0.00     0.267 S 
HETATM   12  O2  UNL     1       4.818  53.682   1.614  1.00  0.00    -0.200 OA
HETATM   13  O3  UNL     1       5.089  51.518   0.634  1.00  0.00    -0.200 OA
BRANCH  11  14
HETATM   14  N2  UNL     1       5.371  51.809   3.295  1.00  0.00    -0.234 N 
HETATM   15  C1  UNL     1       5.683  50.471   3.612  1.00  0.00     0.342 C 
HETATM   16  N1  UNL     1       5.439  49.985   4.923  1.00  0.00    -0.039 NA
HETATM   17  O1  UNL     1       6.174  49.663   2.780  1.00  0.00    -0.250 OA
ATOM     18  H2  UNL     1       4.974  52.422   4.006  1.00  0.00     0.183 HD
ENDBRANCH  11  14
ENDBRANCH   6  11
ENDBRANCH   1   5
BRANCH   3  19
HETATM   19  C9  UNL     1       6.799  57.048   0.630  1.00  0.00     0.046 A 
HETATM   20  C10 UNL     1       8.054  57.024   0.071  1.00  0.00     0.030 A 
HETATM   21  C11 UNL     1       8.605  58.180  -0.493  1.00  0.00     0.003 A 
HETATM   22  C12 UNL     1       7.935  59.379  -0.517  1.00  0.00     0.012 A 
HETATM   23  C13 UNL     1       6.680  59.452   0.028  1.00  0.00    -0.024 A 
HETATM   24  C14 UNL     1       6.089  60.688  -0.043  1.00  0.00     0.012 C 
HETATM   25  C19 UNL     1       6.110  58.237   0.616  1.00  0.00     0.001 A 
HETATM   26  C15 UNL     1       4.984  61.230   0.574  1.00  0.00     0.001 C 
HETATM   27  C16 UNL     1       3.995  60.479   1.201  1.00  0.00     0.000 C 
HETATM   28  C17 UNL     1       3.907  59.103   1.352  1.00  0.00     0.001 C 
HETATM   29  C18 UNL     1       4.857  58.142   1.207  1.00  0.00     0.014 C 
ENDBRANCH   3  19
TORSDOF 4
ENDMDL
MODEL 4
REMARK VINA RESULT: -9.187370446      1.628      2.037
REMARK  4 active torsions:
REMARK  status: ('A' for Active; 'I' for Inactive)
REMARK       I    between atoms: C1_2  and  N2_4 
REMARK    1  A    between atoms: N2_4  and  S1_6 
REMARK    2  A    between atoms: S1_6  and  C2_9 
REMARK    3  A    between atoms: C7_14  and  C8_15 
REMARK       I    between atoms: C8_15  and  N3_17 
REMARK    4  A    between atoms: N3_17  and  C9_19 
ROOT
HETATM    1  C8  UNL     1       7.986  55.471   1.803  1.00  0.00     0.257 C 
HETATM    2  O4  UNL     1       7.739  55.749   2.977  1.00  0.00    -0.267 OA
HETATM    3  N3  UNL     1       7.181  56.150   0.826  1.00  0.00    -0.322 N 
ATOM      4  H3  UNL     1       6.298  55.722   0.546  1.00  0.00     0.169 HD
ENDROOT
BRANCH   1   5
HETATM    5  C7  UNL     1       8.985  54.546   1.326  1.00  0.00     0.055 A 
HETATM    6  C2  UNL     1       8.835  53.180   1.365  1.00  0.00     0.095 A 
HETATM    7  C3  UNL     1       9.861  52.349   0.905  1.00  0.00     0.026 A 
HETATM    8  C4  UNL     1      11.036  52.862   0.405  1.00  0.00     0.002 A 
HETATM    9  C5  UNL     1      11.205  54.221   0.356  1.00  0.00     0.001 A 
HETATM   10  C6  UNL     1      10.202  55.024   0.806  1.00  0.00     0.018 A 
BRANCH   6  11
HETATM   11  S1  UNL     1       7.392  52.431   1.945  1.00  0.00     0.267 S 
HETATM   12  O2  UNL     1       6.729  51.704   0.767  1.00  0.00    -0.200 OA
HETATM   13  O3  UNL     1       7.638  51.333   2.948  1.00  0.00    -0.200 OA
BRANCH  11  14
HETATM   14  N2  UNL     1       6.212  53.566   2.473  1.00  0.00    -0.234 N 
HETATM   15  C1  UNL     1       5.263  54.068   1.560  1.00  0.00     0.342 C 
HETATM   16  N1  UNL     1       4.291  55.004   2.002  1.00  0.00    -0.039 NA
HETATM   17  O1  UNL     1       5.226  53.729   0.348  1.00  0.00    -0.250 OA
ATOM     18  H2  UNL     1       6.198  53.874   3.445  1.00  0.00     0.183 HD
ENDBRANCH  11  14
ENDBRANCH   6  11
ENDBRANCH   1   5
BRANCH   3  19
HETATM   19  C9  UNL     1       7.507  57.248   0.296  1.00  0.00     0.046 A 
HETATM   20  C10 UNL     1       8.713  57.413  -0.339  1.00  0.00     0.030 A 
HETATM   21  C11 UNL     1       9.051  58.641  -0.920  1.00  0.00     0.003 A 
HETATM   22  C12 UNL     1       8.210  59.727  -0.887  1.00  0.00     0.012 A 
HETATM   23  C13 UNL     1       6.995  59.610  -0.265  1.00  0.00    -0.024 A 
HETATM   24  C14 UNL     1       6.224  60.745  -0.282  1.00  0.00     0.012 C 
HETATM   25  C19 UNL     1       6.650  58.321   0.340  1.00  0.00     0.001 A 
HETATM   26  C15 UNL     1       5.092  61.114   0.409  1.00  0.00     0.001 C 
HETATM   27  C16 UNL     1       4.267  60.221   1.084  1.00  0.00     0.000 C 
HETATM   28  C17 UNL     1       4.393  58.847   1.222  1.00  0.00     0.001 C 
HETATM   29  C18 UNL     1       5.464  58.039   1.005  1.00  0.00     0.014 C 
ENDBRANCH   3  19
TORSDOF 4
ENDMDL
MODEL 5
REMARK VINA RESULT: -9.131258318      3.824      5.263
REMARK  4 active torsions:
REMARK  status: ('A' for Active; 'I' for Inactive)
REMARK       I    between atoms: C1_2  and  N2_4 
REMARK    1  A    between atoms: N2_4  and  S1_6 
REMARK    2  A    between atoms: S1_6  and  C2_9 
REMARK    3  A    between atoms: C7_14  and  C8_15 
REMARK       I    between atoms: C8_15  and  N3_17 
REMARK    4  A    between atoms: N3_17  and  C9_19 
ROOT
HETATM    1  C8  UNL     1       9.966  53.970   0.683  1.00  0.00     0.257 C 
HETATM    2  O4  UNL     1      10.408  54.434  -0.369  1.00  0.00    -0.267 OA
HETATM    3  N3  UNL     1       9.416  54.931   1.597  1.00  0.00    -0.322 N 
ATOM      4  H3  UNL     1      10.043  55.369   2.273  1.00  0.00     0.169 HD
ENDROOT
BRANCH   1   5
HETATM    5  C7  UNL     1       9.949  52.582   1.075  1.00  0.00     0.055 A 
HETATM    6  C2  UNL     1      11.080  51.808   1.175  1.00  0.00     0.095 A 
HETATM    7  C3  UNL     1      10.978  50.461   1.538  1.00  0.00     0.026 A 
HETATM    8  C4  UNL     1       9.761  49.876   1.805  1.00  0.00     0.002 A 
HETATM    9  C5  UNL     1       8.621  50.631   1.713  1.00  0.00     0.001 A 
HETATM   10  C6  UNL     1       8.729  51.940   1.358  1.00  0.00     0.018 A 
BRANCH   6  11
HETATM   11  S1  UNL     1      12.658  52.446   0.890  1.00  0.00     0.267 S 
HETATM   12  O2  UNL     1      12.841  53.675   1.791  1.00  0.00    -0.200 OA
HETATM   13  O3  UNL     1      13.773  51.525   1.314  1.00  0.00    -0.200 OA
BRANCH  11  14
HETATM   14  N2  UNL     1      12.860  53.048  -0.709  1.00  0.00    -0.234 N 
HETATM   15  C1  UNL     1      12.779  52.168  -1.806  1.00  0.00     0.342 C 
HETATM   16  N1  UNL     1      12.946  52.671  -3.124  1.00  0.00    -0.039 NA
HETATM   17  O1  UNL     1      12.563  50.933  -1.685  1.00  0.00    -0.250 OA
ATOM     18  H2  UNL     1      13.038  54.041  -0.863  1.00  0.00     0.183 HD
ENDBRANCH  11  14
ENDBRANCH   6  11
ENDBRANCH   1   5
BRANCH   3  19
HETATM   19  C9  UNL     1       8.199  55.264   1.611  1.00  0.00     0.046 A 
HETATM   20  C10 UNL     1       7.234  54.453   2.156  1.00  0.00     0.030 A 
HETATM   21  C11 UNL     1       5.890  54.846   2.158  1.00  0.00     0.003 A 
HETATM   22  C12 UNL     1       5.472  56.041   1.626  1.00  0.00     0.012 A 
HETATM   23  C13 UNL     1       6.398  56.884   1.071  1.00  0.00    -0.024 A 
HETATM   24  C14 UNL     1       5.887  58.053   0.566  1.00  0.00     0.012 C 
HETATM   25  C19 UNL     1       7.802  56.466   1.073  1.00  0.00     0.001 A 
HETATM   26  C15 UNL     1       6.415  59.022  -0.258  1.00  0.00     0.001 C 
HETATM   27  C16 UNL     1       7.774  59.174  -0.510  1.00  0.00     0.000 C 
HETATM   28  C17 UNL     1       8.841  58.426  -0.033  1.00  0.00     0.001 C 
HETATM   29  C18 UNL     1       8.860  57.200   0.553  1.00  0.00     0.014 C 
ENDBRANCH   3  19
TORSDOF 4
ENDMDL
