MODEL 1
REMARK VINA RESULT: -9.366327306      0.000      0.000
REMARK  3 active torsions:
REMARK  status: ('A' for Active; 'I' for Inactive)
REMARK    1  A    between atoms: O1_2  and  C2_3 
REMARK    2  A    between atoms: C4_5  and  O2_6 
REMARK    3  A    between atoms: C17_20  and  O4_21 
ROOT
HETATM    1  C2  UNL     1      -0.041 -48.264 -19.288  1.00  0.00     0.071 A 
HETATM    2  C3  UNL     1       0.480 -47.866 -20.497  1.00  0.00     0.074 A 
HETATM    3  C4  UNL     1      -0.227 -47.108 -21.442  1.00  0.00     0.083 A 
HETATM    4  C6  UNL     1      -1.506 -46.746 -21.141  1.00  0.00     0.025 A 
HETATM    5  C7  UNL     1      -2.051 -47.144 -19.918  1.00  0.00     0.033 A 
HETATM    6  C8  UNL     1      -1.337 -47.887 -19.008  1.00  0.00     0.053 A 
HETATM    7  C9  UNL     1      -3.411 -46.655 -19.848  1.00  0.00     0.210 A 
HETATM    8  O3  UNL     1      -4.221 -46.813 -18.902  1.00  0.00    -0.285 OA
HETATM    9  C10 UNL     1      -3.657 -45.942 -21.092  1.00  0.00     0.098 A 
HETATM   10  C11 UNL     1      -2.545 -45.985 -21.862  1.00  0.00     0.015 A 
HETATM   11  C12 UNL     1      -2.564 -45.329 -23.173  1.00  0.00    -0.040 A 
HETATM   12  C13 UNL     1      -1.355 -45.267 -24.012  1.00  0.00     0.050 C 
HETATM   13  C14 UNL     1      -3.646 -44.693 -23.648  1.00  0.00    -0.026 A 
HETATM   14  C15 UNL     1      -3.572 -44.071 -24.976  1.00  0.00     0.051 C 
HETATM   15  C16 UNL     1      -4.843 -44.638 -22.837  1.00  0.00     0.063 A 
HETATM   16  C17 UNL     1      -5.900 -43.994 -23.274  1.00  0.00     0.161 C 
HETATM   17  N1  UNL     1      -4.824 -45.264 -21.575  1.00  0.00    -0.345 N 
HETATM   18  C18 UNL     1      -6.023 -45.231 -20.747  1.00  0.00     0.156 C 
ENDROOT
BRANCH  16  19
HETATM   19  O4  UNL     1      -7.087 -43.877 -22.593  1.00  0.00    -0.370 OA
ATOM     20  H4  UNL     1      -7.758 -43.228 -22.775  1.00  0.00     0.216 HD
ENDBRANCH  16  19
BRANCH   3  21
HETATM   21  O2  UNL     1       0.465 -46.824 -22.573  1.00  0.00    -0.355 OA
HETATM   22  C5  UNL     1       1.838 -46.686 -22.702  1.00  0.00     0.210 C 
ENDBRANCH   3  21
BRANCH   1  23
HETATM   23  O1  UNL     1       0.674 -49.012 -18.369  1.00  0.00    -0.356 OA
HETATM   24  C1  UNL     1       0.016 -50.113 -17.754  1.00  0.00     0.210 C 
ENDBRANCH   1  23
TORSDOF 3
ENDMDL
MODEL 2
REMARK VINA RESULT: -9.049337455      2.036      4.317
REMARK  3 active torsions:
REMARK  status: ('A' for Active; 'I' for Inactive)
REMARK    1  A    between atoms: O1_2  and  C2_3 
REMARK    2  A    between atoms: C4_5  and  O2_6 
REMARK    3  A    between atoms: C17_20  and  O4_21 
ROOT
HETATM    1  C2  UNL     1       2.567 -45.553 -23.684  1.00  0.00     0.071 A 
HETATM    2  C3  UNL     1       1.615 -45.118 -24.577  1.00  0.00     0.074 A 
HETATM    3  C4  UNL     1       0.241 -45.077 -24.299  1.00  0.00     0.083 A 
HETATM    4  C6  UNL     1      -0.172 -45.496 -23.069  1.00  0.00     0.025 A 
HETATM    5  C7  UNL     1       0.779 -45.944 -22.151  1.00  0.00     0.033 A 
HETATM    6  C8  UNL     1       2.122 -45.973 -22.448  1.00  0.00     0.053 A 
HETATM    7  C9  UNL     1       0.091 -46.345 -20.943  1.00  0.00     0.210 A 
HETATM    8  O3  UNL     1       0.611 -46.801 -19.896  1.00  0.00    -0.285 OA
HETATM    9  C10 UNL     1      -1.326 -46.116 -21.182  1.00  0.00     0.098 A 
HETATM   10  C11 UNL     1      -1.496 -45.614 -22.427  1.00  0.00     0.015 A 
HETATM   11  C12 UNL     1      -2.854 -45.307 -22.888  1.00  0.00    -0.040 A 
HETATM   12  C13 UNL     1      -3.090 -44.677 -24.198  1.00  0.00     0.050 C 
HETATM   13  C14 UNL     1      -3.940 -45.512 -22.127  1.00  0.00    -0.026 A 
HETATM   14  C15 UNL     1      -5.260 -45.180 -22.678  1.00  0.00     0.051 C 
HETATM   15  C16 UNL     1      -3.774 -46.048 -20.793  1.00  0.00     0.063 A 
HETATM   16  C17 UNL     1      -4.823 -46.226 -20.025  1.00  0.00     0.161 C 
HETATM   17  N1  UNL     1      -2.470 -46.339 -20.347  1.00  0.00    -0.345 N 
HETATM   18  C18 UNL     1      -2.281 -46.890 -19.012  1.00  0.00     0.156 C 
ENDROOT
BRANCH  16  19
HETATM   19  O4  UNL     1      -4.786 -46.726 -18.746  1.00  0.00    -0.370 OA
ATOM     20  H4  UNL     1      -4.888 -46.208 -17.956  1.00  0.00     0.216 HD
ENDBRANCH  16  19
BRANCH   3  21
HETATM   21  O2  UNL     1      -0.530 -44.619 -25.316  1.00  0.00    -0.355 OA
HETATM   22  C5  UNL     1      -0.129 -44.351 -26.615  1.00  0.00     0.210 C 
ENDBRANCH   3  21
BRANCH   1  23
HETATM   23  O1  UNL     1       3.919 -45.584 -23.978  1.00  0.00    -0.356 OA
HETATM   24  C1  UNL     1       4.824 -45.125 -22.982  1.00  0.00     0.210 C 
ENDBRANCH   1  23
TORSDOF 3
ENDMDL
MODEL 3
REMARK VINA RESULT: -8.764786526      1.562      3.979
REMARK  3 active torsions:
REMARK  status: ('A' for Active; 'I' for Inactive)
REMARK    1  A    between atoms: O1_2  and  C2_3 
REMARK    2  A    between atoms: C4_5  and  O2_6 
REMARK    3  A    between atoms: C17_20  and  O4_21 
ROOT
HETATM    1  C2  UNL     1       2.116 -46.446 -22.051  1.00  0.00     0.071 A 
HETATM    2  C3  UNL     1       1.483 -46.830 -20.891  1.00  0.00     0.074 A 
HETATM    3  C4  UNL     1       0.108 -46.674 -20.661  1.00  0.00     0.083 A 
HETATM    4  C6  UNL     1      -0.642 -46.107 -21.648  1.00  0.00     0.025 A 
HETATM    5  C7  UNL     1      -0.016 -45.710 -22.831  1.00  0.00     0.033 A 
HETATM    6  C8  UNL     1       1.335 -45.875 -23.032  1.00  0.00     0.053 A 
HETATM    7  C9  UNL     1      -1.016 -45.128 -23.700  1.00  0.00     0.210 A 
HETATM    8  O3  UNL     1      -0.833 -44.657 -24.849  1.00  0.00    -0.285 OA
HETATM    9  C10 UNL     1      -2.277 -45.195 -22.978  1.00  0.00     0.098 A 
HETATM   10  C11 UNL     1      -2.074 -45.771 -21.771  1.00  0.00     0.015 A 
HETATM   11  C12 UNL     1      -3.214 -45.941 -20.865  1.00  0.00    -0.040 A 
HETATM   12  C13 UNL     1      -3.068 -46.641 -19.578  1.00  0.00     0.050 C 
HETATM   13  C14 UNL     1      -4.455 -45.539 -21.181  1.00  0.00    -0.026 A 
HETATM   14  C15 UNL     1      -5.533 -45.746 -20.206  1.00  0.00     0.051 C 
HETATM   15  C16 UNL     1      -4.689 -44.922 -22.469  1.00  0.00     0.063 A 
HETATM   16  C17 UNL     1      -5.902 -44.551 -22.806  1.00  0.00     0.161 C 
HETATM   17  N1  UNL     1      -3.595 -44.762 -23.342  1.00  0.00    -0.345 N 
HETATM   18  C18 UNL     1      -3.806 -44.132 -24.639  1.00  0.00     0.156 C 
ENDROOT
BRANCH  16  19
HETATM   19  O4  UNL     1      -6.241 -43.956 -23.998  1.00  0.00    -0.370 OA
ATOM     20  H4  UNL     1      -5.744 -44.032 -24.804  1.00  0.00     0.216 HD
ENDBRANCH  16  19
BRANCH   3  21
HETATM   21  O2  UNL     1      -0.317 -47.112 -19.451  1.00  0.00    -0.355 OA
HETATM   22  C5  UNL     1       0.229 -48.135 -18.692  1.00  0.00     0.210 C 
ENDBRANCH   3  21
BRANCH   1  23
HETATM   23  O1  UNL     1       3.475 -46.610 -22.258  1.00  0.00    -0.356 OA
HETATM   24  C1  UNL     1       4.196 -45.520 -22.818  1.00  0.00     0.210 C 
ENDBRANCH   1  23
TORSDOF 3
ENDMDL
MODEL 4
REMARK VINA RESULT: -8.637276259      2.171      5.811
REMARK  3 active torsions:
REMARK  status: ('A' for Active; 'I' for Inactive)
REMARK    1  A    between atoms: O1_2  and  C2_3 
REMARK    2  A    between atoms: C4_5  and  O2_6 
REMARK    3  A    between atoms: C17_20  and  O4_21 
ROOT
HETATM    1  C2  UNL     1      -5.136 -45.804 -21.038  1.00  0.00     0.071 A 
HETATM    2  C3  UNL     1      -4.797 -45.288 -22.268  1.00  0.00     0.074 A 
HETATM    3  C4  UNL     1      -3.487 -45.254 -22.768  1.00  0.00     0.083 A 
HETATM    4  C6  UNL     1      -2.493 -45.763 -21.985  1.00  0.00     0.025 A 
HETATM    5  C7  UNL     1      -2.820 -46.288 -20.733  1.00  0.00     0.033 A 
HETATM    6  C8  UNL     1      -4.114 -46.310 -20.266  1.00  0.00     0.053 A 
HETATM    7  C9  UNL     1      -1.600 -46.741 -20.100  1.00  0.00     0.210 A 
HETATM    8  O3  UNL     1      -1.492 -47.271 -18.967  1.00  0.00    -0.285 OA
HETATM    9  C10 UNL     1      -0.522 -46.462 -21.036  1.00  0.00     0.098 A 
HETATM   10  C11 UNL     1      -1.032 -45.889 -22.150  1.00  0.00     0.015 A 
HETATM   11  C12 UNL     1      -0.120 -45.516 -23.236  1.00  0.00    -0.040 A 
HETATM   12  C13 UNL     1      -0.630 -44.973 -24.506  1.00  0.00     0.050 C 
HETATM   13  C14 UNL     1       1.205 -45.712 -23.168  1.00  0.00    -0.026 A 
HETATM   14  C15 UNL     1       2.039 -45.299 -24.303  1.00  0.00     0.051 C 
HETATM   15  C16 UNL     1       1.766 -46.324 -21.982  1.00  0.00     0.063 A 
HETATM   16  C17 UNL     1       3.057 -46.549 -21.911  1.00  0.00     0.161 C 
HETATM   17  N1  UNL     1       0.891 -46.687 -20.940  1.00  0.00    -0.345 N 
HETATM   18  C18 UNL     1       1.436 -47.293 -19.732  1.00  0.00     0.156 C 
ENDROOT
BRANCH  16  19
HETATM   19  O4  UNL     1       3.698 -47.122 -20.839  1.00  0.00    -0.370 OA
ATOM     20  H4  UNL     1       4.639 -47.129 -20.707  1.00  0.00     0.216 HD
ENDBRANCH  16  19
BRANCH   3  21
HETATM   21  O2  UNL     1      -3.364 -44.701 -23.999  1.00  0.00    -0.355 OA
HETATM   22  C5  UNL     1      -4.294 -43.914 -24.660  1.00  0.00     0.210 C 
ENDBRANCH   3  21
BRANCH   1  23
HETATM   23  O1  UNL     1      -6.437 -45.828 -20.564  1.00  0.00    -0.356 OA
HETATM   24  C1  UNL     1      -7.009 -44.599 -20.135  1.00  0.00     0.210 C 
ENDBRANCH   1  23
TORSDOF 3
ENDMDL
MODEL 5
REMARK VINA RESULT: -8.635462130      1.955      6.141
REMARK  3 active torsions:
REMARK  status: ('A' for Active; 'I' for Inactive)
REMARK    1  A    between atoms: O1_2  and  C2_3 
REMARK    2  A    between atoms: C4_5  and  O2_6 
REMARK    3  A    between atoms: C17_20  and  O4_21 
ROOT
HETATM    1  C2  UNL     1      -4.232 -45.391 -22.501  1.00  0.00     0.071 A 
HETATM    2  C3  UNL     1      -3.210 -45.121 -23.380  1.00  0.00     0.074 A 
HETATM    3  C4  UNL     1      -1.862 -45.419 -23.130  1.00  0.00     0.083 A 
HETATM    4  C6  UNL     1      -1.552 -46.012 -21.942  1.00  0.00     0.025 A 
HETATM    5  C7  UNL     1      -2.576 -46.291 -21.036  1.00  0.00     0.033 A 
HETATM    6  C8  UNL     1      -3.891 -45.989 -21.306  1.00  0.00     0.053 A 
HETATM    7  C9  UNL     1      -1.990 -46.896 -19.860  1.00  0.00     0.210 A 
HETATM    8  O3  UNL     1      -2.595 -47.284 -18.831  1.00  0.00    -0.285 OA
HETATM    9  C10 UNL     1      -0.558 -46.966 -20.104  1.00  0.00     0.098 A 
HETATM   10  C11 UNL     1      -0.284 -46.453 -21.326  1.00  0.00     0.015 A 
HETATM   11  C12 UNL     1       1.107 -46.418 -21.785  1.00  0.00    -0.040 A 
HETATM   12  C13 UNL     1       1.451 -45.954 -23.140  1.00  0.00     0.050 C 
HETATM   13  C14 UNL     1       2.127 -46.868 -21.039  1.00  0.00    -0.026 A 
HETATM   14  C15 UNL     1       3.489 -46.786 -21.581  1.00  0.00     0.051 C 
HETATM   15  C16 UNL     1       1.851 -47.421 -19.730  1.00  0.00     0.063 A 
HETATM   16  C17 UNL     1       2.834 -47.893 -18.999  1.00  0.00     0.161 C 
HETATM   17  N1  UNL     1       0.514 -47.459 -19.289  1.00  0.00    -0.345 N 
HETATM   18  C18 UNL     1       0.216 -48.000 -17.969  1.00  0.00     0.156 C 
ENDROOT
BRANCH  16  19
HETATM   19  O4  UNL     1       2.691 -48.438 -17.746  1.00  0.00    -0.370 OA
ATOM     20  H4  UNL     1       1.961 -48.273 -17.161  1.00  0.00     0.216 HD
ENDBRANCH  16  19
BRANCH   3  21
HETATM   21  O2  UNL     1      -1.010 -45.068 -24.123  1.00  0.00    -0.355 OA
HETATM   22  C5  UNL     1      -1.324 -44.834 -25.453  1.00  0.00     0.210 C 
ENDBRANCH   3  21
BRANCH   1  23
HETATM   23  O1  UNL     1      -5.556 -45.089 -22.768  1.00  0.00    -0.356 OA
HETATM   24  C1  UNL     1      -5.826 -43.945 -23.569  1.00  0.00     0.210 C 
ENDBRANCH   1  23
TORSDOF 3
ENDMDL
