MODEL 1
REMARK VINA RESULT: -6.490614703      0.000      0.000
REMARK  4 active torsions:
REMARK  status: ('A' for Active; 'I' for Inactive)
REMARK    1  A    between atoms: O1_2  and  C2_3 
REMARK    2  A    between atoms: C2_3  and  C3_5 
REMARK    3  A    between atoms: C3_5  and  O3_6 
REMARK    4  A    between atoms: C16_21  and  O5_22 
ROOT
HETATM    1  C3  UNL     1       0.790 -47.523 -19.641  1.00  0.00     0.220 C 
HETATM    2  C4  UNL     1      -0.308 -46.521 -19.846  1.00  0.00    -0.017 C 
HETATM    3  C5  UNL     1      -0.208 -46.003 -20.966  1.00  0.00    -0.033 C 
HETATM    4  C6  UNL     1      -1.167 -45.004 -21.405  1.00  0.00     0.030 C 
HETATM    5  C7  UNL     1      -2.318 -45.474 -20.529  1.00  0.00     0.023 C 
HETATM    6  C8  UNL     1      -1.520 -45.917 -19.242  1.00  0.00    -0.020 C 
HETATM    7  C9  UNL     1      -2.339 -46.861 -18.441  1.00  0.00     0.019 C 
HETATM    8  C10 UNL     1      -1.181 -44.681 -18.476  1.00  0.00     0.019 C 
HETATM    9  C11 UNL     1      -0.947 -45.730 -22.769  1.00  0.00    -0.005 C 
HETATM   10  C12 UNL     1      -0.894 -44.700 -23.850  1.00  0.00     0.019 C 
HETATM   11  C13 UNL     1      -1.811 -46.886 -23.026  1.00  0.00     0.019 C 
HETATM   12  C14 UNL     1       0.479 -46.133 -22.223  1.00  0.00     0.092 C 
HETATM   13  C15 UNL     1       1.571 -45.244 -22.624  1.00  0.00     0.052 C 
HETATM   14  O4  UNL     1       0.751 -47.530 -22.161  1.00  0.00    -0.341 OA
HETATM   15  C16 UNL     1       1.446 -47.792 -20.954  1.00  0.00     0.309 C 
ENDROOT
BRANCH   1  16
HETATM   16  C2  UNL     1       0.311 -48.784 -19.081  1.00  0.00     0.303 C 
HETATM   17  O2  UNL     1      -0.110 -49.719 -19.809  1.00  0.00    -0.261 OA
BRANCH  16  18
HETATM   18  O1  UNL     1       0.308 -48.986 -17.709  1.00  0.00    -0.324 OA
HETATM   19  C1  UNL     1       0.278 -50.300 -17.142  1.00  0.00     0.213 C 
ENDBRANCH  16  18
ENDBRANCH   1  16
BRANCH   1  20
HETATM   20  O3  UNL     1       1.666 -46.912 -18.727  1.00  0.00    -0.371 OA
ATOM     21  H3  UNL     1       1.160 -46.439 -18.075  1.00  0.00     0.211 HD
ENDBRANCH   1  20
BRANCH  15  22
HETATM   22  O5  UNL     1       2.655 -47.116 -21.101  1.00  0.00    -0.362 OA
HETATM   23  C17 UNL     1       3.730 -47.936 -21.314  1.00  0.00     0.205 C 
ENDBRANCH  15  22
TORSDOF 4
ENDMDL
MODEL 2
REMARK VINA RESULT: -5.755720716      1.728      4.012
REMARK  4 active torsions:
REMARK  status: ('A' for Active; 'I' for Inactive)
REMARK    1  A    between atoms: O1_2  and  C2_3 
REMARK    2  A    between atoms: C2_3  and  C3_5 
REMARK    3  A    between atoms: C3_5  and  O3_6 
REMARK    4  A    between atoms: C16_21  and  O5_22 
ROOT
HETATM    1  C3  UNL     1       1.910 -48.380 -20.352  1.00  0.00     0.220 C 
HETATM    2  C4  UNL     1       1.802 -47.401 -21.484  1.00  0.00    -0.017 C 
HETATM    3  C5  UNL     1       0.616 -47.098 -21.674  1.00  0.00    -0.033 C 
HETATM    4  C6  UNL     1       0.253 -46.153 -22.716  1.00  0.00     0.030 C 
HETATM    5  C7  UNL     1       1.578 -45.406 -22.738  1.00  0.00     0.023 C 
HETATM    6  C8  UNL     1       2.573 -46.601 -22.467  1.00  0.00    -0.020 C 
HETATM    7  C9  UNL     1       3.862 -46.077 -21.951  1.00  0.00     0.019 C 
HETATM    8  C10 UNL     1       2.743 -47.343 -23.750  1.00  0.00     0.019 C 
HETATM    9  C11 UNL     1      -0.801 -45.734 -21.644  1.00  0.00    -0.005 C 
HETATM   10  C12 UNL     1      -2.095 -45.456 -22.336  1.00  0.00     0.019 C 
HETATM   11  C13 UNL     1      -0.362 -44.724 -20.675  1.00  0.00     0.019 C 
HETATM   12  C14 UNL     1      -0.694 -47.208 -21.091  1.00  0.00     0.092 C 
HETATM   13  C15 UNL     1      -1.709 -48.136 -21.595  1.00  0.00     0.052 C 
HETATM   14  O4  UNL     1      -0.298 -47.337 -19.728  1.00  0.00    -0.341 OA
HETATM   15  C16 UNL     1       0.605 -48.424 -19.630  1.00  0.00     0.309 C 
ENDROOT
BRANCH   1  16
HETATM   16  C2  UNL     1       2.967 -48.037 -19.404  1.00  0.00     0.303 C 
HETATM   17  O2  UNL     1       2.906 -47.009 -18.681  1.00  0.00    -0.261 OA
BRANCH  16  18
HETATM   18  O1  UNL     1       4.083 -48.849 -19.274  1.00  0.00    -0.324 OA
HETATM   19  C1  UNL     1       5.122 -48.862 -20.258  1.00  0.00     0.213 C 
ENDBRANCH  16  18
ENDBRANCH   1  16
BRANCH   1  20
HETATM   20  O3  UNL     1       2.218 -49.606 -20.967  1.00  0.00    -0.371 OA
ATOM     21  H3  UNL     1       1.971 -49.568 -21.884  1.00  0.00     0.211 HD
ENDBRANCH   1  20
BRANCH  15  22
HETATM   22  O5  UNL     1      -0.161 -49.538 -19.971  1.00  0.00    -0.362 OA
HETATM   23  C17 UNL     1      -0.607 -50.259 -18.896  1.00  0.00     0.205 C 
ENDBRANCH  15  22
TORSDOF 4
ENDMDL
MODEL 3
REMARK VINA RESULT: -5.442147538      1.446      4.027
REMARK  4 active torsions:
REMARK  status: ('A' for Active; 'I' for Inactive)
REMARK    1  A    between atoms: O1_2  and  C2_3 
REMARK    2  A    between atoms: C2_3  and  C3_5 
REMARK    3  A    between atoms: C3_5  and  O3_6 
REMARK    4  A    between atoms: C16_21  and  O5_22 
ROOT
HETATM    1  C3  UNL     1       1.416 -48.240 -19.715  1.00  0.00     0.220 C 
HETATM    2  C4  UNL     1       0.875 -47.166 -20.613  1.00  0.00    -0.017 C 
HETATM    3  C5  UNL     1      -0.301 -46.916 -20.318  1.00  0.00    -0.033 C 
HETATM    4  C6  UNL     1      -1.043 -45.899 -21.041  1.00  0.00     0.030 C 
HETATM    5  C7  UNL     1       0.164 -45.078 -21.469  1.00  0.00     0.023 C 
HETATM    6  C8  UNL     1       1.209 -46.233 -21.716  1.00  0.00    -0.020 C 
HETATM    7  C9  UNL     1       2.588 -45.687 -21.658  1.00  0.00     0.019 C 
HETATM    8  C10 UNL     1       0.902 -46.839 -23.045  1.00  0.00     0.019 C 
HETATM    9  C11 UNL     1      -1.629 -45.645 -19.618  1.00  0.00    -0.005 C 
HETATM   10  C12 UNL     1      -3.093 -45.378 -19.749  1.00  0.00     0.019 C 
HETATM   11  C13 UNL     1      -0.879 -44.708 -18.774  1.00  0.00     0.019 C 
HETATM   12  C14 UNL     1      -1.297 -47.157 -19.308  1.00  0.00     0.092 C 
HETATM   13  C15 UNL     1      -2.409 -48.090 -19.501  1.00  0.00     0.052 C 
HETATM   14  O4  UNL     1      -0.419 -47.391 -18.210  1.00  0.00    -0.341 OA
HETATM   15  C16 UNL     1       0.475 -48.429 -18.572  1.00  0.00     0.309 C 
ENDROOT
BRANCH   1  16
HETATM   16  C2  UNL     1       2.744 -47.928 -19.192  1.00  0.00     0.303 C 
HETATM   17  O2  UNL     1       2.932 -47.638 -17.983  1.00  0.00    -0.261 OA
BRANCH  16  18
HETATM   18  O1  UNL     1       3.848 -47.944 -20.029  1.00  0.00    -0.324 OA
HETATM   19  C1  UNL     1       4.746 -49.058 -20.070  1.00  0.00     0.213 C 
ENDBRANCH  16  18
ENDBRANCH   1  16
BRANCH   1  20
HETATM   20  O3  UNL     1       1.495 -49.382 -20.531  1.00  0.00    -0.371 OA
ATOM     21  H3  UNL     1       0.662 -49.513 -20.970  1.00  0.00     0.211 HD
ENDBRANCH   1  20
BRANCH  15  22
HETATM   22  O5  UNL     1      -0.342 -49.547 -18.727  1.00  0.00    -0.362 OA
HETATM   23  C17 UNL     1      -0.264 -50.442 -17.693  1.00  0.00     0.205 C 
ENDBRANCH  15  22
TORSDOF 4
ENDMDL
MODEL 4
REMARK VINA RESULT: -5.262888888      1.612      2.450
REMARK  4 active torsions:
REMARK  status: ('A' for Active; 'I' for Inactive)
REMARK    1  A    between atoms: O1_2  and  C2_3 
REMARK    2  A    between atoms: C2_3  and  C3_5 
REMARK    3  A    between atoms: C3_5  and  O3_6 
REMARK    4  A    between atoms: C16_21  and  O5_22 
ROOT
HETATM    1  C3  UNL     1       0.648 -46.194 -21.293  1.00  0.00     0.220 C 
HETATM    2  C4  UNL     1      -0.652 -45.753 -20.688  1.00  0.00    -0.017 C 
HETATM    3  C5  UNL     1      -1.446 -45.422 -21.579  1.00  0.00    -0.033 C 
HETATM    4  C6  UNL     1      -2.783 -44.964 -21.243  1.00  0.00     0.030 C 
HETATM    5  C7  UNL     1      -2.889 -45.703 -19.918  1.00  0.00     0.023 C 
HETATM    6  C8  UNL     1      -1.397 -45.587 -19.417  1.00  0.00    -0.020 C 
HETATM    7  C9  UNL     1      -1.121 -46.636 -18.405  1.00  0.00     0.019 C 
HETATM    8  C10 UNL     1      -1.217 -44.213 -18.862  1.00  0.00     0.019 C 
HETATM    9  C11 UNL     1      -3.127 -45.751 -22.545  1.00  0.00    -0.005 C 
HETATM   10  C12 UNL     1      -4.140 -44.970 -23.316  1.00  0.00     0.019 C 
HETATM   11  C13 UNL     1      -3.413 -47.179 -22.374  1.00  0.00     0.019 C 
HETATM   12  C14 UNL     1      -1.643 -45.469 -23.003  1.00  0.00     0.092 C 
HETATM   13  C15 UNL     1      -1.470 -44.297 -23.865  1.00  0.00     0.052 C 
HETATM   14  O4  UNL     1      -0.845 -46.617 -23.279  1.00  0.00    -0.341 OA
HETATM   15  C16 UNL     1       0.453 -46.389 -22.760  1.00  0.00     0.309 C 
ENDROOT
BRANCH   1  16
HETATM   16  C2  UNL     1       1.152 -47.437 -20.711  1.00  0.00     0.303 C 
HETATM   17  O2  UNL     1       0.466 -48.490 -20.693  1.00  0.00    -0.261 OA
BRANCH  16  18
HETATM   18  O1  UNL     1       2.421 -47.486 -20.156  1.00  0.00    -0.324 OA
HETATM   19  C1  UNL     1       2.668 -48.123 -18.898  1.00  0.00     0.213 C 
ENDBRANCH  16  18
ENDBRANCH   1  16
BRANCH   1  20
HETATM   20  O3  UNL     1       1.548 -45.152 -21.012  1.00  0.00    -0.371 OA
ATOM     21  H3  UNL     1       1.070 -44.332 -20.957  1.00  0.00     0.211 HD
ENDBRANCH   1  20
BRANCH  15  22
HETATM   22  O5  UNL     1       0.942 -45.324 -23.514  1.00  0.00    -0.362 OA
HETATM   23  C17 UNL     1       2.003 -45.649 -24.315  1.00  0.00     0.205 C 
ENDBRANCH  15  22
TORSDOF 4
ENDMDL
MODEL 5
REMARK VINA RESULT: -5.219121439      1.426      2.215
REMARK  4 active torsions:
REMARK  status: ('A' for Active; 'I' for Inactive)
REMARK    1  A    between atoms: O1_2  and  C2_3 
REMARK    2  A    between atoms: C2_3  and  C3_5 
REMARK    3  A    between atoms: C3_5  and  O3_6 
REMARK    4  A    between atoms: C16_21  and  O5_22 
ROOT
HETATM    1  C3  UNL     1       1.256 -46.871 -20.949  1.00  0.00     0.220 C 
HETATM    2  C4  UNL     1      -0.081 -46.500 -20.379  1.00  0.00    -0.017 C 
HETATM    3  C5  UNL     1      -0.806 -46.028 -21.265  1.00  0.00    -0.033 C 
HETATM    4  C6  UNL     1      -2.160 -45.601 -20.960  1.00  0.00     0.030 C 
HETATM    5  C7  UNL     1      -2.368 -46.525 -19.770  1.00  0.00     0.023 C 
HETATM    6  C8  UNL     1      -0.916 -46.510 -19.153  1.00  0.00    -0.020 C 
HETATM    7  C9  UNL     1      -0.721 -47.702 -18.291  1.00  0.00     0.019 C 
HETATM    8  C10 UNL     1      -0.766 -45.236 -18.390  1.00  0.00     0.019 C 
HETATM    9  C11 UNL     1      -2.415 -46.181 -22.386  1.00  0.00    -0.005 C 
HETATM   10  C12 UNL     1      -3.363 -45.277 -23.103  1.00  0.00     0.019 C 
HETATM   11  C13 UNL     1      -2.722 -47.614 -22.449  1.00  0.00     0.019 C 
HETATM   12  C14 UNL     1      -0.899 -45.861 -22.690  1.00  0.00     0.092 C 
HETATM   13  C15 UNL     1      -0.656 -44.578 -23.355  1.00  0.00     0.052 C 
HETATM   14  O4  UNL     1      -0.092 -46.970 -23.076  1.00  0.00    -0.341 OA
HETATM   15  C16 UNL     1       1.167 -46.844 -22.439  1.00  0.00     0.309 C 
ENDROOT
BRANCH   1  16
HETATM   16  C2  UNL     1       1.708 -48.194 -20.524  1.00  0.00     0.303 C 
HETATM   17  O2  UNL     1       0.936 -49.186 -20.500  1.00  0.00    -0.261 OA
BRANCH  16  18
HETATM   18  O1  UNL     1       3.022 -48.392 -20.129  1.00  0.00    -0.324 OA
HETATM   19  C1  UNL     1       3.988 -48.989 -21.001  1.00  0.00     0.213 C 
ENDBRANCH  16  18
ENDBRANCH   1  16
BRANCH   1  20
HETATM   20  O3  UNL     1       2.141 -45.897 -20.453  1.00  0.00    -0.371 OA
ATOM     21  H3  UNL     1       2.324 -45.263 -21.137  1.00  0.00     0.211 HD
ENDBRANCH   1  20
BRANCH  15  22
HETATM   22  O5  UNL     1       1.717 -45.688 -22.990  1.00  0.00    -0.362 OA
HETATM   23  C17 UNL     1       2.719 -45.923 -23.893  1.00  0.00     0.205 C 
ENDBRANCH  15  22
TORSDOF 4
ENDMDL
