MODEL 1
REMARK VINA RESULT: -7.027418098      0.000      0.000
REMARK  10 active torsions:
REMARK  status: ('A' for Active; 'I' for Inactive)
REMARK    1  A    between atoms: C5_5  and  C6_6 
REMARK    2  A    between atoms: C6_6  and  O1_7 
REMARK    3  A    between atoms: C6_6  and  N1_9 
REMARK    4  A    between atoms: N1_9  and  C8_11 
REMARK    5  A    between atoms: C13_16  and  O2_17 
REMARK    6  A    between atoms: C13_16  and  C14_19 
REMARK    7  A    between atoms: C15_20  and  C16_21 
REMARK    8  A    between atoms: C16_21  and  N2_23 
REMARK    9  A    between atoms: N2_23  and  O3_24 
REMARK   10  A    between atoms: N2_23  and  C18_26 
ROOT
HETATM    1  C1  UNL     1      13.093  27.857   6.859  1.00  0.00     0.048 C 
HETATM    2  C2  UNL     1      12.586  26.444   6.782  1.00  0.00    -0.037 C 
HETATM    3  C3  UNL     1      12.124  25.939   5.655  1.00  0.00    -0.015 C 
HETATM    4  C4  UNL     1      11.606  24.552   5.507  1.00  0.00     0.070 C 
HETATM    5  C5  UNL     1      11.123  24.010   6.770  1.00  0.00    -0.004 C 
HETATM    6  C12 UNL     1      11.614  24.537   7.888  1.00  0.00     0.040 C 
HETATM    7  C13 UNL     1      12.609  25.620   7.987  1.00  0.00     0.164 C 
ENDROOT
BRANCH   7   8
HETATM    8  O2  UNL     1      13.871  25.023   8.195  1.00  0.00    -0.370 OA
ATOM      9  H2  UNL     1      13.807  24.223   8.703  1.00  0.00     0.212 HD
ENDBRANCH   7   8
BRANCH   7  10
HETATM   10  C14 UNL     1      12.311  26.513   9.133  1.00  0.00    -0.057 C 
HETATM   11  C15 UNL     1      12.075  27.254  10.053  1.00  0.00    -0.075 C 
BRANCH  11  12
HETATM   12  C16 UNL     1      11.799  28.184  11.172  1.00  0.00     0.192 C 
HETATM   13  C17 UNL     1      12.410  29.510  10.754  1.00  0.00     0.048 C 
BRANCH  12  14
HETATM   14  N2  UNL     1      12.378  27.686  12.394  1.00  0.00    -0.220 N 
BRANCH  14  15
HETATM   15  O3  UNL     1      12.224  26.404  12.772  1.00  0.00    -0.284 OA
ATOM     16  H3  UNL     1      12.911  25.939  13.234  1.00  0.00     0.245 HD
ENDBRANCH  14  15
BRANCH  14  17
HETATM   17  C18 UNL     1      13.124  28.546  13.226  1.00  0.00     0.377 C 
HETATM   18  O4  UNL     1      12.600  28.961  14.288  1.00  0.00    -0.281 OA
ENDBRANCH  14  17
ENDBRANCH  12  14
ENDBRANCH  11  12
ENDBRANCH   7  10
BRANCH   5  19
HETATM   19  C6  UNL     1      10.145  22.951   6.957  1.00  0.00     0.144 C 
BRANCH  19  20
HETATM   20  O1  UNL     1       9.737  22.692   8.175  1.00  0.00    -0.346 OA
ATOM     21  H1  UNL     1       9.241  21.896   8.322  1.00  0.00     0.219 HD
ENDBRANCH  19  20
BRANCH  19  22
HETATM   22  N1  UNL     1       9.545  22.128   6.007  1.00  0.00    -0.358 N 
HETATM   23  C7  UNL     1      10.031  20.827   5.656  1.00  0.00     0.152 C 
BRANCH  22  24
HETATM   24  C8  UNL     1       8.338  22.629   5.311  1.00  0.00     0.023 C 
HETATM   25  C9  UNL     1       8.708  23.257   4.001  1.00  0.00     0.037 C 
HETATM   26  C10 UNL     1       7.575  23.601   6.148  1.00  0.00     0.037 C 
HETATM   27  C11 UNL     1       7.456  21.431   5.060  1.00  0.00     0.037 C 
ENDBRANCH  22  24
ENDBRANCH  19  22
ENDBRANCH   5  19
TORSDOF 10
ENDMDL
MODEL 2
REMARK VINA RESULT: -6.942653247      1.192      1.369
REMARK  10 active torsions:
REMARK  status: ('A' for Active; 'I' for Inactive)
REMARK    1  A    between atoms: C5_5  and  C6_6 
REMARK    2  A    between atoms: C6_6  and  O1_7 
REMARK    3  A    between atoms: C6_6  and  N1_9 
REMARK    4  A    between atoms: N1_9  and  C8_11 
REMARK    5  A    between atoms: C13_16  and  O2_17 
REMARK    6  A    between atoms: C13_16  and  C14_19 
REMARK    7  A    between atoms: C15_20  and  C16_21 
REMARK    8  A    between atoms: C16_21  and  N2_23 
REMARK    9  A    between atoms: N2_23  and  O3_24 
REMARK   10  A    between atoms: N2_23  and  C18_26 
ROOT
HETATM    1  C1  UNL     1      12.974  27.299   7.679  1.00  0.00     0.048 C 
HETATM    2  C2  UNL     1      12.374  25.970   7.315  1.00  0.00    -0.037 C 
HETATM    3  C3  UNL     1      11.688  25.807   6.201  1.00  0.00    -0.015 C 
HETATM    4  C4  UNL     1      11.067  24.522   5.780  1.00  0.00     0.070 C 
HETATM    5  C5  UNL     1      10.784  23.652   6.914  1.00  0.00    -0.004 C 
HETATM    6  C12 UNL     1      11.498  23.839   8.020  1.00  0.00     0.040 C 
HETATM    7  C13 UNL     1      12.561  24.841   8.222  1.00  0.00     0.164 C 
ENDROOT
BRANCH   7   8
HETATM    8  O2  UNL     1      13.799  24.197   8.017  1.00  0.00    -0.370 OA
ATOM      9  H2  UNL     1      14.176  23.882   8.830  1.00  0.00     0.212 HD
ENDBRANCH   7   8
BRANCH   7  10
HETATM   10  C14 UNL     1      12.527  25.380   9.604  1.00  0.00    -0.057 C 
HETATM   11  C15 UNL     1      12.520  25.817  10.726  1.00  0.00    -0.075 C 
BRANCH  11  12
HETATM   12  C16 UNL     1      12.536  26.349  12.108  1.00  0.00     0.192 C 
HETATM   13  C17 UNL     1      11.390  25.653  12.821  1.00  0.00     0.048 C 
BRANCH  12  14
HETATM   14  N2  UNL     1      12.374  27.780  12.099  1.00  0.00    -0.220 N 
BRANCH  14  15
HETATM   15  O3  UNL     1      12.101  28.448  10.964  1.00  0.00    -0.284 OA
ATOM     16  H3  UNL     1      12.793  28.811  10.424  1.00  0.00     0.245 HD
ENDBRANCH  14  15
BRANCH  14  17
HETATM   17  C18 UNL     1      12.502  28.516  13.295  1.00  0.00     0.377 C 
HETATM   18  O4  UNL     1      13.606  29.049  13.559  1.00  0.00    -0.281 OA
ENDBRANCH  14  17
ENDBRANCH  12  14
ENDBRANCH  11  12
ENDBRANCH   7  10
BRANCH   5  19
HETATM   19  C6  UNL     1       9.790  22.593   6.985  1.00  0.00     0.144 C 
BRANCH  19  20
HETATM   20  O1  UNL     1       9.272  22.307   8.154  1.00  0.00    -0.346 OA
ATOM     21  H1  UNL     1       9.207  21.393   8.404  1.00  0.00     0.219 HD
ENDBRANCH  19  20
BRANCH  19  22
HETATM   22  N1  UNL     1       9.277  21.796   5.964  1.00  0.00    -0.358 N 
HETATM   23  C7  UNL     1       9.791  20.502   5.626  1.00  0.00     0.152 C 
BRANCH  22  24
HETATM   24  C8  UNL     1       8.139  22.319   5.174  1.00  0.00     0.023 C 
HETATM   25  C9  UNL     1       8.601  22.771   3.821  1.00  0.00     0.037 C 
HETATM   26  C10 UNL     1       7.439  23.435   5.876  1.00  0.00     0.037 C 
HETATM   27  C11 UNL     1       7.164  21.179   5.015  1.00  0.00     0.037 C 
ENDBRANCH  22  24
ENDBRANCH  19  22
ENDBRANCH   5  19
TORSDOF 10
ENDMDL
MODEL 3
REMARK VINA RESULT: -6.933946156      0.733      1.069
REMARK  10 active torsions:
REMARK  status: ('A' for Active; 'I' for Inactive)
REMARK    1  A    between atoms: C5_5  and  C6_6 
REMARK    2  A    between atoms: C6_6  and  O1_7 
REMARK    3  A    between atoms: C6_6  and  N1_9 
REMARK    4  A    between atoms: N1_9  and  C8_11 
REMARK    5  A    between atoms: C13_16  and  O2_17 
REMARK    6  A    between atoms: C13_16  and  C14_19 
REMARK    7  A    between atoms: C15_20  and  C16_21 
REMARK    8  A    between atoms: C16_21  and  N2_23 
REMARK    9  A    between atoms: N2_23  and  O3_24 
REMARK   10  A    between atoms: N2_23  and  C18_26 
ROOT
HETATM    1  C1  UNL     1      13.020  27.906   7.078  1.00  0.00     0.048 C 
HETATM    2  C2  UNL     1      12.534  26.492   6.923  1.00  0.00    -0.037 C 
HETATM    3  C3  UNL     1      12.054  26.052   5.776  1.00  0.00    -0.015 C 
HETATM    4  C4  UNL     1      11.555  24.668   5.552  1.00  0.00     0.070 C 
HETATM    5  C5  UNL     1      11.109  24.040   6.789  1.00  0.00    -0.004 C 
HETATM    6  C12 UNL     1      11.616  24.504   7.926  1.00  0.00     0.040 C 
HETATM    7  C13 UNL     1      12.597  25.595   8.073  1.00  0.00     0.164 C 
ENDROOT
BRANCH   7   8
HETATM    8  O2  UNL     1      13.872  25.007   8.216  1.00  0.00    -0.370 OA
ATOM      9  H2  UNL     1      14.210  25.099   9.098  1.00  0.00     0.212 HD
ENDBRANCH   7   8
BRANCH   7  10
HETATM   10  C14 UNL     1      12.310  26.409   9.279  1.00  0.00    -0.057 C 
HETATM   11  C15 UNL     1      12.065  27.083  10.247  1.00  0.00    -0.075 C 
BRANCH  11  12
HETATM   12  C16 UNL     1      11.754  27.929  11.422  1.00  0.00     0.192 C 
HETATM   13  C17 UNL     1      12.564  29.198  11.230  1.00  0.00     0.048 C 
BRANCH  12  14
HETATM   14  N2  UNL     1      12.105  27.246  12.640  1.00  0.00    -0.220 N 
BRANCH  14  15
HETATM   15  O3  UNL     1      12.655  27.901  13.679  1.00  0.00    -0.284 OA
ATOM     16  H3  UNL     1      13.433  28.436  13.571  1.00  0.00     0.245 HD
ENDBRANCH  14  15
BRANCH  14  17
HETATM   17  C18 UNL     1      11.876  25.860  12.768  1.00  0.00     0.377 C 
HETATM   18  O4  UNL     1      12.361  25.258  13.756  1.00  0.00    -0.281 OA
ENDBRANCH  14  17
ENDBRANCH  12  14
ENDBRANCH  11  12
ENDBRANCH   7  10
BRANCH   5  19
HETATM   19  C6  UNL     1      10.152  22.955   6.929  1.00  0.00     0.144 C 
BRANCH  19  20
HETATM   20  O1  UNL     1       9.723  22.659   8.131  1.00  0.00    -0.346 OA
ATOM     21  H1  UNL     1       9.486  21.757   8.314  1.00  0.00     0.219 HD
ENDBRANCH  19  20
BRANCH  19  22
HETATM   22  N1  UNL     1       9.592  22.141   5.947  1.00  0.00    -0.358 N 
HETATM   23  C7  UNL     1      10.112  20.857   5.582  1.00  0.00     0.152 C 
BRANCH  22  24
HETATM   24  C8  UNL     1       8.393  22.633   5.230  1.00  0.00     0.023 C 
HETATM   25  C9  UNL     1       8.786  23.320   3.957  1.00  0.00     0.037 C 
HETATM   26  C10 UNL     1       7.576  23.552   6.077  1.00  0.00     0.037 C 
HETATM   27  C11 UNL     1       7.555  21.421   4.908  1.00  0.00     0.037 C 
ENDBRANCH  22  24
ENDBRANCH  19  22
ENDBRANCH   5  19
TORSDOF 10
ENDMDL
MODEL 4
REMARK VINA RESULT: -6.871755181      1.402      1.634
REMARK  10 active torsions:
REMARK  status: ('A' for Active; 'I' for Inactive)
REMARK    1  A    between atoms: C5_5  and  C6_6 
REMARK    2  A    between atoms: C6_6  and  O1_7 
REMARK    3  A    between atoms: C6_6  and  N1_9 
REMARK    4  A    between atoms: N1_9  and  C8_11 
REMARK    5  A    between atoms: C13_16  and  O2_17 
REMARK    6  A    between atoms: C13_16  and  C14_19 
REMARK    7  A    between atoms: C15_20  and  C16_21 
REMARK    8  A    between atoms: C16_21  and  N2_23 
REMARK    9  A    between atoms: N2_23  and  O3_24 
REMARK   10  A    between atoms: N2_23  and  C18_26 
ROOT
HETATM    1  C1  UNL     1      13.028  28.111   7.526  1.00  0.00     0.048 C 
HETATM    2  C2  UNL     1      12.749  26.715   7.045  1.00  0.00    -0.037 C 
HETATM    3  C3  UNL     1      12.410  26.473   5.794  1.00  0.00    -0.015 C 
HETATM    4  C4  UNL     1      12.120  25.119   5.251  1.00  0.00     0.070 C 
HETATM    5  C5  UNL     1      11.682  24.194   6.289  1.00  0.00    -0.004 C 
HETATM    6  C12 UNL     1      12.047  24.464   7.539  1.00  0.00     0.040 C 
HETATM    7  C13 UNL     1      12.858  25.609   7.992  1.00  0.00     0.164 C 
ENDROOT
BRANCH   7   8
HETATM    8  O2  UNL     1      14.189  25.160   8.131  1.00  0.00    -0.370 OA
ATOM      9  H2  UNL     1      14.255  24.215   8.070  1.00  0.00     0.212 HD
ENDBRANCH   7   8
BRANCH   7  10
HETATM   10  C14 UNL     1      12.385  26.110   9.305  1.00  0.00    -0.057 C 
HETATM   11  C15 UNL     1      12.017  26.510  10.381  1.00  0.00    -0.075 C 
BRANCH  11  12
HETATM   12  C16 UNL     1      11.585  26.989  11.713  1.00  0.00     0.192 C 
HETATM   13  C17 UNL     1      12.311  28.306  11.922  1.00  0.00     0.048 C 
BRANCH  12  14
HETATM   14  N2  UNL     1      11.920  26.023  12.728  1.00  0.00    -0.220 N 
BRANCH  14  15
HETATM   15  O3  UNL     1      11.880  24.701  12.480  1.00  0.00    -0.284 OA
ATOM     16  H3  UNL     1      11.519  24.090  13.110  1.00  0.00     0.245 HD
ENDBRANCH  14  15
BRANCH  14  17
HETATM   17  C18 UNL     1      12.300  26.451  14.017  1.00  0.00     0.377 C 
HETATM   18  O4  UNL     1      12.300  25.616  14.953  1.00  0.00    -0.281 OA
ENDBRANCH  14  17
ENDBRANCH  12  14
ENDBRANCH  11  12
ENDBRANCH   7  10
BRANCH   5  19
HETATM   19  C6  UNL     1      10.875  22.997   6.119  1.00  0.00     0.144 C 
BRANCH  19  20
HETATM   20  O1  UNL     1      11.451  21.925   5.633  1.00  0.00    -0.346 OA
ATOM     21  H1  UNL     1      10.897  21.231   5.298  1.00  0.00     0.219 HD
ENDBRANCH  19  20
BRANCH  19  22
HETATM   22  N1  UNL     1       9.525  22.797   6.401  1.00  0.00    -0.358 N 
HETATM   23  C7  UNL     1       9.031  22.365   7.674  1.00  0.00     0.152 C 
BRANCH  22  24
HETATM   24  C8  UNL     1       8.543  23.033   5.319  1.00  0.00     0.023 C 
HETATM   25  C9  UNL     1       8.325  21.782   4.522  1.00  0.00     0.037 C 
HETATM   26  C10 UNL     1       8.963  24.147   4.418  1.00  0.00     0.037 C 
HETATM   27  C11 UNL     1       7.251  23.432   5.988  1.00  0.00     0.037 C 
ENDBRANCH  22  24
ENDBRANCH  19  22
ENDBRANCH   5  19
TORSDOF 10
ENDMDL
MODEL 5
REMARK VINA RESULT: -6.869201458      1.777      2.147
REMARK  10 active torsions:
REMARK  status: ('A' for Active; 'I' for Inactive)
REMARK    1  A    between atoms: C5_5  and  C6_6 
REMARK    2  A    between atoms: C6_6  and  O1_7 
REMARK    3  A    between atoms: C6_6  and  N1_9 
REMARK    4  A    between atoms: N1_9  and  C8_11 
REMARK    5  A    between atoms: C13_16  and  O2_17 
REMARK    6  A    between atoms: C13_16  and  C14_19 
REMARK    7  A    between atoms: C15_20  and  C16_21 
REMARK    8  A    between atoms: C16_21  and  N2_23 
REMARK    9  A    between atoms: N2_23  and  O3_24 
REMARK   10  A    between atoms: N2_23  and  C18_26 
ROOT
HETATM    1  C1  UNL     1      14.138  24.894   9.329  1.00  0.00     0.048 C 
HETATM    2  C2  UNL     1      12.913  24.299   8.692  1.00  0.00    -0.037 C 
HETATM    3  C3  UNL     1      12.954  23.766   7.487  1.00  0.00    -0.015 C 
HETATM    4  C4  UNL     1      11.782  23.161   6.798  1.00  0.00     0.070 C 
HETATM    5  C5  UNL     1      10.520  23.704   7.285  1.00  0.00    -0.004 C 
HETATM    6  C12 UNL     1      10.512  24.228   8.506  1.00  0.00     0.040 C 
HETATM    7  C13 UNL     1      11.656  24.317   9.434  1.00  0.00     0.164 C 
ENDROOT
BRANCH   7   8
HETATM    8  O2  UNL     1      11.558  23.237  10.337  1.00  0.00    -0.370 OA
ATOM      9  H2  UNL     1      11.846  22.420   9.947  1.00  0.00     0.212 HD
ENDBRANCH   7   8
BRANCH   7  10
HETATM   10  C14 UNL     1      11.619  25.585  10.202  1.00  0.00    -0.057 C 
HETATM   11  C15 UNL     1      11.609  26.612  10.832  1.00  0.00    -0.075 C 
BRANCH  11  12
HETATM   12  C16 UNL     1      11.619  27.867  11.617  1.00  0.00     0.192 C 
HETATM   13  C17 UNL     1      12.510  28.820  10.841  1.00  0.00     0.048 C 
BRANCH  12  14
HETATM   14  N2  UNL     1      12.118  27.626  12.946  1.00  0.00    -0.220 N 
BRANCH  14  15
HETATM   15  O3  UNL     1      12.068  26.402  13.503  1.00  0.00    -0.284 OA
ATOM     16  H3  UNL     1      11.574  25.696  13.104  1.00  0.00     0.245 HD
ENDBRANCH  14  15
BRANCH  14  17
HETATM   17  C18 UNL     1      12.674  28.682  13.697  1.00  0.00     0.377 C 
HETATM   18  O4  UNL     1      13.458  28.405  14.637  1.00  0.00    -0.281 OA
ENDBRANCH  14  17
ENDBRANCH  12  14
ENDBRANCH  11  12
ENDBRANCH   7  10
BRANCH   5  19
HETATM   19  C6  UNL     1       9.251  23.749   6.578  1.00  0.00     0.144 C 
BRANCH  19  20
HETATM   20  O1  UNL     1       8.321  24.557   7.025  1.00  0.00    -0.346 OA
ATOM     21  H1  UNL     1       7.587  24.755   6.456  1.00  0.00     0.219 HD
ENDBRANCH  19  20
BRANCH  19  22
HETATM   22  N1  UNL     1       8.843  23.038   5.451  1.00  0.00    -0.358 N 
HETATM   23  C7  UNL     1       8.879  23.564   4.119  1.00  0.00     0.152 C 
BRANCH  22  24
HETATM   24  C8  UNL     1       8.332  21.661   5.640  1.00  0.00     0.023 C 
HETATM   25  C9  UNL     1       7.243  21.640   6.670  1.00  0.00     0.037 C 
HETATM   26  C10 UNL     1       9.418  20.712   6.023  1.00  0.00     0.037 C 
HETATM   27  C11 UNL     1       7.772  21.222   4.310  1.00  0.00     0.037 C 
ENDBRANCH  22  24
ENDBRANCH  19  22
ENDBRANCH   5  19
TORSDOF 10
ENDMDL
