MODEL 1
REMARK VINA RESULT: -7.744137642      0.000      0.000
REMARK  3 active torsions:
REMARK  status: ('A' for Active; 'I' for Inactive)
REMARK    1  A    between atoms: C2_2  and  N1_4 
REMARK       I    between atoms: N1_4  and  C4_6 
REMARK       I    between atoms: C4_6  and  N2_8 
REMARK    2  A    between atoms: C7_12  and  C8_13 
REMARK       I    between atoms: C8_13  and  N3_15 
REMARK    3  A    between atoms: N3_15  and  C9_17 
ROOT
HETATM    1  C8  UNL     1       9.362  24.320   5.978  1.00  0.00     0.243 C 
HETATM    2  O3  UNL     1      10.035  25.077   5.247  1.00  0.00    -0.271 OA
HETATM    3  N3  UNL     1       9.769  24.108   7.315  1.00  0.00    -0.350 N 
ATOM      4  H3  UNL     1       9.198  23.485   7.887  1.00  0.00     0.163 HD
ENDROOT
BRANCH   1   5
HETATM    5  C7  UNL     1       8.146  23.665   5.406  1.00  0.00     0.207 C 
HETATM    6  N2  UNL     1       8.516  22.513   4.628  1.00  0.00    -0.297 N 
HETATM    7  C4  UNL     1       8.959  22.499   3.299  1.00  0.00     0.321 C 
HETATM    8  C5  UNL     1       8.345  21.367   5.476  1.00  0.00     0.298 C 
HETATM    9  N1  UNL     1       9.084  23.711   2.568  1.00  0.00    -0.339 N 
HETATM   10  O1  UNL     1       9.242  21.400   2.764  1.00  0.00    -0.247 OA
ATOM     11  H1  UNL     1       8.846  24.590   3.026  1.00  0.00     0.164 HD
HETATM   12  O2  UNL     1       7.176  21.696   6.174  1.00  0.00    -0.369 OA
HETATM   13  C6  UNL     1       7.294  23.039   6.504  1.00  0.00     0.205 C 
BRANCH   9  14
HETATM   14  C2  UNL     1       9.536  23.738   1.199  1.00  0.00     0.078 C 
HETATM   15  C1  UNL     1       8.406  23.596   0.230  1.00  0.00     0.032 C 
HETATM   16  C3  UNL     1      10.262  25.034   0.870  1.00  0.00     0.032 C 
ENDBRANCH   9  14
ENDBRANCH   1   5
BRANCH   3  17
HETATM   17  C9  UNL     1      10.919  24.699   7.928  1.00  0.00     0.034 C 
HETATM   18  C10 UNL     1      11.208  24.058   9.240  1.00  0.00     0.035 C 
HETATM   19  C11 UNL     1      12.276  24.820  10.004  1.00  0.00    -0.012 C 
HETATM   20  C12 UNL     1      13.543  24.723   9.191  1.00  0.00     0.009 C 
HETATM   21  C16 UNL     1      11.831  26.237  10.166  1.00  0.00     0.009 C 
HETATM   22  C13 UNL     1      13.301  25.305   7.820  1.00  0.00    -0.012 C 
HETATM   23  C14 UNL     1      13.008  26.779   8.010  1.00  0.00     0.009 C 
HETATM   24  C18 UNL     1      12.182  24.596   7.079  1.00  0.00     0.035 C 
HETATM   25  C15 UNL     1      11.739  26.895   8.813  1.00  0.00    -0.012 C 
HETATM   26  C17 UNL     1      10.649  26.189   8.047  1.00  0.00     0.035 C 
ENDBRANCH   3  17
TORSDOF 3
ENDMDL
MODEL 2
REMARK VINA RESULT: -7.643034045      0.157      1.527
REMARK  3 active torsions:
REMARK  status: ('A' for Active; 'I' for Inactive)
REMARK    1  A    between atoms: C2_2  and  N1_4 
REMARK       I    between atoms: N1_4  and  C4_6 
REMARK       I    between atoms: C4_6  and  N2_8 
REMARK    2  A    between atoms: C7_12  and  C8_13 
REMARK       I    between atoms: C8_13  and  N3_15 
REMARK    3  A    between atoms: N3_15  and  C9_17 
ROOT
HETATM    1  C8  UNL     1       9.304  24.375   5.976  1.00  0.00     0.243 C 
HETATM    2  O3  UNL     1       9.925  25.167   5.237  1.00  0.00    -0.271 OA
HETATM    3  N3  UNL     1       9.744  24.181   7.306  1.00  0.00    -0.350 N 
ATOM      4  H3  UNL     1       9.216  23.528   7.886  1.00  0.00     0.163 HD
ENDROOT
BRANCH   1   5
HETATM    5  C7  UNL     1       8.114  23.660   5.423  1.00  0.00     0.207 C 
HETATM    6  N2  UNL     1       8.529  22.506   4.670  1.00  0.00    -0.297 N 
HETATM    7  C4  UNL     1       8.970  22.479   3.340  1.00  0.00     0.321 C 
HETATM    8  C5  UNL     1       8.406  21.373   5.544  1.00  0.00     0.298 C 
HETATM    9  N1  UNL     1       9.045  23.679   2.582  1.00  0.00    -0.339 N 
HETATM   10  O1  UNL     1       9.296  21.381   2.830  1.00  0.00    -0.247 OA
ATOM     11  H1  UNL     1       8.773  24.558   3.021  1.00  0.00     0.164 HD
HETATM   12  O2  UNL     1       7.226  21.671   6.238  1.00  0.00    -0.369 OA
HETATM   13  C6  UNL     1       7.290  23.025   6.537  1.00  0.00     0.205 C 
BRANCH   9  14
HETATM   14  C2  UNL     1       9.492  23.694   1.212  1.00  0.00     0.078 C 
HETATM   15  C1  UNL     1       8.368  23.480   0.250  1.00  0.00     0.032 C 
HETATM   16  C3  UNL     1      10.161  25.012   0.850  1.00  0.00     0.032 C 
ENDBRANCH   9  14
ENDBRANCH   1   5
BRANCH   3  17
HETATM   17  C9  UNL     1      10.872  24.830   7.902  1.00  0.00     0.034 C 
HETATM   18  C10 UNL     1      12.061  24.749   7.010  1.00  0.00     0.035 C 
HETATM   19  C11 UNL     1      13.317  25.225   7.720  1.00  0.00    -0.012 C 
HETATM   20  C12 UNL     1      13.112  26.688   8.029  1.00  0.00     0.009 C 
HETATM   21  C16 UNL     1      13.501  24.418   8.964  1.00  0.00     0.009 C 
HETATM   22  C13 UNL     1      11.880  26.847   8.887  1.00  0.00    -0.012 C 
HETATM   23  C14 UNL     1      12.162  26.150  10.202  1.00  0.00     0.009 C 
HETATM   24  C18 UNL     1      10.632  26.304   8.215  1.00  0.00     0.035 C 
HETATM   25  C15 UNL     1      12.360  24.686   9.912  1.00  0.00    -0.012 C 
HETATM   26  C17 UNL     1      11.104  24.177   9.254  1.00  0.00     0.035 C 
ENDBRANCH   3  17
TORSDOF 3
ENDMDL
MODEL 3
REMARK VINA RESULT: -7.628194574      0.177      1.528
REMARK  3 active torsions:
REMARK  status: ('A' for Active; 'I' for Inactive)
REMARK    1  A    between atoms: C2_2  and  N1_4 
REMARK       I    between atoms: N1_4  and  C4_6 
REMARK       I    between atoms: C4_6  and  N2_8 
REMARK    2  A    between atoms: C7_12  and  C8_13 
REMARK       I    between atoms: C8_13  and  N3_15 
REMARK    3  A    between atoms: N3_15  and  C9_17 
ROOT
HETATM    1  C8  UNL     1       9.274  24.315   6.006  1.00  0.00     0.243 C 
HETATM    2  O3  UNL     1       9.896  25.148   5.313  1.00  0.00    -0.271 OA
HETATM    3  N3  UNL     1       9.698  24.063   7.331  1.00  0.00    -0.350 N 
ATOM      4  H3  UNL     1       9.171  23.378   7.872  1.00  0.00     0.163 HD
ENDROOT
BRANCH   1   5
HETATM    5  C7  UNL     1       8.101  23.612   5.402  1.00  0.00     0.207 C 
HETATM    6  N2  UNL     1       8.538  22.491   4.614  1.00  0.00    -0.297 N 
HETATM    7  C4  UNL     1       9.004  22.519   3.293  1.00  0.00     0.321 C 
HETATM    8  C5  UNL     1       8.408  21.325   5.442  1.00  0.00     0.298 C 
HETATM    9  N1  UNL     1       9.084  23.748   2.582  1.00  0.00    -0.339 N 
HETATM   10  O1  UNL     1       9.349  21.444   2.747  1.00  0.00    -0.247 OA
ATOM     11  H1  UNL     1       8.797  24.608   3.050  1.00  0.00     0.164 HD
HETATM   12  O2  UNL     1       7.213  21.588   6.124  1.00  0.00    -0.369 OA
HETATM   13  C6  UNL     1       7.261  22.929   6.475  1.00  0.00     0.205 C 
BRANCH   9  14
HETATM   14  C2  UNL     1       9.557  23.819   1.223  1.00  0.00     0.078 C 
HETATM   15  C1  UNL     1       8.452  23.639   0.232  1.00  0.00     0.032 C 
HETATM   16  C3  UNL     1      10.227  25.152   0.927  1.00  0.00     0.032 C 
ENDBRANCH   9  14
ENDBRANCH   1   5
BRANCH   3  17
HETATM   17  C9  UNL     1      10.810  24.696   7.972  1.00  0.00     0.034 C 
HETATM   18  C10 UNL     1      10.563  26.154   8.145  1.00  0.00     0.035 C 
HETATM   19  C11 UNL     1      11.816  26.875   8.610  1.00  0.00    -0.012 C 
HETATM   20  C12 UNL     1      12.147  26.332   9.978  1.00  0.00     0.009 C 
HETATM   21  C16 UNL     1      12.913  26.611   7.631  1.00  0.00     0.009 C 
HETATM   22  C13 UNL     1      12.352  24.840   9.885  1.00  0.00    -0.012 C 
HETATM   23  C14 UNL     1      13.569  24.613   9.011  1.00  0.00     0.009 C 
HETATM   24  C18 UNL     1      11.129  24.119   9.348  1.00  0.00     0.035 C 
HETATM   25  C15 UNL     1      13.253  25.142   7.638  1.00  0.00    -0.012 C 
HETATM   26  C17 UNL     1      12.041  24.402   7.132  1.00  0.00     0.035 C 
ENDBRANCH   3  17
TORSDOF 3
ENDMDL
MODEL 4
REMARK VINA RESULT: -7.591527565      1.500      2.182
REMARK  3 active torsions:
REMARK  status: ('A' for Active; 'I' for Inactive)
REMARK    1  A    between atoms: C2_2  and  N1_4 
REMARK       I    between atoms: N1_4  and  C4_6 
REMARK       I    between atoms: C4_6  and  N2_8 
REMARK    2  A    between atoms: C7_12  and  C8_13 
REMARK       I    between atoms: C8_13  and  N3_15 
REMARK    3  A    between atoms: N3_15  and  C9_17 
ROOT
HETATM    1  C8  UNL     1       9.417  24.014   6.704  1.00  0.00     0.243 C 
HETATM    2  O3  UNL     1       9.981  23.005   7.176  1.00  0.00    -0.271 OA
HETATM    3  N3  UNL     1       9.839  25.299   7.116  1.00  0.00    -0.350 N 
ATOM      4  H3  UNL     1       9.359  26.104   6.713  1.00  0.00     0.163 HD
ENDROOT
BRANCH   1   5
HETATM    5  C7  UNL     1       8.311  23.822   5.717  1.00  0.00     0.207 C 
HETATM    6  N2  UNL     1       8.833  23.341   4.466  1.00  0.00    -0.297 N 
HETATM    7  C4  UNL     1       9.407  24.105   3.441  1.00  0.00     0.321 C 
HETATM    8  C5  UNL     1       8.657  21.915   4.463  1.00  0.00     0.298 C 
HETATM    9  N1  UNL     1       9.522  25.515   3.572  1.00  0.00    -0.339 N 
HETATM   10  O1  UNL     1       9.816  23.525   2.406  1.00  0.00    -0.247 OA
ATOM     11  H1  UNL     1       9.181  25.961   4.423  1.00  0.00     0.164 HD
HETATM   12  O2  UNL     1       7.404  21.779   5.075  1.00  0.00    -0.369 OA
HETATM   13  C6  UNL     1       7.397  22.675   6.135  1.00  0.00     0.205 C 
BRANCH   9  14
HETATM   14  C2  UNL     1      10.105  26.336   2.540  1.00  0.00     0.078 C 
HETATM   15  C1  UNL     1       9.273  27.541   2.241  1.00  0.00     0.032 C 
HETATM   16  C3  UNL     1      11.495  26.822   2.924  1.00  0.00     0.032 C 
ENDBRANCH   9  14
ENDBRANCH   1   5
BRANCH   3  17
HETATM   17  C9  UNL     1      10.887  25.558   8.055  1.00  0.00     0.034 C 
HETATM   18  C10 UNL     1      10.632  26.822   8.800  1.00  0.00     0.035 C 
HETATM   19  C11 UNL     1      11.838  27.229   9.628  1.00  0.00    -0.012 C 
HETATM   20  C12 UNL     1      12.033  26.152  10.667  1.00  0.00     0.009 C 
HETATM   21  C16 UNL     1      13.023  27.347   8.725  1.00  0.00     0.009 C 
HETATM   22  C13 UNL     1      12.240  24.826   9.976  1.00  0.00    -0.012 C 
HETATM   23  C14 UNL     1      13.534  24.929   9.195  1.00  0.00     0.009 C 
HETATM   24  C18 UNL     1      11.070  24.448   9.086  1.00  0.00     0.035 C 
HETATM   25  C15 UNL     1      13.353  25.995   8.146  1.00  0.00    -0.012 C 
HETATM   26  C17 UNL     1      12.191  25.586   7.277  1.00  0.00     0.035 C 
ENDBRANCH   3  17
TORSDOF 3
ENDMDL
MODEL 5
REMARK VINA RESULT: -7.500383929      2.756      6.257
REMARK  3 active torsions:
REMARK  status: ('A' for Active; 'I' for Inactive)
REMARK    1  A    between atoms: C2_2  and  N1_4 
REMARK       I    between atoms: N1_4  and  C4_6 
REMARK       I    between atoms: C4_6  and  N2_8 
REMARK    2  A    between atoms: C7_12  and  C8_13 
REMARK       I    between atoms: C8_13  and  N3_15 
REMARK    3  A    between atoms: N3_15  and  C9_17 
ROOT
HETATM    1  C8  UNL     1      12.168  24.162   6.530  1.00  0.00     0.243 C 
HETATM    2  O3  UNL     1      12.205  24.225   5.283  1.00  0.00    -0.271 OA
HETATM    3  N3  UNL     1      11.106  23.469   7.156  1.00  0.00    -0.350 N 
ATOM      4  H3  UNL     1      11.102  23.435   8.176  1.00  0.00     0.163 HD
ENDROOT
BRANCH   1   5
HETATM    5  C7  UNL     1      13.253  24.824   7.315  1.00  0.00     0.207 C 
HETATM    6  N2  UNL     1      12.803  26.093   7.822  1.00  0.00    -0.297 N 
HETATM    7  C4  UNL     1      12.769  27.313   7.133  1.00  0.00     0.321 C 
HETATM    8  C5  UNL     1      12.389  25.876   9.179  1.00  0.00     0.298 C 
HETATM    9  N1  UNL     1      13.211  27.391   5.784  1.00  0.00    -0.339 N 
HETATM   10  O1  UNL     1      12.345  28.334   7.724  1.00  0.00    -0.247 OA
ATOM     11  H1  UNL     1      13.552  26.546   5.327  1.00  0.00     0.164 HD
HETATM   12  O2  UNL     1      13.357  24.970   9.634  1.00  0.00    -0.369 OA
HETATM   13  C6  UNL     1      13.542  24.060   8.602  1.00  0.00     0.205 C 
BRANCH   9  14
HETATM   14  C2  UNL     1      13.192  28.627   5.041  1.00  0.00     0.078 C 
HETATM   15  C1  UNL     1      14.239  28.658   3.975  1.00  0.00     0.032 C 
HETATM   16  C3  UNL     1      11.846  28.862   4.371  1.00  0.00     0.032 C 
ENDBRANCH   9  14
ENDBRANCH   1   5
BRANCH   3  17
HETATM   17  C9  UNL     1      10.034  22.814   6.470  1.00  0.00     0.034 C 
HETATM   18  C10 UNL     1       9.487  23.681   5.391  1.00  0.00     0.035 C 
HETATM   19  C11 UNL     1       8.209  23.100   4.810  1.00  0.00    -0.012 C 
HETATM   20  C12 UNL     1       8.586  21.792   4.159  1.00  0.00     0.009 C 
HETATM   21  C16 UNL     1       7.225  22.903   5.916  1.00  0.00     0.009 C 
HETATM   22  C13 UNL     1       9.205  20.881   5.191  1.00  0.00    -0.012 C 
HETATM   23  C14 UNL     1       8.131  20.575   6.215  1.00  0.00     0.009 C 
HETATM   24  C18 UNL     1      10.440  21.489   5.832  1.00  0.00     0.035 C 
HETATM   25  C15 UNL     1       7.750  21.871   6.881  1.00  0.00    -0.012 C 
HETATM   26  C17 UNL     1       8.993  22.442   7.512  1.00  0.00     0.035 C 
ENDBRANCH   3  17
TORSDOF 3
ENDMDL
