MODEL 1
REMARK VINA RESULT: -8.530521929      0.000      0.000
REMARK  3 active torsions:
REMARK  status: ('A' for Active; 'I' for Inactive)
REMARK    1  A    between atoms: N1_8  and  N2_9 
REMARK       I    between atoms: N2_9  and  C8_11 
REMARK    2  A    between atoms: C8_11  and  C9_13 
REMARK       I    between atoms: C9_13  and  N3_15 
REMARK    3  A    between atoms: N3_15  and  C10_17 
ROOT
HETATM    1  C9  UNL     1      10.658  22.939   6.125  1.00  0.00     0.311 C 
HETATM    2  O2  UNL     1      11.532  23.484   5.421  1.00  0.00    -0.262 OA
HETATM    3  N3  UNL     1      10.467  23.237   7.498  1.00  0.00    -0.344 N 
ATOM      4  H3  UNL     1       9.730  22.742   8.000  1.00  0.00     0.163 HD
ENDROOT
BRANCH   1   5
HETATM    5  C8  UNL     1       9.765  21.931   5.538  1.00  0.00     0.327 C 
HETATM    6  N2  UNL     1       9.996  20.569   5.772  1.00  0.00    -0.263 N 
ATOM      7  H2  UNL     1      10.784  20.303   6.362  1.00  0.00     0.190 HD
HETATM    8  O1  UNL     1       8.790  22.262   4.822  1.00  0.00    -0.261 OA
BRANCH   6   9
HETATM    9  N1  UNL     1       9.198  19.562   5.237  1.00  0.00    -0.316 N 
HETATM   10  C2  UNL     1       8.343  19.008   6.187  1.00  0.00     0.098 C 
HETATM   11  C1  UNL     1       6.861  19.366   5.934  1.00  0.00     0.034 C 
HETATM   12  C3  UNL     1       8.465  17.537   6.475  1.00  0.00     0.026 C 
HETATM   13  C4  UNL     1       9.276  16.782   5.477  1.00  0.00     0.004 C 
HETATM   14  C5  UNL     1      10.454  17.569   4.956  1.00  0.00     0.026 C 
HETATM   15  C6  UNL     1       9.919  18.808   4.318  1.00  0.00     0.098 C 
HETATM   16  C7  UNL     1       9.197  18.468   3.035  1.00  0.00     0.034 C 
ENDBRANCH   6   9
ENDBRANCH   1   5
BRANCH   3  17
HETATM   17  C10 UNL     1      11.262  24.206   8.226  1.00  0.00     0.034 C 
HETATM   18  C11 UNL     1      10.763  25.571   7.770  1.00  0.00     0.035 C 
HETATM   19  C12 UNL     1      11.518  26.653   8.494  1.00  0.00    -0.012 C 
HETATM   20  C13 UNL     1      11.298  26.437   9.968  1.00  0.00     0.009 C 
HETATM   21  C17 UNL     1      12.966  26.529   8.083  1.00  0.00     0.009 C 
HETATM   22  C14 UNL     1      11.873  25.122  10.430  1.00  0.00    -0.012 C 
HETATM   23  C15 UNL     1      13.339  25.100  10.055  1.00  0.00     0.009 C 
HETATM   24  C19 UNL     1      11.118  24.028   9.698  1.00  0.00     0.035 C 
HETATM   25  C16 UNL     1      13.479  25.200   8.558  1.00  0.00    -0.012 C 
HETATM   26  C18 UNL     1      12.732  24.112   7.849  1.00  0.00     0.035 C 
ENDBRANCH   3  17
TORSDOF 3
ENDMDL
MODEL 2
REMARK VINA RESULT: -8.437724977      0.149      1.528
REMARK  3 active torsions:
REMARK  status: ('A' for Active; 'I' for Inactive)
REMARK    1  A    between atoms: N1_8  and  N2_9 
REMARK       I    between atoms: N2_9  and  C8_11 
REMARK    2  A    between atoms: C8_11  and  C9_13 
REMARK       I    between atoms: C9_13  and  N3_15 
REMARK    3  A    between atoms: N3_15  and  C10_17 
ROOT
HETATM    1  C9  UNL     1      10.613  23.059   6.010  1.00  0.00     0.311 C 
HETATM    2  O2  UNL     1      11.402  23.662   5.257  1.00  0.00    -0.262 OA
HETATM    3  N3  UNL     1      10.509  23.320   7.400  1.00  0.00    -0.344 N 
ATOM      4  H3  UNL     1       9.838  22.778   7.944  1.00  0.00     0.163 HD
ENDROOT
BRANCH   1   5
HETATM    5  C8  UNL     1       9.732  22.016   5.468  1.00  0.00     0.327 C 
HETATM    6  N2  UNL     1      10.008  20.666   5.718  1.00  0.00    -0.263 N 
ATOM      7  H2  UNL     1      10.821  20.432   6.289  1.00  0.00     0.190 HD
HETATM    8  O1  UNL     1       8.727  22.307   4.776  1.00  0.00    -0.261 OA
BRANCH   6   9
HETATM    9  N1  UNL     1       9.223  19.627   5.224  1.00  0.00    -0.316 N 
HETATM   10  C2  UNL     1       8.403  19.077   6.206  1.00  0.00     0.098 C 
HETATM   11  C1  UNL     1       6.907  19.393   5.977  1.00  0.00     0.034 C 
HETATM   12  C3  UNL     1       8.566  17.616   6.525  1.00  0.00     0.026 C 
HETATM   13  C4  UNL     1       9.374  16.856   5.528  1.00  0.00     0.004 C 
HETATM   14  C5  UNL     1      10.521  17.658   4.963  1.00  0.00     0.026 C 
HETATM   15  C6  UNL     1       9.943  18.869   4.308  1.00  0.00     0.098 C 
HETATM   16  C7  UNL     1       9.202  18.481   3.049  1.00  0.00     0.034 C 
ENDBRANCH   6   9
ENDBRANCH   1   5
BRANCH   3  17
HETATM   17  C10 UNL     1      11.305  24.317   8.089  1.00  0.00     0.034 C 
HETATM   18  C11 UNL     1      11.093  24.056   9.574  1.00  0.00     0.035 C 
HETATM   19  C12 UNL     1      11.904  25.034  10.381  1.00  0.00    -0.012 C 
HETATM   20  C13 UNL     1      13.344  24.852   9.979  1.00  0.00     0.009 C 
HETATM   21  C17 UNL     1      11.369  26.411  10.071  1.00  0.00     0.009 C 
HETATM   22  C14 UNL     1      13.565  25.197   8.527  1.00  0.00    -0.012 C 
HETATM   23  C15 UNL     1      13.077  26.613   8.308  1.00  0.00     0.009 C 
HETATM   24  C19 UNL     1      12.743  24.217   7.710  1.00  0.00     0.035 C 
HETATM   25  C16 UNL     1      11.605  26.693   8.615  1.00  0.00    -0.012 C 
HETATM   26  C18 UNL     1      10.805  25.723   7.799  1.00  0.00     0.035 C 
ENDBRANCH   3  17
TORSDOF 3
ENDMDL
MODEL 3
REMARK VINA RESULT: -8.346324065      0.195      1.468
REMARK  3 active torsions:
REMARK  status: ('A' for Active; 'I' for Inactive)
REMARK    1  A    between atoms: N1_8  and  N2_9 
REMARK       I    between atoms: N2_9  and  C8_11 
REMARK    2  A    between atoms: C8_11  and  C9_13 
REMARK       I    between atoms: C9_13  and  N3_15 
REMARK    3  A    between atoms: N3_15  and  C10_17 
ROOT
HETATM    1  C9  UNL     1      10.496  23.045   6.000  1.00  0.00     0.311 C 
HETATM    2  O2  UNL     1      11.276  23.699   5.277  1.00  0.00    -0.262 OA
HETATM    3  N3  UNL     1      10.357  23.267   7.393  1.00  0.00    -0.344 N 
ATOM      4  H3  UNL     1       9.698  22.686   7.910  1.00  0.00     0.163 HD
ENDROOT
BRANCH   1   5
HETATM    5  C8  UNL     1       9.668  21.983   5.415  1.00  0.00     0.327 C 
HETATM    6  N2  UNL     1       9.892  20.646   5.766  1.00  0.00    -0.263 N 
ATOM      7  H2  UNL     1      10.630  20.436   6.438  1.00  0.00     0.190 HD
HETATM    8  O1  UNL     1       8.754  22.246   4.597  1.00  0.00    -0.261 OA
BRANCH   6   9
HETATM    9  N1  UNL     1       9.153  19.589   5.239  1.00  0.00    -0.316 N 
HETATM   10  C2  UNL     1       8.339  18.990   6.198  1.00  0.00     0.098 C 
HETATM   11  C1  UNL     1       6.836  19.257   5.951  1.00  0.00     0.034 C 
HETATM   12  C3  UNL     1       8.551  17.531   6.491  1.00  0.00     0.026 C 
HETATM   13  C4  UNL     1       9.401  16.821   5.492  1.00  0.00     0.004 C 
HETATM   14  C5  UNL     1      10.526  17.675   4.961  1.00  0.00     0.026 C 
HETATM   15  C6  UNL     1       9.914  18.876   4.320  1.00  0.00     0.098 C 
HETATM   16  C7  UNL     1       9.207  18.487   3.043  1.00  0.00     0.034 C 
ENDBRANCH   6   9
ENDBRANCH   1   5
BRANCH   3  17
HETATM   17  C10 UNL     1      11.100  24.276   8.122  1.00  0.00     0.034 C 
HETATM   18  C11 UNL     1      12.536  24.165   7.628  1.00  0.00     0.035 C 
HETATM   19  C12 UNL     1      13.389  25.197   8.314  1.00  0.00    -0.012 C 
HETATM   20  C13 UNL     1      12.790  26.544   8.004  1.00  0.00     0.009 C 
HETATM   21  C17 UNL     1      13.380  24.866   9.787  1.00  0.00     0.009 C 
HETATM   22  C14 UNL     1      11.400  26.680   8.574  1.00  0.00    -0.012 C 
HETATM   23  C15 UNL     1      11.481  26.410  10.061  1.00  0.00     0.009 C 
HETATM   24  C19 UNL     1      10.538  25.637   7.888  1.00  0.00     0.035 C 
HETATM   25  C16 UNL     1      11.973  25.006  10.294  1.00  0.00    -0.012 C 
HETATM   26  C18 UNL     1      11.111  23.986   9.615  1.00  0.00     0.035 C 
ENDBRANCH   3  17
TORSDOF 3
ENDMDL
MODEL 4
REMARK VINA RESULT: -7.666768979      1.932      8.101
REMARK  3 active torsions:
REMARK  status: ('A' for Active; 'I' for Inactive)
REMARK    1  A    between atoms: N1_8  and  N2_9 
REMARK       I    between atoms: N2_9  and  C8_11 
REMARK    2  A    between atoms: C8_11  and  C9_13 
REMARK       I    between atoms: C9_13  and  N3_15 
REMARK    3  A    between atoms: N3_15  and  C10_17 
ROOT
HETATM    1  C9  UNL     1      10.169  23.748   7.253  1.00  0.00     0.311 C 
HETATM    2  O2  UNL     1       9.089  24.345   7.066  1.00  0.00    -0.262 OA
HETATM    3  N3  UNL     1      10.429  22.441   6.770  1.00  0.00    -0.344 N 
ATOM      4  H3  UNL     1      11.338  22.025   6.971  1.00  0.00     0.163 HD
ENDROOT
BRANCH   1   5
HETATM    5  C8  UNL     1      11.246  24.399   8.010  1.00  0.00     0.327 C 
HETATM    6  N2  UNL     1      11.033  25.653   8.596  1.00  0.00    -0.263 N 
ATOM      7  H2  UNL     1      10.117  26.090   8.492  1.00  0.00     0.190 HD
HETATM    8  O1  UNL     1      12.368  23.854   8.145  1.00  0.00    -0.261 OA
BRANCH   6   9
HETATM    9  N1  UNL     1      12.014  26.331   9.315  1.00  0.00    -0.316 N 
HETATM   10  C2  UNL     1      11.680  26.464  10.661  1.00  0.00     0.098 C 
HETATM   11  C1  UNL     1      12.575  25.605  11.583  1.00  0.00     0.034 C 
HETATM   12  C3  UNL     1      11.561  27.853  11.225  1.00  0.00     0.026 C 
HETATM   13  C4  UNL     1      12.125  28.921  10.349  1.00  0.00     0.004 C 
HETATM   14  C5  UNL     1      11.900  28.661   8.880  1.00  0.00     0.026 C 
HETATM   15  C6  UNL     1      12.553  27.359   8.549  1.00  0.00     0.098 C 
HETATM   16  C7  UNL     1      14.056  27.498   8.600  1.00  0.00     0.034 C 
ENDBRANCH   6   9
ENDBRANCH   1   5
BRANCH   3  17
HETATM   17  C10 UNL     1       9.472  21.663   6.007  1.00  0.00     0.034 C 
HETATM   18  C11 UNL     1      10.236  20.441   5.517  1.00  0.00     0.035 C 
HETATM   19  C12 UNL     1       9.314  19.551   4.727  1.00  0.00    -0.012 C 
HETATM   20  C13 UNL     1       8.174  19.175   5.637  1.00  0.00     0.009 C 
HETATM   21  C17 UNL     1       8.874  20.339   3.516  1.00  0.00     0.009 C 
HETATM   22  C14 UNL     1       7.368  20.382   6.048  1.00  0.00    -0.012 C 
HETATM   23  C15 UNL     1       6.898  21.077   4.788  1.00  0.00     0.009 C 
HETATM   24  C19 UNL     1       8.296  21.284   6.840  1.00  0.00     0.035 C 
HETATM   25  C16 UNL     1       8.089  21.530   3.987  1.00  0.00    -0.012 C 
HETATM   26  C18 UNL     1       8.995  22.423   4.779  1.00  0.00     0.035 C 
ENDBRANCH   3  17
TORSDOF 3
ENDMDL
MODEL 5
REMARK VINA RESULT: -7.633552427      1.898      8.076
REMARK  3 active torsions:
REMARK  status: ('A' for Active; 'I' for Inactive)
REMARK    1  A    between atoms: N1_8  and  N2_9 
REMARK       I    between atoms: N2_9  and  C8_11 
REMARK    2  A    between atoms: C8_11  and  C9_13 
REMARK       I    between atoms: C9_13  and  N3_15 
REMARK    3  A    between atoms: N3_15  and  C10_17 
ROOT
HETATM    1  C9  UNL     1      10.315  23.605   7.240  1.00  0.00     0.311 C 
HETATM    2  O2  UNL     1       9.191  24.128   7.103  1.00  0.00    -0.262 OA
HETATM    3  N3  UNL     1      10.668  22.356   6.669  1.00  0.00    -0.344 N 
ATOM      4  H3  UNL     1      11.609  22.000   6.833  1.00  0.00     0.163 HD
ENDROOT
BRANCH   1   5
HETATM    5  C8  UNL     1      11.351  24.286   8.029  1.00  0.00     0.327 C 
HETATM    6  N2  UNL     1      11.111  25.566   8.543  1.00  0.00    -0.263 N 
ATOM      7  H2  UNL     1      10.206  26.001   8.366  1.00  0.00     0.190 HD
HETATM    8  O1  UNL     1      12.459  23.744   8.254  1.00  0.00    -0.261 OA
BRANCH   6   9
HETATM    9  N1  UNL     1      12.053  26.273   9.287  1.00  0.00    -0.316 N 
HETATM   10  C2  UNL     1      11.682  26.394  10.624  1.00  0.00     0.098 C 
HETATM   11  C1  UNL     1      12.580  25.561  11.567  1.00  0.00     0.034 C 
HETATM   12  C3  UNL     1      11.507  27.778  11.186  1.00  0.00     0.026 C 
HETATM   13  C4  UNL     1      12.059  28.864  10.325  1.00  0.00     0.004 C 
HETATM   14  C5  UNL     1      11.878  28.599   8.850  1.00  0.00     0.026 C 
HETATM   15  C6  UNL     1      12.579  27.318   8.535  1.00  0.00     0.098 C 
HETATM   16  C7  UNL     1      14.075  27.503   8.624  1.00  0.00     0.034 C 
ENDBRANCH   6   9
ENDBRANCH   1   5
BRANCH   3  17
HETATM   17  C10 UNL     1       9.762  21.559   5.865  1.00  0.00     0.034 C 
HETATM   18  C11 UNL     1       8.638  21.143   6.803  1.00  0.00     0.035 C 
HETATM   19  C12 UNL     1       7.625  20.324   6.049  1.00  0.00    -0.012 C 
HETATM   20  C13 UNL     1       7.124  21.177   4.913  1.00  0.00     0.009 C 
HETATM   21  C17 UNL     1       8.330  19.071   5.587  1.00  0.00     0.009 C 
HETATM   22  C14 UNL     1       8.226  21.511   3.939  1.00  0.00    -0.012 C 
HETATM   23  C15 UNL     1       8.834  20.210   3.462  1.00  0.00     0.009 C 
HETATM   24  C19 UNL     1       9.252  22.333   4.698  1.00  0.00     0.035 C 
HETATM   25  C16 UNL     1       9.421  19.467   4.633  1.00  0.00    -0.012 C 
HETATM   26  C18 UNL     1      10.434  20.287   5.371  1.00  0.00     0.035 C 
ENDBRANCH   3  17
TORSDOF 3
ENDMDL
