MODEL 1
REMARK VINA RESULT: -5.061501524      0.000      0.000
REMARK  3 active torsions:
REMARK  status: ('A' for Active; 'I' for Inactive)
REMARK    1  A    between atoms: S1_2  and  N1_5 
REMARK    2  A    between atoms: N1_5  and  C3_7 
REMARK    3  A    between atoms: C3_7  and  C4_11 
ROOT
HETATM    1  C3  UNL     1      17.128 -21.320 -49.500  1.00  0.00     0.086 C 
HETATM    2  N2  UNL     1      15.957 -21.814 -49.350  1.00  0.00    -0.388 N 
ATOM      3  H21 UNL     1      15.155 -21.185 -49.309  1.00  0.00     0.157 HD
ATOM      4  H22 UNL     1      15.857 -22.826 -49.273  1.00  0.00     0.157 HD
ENDROOT
BRANCH   1   5
HETATM    5  N1  UNL     1      18.236 -22.189 -49.556  1.00  0.00    -0.306 N 
ATOM      6  H1  UNL     1      19.157 -21.802 -49.763  1.00  0.00     0.176 HD
BRANCH   5   7
HETATM    7  S1  UNL     1      18.091 -23.868 -49.289  1.00  0.00     0.018 S 
HETATM    8  C1  UNL     1      19.424 -24.500 -48.687  1.00  0.00     0.136 C 
HETATM    9  C2  UNL     1      17.641 -24.770 -50.724  1.00  0.00     0.136 C 
HETATM   10  O1  UNL     1      17.100 -24.180 -48.185  1.00  0.00    -0.250 OA
ENDBRANCH   5   7
ENDBRANCH   1   5
BRANCH   1  11
HETATM   11  C4  UNL     1      17.273 -19.856 -49.611  1.00  0.00     0.053 C 
HETATM   12  C5  UNL     1      16.742 -19.065 -48.447  1.00  0.00     0.012 C 
HETATM   13  C6  UNL     1      18.142 -18.793 -48.002  1.00  0.00     0.002 C 
HETATM   14  C7  UNL     1      18.649 -19.324 -49.309  1.00  0.00     0.012 C 
ENDBRANCH   1  11
TORSDOF 3
ENDMDL
MODEL 2
REMARK VINA RESULT: -4.537599364      1.934      2.531
REMARK  3 active torsions:
REMARK  status: ('A' for Active; 'I' for Inactive)
REMARK    1  A    between atoms: S1_2  and  N1_5 
REMARK    2  A    between atoms: N1_5  and  C3_7 
REMARK    3  A    between atoms: C3_7  and  C4_11 
ROOT
HETATM    1  C3  UNL     1      19.002 -21.531 -49.001  1.00  0.00     0.086 C 
HETATM    2  N2  UNL     1      17.801 -21.105 -48.883  1.00  0.00    -0.388 N 
ATOM      3  H21 UNL     1      17.626 -20.257 -48.343  1.00  0.00     0.157 HD
ATOM      4  H22 UNL     1      17.048 -21.627 -49.331  1.00  0.00     0.157 HD
ENDROOT
BRANCH   1   5
HETATM    5  N1  UNL     1      19.243 -22.703 -49.746  1.00  0.00    -0.306 N 
ATOM      6  H1  UNL     1      19.816 -22.643 -50.587  1.00  0.00     0.176 HD
BRANCH   5   7
HETATM    7  S1  UNL     1      18.608 -24.219 -49.289  1.00  0.00     0.018 S 
HETATM    8  C1  UNL     1      19.645 -25.072 -48.431  1.00  0.00     0.136 C 
HETATM    9  C2  UNL     1      18.068 -25.191 -50.646  1.00  0.00     0.136 C 
HETATM   10  O1  UNL     1      17.465 -24.078 -48.304  1.00  0.00    -0.250 OA
ENDBRANCH   5   7
ENDBRANCH   1   5
BRANCH   1  11
HETATM   11  C4  UNL     1      20.090 -20.776 -48.353  1.00  0.00     0.053 C 
HETATM   12  C5  UNL     1      21.463 -21.379 -48.484  1.00  0.00     0.012 C 
HETATM   13  C6  UNL     1      21.825 -20.322 -49.474  1.00  0.00     0.002 C 
HETATM   14  C7  UNL     1      20.578 -19.572 -49.115  1.00  0.00     0.012 C 
ENDBRANCH   1  11
TORSDOF 3
ENDMDL
MODEL 3
REMARK VINA RESULT: -4.457872552      3.886      5.107
REMARK  3 active torsions:
REMARK  status: ('A' for Active; 'I' for Inactive)
REMARK    1  A    between atoms: S1_2  and  N1_5 
REMARK    2  A    between atoms: N1_5  and  C3_7 
REMARK    3  A    between atoms: C3_7  and  C4_11 
ROOT
HETATM    1  C3  UNL     1      15.279 -18.130 -46.997  1.00  0.00     0.086 C 
HETATM    2  N2  UNL     1      16.268 -17.319 -46.943  1.00  0.00    -0.388 N 
ATOM      3  H21 UNL     1      16.188 -16.476 -46.374  1.00  0.00     0.157 HD
ATOM      4  H22 UNL     1      17.111 -17.537 -47.474  1.00  0.00     0.157 HD
ENDROOT
BRANCH   1   5
HETATM    5  N1  UNL     1      15.390 -19.295 -47.783  1.00  0.00    -0.306 N 
ATOM      6  H1  UNL     1      14.598 -19.936 -47.828  1.00  0.00     0.176 HD
BRANCH   5   7
HETATM    7  S1  UNL     1      16.803 -19.668 -48.662  1.00  0.00     0.018 S 
HETATM    8  C1  UNL     1      16.899 -18.848 -50.026  1.00  0.00     0.136 C 
HETATM    9  C2  UNL     1      16.974 -21.376 -49.022  1.00  0.00     0.136 C 
HETATM   10  O1  UNL     1      18.053 -19.192 -47.950  1.00  0.00    -0.250 OA
ENDBRANCH   5   7
ENDBRANCH   1   5
BRANCH   1  11
HETATM   11  C4  UNL     1      14.060 -17.815 -46.229  1.00  0.00     0.053 C 
HETATM   12  C5  UNL     1      12.978 -18.860 -46.277  1.00  0.00     0.012 C 
HETATM   13  C6  UNL     1      13.306 -19.255 -44.875  1.00  0.00     0.002 C 
HETATM   14  C7  UNL     1      14.164 -18.032 -44.743  1.00  0.00     0.012 C 
ENDBRANCH   1  11
TORSDOF 3
ENDMDL
MODEL 4
REMARK VINA RESULT: -4.422624327      1.290      1.944
REMARK  3 active torsions:
REMARK  status: ('A' for Active; 'I' for Inactive)
REMARK    1  A    between atoms: S1_2  and  N1_5 
REMARK    2  A    between atoms: N1_5  and  C3_7 
REMARK    3  A    between atoms: C3_7  and  C4_11 
ROOT
HETATM    1  C3  UNL     1      19.153 -21.574 -48.937  1.00  0.00     0.086 C 
HETATM    2  N2  UNL     1      20.241 -21.302 -48.318  1.00  0.00    -0.388 N 
ATOM      3  H21 UNL     1      20.266 -20.501 -47.688  1.00  0.00     0.157 HD
ATOM      4  H22 UNL     1      21.055 -21.897 -48.474  1.00  0.00     0.157 HD
ENDROOT
BRANCH   1   5
HETATM    5  N1  UNL     1      19.117 -22.681 -49.807  1.00  0.00    -0.306 N 
ATOM      6  H1  UNL     1      19.425 -22.560 -50.772  1.00  0.00     0.176 HD
BRANCH   5   7
HETATM    7  S1  UNL     1      18.576 -24.219 -49.303  1.00  0.00     0.018 S 
HETATM    8  C1  UNL     1      19.668 -24.985 -48.431  1.00  0.00     0.136 C 
HETATM    9  C2  UNL     1      18.085 -25.258 -50.627  1.00  0.00     0.136 C 
HETATM   10  O1  UNL     1      17.434 -24.118 -48.312  1.00  0.00    -0.250 OA
ENDBRANCH   5   7
ENDBRANCH   1   5
BRANCH   1  11
HETATM   11  C4  UNL     1      17.975 -20.715 -48.712  1.00  0.00     0.053 C 
HETATM   12  C5  UNL     1      18.198 -19.242 -48.930  1.00  0.00     0.012 C 
HETATM   13  C6  UNL     1      17.429 -19.322 -50.207  1.00  0.00     0.002 C 
HETATM   14  C7  UNL     1      16.970 -20.699 -49.833  1.00  0.00     0.012 C 
ENDBRANCH   1  11
TORSDOF 3
ENDMDL
MODEL 5
REMARK VINA RESULT: -4.422545520      2.509      3.336
REMARK  3 active torsions:
REMARK  status: ('A' for Active; 'I' for Inactive)
REMARK    1  A    between atoms: S1_2  and  N1_5 
REMARK    2  A    between atoms: N1_5  and  C3_7 
REMARK    3  A    between atoms: C3_7  and  C4_11 
ROOT
HETATM    1  C3  UNL     1      20.442 -22.198 -48.744  1.00  0.00     0.086 C 
HETATM    2  N2  UNL     1      21.141 -22.934 -47.964  1.00  0.00    -0.388 N 
ATOM      3  H21 UNL     1      21.724 -22.491 -47.254  1.00  0.00     0.157 HD
ATOM      4  H22 UNL     1      21.096 -23.947 -48.074  1.00  0.00     0.157 HD
ENDROOT
BRANCH   1   5
HETATM    5  N1  UNL     1      19.635 -22.810 -49.724  1.00  0.00    -0.306 N 
ATOM      6  H1  UNL     1      19.790 -22.578 -50.705  1.00  0.00     0.176 HD
BRANCH   5   7
HETATM    7  S1  UNL     1      18.408 -23.927 -49.326  1.00  0.00     0.018 S 
HETATM    8  C1  UNL     1      18.013 -24.853 -50.561  1.00  0.00     0.136 C 
HETATM    9  C2  UNL     1      16.953 -23.175 -48.700  1.00  0.00     0.136 C 
HETATM   10  O1  UNL     1      18.889 -24.963 -48.330  1.00  0.00    -0.250 OA
ENDBRANCH   5   7
ENDBRANCH   1   5
BRANCH   1  11
HETATM   11  C4  UNL     1      20.507 -20.733 -48.584  1.00  0.00     0.053 C 
HETATM   12  C5  UNL     1      21.890 -20.159 -48.441  1.00  0.00     0.012 C 
HETATM   13  C6  UNL     1      21.807 -19.628 -49.835  1.00  0.00     0.002 C 
HETATM   14  C7  UNL     1      20.341 -19.942 -49.856  1.00  0.00     0.012 C 
ENDBRANCH   1  11
TORSDOF 3
ENDMDL
