MODEL 1
REMARK VINA RESULT: -7.579183711      0.000      0.000
REMARK  10 active torsions:
REMARK  status: ('A' for Active; 'I' for Inactive)
REMARK    1  A    between atoms: C2_2  and  C4_4 
REMARK    2  A    between atoms: C4_4  and  N1_5 
REMARK    3  A    between atoms: N1_5  and  C5_7 
REMARK    4  A    between atoms: N2_9  and  C7_10 
REMARK    5  A    between atoms: C7_10  and  C8_11 
REMARK    6  A    between atoms: C8_11  and  C9_12 
REMARK    7  A    between atoms: C9_12  and  C10_13 
REMARK       I    between atoms: C10_13  and  N3_15 
REMARK    8  A    between atoms: N3_15  and  C11_17 
REMARK    9  A    between atoms: C12_18  and  C13_19 
REMARK   10  A    between atoms: C24_35  and  C25_36 
ROOT
HETATM    1  C10 UNL     1      22.380   4.579  19.904  1.00  0.00     0.218 C 
HETATM    2  O1  UNL     1      21.349   4.976  20.503  1.00  0.00    -0.274 OA
HETATM    3  N3  UNL     1      22.912   3.300  20.282  1.00  0.00    -0.352 N 
ATOM      4  H3  UNL     1      23.747   2.953  19.810  1.00  0.00     0.163 HD
ENDROOT
BRANCH   1   5
HETATM    5  C9  UNL     1      23.015   5.380  18.866  1.00  0.00     0.104 C 
BRANCH   5   6
HETATM    6  C8  UNL     1      22.982   4.823  17.475  1.00  0.00     0.037 C 
BRANCH   6   7
HETATM    7  C7  UNL     1      21.640   4.310  17.134  1.00  0.00     0.238 C 
BRANCH   7   8
HETATM    8  N2  UNL     1      21.321   4.505  15.770  1.00  0.00    -0.063 N 
HETATM    9  C6  UNL     1      21.819   3.573  14.791  1.00  0.00     0.263 C 
HETATM   10  C5  UNL     1      21.186   4.187  13.517  1.00  0.00     0.115 C 
HETATM   11  C24 UNL     1      20.558   5.371  14.143  1.00  0.00     0.039 C 
HETATM   12  C23 UNL     1      19.945   4.792  15.408  1.00  0.00     0.251 C 
HETATM   13  C26 UNL     1      21.644   5.781  15.155  1.00  0.00     0.251 C 
BRANCH  10  14
HETATM   14  N1  UNL     1      20.345   3.194  12.976  1.00  0.00    -0.414 N 
ATOM     15  H1  UNL     1      19.678   2.700  13.570  1.00  0.00     0.153 HD
BRANCH  14  16
HETATM   16  C4  UNL     1      20.438   2.893  11.598  1.00  0.00     0.118 C 
BRANCH  16  17
HETATM   17  C2  UNL     1      19.140   3.181  10.852  1.00  0.00    -0.005 C 
HETATM   18  C1  UNL     1      19.317   2.869   9.375  1.00  0.00     0.011 C 
HETATM   19  C3  UNL     1      18.103   2.208  11.386  1.00  0.00     0.011 C 
ENDBRANCH  16  17
ENDBRANCH  14  16
ENDBRANCH  10  14
BRANCH  11  20
HETATM   20  C25 UNL     1      19.876   6.414  13.432  1.00  0.00     0.100 C 
HETATM   21 BR2  UNL     1      20.675   6.659  11.662  1.00  0.00    -0.096 Br
ENDBRANCH  11  20
ENDBRANCH   7   8
ENDBRANCH   6   7
ENDBRANCH   5   6
ENDBRANCH   1   5
BRANCH   3  22
HETATM   22  C11 UNL     1      22.291   2.476  21.326  1.00  0.00     0.133 C 
HETATM   23  C12 UNL     1      23.247   2.223  22.436  1.00  0.00     0.112 C 
HETATM   24  N4  UNL     1      23.598   0.870  22.693  1.00  0.00    -0.350 N 
HETATM   25  C16 UNL     1      22.882  -0.256  22.231  1.00  0.00     0.249 C 
ATOM     26  H4  UNL     1      24.432   0.699  23.254  1.00  0.00     0.163 HD
HETATM   27  O2  UNL     1      23.184  -1.444  22.596  1.00  0.00    -0.268 OA
HETATM   28  C17 UNL     1      21.784   0.012  21.318  1.00  0.00     0.031 C 
HETATM   29  C18 UNL     1      20.901  -0.935  21.054  1.00  0.00     0.017 C 
HETATM   30  C22 UNL     1      21.646   1.317  20.685  1.00  0.00     0.099 C 
HETATM   31  C19 UNL     1      19.764  -0.750  20.146  1.00  0.00     0.300 C 
HETATM   32  N5  UNL     1      19.423   0.608  19.866  1.00  0.00     0.089 N 
HETATM   33  C20 UNL     1      18.002   0.770  20.205  1.00  0.00     0.310 C 
HETATM   34  C21 UNL     1      20.132   1.589  20.623  1.00  0.00     0.300 C 
HETATM   35 BR1  UNL     1      22.247   1.188  18.843  1.00  0.00    -0.076 Br
BRANCH  23  36
HETATM   36  C13 UNL     1      22.808   2.847  23.754  1.00  0.00     0.002 C 
HETATM   37  C14 UNL     1      23.337   2.094  24.941  1.00  0.00     0.011 C 
HETATM   38  C15 UNL     1      23.412   4.243  23.801  1.00  0.00     0.011 C 
ENDBRANCH  23  36
ENDBRANCH   3  22
TORSDOF 10
ENDMDL
MODEL 2
REMARK VINA RESULT: -7.575030475      1.615      2.136
REMARK  10 active torsions:
REMARK  status: ('A' for Active; 'I' for Inactive)
REMARK    1  A    between atoms: C2_2  and  C4_4 
REMARK    2  A    between atoms: C4_4  and  N1_5 
REMARK    3  A    between atoms: N1_5  and  C5_7 
REMARK    4  A    between atoms: N2_9  and  C7_10 
REMARK    5  A    between atoms: C7_10  and  C8_11 
REMARK    6  A    between atoms: C8_11  and  C9_12 
REMARK    7  A    between atoms: C9_12  and  C10_13 
REMARK       I    between atoms: C10_13  and  N3_15 
REMARK    8  A    between atoms: N3_15  and  C11_17 
REMARK    9  A    between atoms: C12_18  and  C13_19 
REMARK   10  A    between atoms: C24_35  and  C25_36 
ROOT
HETATM    1  C10 UNL     1      22.456   4.153  20.515  1.00  0.00     0.218 C 
HETATM    2  O1  UNL     1      21.468   4.508  21.204  1.00  0.00    -0.274 OA
HETATM    3  N3  UNL     1      22.961   2.824  20.717  1.00  0.00    -0.352 N 
ATOM      4  H3  UNL     1      23.761   2.510  20.168  1.00  0.00     0.163 HD
ENDROOT
BRANCH   1   5
HETATM    5  C9  UNL     1      23.071   5.050  19.545  1.00  0.00     0.104 C 
BRANCH   5   6
HETATM    6  C8  UNL     1      22.966   4.653  18.104  1.00  0.00     0.037 C 
BRANCH   6   7
HETATM    7  C7  UNL     1      21.591   4.244  17.757  1.00  0.00     0.238 C 
BRANCH   7   8
HETATM    8  N2  UNL     1      21.380   4.198  16.360  1.00  0.00    -0.063 N 
HETATM    9  C6  UNL     1      20.056   4.422  15.841  1.00  0.00     0.263 C 
HETATM   10  C5  UNL     1      20.357   4.306  14.326  1.00  0.00     0.115 C 
HETATM   11  C24 UNL     1      21.792   3.960  14.423  1.00  0.00     0.039 C 
HETATM   12  C23 UNL     1      22.293   4.918  15.492  1.00  0.00     0.251 C 
HETATM   13  C26 UNL     1      21.785   3.007  15.633  1.00  0.00     0.251 C 
BRANCH  10  14
HETATM   14  N1  UNL     1      20.008   5.547  13.757  1.00  0.00    -0.414 N 
ATOM     15  H1  UNL     1      19.957   6.386  14.335  1.00  0.00     0.153 HD
BRANCH  14  16
HETATM   16  C4  UNL     1      19.730   5.612  12.372  1.00  0.00     0.118 C 
BRANCH  16  17
HETATM   17  C2  UNL     1      20.619   6.617  11.648  1.00  0.00    -0.005 C 
HETATM   18  C1  UNL     1      21.601   7.234  12.630  1.00  0.00     0.011 C 
HETATM   19  C3  UNL     1      21.439   5.831  10.640  1.00  0.00     0.011 C 
ENDBRANCH  16  17
ENDBRANCH  14  16
ENDBRANCH  10  14
BRANCH  11  20
HETATM   20  C25 UNL     1      22.636   3.626  13.311  1.00  0.00     0.100 C 
HETATM   21 BR2  UNL     1      21.730   2.350  12.135  1.00  0.00    -0.096 Br
ENDBRANCH  11  20
ENDBRANCH   7   8
ENDBRANCH   6   7
ENDBRANCH   5   6
ENDBRANCH   1   5
BRANCH   3  22
HETATM   22  C11 UNL     1      22.360   1.903  21.689  1.00  0.00     0.133 C 
HETATM   23  C12 UNL     1      23.286   1.658  22.825  1.00  0.00     0.112 C 
HETATM   24  N4  UNL     1      23.724   0.320  23.028  1.00  0.00    -0.350 N 
HETATM   25  C16 UNL     1      23.112  -0.826  22.478  1.00  0.00     0.249 C 
ATOM     26  H4  UNL     1      24.545   0.179  23.616  1.00  0.00     0.163 HD
HETATM   27  O2  UNL     1      23.484  -2.008  22.794  1.00  0.00    -0.268 OA
HETATM   28  C17 UNL     1      22.034  -0.587  21.532  1.00  0.00     0.031 C 
HETATM   29  C18 UNL     1      21.234  -1.579  21.181  1.00  0.00     0.017 C 
HETATM   30  C22 UNL     1      21.827   0.737  20.961  1.00  0.00     0.099 C 
HETATM   31  C19 UNL     1      20.124  -1.425  20.234  1.00  0.00     0.300 C 
HETATM   32  N5  UNL     1      19.697  -0.082  20.010  1.00  0.00     0.089 N 
HETATM   33  C20 UNL     1      18.255  -0.038  20.294  1.00  0.00     0.310 C 
HETATM   34  C21 UNL     1      20.301   0.905  20.846  1.00  0.00     0.300 C 
HETATM   35 BR1  UNL     1      22.510   0.751  19.143  1.00  0.00    -0.076 Br
BRANCH  23  36
HETATM   36  C13 UNL     1      22.751   2.177  24.153  1.00  0.00     0.002 C 
HETATM   37  C14 UNL     1      23.265   1.383  25.320  1.00  0.00     0.011 C 
HETATM   38  C15 UNL     1      23.270   3.597  24.310  1.00  0.00     0.011 C 
ENDBRANCH  23  36
ENDBRANCH   3  22
TORSDOF 10
ENDMDL
MODEL 3
REMARK VINA RESULT: -7.502080180      2.809      3.808
REMARK  10 active torsions:
REMARK  status: ('A' for Active; 'I' for Inactive)
REMARK    1  A    between atoms: C2_2  and  C4_4 
REMARK    2  A    between atoms: C4_4  and  N1_5 
REMARK    3  A    between atoms: N1_5  and  C5_7 
REMARK    4  A    between atoms: N2_9  and  C7_10 
REMARK    5  A    between atoms: C7_10  and  C8_11 
REMARK    6  A    between atoms: C8_11  and  C9_12 
REMARK    7  A    between atoms: C9_12  and  C10_13 
REMARK       I    between atoms: C10_13  and  N3_15 
REMARK    8  A    between atoms: N3_15  and  C11_17 
REMARK    9  A    between atoms: C12_18  and  C13_19 
REMARK   10  A    between atoms: C24_35  and  C25_36 
ROOT
HETATM    1  C10 UNL     1      23.055   4.925  20.635  1.00  0.00     0.218 C 
HETATM    2  O1  UNL     1      22.019   4.491  21.198  1.00  0.00    -0.274 OA
HETATM    3  N3  UNL     1      24.313   4.664  21.275  1.00  0.00    -0.352 N 
ATOM      4  H3  UNL     1      25.170   5.004  20.839  1.00  0.00     0.163 HD
ENDROOT
BRANCH   1   5
HETATM    5  C9  UNL     1      22.990   5.664  19.381  1.00  0.00     0.104 C 
BRANCH   5   6
HETATM    6  C8  UNL     1      23.113   4.862  18.122  1.00  0.00     0.037 C 
BRANCH   6   7
HETATM    7  C7  UNL     1      21.863   4.135  17.824  1.00  0.00     0.238 C 
BRANCH   7   8
HETATM    8  N2  UNL     1      21.557   4.136  16.443  1.00  0.00    -0.063 N 
HETATM    9  C6  UNL     1      20.217   4.449  16.020  1.00  0.00     0.263 C 
HETATM   10  C5  UNL     1      20.410   4.353  14.485  1.00  0.00     0.115 C 
HETATM   11  C24 UNL     1      21.826   3.923  14.478  1.00  0.00     0.039 C 
HETATM   12  C23 UNL     1      22.452   4.824  15.530  1.00  0.00     0.251 C 
HETATM   13  C26 UNL     1      21.842   2.942  15.665  1.00  0.00     0.251 C 
BRANCH  10  14
HETATM   14  N1  UNL     1      20.099   5.626  13.967  1.00  0.00    -0.414 N 
ATOM     15  H1  UNL     1      20.124   6.450  14.568  1.00  0.00     0.153 HD
BRANCH  14  16
HETATM   16  C4  UNL     1      19.750   5.744  12.602  1.00  0.00     0.118 C 
BRANCH  16  17
HETATM   17  C2  UNL     1      20.635   6.740  11.861  1.00  0.00    -0.005 C 
HETATM   18  C1  UNL     1      21.660   7.326  12.817  1.00  0.00     0.011 C 
HETATM   19  C3  UNL     1      21.407   5.949  10.819  1.00  0.00     0.011 C 
ENDBRANCH  16  17
ENDBRANCH  14  16
ENDBRANCH  10  14
BRANCH  11  20
HETATM   20  C25 UNL     1      22.572   3.568  13.305  1.00  0.00     0.100 C 
HETATM   21 BR2  UNL     1      21.508   2.395  12.156  1.00  0.00    -0.096 Br
ENDBRANCH  11  20
ENDBRANCH   7   8
ENDBRANCH   6   7
ENDBRANCH   5   6
ENDBRANCH   1   5
BRANCH   3  22
HETATM   22  C11 UNL     1      24.405   3.923  22.539  1.00  0.00     0.133 C 
HETATM   23  C12 UNL     1      25.002   4.770  23.605  1.00  0.00     0.112 C 
HETATM   24  N4  UNL     1      26.225   4.325  24.177  1.00  0.00    -0.350 N 
HETATM   25  C16 UNL     1      26.739   3.014  24.076  1.00  0.00     0.249 C 
ATOM     26  H4  UNL     1      26.773   5.007  24.702  1.00  0.00     0.163 HD
HETATM   27  O2  UNL     1      27.785   2.648  24.713  1.00  0.00    -0.268 OA
HETATM   28  C17 UNL     1      26.011   2.106  23.206  1.00  0.00     0.031 C 
HETATM   29  C18 UNL     1      26.253   0.807  23.261  1.00  0.00     0.017 C 
HETATM   30  C22 UNL     1      25.017   2.610  22.269  1.00  0.00     0.099 C 
HETATM   31  C19 UNL     1      25.565  -0.179  22.420  1.00  0.00     0.300 C 
HETATM   32  N5  UNL     1      24.349   0.272  21.824  1.00  0.00     0.089 N 
HETATM   33  C20 UNL     1      23.303  -0.685  22.211  1.00  0.00     0.310 C 
HETATM   34  C21 UNL     1      23.895   1.557  22.247  1.00  0.00     0.300 C 
HETATM   35 BR1  UNL     1      25.784   2.618  20.484  1.00  0.00    -0.076 Br
BRANCH  23  36
HETATM   36  C13 UNL     1      24.036   5.064  24.744  1.00  0.00     0.002 C 
HETATM   37  C14 UNL     1      23.528   3.809  25.394  1.00  0.00     0.011 C 
HETATM   38  C15 UNL     1      24.820   5.831  25.798  1.00  0.00     0.011 C 
ENDBRANCH  23  36
ENDBRANCH   3  22
TORSDOF 10
ENDMDL
MODEL 4
REMARK VINA RESULT: -7.434042876      2.536      9.578
REMARK  10 active torsions:
REMARK  status: ('A' for Active; 'I' for Inactive)
REMARK    1  A    between atoms: C2_2  and  C4_4 
REMARK    2  A    between atoms: C4_4  and  N1_5 
REMARK    3  A    between atoms: N1_5  and  C5_7 
REMARK    4  A    between atoms: N2_9  and  C7_10 
REMARK    5  A    between atoms: C7_10  and  C8_11 
REMARK    6  A    between atoms: C8_11  and  C9_12 
REMARK    7  A    between atoms: C9_12  and  C10_13 
REMARK       I    between atoms: C10_13  and  N3_15 
REMARK    8  A    between atoms: N3_15  and  C11_17 
REMARK    9  A    between atoms: C12_18  and  C13_19 
REMARK   10  A    between atoms: C24_35  and  C25_36 
ROOT
HETATM    1  C10 UNL     1      20.352   3.369  16.884  1.00  0.00     0.218 C 
HETATM    2  O1  UNL     1      21.485   2.852  17.044  1.00  0.00    -0.274 OA
HETATM    3  N3  UNL     1      20.209   4.339  15.835  1.00  0.00    -0.352 N 
ATOM      4  H3  UNL     1      19.298   4.772  15.682  1.00  0.00     0.163 HD
ENDROOT
BRANCH   1   5
HETATM    5  C9  UNL     1      19.220   3.002  17.725  1.00  0.00     0.104 C 
BRANCH   5   6
HETATM    6  C8  UNL     1      19.542   2.353  19.037  1.00  0.00     0.037 C 
BRANCH   6   7
HETATM    7  C7  UNL     1      19.809   3.360  20.083  1.00  0.00     0.238 C 
BRANCH   7   8
HETATM    8  N2  UNL     1      20.994   3.085  20.804  1.00  0.00    -0.063 N 
HETATM    9  C6  UNL     1      21.844   4.176  21.203  1.00  0.00     0.263 C 
HETATM   10  C5  UNL     1      22.938   3.379  21.958  1.00  0.00     0.115 C 
HETATM   11  C24 UNL     1      22.423   2.017  21.696  1.00  0.00     0.039 C 
HETATM   12  C23 UNL     1      20.929   2.175  21.933  1.00  0.00     0.251 C 
HETATM   13  C26 UNL     1      21.954   2.154  20.236  1.00  0.00     0.251 C 
BRANCH  10  14
HETATM   14  N1  UNL     1      22.925   3.852  23.286  1.00  0.00    -0.414 N 
ATOM     15  H1  UNL     1      22.154   3.620  23.911  1.00  0.00     0.153 HD
BRANCH  14  16
HETATM   16  C4  UNL     1      23.999   4.653  23.738  1.00  0.00     0.118 C 
BRANCH  16  17
HETATM   17  C2  UNL     1      24.327   4.409  25.206  1.00  0.00    -0.005 C 
HETATM   18  C1  UNL     1      23.637   5.454  26.066  1.00  0.00     0.011 C 
HETATM   19  C3  UNL     1      23.721   3.066  25.573  1.00  0.00     0.011 C 
ENDBRANCH  16  17
ENDBRANCH  14  16
ENDBRANCH  10  14
BRANCH  11  20
HETATM   20  C25 UNL     1      23.082   0.801  22.078  1.00  0.00     0.100 C 
HETATM   21 BR2  UNL     1      25.013   1.091  22.208  1.00  0.00    -0.096 Br
ENDBRANCH  11  20
ENDBRANCH   7   8
ENDBRANCH   6   7
ENDBRANCH   5   6
ENDBRANCH   1   5
BRANCH   3  22
HETATM   22  C11 UNL     1      21.334   4.726  14.974  1.00  0.00     0.133 C 
HETATM   23  C12 UNL     1      21.736   6.133  15.234  1.00  0.00     0.112 C 
HETATM   24  N4  UNL     1      21.629   7.048  14.151  1.00  0.00    -0.350 N 
HETATM   25  C16 UNL     1      21.505   6.687  12.792  1.00  0.00     0.249 C 
ATOM     26  H4  UNL     1      21.642   8.043  14.374  1.00  0.00     0.163 HD
HETATM   27  O2  UNL     1      21.532   7.558  11.857  1.00  0.00    -0.268 OA
HETATM   28  C17 UNL     1      21.345   5.268  12.518  1.00  0.00     0.031 C 
HETATM   29  C18 UNL     1      21.496   4.816  11.285  1.00  0.00     0.017 C 
HETATM   30  C22 UNL     1      21.018   4.337  13.588  1.00  0.00     0.099 C 
HETATM   31  C19 UNL     1      21.352   3.402  10.920  1.00  0.00     0.300 C 
HETATM   32  N5  UNL     1      21.435   2.482  12.008  1.00  0.00     0.089 N 
HETATM   33  C20 UNL     1      22.490   1.515  11.671  1.00  0.00     0.310 C 
HETATM   34  C21 UNL     1      21.796   3.047  13.268  1.00  0.00     0.300 C 
HETATM   35 BR1  UNL     1      19.135   3.876  13.466  1.00  0.00    -0.076 Br
BRANCH  23  36
HETATM   36  C13 UNL     1      23.141   6.255  15.808  1.00  0.00     0.002 C 
HETATM   37  C14 UNL     1      23.272   5.568  17.136  1.00  0.00     0.011 C 
HETATM   38  C15 UNL     1      24.074   5.546  14.839  1.00  0.00     0.011 C 
ENDBRANCH  23  36
ENDBRANCH   3  22
TORSDOF 10
ENDMDL
MODEL 5
REMARK VINA RESULT: -7.426323616      2.662      9.963
REMARK  10 active torsions:
REMARK  status: ('A' for Active; 'I' for Inactive)
REMARK    1  A    between atoms: C2_2  and  C4_4 
REMARK    2  A    between atoms: C4_4  and  N1_5 
REMARK    3  A    between atoms: N1_5  and  C5_7 
REMARK    4  A    between atoms: N2_9  and  C7_10 
REMARK    5  A    between atoms: C7_10  and  C8_11 
REMARK    6  A    between atoms: C8_11  and  C9_12 
REMARK    7  A    between atoms: C9_12  and  C10_13 
REMARK       I    between atoms: C10_13  and  N3_15 
REMARK    8  A    between atoms: N3_15  and  C11_17 
REMARK    9  A    between atoms: C12_18  and  C13_19 
REMARK   10  A    between atoms: C24_35  and  C25_36 
ROOT
HETATM    1  C10 UNL     1      20.434   3.415  16.852  1.00  0.00     0.218 C 
HETATM    2  O1  UNL     1      21.633   3.070  16.700  1.00  0.00    -0.274 OA
HETATM    3  N3  UNL     1      19.845   4.228  15.826  1.00  0.00    -0.352 N 
ATOM      4  H3  UNL     1      18.873   4.520  15.923  1.00  0.00     0.163 HD
ENDROOT
BRANCH   1   5
HETATM    5  C9  UNL     1      19.665   3.007  18.020  1.00  0.00     0.104 C 
BRANCH   5   6
HETATM    6  C8  UNL     1      20.440   2.438  19.169  1.00  0.00     0.037 C 
BRANCH   6   7
HETATM    7  C7  UNL     1      20.566   3.414  20.269  1.00  0.00     0.238 C 
BRANCH   7   8
HETATM    8  N2  UNL     1      21.683   3.151  21.096  1.00  0.00    -0.063 N 
HETATM    9  C6  UNL     1      22.439   4.255  21.629  1.00  0.00     0.263 C 
HETATM   10  C5  UNL     1      23.484   3.466  22.457  1.00  0.00     0.115 C 
HETATM   11  C24 UNL     1      23.060   2.099  22.083  1.00  0.00     0.039 C 
HETATM   12  C23 UNL     1      21.545   2.185  22.170  1.00  0.00     0.251 C 
HETATM   13  C26 UNL     1      22.737   2.289  20.589  1.00  0.00     0.251 C 
BRANCH  10  14
HETATM   14  N1  UNL     1      23.315   3.872  23.796  1.00  0.00    -0.414 N 
ATOM     15  H1  UNL     1      22.567   3.478  24.367  1.00  0.00     0.153 HD
BRANCH  14  16
HETATM   16  C4  UNL     1      24.200   4.833  24.337  1.00  0.00     0.118 C 
BRANCH  16  17
HETATM   17  C2  UNL     1      24.502   4.581  25.810  1.00  0.00    -0.005 C 
HETATM   18  C1  UNL     1      23.690   5.535  26.671  1.00  0.00     0.011 C 
HETATM   19  C3  UNL     1      24.011   3.178  26.124  1.00  0.00     0.011 C 
ENDBRANCH  16  17
ENDBRANCH  14  16
ENDBRANCH  10  14
BRANCH  11  20
HETATM   20  C25 UNL     1      23.731   0.893  22.476  1.00  0.00     0.100 C 
HETATM   21 BR2  UNL     1      25.616   1.260  22.854  1.00  0.00    -0.096 Br
ENDBRANCH  11  20
ENDBRANCH   7   8
ENDBRANCH   6   7
ENDBRANCH   5   6
ENDBRANCH   1   5
BRANCH   3  22
HETATM   22  C11 UNL     1      20.600   4.652  14.640  1.00  0.00     0.133 C 
HETATM   23  C12 UNL     1      20.986   6.084  14.746  1.00  0.00     0.112 C 
HETATM   24  N4  UNL     1      20.477   6.967  13.755  1.00  0.00    -0.350 N 
HETATM   25  C16 UNL     1      19.932   6.569  12.515  1.00  0.00     0.249 C 
ATOM     26  H4  UNL     1      20.507   7.966  13.956  1.00  0.00     0.163 HD
HETATM   27  O2  UNL     1      19.600   7.418  11.619  1.00  0.00    -0.268 OA
HETATM   28  C17 UNL     1      19.770   5.138  12.315  1.00  0.00     0.031 C 
HETATM   29  C18 UNL     1      19.530   4.666  11.104  1.00  0.00     0.017 C 
HETATM   30  C22 UNL     1      19.867   4.216  13.438  1.00  0.00     0.099 C 
HETATM   31  C19 UNL     1      19.353   3.238  10.814  1.00  0.00     0.300 C 
HETATM   32  N5  UNL     1      19.841   2.348  11.818  1.00  0.00     0.089 N 
HETATM   33  C20 UNL     1      20.778   1.429  11.156  1.00  0.00     0.310 C 
HETATM   34  C21 UNL     1      20.566   2.961  12.885  1.00  0.00     0.300 C 
HETATM   35 BR1  UNL     1      18.078   3.657  13.948  1.00  0.00    -0.076 Br
BRANCH  23  36
HETATM   36  C13 UNL     1      22.492   6.290  14.822  1.00  0.00     0.002 C 
HETATM   37  C14 UNL     1      23.018   6.123  16.219  1.00  0.00     0.011 C 
HETATM   38  C15 UNL     1      23.128   5.205  13.968  1.00  0.00     0.011 C 
ENDBRANCH  23  36
ENDBRANCH   3  22
TORSDOF 10
ENDMDL
