MODEL 1
REMARK VINA RESULT: -7.919832080      0.000      0.000
REMARK  12 active torsions:
REMARK  status: ('A' for Active; 'I' for Inactive)
REMARK    1  A    between atoms: C4_6  and  N2_7 
REMARK       I    between atoms: N2_7  and  C5_9 
REMARK    2  A    between atoms: C5_9  and  C6_11 
REMARK    3  A    between atoms: C6_11  and  C7_13 
REMARK    4  A    between atoms: C7_13  and  N3_15 
REMARK       I    between atoms: N3_15  and  C9_17 
REMARK    5  A    between atoms: C9_17  and  C10_19 
REMARK       I    between atoms: C10_19  and  N4_21 
REMARK    6  A    between atoms: C11_23  and  C12_24 
REMARK    7  A    between atoms: C11_23  and  N5_28 
REMARK    8  A    between atoms: C12_24  and  C13_25 
REMARK    9  A    between atoms: N5_28  and  C16_30 
REMARK   10  A    between atoms: C16_30  and  C17_31 
REMARK   11  A    between atoms: C17_31  and  C18_32 
REMARK   12  A    between atoms: C18_32  and  C19_33 
ROOT
HETATM    1  C7  UNL     1      23.375   4.401  19.380  1.00  0.00     0.104 C 
HETATM    2  C8  UNL     1      23.005   5.877  19.528  1.00  0.00     0.034 C 
ENDROOT
BRANCH   1   3
HETATM    3  C6  UNL     1      22.872   3.813  18.075  1.00  0.00     0.172 C 
HETATM    4 BR1  UNL     1      22.970   5.238  16.752  1.00  0.00    -0.079 Br
BRANCH   3   5
HETATM    5  C5  UNL     1      21.455   3.366  18.181  1.00  0.00     0.252 C 
HETATM    6  N2  UNL     1      21.102   2.003  18.336  1.00  0.00    -0.158 N 
ATOM      7  H2  UNL     1      21.590   1.319  17.759  1.00  0.00     0.187 HD
HETATM    8  O1  UNL     1      20.557   4.241  18.130  1.00  0.00    -0.271 OA
BRANCH   6   9
HETATM    9  C4  UNL     1      20.202   1.566  19.160  1.00  0.00     0.686 A 
HETATM   10  N1  UNL     1      19.113   2.230  19.597  1.00  0.00    -0.187 N 
HETATM   11  C3  UNL     1      18.430   1.440  20.439  1.00  0.00     0.098 A 
ATOM     12  H1  UNL     1      18.851   3.179  19.331  1.00  0.00     0.184 HD
HETATM   13  C2  UNL     1      17.261   1.596  21.172  1.00  0.00     0.036 A 
HETATM   14  C20 UNL     1      19.086   0.237  20.555  1.00  0.00     0.079 A 
HETATM   15  C1  UNL     1      16.564   2.902  21.037  1.00  0.00     0.071 C 
HETATM   16  N7  UNL     1      16.745   0.651  21.973  1.00  0.00    -0.363 N 
HETATM   17  C22 UNL     1      17.391  -0.519  22.078  1.00  0.00     0.093 A 
HETATM   18  C23 UNL     1      15.501   0.908  22.711  1.00  0.00     0.155 C 
HETATM   19  C21 UNL     1      18.570  -0.746  21.372  1.00  0.00     0.050 A 
HETATM   20  N6  UNL     1      20.165   0.358  19.755  1.00  0.00    -0.189 N 
ATOM     21  H6  UNL     1      20.864  -0.372  19.618  1.00  0.00     0.184 HD
ENDBRANCH   6   9
ENDBRANCH   3   5
ENDBRANCH   1   3
BRANCH   1  22
HETATM   22  N3  UNL     1      22.698   3.717  20.471  1.00  0.00    -0.347 N 
HETATM   23  C9  UNL     1      23.350   3.312  21.665  1.00  0.00     0.310 C 
HETATM   24  O2  UNL     1      24.579   3.525  21.834  1.00  0.00    -0.262 OA
ATOM     25  H3  UNL     1      21.703   3.518  20.374  1.00  0.00     0.163 HD
BRANCH  23  26
HETATM   26  C10 UNL     1      22.572   2.622  22.752  1.00  0.00     0.314 C 
HETATM   27  O3  UNL     1      21.523   2.001  22.387  1.00  0.00    -0.262 OA
HETATM   28  N4  UNL     1      23.006   2.702  23.994  1.00  0.00    -0.309 N 
HETATM   29  C11 UNL     1      23.231   2.086  25.031  1.00  0.00     0.080 C 
ATOM     30  H4  UNL     1      23.258   3.675  24.162  1.00  0.00     0.170 HD
BRANCH  29  31
HETATM   31  C12 UNL     1      23.772   2.911  26.160  1.00  0.00     0.080 C 
BRANCH  31  32
HETATM   32  C13 UNL     1      24.214   4.282  25.894  1.00  0.00    -0.016 C 
HETATM   33  C14 UNL     1      23.790   5.377  26.806  1.00  0.00     0.010 C 
HETATM   34  C15 UNL     1      25.752   4.288  25.726  1.00  0.00     0.010 C 
ENDBRANCH  31  32
ENDBRANCH  29  31
BRANCH  29  35
HETATM   35  N5  UNL     1      22.996   0.722  25.217  1.00  0.00    -0.380 N 
ATOM     36  H5  UNL     1      22.180   0.513  25.791  1.00  0.00     0.160 HD
BRANCH  35  37
HETATM   37  C16 UNL     1      23.686  -0.420  24.752  1.00  0.00     0.121 C 
BRANCH  37  38
HETATM   38  C17 UNL     1      25.067  -0.252  24.235  1.00  0.00     0.020 C 
BRANCH  38  39
HETATM   39  C18 UNL     1      25.161  -0.074  22.741  1.00  0.00     0.012 C 
BRANCH  39  40
HETATM   40  C19 UNL     1      23.967  -0.768  22.058  1.00  0.00     0.085 C 
HETATM   41 BR2  UNL     1      23.879  -0.143  20.253  1.00  0.00    -0.097 Br
ENDBRANCH  39  40
ENDBRANCH  38  39
ENDBRANCH  37  38
ENDBRANCH  35  37
ENDBRANCH  29  35
ENDBRANCH  23  26
ENDBRANCH   1  22
TORSDOF 12
ENDMDL
MODEL 2
REMARK VINA RESULT: -7.864112156      1.473      1.701
REMARK  12 active torsions:
REMARK  status: ('A' for Active; 'I' for Inactive)
REMARK    1  A    between atoms: C4_6  and  N2_7 
REMARK       I    between atoms: N2_7  and  C5_9 
REMARK    2  A    between atoms: C5_9  and  C6_11 
REMARK    3  A    between atoms: C6_11  and  C7_13 
REMARK    4  A    between atoms: C7_13  and  N3_15 
REMARK       I    between atoms: N3_15  and  C9_17 
REMARK    5  A    between atoms: C9_17  and  C10_19 
REMARK       I    between atoms: C10_19  and  N4_21 
REMARK    6  A    between atoms: C11_23  and  C12_24 
REMARK    7  A    between atoms: C11_23  and  N5_28 
REMARK    8  A    between atoms: C12_24  and  C13_25 
REMARK    9  A    between atoms: N5_28  and  C16_30 
REMARK   10  A    between atoms: C16_30  and  C17_31 
REMARK   11  A    between atoms: C17_31  and  C18_32 
REMARK   12  A    between atoms: C18_32  and  C19_33 
ROOT
HETATM    1  C7  UNL     1      23.370   4.396  19.391  1.00  0.00     0.104 C 
HETATM    2  C8  UNL     1      23.008   5.874  19.535  1.00  0.00     0.034 C 
ENDROOT
BRANCH   1   3
HETATM    3  C6  UNL     1      22.865   3.809  18.087  1.00  0.00     0.172 C 
HETATM    4 BR1  UNL     1      22.963   5.233  16.764  1.00  0.00    -0.079 Br
BRANCH   3   5
HETATM    5  C5  UNL     1      21.449   3.361  18.194  1.00  0.00     0.252 C 
HETATM    6  N2  UNL     1      21.096   1.998  18.345  1.00  0.00    -0.158 N 
ATOM      7  H2  UNL     1      21.583   1.315  17.765  1.00  0.00     0.187 HD
HETATM    8  O1  UNL     1      20.551   4.237  18.146  1.00  0.00    -0.271 OA
BRANCH   6   9
HETATM    9  C4  UNL     1      20.197   1.559  19.169  1.00  0.00     0.686 A 
HETATM   10  N1  UNL     1      19.108   2.222  19.609  1.00  0.00    -0.187 N 
HETATM   11  C3  UNL     1      18.427   1.429  20.450  1.00  0.00     0.098 A 
ATOM     12  H1  UNL     1      18.845   3.171  19.345  1.00  0.00     0.184 HD
HETATM   13  C2  UNL     1      17.258   1.584  21.184  1.00  0.00     0.036 A 
HETATM   14  C20 UNL     1      19.083   0.226  20.562  1.00  0.00     0.079 A 
HETATM   15  C1  UNL     1      16.560   2.889  21.053  1.00  0.00     0.071 C 
HETATM   16  N7  UNL     1      16.744   0.636  21.984  1.00  0.00    -0.363 N 
HETATM   17  C22 UNL     1      17.390  -0.534  22.086  1.00  0.00     0.093 A 
HETATM   18  C23 UNL     1      15.500   0.891  22.724  1.00  0.00     0.155 C 
HETATM   19  C21 UNL     1      18.569  -0.759  21.378  1.00  0.00     0.050 A 
HETATM   20  N6  UNL     1      20.161   0.350  19.761  1.00  0.00    -0.189 N 
ATOM     21  H6  UNL     1      20.860  -0.380  19.622  1.00  0.00     0.184 HD
ENDBRANCH   6   9
ENDBRANCH   3   5
ENDBRANCH   1   3
BRANCH   1  22
HETATM   22  N3  UNL     1      22.687   3.719  20.483  1.00  0.00    -0.347 N 
HETATM   23  C9  UNL     1      23.344   3.268  21.657  1.00  0.00     0.310 C 
HETATM   24  O2  UNL     1      24.583   3.431  21.807  1.00  0.00    -0.262 OA
ATOM     25  H3  UNL     1      21.683   3.559  20.400  1.00  0.00     0.163 HD
BRANCH  23  26
HETATM   26  C10 UNL     1      22.560   2.588  22.746  1.00  0.00     0.314 C 
HETATM   27  O3  UNL     1      21.502   1.980  22.384  1.00  0.00    -0.262 OA
HETATM   28  N4  UNL     1      22.997   2.663  23.987  1.00  0.00    -0.309 N 
HETATM   29  C11 UNL     1      23.216   2.045  25.024  1.00  0.00     0.080 C 
ATOM     30  H4  UNL     1      23.261   3.634  24.154  1.00  0.00     0.170 HD
BRANCH  29  31
HETATM   31  C12 UNL     1      23.770   2.865  26.151  1.00  0.00     0.080 C 
BRANCH  31  32
HETATM   32  C13 UNL     1      24.246   4.223  25.879  1.00  0.00    -0.016 C 
HETATM   33  C14 UNL     1      23.818   5.338  26.766  1.00  0.00     0.010 C 
HETATM   34  C15 UNL     1      25.788   4.197  25.753  1.00  0.00     0.010 C 
ENDBRANCH  31  32
ENDBRANCH  29  31
BRANCH  29  35
HETATM   35  N5  UNL     1      22.965   0.685  25.211  1.00  0.00    -0.380 N 
ATOM     36  H5  UNL     1      22.113   0.485  25.735  1.00  0.00     0.160 HD
BRANCH  35  37
HETATM   37  C16 UNL     1      23.679  -0.465  24.805  1.00  0.00     0.121 C 
BRANCH  37  38
HETATM   38  C17 UNL     1      24.855  -0.889  25.605  1.00  0.00     0.020 C 
BRANCH  38  39
HETATM   39  C18 UNL     1      26.147  -0.207  25.233  1.00  0.00     0.012 C 
BRANCH  39  40
HETATM   40  C19 UNL     1      26.693   0.571  26.445  1.00  0.00     0.085 C 
HETATM   41 BR2  UNL     1      25.713   0.015  27.990  1.00  0.00    -0.097 Br
ENDBRANCH  39  40
ENDBRANCH  38  39
ENDBRANCH  37  38
ENDBRANCH  35  37
ENDBRANCH  29  35
ENDBRANCH  23  26
ENDBRANCH   1  22
TORSDOF 12
ENDMDL
MODEL 3
REMARK VINA RESULT: -7.714670366      1.175      1.262
REMARK  12 active torsions:
REMARK  status: ('A' for Active; 'I' for Inactive)
REMARK    1  A    between atoms: C4_6  and  N2_7 
REMARK       I    between atoms: N2_7  and  C5_9 
REMARK    2  A    between atoms: C5_9  and  C6_11 
REMARK    3  A    between atoms: C6_11  and  C7_13 
REMARK    4  A    between atoms: C7_13  and  N3_15 
REMARK       I    between atoms: N3_15  and  C9_17 
REMARK    5  A    between atoms: C9_17  and  C10_19 
REMARK       I    between atoms: C10_19  and  N4_21 
REMARK    6  A    between atoms: C11_23  and  C12_24 
REMARK    7  A    between atoms: C11_23  and  N5_28 
REMARK    8  A    between atoms: C12_24  and  C13_25 
REMARK    9  A    between atoms: N5_28  and  C16_30 
REMARK   10  A    between atoms: C16_30  and  C17_31 
REMARK   11  A    between atoms: C17_31  and  C18_32 
REMARK   12  A    between atoms: C18_32  and  C19_33 
ROOT
HETATM    1  C7  UNL     1      23.070   3.208  18.832  1.00  0.00     0.104 C 
HETATM    2  C8  UNL     1      23.697   4.598  18.933  1.00  0.00     0.034 C 
ENDROOT
BRANCH   1   3
HETATM    3  C6  UNL     1      21.970   3.151  17.789  1.00  0.00     0.172 C 
HETATM    4 BR1  UNL     1      22.216   4.704  16.641  1.00  0.00    -0.079 Br
BRANCH   3   5
HETATM    5  C5  UNL     1      20.617   3.231  18.407  1.00  0.00     0.252 C 
HETATM    6  N2  UNL     1      19.642   2.221  18.225  1.00  0.00    -0.158 N 
ATOM      7  H2  UNL     1      19.521   1.843  17.286  1.00  0.00     0.187 HD
HETATM    8  O1  UNL     1      20.352   4.236  19.110  1.00  0.00    -0.271 OA
BRANCH   6   9
HETATM    9  C4  UNL     1      18.894   1.744  19.170  1.00  0.00     0.686 A 
HETATM   10  N1  UNL     1      17.926   2.397  19.845  1.00  0.00    -0.187 N 
HETATM   11  C3  UNL     1      17.382   1.561  20.743  1.00  0.00     0.098 A 
ATOM     12  H1  UNL     1      17.652   3.368  19.697  1.00  0.00     0.184 HD
HETATM   13  C2  UNL     1      16.373   1.688  21.688  1.00  0.00     0.036 A 
HETATM   14  C20 UNL     1      18.006   0.339  20.652  1.00  0.00     0.079 A 
HETATM   15  C1  UNL     1      15.708   3.015  21.774  1.00  0.00     0.071 C 
HETATM   16  N7  UNL     1      15.980   0.698  22.504  1.00  0.00    -0.363 N 
HETATM   17  C22 UNL     1      16.593  -0.490  22.408  1.00  0.00     0.093 A 
HETATM   18  C23 UNL     1      14.902   0.926  23.475  1.00  0.00     0.155 C 
HETATM   19  C21 UNL     1      17.615  -0.690  21.482  1.00  0.00     0.050 A 
HETATM   20  N6  UNL     1      18.924   0.497  19.677  1.00  0.00    -0.189 N 
ATOM     21  H6  UNL     1      19.561  -0.237  19.364  1.00  0.00     0.184 HD
ENDBRANCH   6   9
ENDBRANCH   3   5
ENDBRANCH   1   3
BRANCH   1  22
HETATM   22  N3  UNL     1      22.469   2.956  20.133  1.00  0.00    -0.347 N 
HETATM   23  C9  UNL     1      23.159   2.337  21.207  1.00  0.00     0.310 C 
HETATM   24  O2  UNL     1      24.353   1.961  21.077  1.00  0.00    -0.262 OA
ATOM     25  H3  UNL     1      21.500   3.238  20.281  1.00  0.00     0.163 HD
BRANCH  23  26
HETATM   26  C10 UNL     1      22.467   2.126  22.526  1.00  0.00     0.314 C 
HETATM   27  O3  UNL     1      21.307   1.604  22.477  1.00  0.00    -0.262 OA
HETATM   28  N4  UNL     1      23.082   2.490  23.634  1.00  0.00    -0.309 N 
HETATM   29  C11 UNL     1      23.377   2.172  24.781  1.00  0.00     0.080 C 
ATOM     30  H4  UNL     1      23.474   3.417  23.468  1.00  0.00     0.170 HD
BRANCH  29  31
HETATM   31  C12 UNL     1      24.174   3.189  25.541  1.00  0.00     0.080 C 
BRANCH  31  32
HETATM   32  C13 UNL     1      23.755   4.592  25.511  1.00  0.00    -0.016 C 
HETATM   33  C14 UNL     1      23.722   5.372  26.777  1.00  0.00     0.010 C 
HETATM   34  C15 UNL     1      24.585   5.339  24.440  1.00  0.00     0.010 C 
ENDBRANCH  31  32
ENDBRANCH  29  31
BRANCH  29  35
HETATM   35  N5  UNL     1      23.004   0.977  25.399  1.00  0.00    -0.380 N 
ATOM     36  H5  UNL     1      22.146   1.039  25.946  1.00  0.00     0.160 HD
BRANCH  35  37
HETATM   37  C16 UNL     1      23.602  -0.304  25.402  1.00  0.00     0.121 C 
BRANCH  37  38
HETATM   38  C17 UNL     1      24.128  -0.844  24.124  1.00  0.00     0.020 C 
BRANCH  38  39
HETATM   39  C18 UNL     1      23.214  -1.824  23.433  1.00  0.00     0.012 C 
BRANCH  39  40
HETATM   40  C19 UNL     1      23.104  -1.468  21.938  1.00  0.00     0.085 C 
HETATM   41 BR2  UNL     1      21.375  -2.013  21.330  1.00  0.00    -0.097 Br
ENDBRANCH  39  40
ENDBRANCH  38  39
ENDBRANCH  37  38
ENDBRANCH  35  37
ENDBRANCH  29  35
ENDBRANCH  23  26
ENDBRANCH   1  22
TORSDOF 12
ENDMDL
MODEL 4
REMARK VINA RESULT: -7.685445252      1.483      1.718
REMARK  12 active torsions:
REMARK  status: ('A' for Active; 'I' for Inactive)
REMARK    1  A    between atoms: C4_6  and  N2_7 
REMARK       I    between atoms: N2_7  and  C5_9 
REMARK    2  A    between atoms: C5_9  and  C6_11 
REMARK    3  A    between atoms: C6_11  and  C7_13 
REMARK    4  A    between atoms: C7_13  and  N3_15 
REMARK       I    between atoms: N3_15  and  C9_17 
REMARK    5  A    between atoms: C9_17  and  C10_19 
REMARK       I    between atoms: C10_19  and  N4_21 
REMARK    6  A    between atoms: C11_23  and  C12_24 
REMARK    7  A    between atoms: C11_23  and  N5_28 
REMARK    8  A    between atoms: C12_24  and  C13_25 
REMARK    9  A    between atoms: N5_28  and  C16_30 
REMARK   10  A    between atoms: C16_30  and  C17_31 
REMARK   11  A    between atoms: C17_31  and  C18_32 
REMARK   12  A    between atoms: C18_32  and  C19_33 
ROOT
HETATM    1  C7  UNL     1      22.703   2.978  18.525  1.00  0.00     0.104 C 
HETATM    2  C8  UNL     1      23.561   4.240  18.422  1.00  0.00     0.034 C 
ENDROOT
BRANCH   1   3
HETATM    3  C6  UNL     1      21.506   3.024  17.595  1.00  0.00     0.172 C 
HETATM    4 BR1  UNL     1      21.725   4.611  16.489  1.00  0.00    -0.079 Br
BRANCH   3   5
HETATM    5  C5  UNL     1      20.226   3.146  18.348  1.00  0.00     0.252 C 
HETATM    6  N2  UNL     1      19.187   2.191  18.233  1.00  0.00    -0.158 N 
ATOM      7  H2  UNL     1      18.955   1.853  17.299  1.00  0.00     0.187 HD
HETATM    8  O1  UNL     1      20.082   4.136  19.105  1.00  0.00    -0.271 OA
BRANCH   6   9
HETATM    9  C4  UNL     1      18.512   1.715  19.232  1.00  0.00     0.686 A 
HETATM   10  N1  UNL     1      17.578   2.362  19.959  1.00  0.00    -0.187 N 
HETATM   11  C3  UNL     1      17.111   1.532  20.904  1.00  0.00     0.098 A 
ATOM     12  H1  UNL     1      17.277   3.326  19.815  1.00  0.00     0.184 HD
HETATM   13  C2  UNL     1      16.163   1.657  21.911  1.00  0.00     0.036 A 
HETATM   14  C20 UNL     1      17.750   0.321  20.791  1.00  0.00     0.079 A 
HETATM   15  C1  UNL     1      15.480   2.972  22.020  1.00  0.00     0.071 C 
HETATM   16  N7  UNL     1      15.844   0.673  22.766  1.00  0.00    -0.363 N 
HETATM   17  C22 UNL     1      16.472  -0.505  22.649  1.00  0.00     0.093 A 
HETATM   18  C23 UNL     1      14.827   0.898  23.803  1.00  0.00     0.155 C 
HETATM   19  C21 UNL     1      17.435  -0.701  21.661  1.00  0.00     0.050 A 
HETATM   20  N6  UNL     1      18.600   0.478  19.755  1.00  0.00    -0.189 N 
ATOM     21  H6  UNL     1      19.228  -0.249  19.412  1.00  0.00     0.184 HD
ENDBRANCH   6   9
ENDBRANCH   3   5
ENDBRANCH   1   3
BRANCH   1  22
HETATM   22  N3  UNL     1      22.209   2.954  19.894  1.00  0.00    -0.347 N 
HETATM   23  C9  UNL     1      22.067   1.763  20.653  1.00  0.00     0.310 C 
HETATM   24  O2  UNL     1      22.363   0.644  20.160  1.00  0.00    -0.262 OA
ATOM     25  H3  UNL     1      21.950   3.838  20.331  1.00  0.00     0.163 HD
BRANCH  23  26
HETATM   26  C10 UNL     1      21.561   1.827  22.068  1.00  0.00     0.314 C 
HETATM   27  O3  UNL     1      20.509   1.157  22.321  1.00  0.00    -0.262 OA
HETATM   28  N4  UNL     1      22.215   2.561  22.946  1.00  0.00    -0.309 N 
HETATM   29  C11 UNL     1      22.675   2.612  24.082  1.00  0.00     0.080 C 
ATOM     30  H4  UNL     1      22.423   3.452  22.496  1.00  0.00     0.170 HD
BRANCH  29  31
HETATM   31  C12 UNL     1      23.360   3.898  24.435  1.00  0.00     0.080 C 
BRANCH  31  32
HETATM   32  C13 UNL     1      24.058   4.007  25.718  1.00  0.00    -0.016 C 
HETATM   33  C14 UNL     1      25.513   3.708  25.786  1.00  0.00     0.010 C 
HETATM   34  C15 UNL     1      23.765   5.397  26.331  1.00  0.00     0.010 C 
ENDBRANCH  31  32
ENDBRANCH  29  31
BRANCH  29  35
HETATM   35  N5  UNL     1      22.579   1.592  25.029  1.00  0.00    -0.380 N 
ATOM     36  H5  UNL     1      21.781   1.680  25.659  1.00  0.00     0.160 HD
BRANCH  35  37
HETATM   37  C16 UNL     1      23.388   0.458  25.274  1.00  0.00     0.121 C 
BRANCH  37  38
HETATM   38  C17 UNL     1      23.833  -0.356  24.116  1.00  0.00     0.020 C 
BRANCH  38  39
HETATM   39  C18 UNL     1      25.290  -0.201  23.762  1.00  0.00     0.012 C 
BRANCH  39  40
HETATM   40  C19 UNL     1      25.437   0.006  22.242  1.00  0.00     0.085 C 
HETATM   41 BR2  UNL     1      25.665   1.877  21.924  1.00  0.00    -0.097 Br
ENDBRANCH  39  40
ENDBRANCH  38  39
ENDBRANCH  37  38
ENDBRANCH  35  37
ENDBRANCH  29  35
ENDBRANCH  23  26
ENDBRANCH   1  22
TORSDOF 12
ENDMDL
MODEL 5
REMARK VINA RESULT: -7.680000337      2.538      6.876
REMARK  12 active torsions:
REMARK  status: ('A' for Active; 'I' for Inactive)
REMARK    1  A    between atoms: C4_6  and  N2_7 
REMARK       I    between atoms: N2_7  and  C5_9 
REMARK    2  A    between atoms: C5_9  and  C6_11 
REMARK    3  A    between atoms: C6_11  and  C7_13 
REMARK    4  A    between atoms: C7_13  and  N3_15 
REMARK       I    between atoms: N3_15  and  C9_17 
REMARK    5  A    between atoms: C9_17  and  C10_19 
REMARK       I    between atoms: C10_19  and  N4_21 
REMARK    6  A    between atoms: C11_23  and  C12_24 
REMARK    7  A    between atoms: C11_23  and  N5_28 
REMARK    8  A    between atoms: C12_24  and  C13_25 
REMARK    9  A    between atoms: N5_28  and  C16_30 
REMARK   10  A    between atoms: C16_30  and  C17_31 
REMARK   11  A    between atoms: C17_31  and  C18_32 
REMARK   12  A    between atoms: C18_32  and  C19_33 
ROOT
HETATM    1  C7  UNL     1      21.123   3.846  17.866  1.00  0.00     0.104 C 
HETATM    2  C8  UNL     1      21.505   3.094  16.591  1.00  0.00     0.034 C 
ENDROOT
BRANCH   1   3
HETATM    3  C6  UNL     1      22.176   4.863  18.266  1.00  0.00     0.172 C 
HETATM    4 BR1  UNL     1      23.115   5.358  16.634  1.00  0.00    -0.079 Br
BRANCH   3   5
HETATM    5  C5  UNL     1      23.163   4.290  19.223  1.00  0.00     0.252 C 
HETATM    6  N2  UNL     1      23.224   4.695  20.578  1.00  0.00    -0.158 N 
ATOM      7  H2  UNL     1      23.157   5.692  20.779  1.00  0.00     0.187 HD
HETATM    8  O1  UNL     1      23.959   3.420  18.795  1.00  0.00    -0.271 OA
BRANCH   6   9
HETATM    9  C4  UNL     1      23.360   3.886  21.582  1.00  0.00     0.686 A 
HETATM   10  N1  UNL     1      23.502   4.222  22.880  1.00  0.00    -0.187 N 
HETATM   11  C3  UNL     1      23.616   3.102  23.610  1.00  0.00     0.098 A 
ATOM     12  H1  UNL     1      23.520   5.173  23.248  1.00  0.00     0.184 HD
HETATM   13  C2  UNL     1      23.780   2.848  24.965  1.00  0.00     0.036 A 
HETATM   14  C20 UNL     1      23.546   2.013  22.773  1.00  0.00     0.079 A 
HETATM   15  C1  UNL     1      23.853   4.035  25.857  1.00  0.00     0.071 C 
HETATM   16  N7  UNL     1      23.874   1.618  25.492  1.00  0.00    -0.363 N 
HETATM   17  C22 UNL     1      23.804   0.562  24.668  1.00  0.00     0.093 A 
HETATM   18  C23 UNL     1      24.048   1.447  26.941  1.00  0.00     0.155 C 
HETATM   19  C21 UNL     1      23.640   0.742  23.297  1.00  0.00     0.050 A 
HETATM   20  N6  UNL     1      23.390   2.540  21.541  1.00  0.00    -0.189 N 
ATOM     21  H6  UNL     1      23.306   1.989  20.687  1.00  0.00     0.184 HD
ENDBRANCH   6   9
ENDBRANCH   3   5
ENDBRANCH   1   3
BRANCH   1  22
HETATM   22  N3  UNL     1      21.056   2.836  18.911  1.00  0.00    -0.347 N 
HETATM   23  C9  UNL     1      19.965   2.710  19.809  1.00  0.00     0.310 C 
HETATM   24  O2  UNL     1      18.983   3.495  19.745  1.00  0.00    -0.262 OA
ATOM     25  H3  UNL     1      21.834   2.182  19.003  1.00  0.00     0.163 HD
BRANCH  23  26
HETATM   26  C10 UNL     1      19.967   1.627  20.853  1.00  0.00     0.314 C 
HETATM   27  O3  UNL     1      20.364   1.964  22.014  1.00  0.00    -0.262 OA
HETATM   28  N4  UNL     1      19.575   0.415  20.514  1.00  0.00    -0.309 N 
HETATM   29  C11 UNL     1      18.892  -0.555  20.829  1.00  0.00     0.080 C 
ATOM     30  H4  UNL     1      20.022   0.192  19.625  1.00  0.00     0.170 HD
BRANCH  29  31
HETATM   31  C12 UNL     1      18.930  -1.702  19.864  1.00  0.00     0.080 C 
BRANCH  31  32
HETATM   32  C13 UNL     1      20.175  -2.454  19.697  1.00  0.00    -0.016 C 
HETATM   33  C14 UNL     1      20.707  -3.251  20.834  1.00  0.00     0.010 C 
HETATM   34  C15 UNL     1      20.061  -3.335  18.430  1.00  0.00     0.010 C 
ENDBRANCH  31  32
ENDBRANCH  29  31
BRANCH  29  35
HETATM   35  N5  UNL     1      18.136  -0.653  21.998  1.00  0.00    -0.380 N 
ATOM     36  H5  UNL     1      18.631  -1.078  22.782  1.00  0.00     0.160 HD
BRANCH  35  37
HETATM   37  C16 UNL     1      16.808  -0.268  22.292  1.00  0.00     0.121 C 
BRANCH  37  38
HETATM   38  C17 UNL     1      16.227   0.885  21.562  1.00  0.00     0.020 C 
BRANCH  38  39
HETATM   39  C18 UNL     1      15.529   1.895  22.436  1.00  0.00     0.012 C 
BRANCH  39  40
HETATM   40  C19 UNL     1      14.835   1.177  23.610  1.00  0.00     0.085 C 
HETATM   41 BR2  UNL     1      13.795   2.470  24.559  1.00  0.00    -0.097 Br
ENDBRANCH  39  40
ENDBRANCH  38  39
ENDBRANCH  37  38
ENDBRANCH  35  37
ENDBRANCH  29  35
ENDBRANCH  23  26
ENDBRANCH   1  22
TORSDOF 12
ENDMDL
