MODEL 1
REMARK VINA RESULT: -8.023561134      0.000      0.000
REMARK  13 active torsions:
REMARK  status: ('A' for Active; 'I' for Inactive)
REMARK    1  A    between atoms: C2_2  and  C3_3 
REMARK    2  A    between atoms: C11_17  and  N3_18 
REMARK    3  A    between atoms: N3_18  and  C12_20 
REMARK    4  A    between atoms: C12_20  and  C13_21 
REMARK    5  A    between atoms: C13_21  and  C14_22 
REMARK    6  A    between atoms: C14_22  and  C15_23 
REMARK    7  A    between atoms: C15_23  and  N4_24 
REMARK    8  A    between atoms: N4_24  and  C17_27 
REMARK    9  A    between atoms: C17_27  and  C18_28 
REMARK       I    between atoms: C18_28  and  N5_30 
REMARK   10  A    between atoms: N5_30  and  C19_32 
REMARK   11  A    between atoms: C19_32  and  C20_33 
REMARK   12  A    between atoms: C20_33  and  C21_34 
REMARK   13  A    between atoms: C21_34  and  C22_35 
ROOT
HETATM    1  C3  UNL     1      22.244   4.597  16.827  1.00  0.00     0.027 A 
HETATM    2  C4  UNL     1      22.395   5.117  15.538  1.00  0.00    -0.021 A 
HETATM    3  C5  UNL     1      23.638   5.775  15.152  1.00  0.00     0.052 C 
HETATM    4  C6  UNL     1      21.361   4.994  14.647  1.00  0.00     0.022 A 
HETATM    5 BR1  UNL     1      21.495   5.680  12.864  1.00  0.00    -0.050 Br
HETATM    6  C7  UNL     1      20.211   4.366  15.043  1.00  0.00     0.068 A 
HETATM    7  C8  UNL     1      20.067   3.854  16.323  1.00  0.00     0.115 A 
HETATM    8  N1  UNL     1      19.033   3.222  16.909  1.00  0.00    -0.334 N 
ATOM      9  H1  UNL     1      18.138   2.997  16.473  1.00  0.00     0.168 HD
HETATM   10  C9  UNL     1      19.389   2.942  18.165  1.00  0.00     0.148 A 
HETATM   11  C10 UNL     1      18.733   2.320  19.223  1.00  0.00     0.290 A 
HETATM   12  O1  UNL     1      17.557   1.895  19.022  1.00  0.00    -0.265 OA
HETATM   13  N2  UNL     1      19.363   2.196  20.392  1.00  0.00    -0.154 N 
ATOM     14  H2  UNL     1      18.889   1.740  21.171  1.00  0.00     0.187 HD
HETATM   15  C11 UNL     1      20.632   2.669  20.561  1.00  0.00     0.686 A 
HETATM   16  N6  UNL     1      21.280   3.274  19.551  1.00  0.00    -0.173 N 
ATOM     17  H6  UNL     1      22.227   3.624  19.693  1.00  0.00     0.186 HD
HETATM   18  C23 UNL     1      20.692   3.417  18.366  1.00  0.00     0.162 A 
HETATM   19  N7  UNL     1      21.106   3.986  17.196  1.00  0.00    -0.284 N 
ENDROOT
BRANCH  15  20
HETATM   20  N3  UNL     1      21.225   2.542  21.693  1.00  0.00    -0.202 N 
ATOM     21  H3  UNL     1      20.676   2.635  22.548  1.00  0.00     0.183 HD
BRANCH  20  22
HETATM   22  C12 UNL     1      22.606   2.279  21.798  1.00  0.00     0.106 C 
BRANCH  22  23
HETATM   23  C13 UNL     1      23.043   0.891  21.900  1.00  0.00     0.016 C 
BRANCH  23  24
HETATM   24  C14 UNL     1      22.384  -0.195  21.752  1.00  0.00     0.010 C 
BRANCH  24  25
HETATM   25  C15 UNL     1      22.587  -1.344  20.896  1.00  0.00     0.339 C 
BRANCH  25  26
HETATM   26  N4  UNL     1      21.318  -2.053  20.638  1.00  0.00     0.021 N 
HETATM   27  C16 UNL     1      21.622  -3.234  19.896  1.00  0.00     0.357 C 
HETATM   28  O2  UNL     1      20.745  -2.350  21.853  1.00  0.00    -0.064 OA
BRANCH  26  29
HETATM   29  C17 UNL     1      20.430  -1.136  19.972  1.00  0.00     0.413 C 
BRANCH  29  30
HETATM   30  C18 UNL     1      19.015  -1.263  20.458  1.00  0.00     0.251 C 
HETATM   31  O3  UNL     1      18.247  -1.972  19.759  1.00  0.00    -0.271 OA
HETATM   32  N5  UNL     1      18.591  -0.611  21.643  1.00  0.00    -0.359 N 
ATOM     33  H5  UNL     1      19.282  -0.054  22.146  1.00  0.00     0.162 HD
BRANCH  32  34
HETATM   34  C19 UNL     1      17.259  -0.673  22.192  1.00  0.00     0.122 C 
BRANCH  34  35
HETATM   35  C20 UNL     1      16.428   0.539  21.937  1.00  0.00     0.020 C 
BRANCH  35  36
HETATM   36  C21 UNL     1      15.391   0.748  23.007  1.00  0.00     0.012 C 
BRANCH  36  37
HETATM   37  C22 UNL     1      15.031   2.204  23.151  1.00  0.00     0.085 C 
HETATM   38 BR2  UNL     1      13.702   2.439  24.555  1.00  0.00    -0.097 Br
ENDBRANCH  36  37
ENDBRANCH  35  36
ENDBRANCH  34  35
ENDBRANCH  32  34
ENDBRANCH  29  30
ENDBRANCH  26  29
ENDBRANCH  25  26
ENDBRANCH  24  25
ENDBRANCH  23  24
ENDBRANCH  22  23
ENDBRANCH  20  22
ENDBRANCH  15  20
BRANCH   1  39
HETATM   39  C2  UNL     1      23.394   4.760  17.714  1.00  0.00     0.054 C 
HETATM   40  C1  UNL     1      23.220   5.807  18.790  1.00  0.00     0.011 C 
ENDBRANCH   1  39
TORSDOF 13
ENDMDL
MODEL 2
REMARK VINA RESULT: -7.985226937      4.325      6.907
REMARK  13 active torsions:
REMARK  status: ('A' for Active; 'I' for Inactive)
REMARK    1  A    between atoms: C2_2  and  C3_3 
REMARK    2  A    between atoms: C11_17  and  N3_18 
REMARK    3  A    between atoms: N3_18  and  C12_20 
REMARK    4  A    between atoms: C12_20  and  C13_21 
REMARK    5  A    between atoms: C13_21  and  C14_22 
REMARK    6  A    between atoms: C14_22  and  C15_23 
REMARK    7  A    between atoms: C15_23  and  N4_24 
REMARK    8  A    between atoms: N4_24  and  C17_27 
REMARK    9  A    between atoms: C17_27  and  C18_28 
REMARK       I    between atoms: C18_28  and  N5_30 
REMARK   10  A    between atoms: N5_30  and  C19_32 
REMARK   11  A    between atoms: C19_32  and  C20_33 
REMARK   12  A    between atoms: C20_33  and  C21_34 
REMARK   13  A    between atoms: C21_34  and  C22_35 
ROOT
HETATM    1  C3  UNL     1      22.008   4.172  17.742  1.00  0.00     0.027 A 
HETATM    2  C4  UNL     1      22.127   4.825  16.511  1.00  0.00    -0.021 A 
HETATM    3  C5  UNL     1      23.360   5.524  16.167  1.00  0.00     0.052 C 
HETATM    4  C6  UNL     1      21.072   4.793  15.638  1.00  0.00     0.022 A 
HETATM    5 BR1  UNL     1      21.161   5.664  13.934  1.00  0.00    -0.050 Br
HETATM    6  C7  UNL     1      19.932   4.122  15.994  1.00  0.00     0.068 A 
HETATM    7  C8  UNL     1      19.820   3.478  17.215  1.00  0.00     0.115 A 
HETATM    8  N1  UNL     1      18.801   2.784  17.757  1.00  0.00    -0.334 N 
ATOM      9  H1  UNL     1      17.896   2.604  17.321  1.00  0.00     0.168 HD
HETATM   10  C9  UNL     1      19.188   2.375  18.967  1.00  0.00     0.148 A 
HETATM   11  C10 UNL     1      18.559   1.642  19.968  1.00  0.00     0.290 A 
HETATM   12  O1  UNL     1      17.378   1.237  19.753  1.00  0.00    -0.265 OA
HETATM   13  N2  UNL     1      19.217   1.398  21.102  1.00  0.00    -0.154 N 
ATOM     14  H2  UNL     1      18.762   0.861  21.841  1.00  0.00     0.187 HD
HETATM   15  C11 UNL     1      20.490   1.856  21.290  1.00  0.00     0.686 A 
HETATM   16  N6  UNL     1      21.112   2.565  20.334  1.00  0.00    -0.173 N 
ATOM     17  H6  UNL     1      22.062   2.901  20.489  1.00  0.00     0.186 HD
HETATM   18  C23 UNL     1      20.495   2.831  19.185  1.00  0.00     0.162 A 
HETATM   19  N7  UNL     1      20.880   3.521  18.072  1.00  0.00    -0.284 N 
ENDROOT
BRANCH  15  20
HETATM   20  N3  UNL     1      21.110   1.612  22.388  1.00  0.00    -0.202 N 
ATOM     21  H3  UNL     1      20.678   0.986  23.068  1.00  0.00     0.183 HD
BRANCH  20  22
HETATM   22  C12 UNL     1      22.365   2.178  22.688  1.00  0.00     0.106 C 
BRANCH  22  23
HETATM   23  C13 UNL     1      22.740   2.335  24.089  1.00  0.00     0.016 C 
BRANCH  23  24
HETATM   24  C14 UNL     1      23.508   3.193  24.648  1.00  0.00     0.010 C 
BRANCH  24  25
HETATM   25  C15 UNL     1      23.360   4.611  24.892  1.00  0.00     0.339 C 
BRANCH  25  26
HETATM   26  N4  UNL     1      24.382   5.102  25.837  1.00  0.00     0.021 N 
HETATM   27  C16 UNL     1      23.735   5.362  27.082  1.00  0.00     0.357 C 
HETATM   28  O2  UNL     1      25.346   4.128  25.960  1.00  0.00    -0.064 OA
BRANCH  26  29
HETATM   29  C17 UNL     1      25.020   6.246  25.240  1.00  0.00     0.413 C 
BRANCH  29  30
HETATM   30  C18 UNL     1      26.103   5.853  24.276  1.00  0.00     0.251 C 
HETATM   31  O3  UNL     1      25.776   5.798  23.063  1.00  0.00    -0.271 OA
HETATM   32  N5  UNL     1      27.413   5.565  24.732  1.00  0.00    -0.359 N 
ATOM     33  H5  UNL     1      27.588   5.633  25.734  1.00  0.00     0.162 HD
BRANCH  32  34
HETATM   34  C19 UNL     1      28.518   5.182  23.888  1.00  0.00     0.122 C 
BRANCH  34  35
HETATM   35  C20 UNL     1      28.761   3.712  23.816  1.00  0.00     0.020 C 
BRANCH  35  36
HETATM   36  C21 UNL     1      28.221   3.112  22.546  1.00  0.00     0.012 C 
BRANCH  36  37
HETATM   37  C22 UNL     1      26.868   2.486  22.763  1.00  0.00     0.085 C 
HETATM   38 BR2  UNL     1      25.788   2.626  21.148  1.00  0.00    -0.097 Br
ENDBRANCH  36  37
ENDBRANCH  35  36
ENDBRANCH  34  35
ENDBRANCH  32  34
ENDBRANCH  29  30
ENDBRANCH  26  29
ENDBRANCH  25  26
ENDBRANCH  24  25
ENDBRANCH  23  24
ENDBRANCH  22  23
ENDBRANCH  20  22
ENDBRANCH  15  20
BRANCH   1  39
HETATM   39  C2  UNL     1      23.179   4.244  18.613  1.00  0.00     0.054 C 
HETATM   40  C1  UNL     1      23.144   5.362  19.630  1.00  0.00     0.011 C 
ENDBRANCH   1  39
TORSDOF 13
ENDMDL
MODEL 3
REMARK VINA RESULT: -7.933100916      3.834      5.606
REMARK  13 active torsions:
REMARK  status: ('A' for Active; 'I' for Inactive)
REMARK    1  A    between atoms: C2_2  and  C3_3 
REMARK    2  A    between atoms: C11_17  and  N3_18 
REMARK    3  A    between atoms: N3_18  and  C12_20 
REMARK    4  A    between atoms: C12_20  and  C13_21 
REMARK    5  A    between atoms: C13_21  and  C14_22 
REMARK    6  A    between atoms: C14_22  and  C15_23 
REMARK    7  A    between atoms: C15_23  and  N4_24 
REMARK    8  A    between atoms: N4_24  and  C17_27 
REMARK    9  A    between atoms: C17_27  and  C18_28 
REMARK       I    between atoms: C18_28  and  N5_30 
REMARK   10  A    between atoms: N5_30  and  C19_32 
REMARK   11  A    between atoms: C19_32  and  C20_33 
REMARK   12  A    between atoms: C20_33  and  C21_34 
REMARK   13  A    between atoms: C21_34  and  C22_35 
ROOT
HETATM    1  C3  UNL     1      21.994   4.193  17.675  1.00  0.00     0.027 A 
HETATM    2  C4  UNL     1      22.075   4.824  16.430  1.00  0.00    -0.021 A 
HETATM    3  C5  UNL     1      23.282   5.549  16.051  1.00  0.00     0.052 C 
HETATM    4  C6  UNL     1      21.007   4.746  15.575  1.00  0.00     0.022 A 
HETATM    5 BR1  UNL     1      21.043   5.584  13.853  1.00  0.00    -0.050 Br
HETATM    6  C7  UNL     1      19.892   4.052  15.963  1.00  0.00     0.068 A 
HETATM    7  C8  UNL     1      19.817   3.429  17.199  1.00  0.00     0.115 A 
HETATM    8  N1  UNL     1      18.827   2.719  17.771  1.00  0.00    -0.334 N 
ATOM      9  H1  UNL     1      17.920   2.505  17.355  1.00  0.00     0.168 HD
HETATM   10  C9  UNL     1      19.245   2.344  18.983  1.00  0.00     0.148 A 
HETATM   11  C10 UNL     1      18.653   1.615  20.009  1.00  0.00     0.290 A 
HETATM   12  O1  UNL     1      17.480   1.174  19.821  1.00  0.00    -0.265 OA
HETATM   13  N2  UNL     1      19.336   1.412  21.136  1.00  0.00    -0.154 N 
ATOM     14  H2  UNL     1      18.908   0.878  21.893  1.00  0.00     0.187 HD
HETATM   15  C11 UNL     1      20.598   1.908  21.293  1.00  0.00     0.686 A 
HETATM   16  N6  UNL     1      21.185   2.615  20.313  1.00  0.00    -0.173 N 
ATOM     17  H6  UNL     1      22.128   2.980  20.445  1.00  0.00     0.186 HD
HETATM   18  C23 UNL     1      20.542   2.840  19.169  1.00  0.00     0.162 A 
HETATM   19  N7  UNL     1      20.889   3.518  18.037  1.00  0.00    -0.284 N 
ENDROOT
BRANCH  15  20
HETATM   20  N3  UNL     1      21.243   1.703  22.385  1.00  0.00    -0.202 N 
ATOM     21  H3  UNL     1      20.719   1.466  23.228  1.00  0.00     0.183 HD
BRANCH  20  22
HETATM   22  C12 UNL     1      22.648   1.795  22.461  1.00  0.00     0.106 C 
BRANCH  22  23
HETATM   23  C13 UNL     1      23.448   0.938  21.594  1.00  0.00     0.016 C 
BRANCH  23  24
HETATM   24  C14 UNL     1      24.461   1.218  20.863  1.00  0.00     0.010 C 
BRANCH  24  25
HETATM   25  C15 UNL     1      25.864   0.883  20.983  1.00  0.00     0.339 C 
BRANCH  25  26
HETATM   26  N4  UNL     1      26.677   2.078  21.281  1.00  0.00     0.021 N 
HETATM   27  C16 UNL     1      27.969   1.880  20.707  1.00  0.00     0.357 C 
HETATM   28  O2  UNL     1      26.041   3.169  20.735  1.00  0.00    -0.064 OA
BRANCH  26  29
HETATM   29  C17 UNL     1      26.675   2.267  22.708  1.00  0.00     0.413 C 
BRANCH  29  30
HETATM   30  C18 UNL     1      26.612   3.718  23.088  1.00  0.00     0.251 C 
HETATM   31  O3  UNL     1      27.712   4.281  23.324  1.00  0.00    -0.271 OA
HETATM   32  N5  UNL     1      25.370   4.396  23.170  1.00  0.00    -0.359 N 
ATOM     33  H5  UNL     1      24.528   3.859  22.964  1.00  0.00     0.162 HD
BRANCH  32  34
HETATM   34  C19 UNL     1      25.206   5.784  23.524  1.00  0.00     0.122 C 
BRANCH  34  35
HETATM   35  C20 UNL     1      24.969   6.029  24.976  1.00  0.00     0.020 C 
BRANCH  35  36
HETATM   36  C21 UNL     1      23.701   5.381  25.459  1.00  0.00     0.012 C 
BRANCH  36  37
HETATM   37  C22 UNL     1      23.958   4.473  26.634  1.00  0.00     0.085 C 
HETATM   38 BR2  UNL     1      24.019   2.614  26.055  1.00  0.00    -0.097 Br
ENDBRANCH  36  37
ENDBRANCH  35  36
ENDBRANCH  34  35
ENDBRANCH  32  34
ENDBRANCH  29  30
ENDBRANCH  26  29
ENDBRANCH  25  26
ENDBRANCH  24  25
ENDBRANCH  23  24
ENDBRANCH  22  23
ENDBRANCH  20  22
ENDBRANCH  15  20
BRANCH   1  39
HETATM   39  C2  UNL     1      23.176   4.314  18.525  1.00  0.00     0.054 C 
HETATM   40  C1  UNL     1      23.136   5.463  19.506  1.00  0.00     0.011 C 
ENDBRANCH   1  39
TORSDOF 13
ENDMDL
MODEL 4
REMARK VINA RESULT: -7.927019131      4.741      7.603
REMARK  13 active torsions:
REMARK  status: ('A' for Active; 'I' for Inactive)
REMARK    1  A    between atoms: C2_2  and  C3_3 
REMARK    2  A    between atoms: C11_17  and  N3_18 
REMARK    3  A    between atoms: N3_18  and  C12_20 
REMARK    4  A    between atoms: C12_20  and  C13_21 
REMARK    5  A    between atoms: C13_21  and  C14_22 
REMARK    6  A    between atoms: C14_22  and  C15_23 
REMARK    7  A    between atoms: C15_23  and  N4_24 
REMARK    8  A    between atoms: N4_24  and  C17_27 
REMARK    9  A    between atoms: C17_27  and  C18_28 
REMARK       I    between atoms: C18_28  and  N5_30 
REMARK   10  A    between atoms: N5_30  and  C19_32 
REMARK   11  A    between atoms: C19_32  and  C20_33 
REMARK   12  A    between atoms: C20_33  and  C21_34 
REMARK   13  A    between atoms: C21_34  and  C22_35 
ROOT
HETATM    1  C3  UNL     1      22.011   4.160  17.774  1.00  0.00     0.027 A 
HETATM    2  C4  UNL     1      22.117   4.797  16.534  1.00  0.00    -0.021 A 
HETATM    3  C5  UNL     1      23.337   5.512  16.177  1.00  0.00     0.052 C 
HETATM    4  C6  UNL     1      21.062   4.733  15.662  1.00  0.00     0.022 A 
HETATM    5 BR1  UNL     1      21.134   5.580  13.945  1.00  0.00    -0.050 Br
HETATM    6  C7  UNL     1      19.935   4.048  16.029  1.00  0.00     0.068 A 
HETATM    7  C8  UNL     1      19.835   3.419  17.260  1.00  0.00     0.115 A 
HETATM    8  N1  UNL     1      18.829   2.716  17.813  1.00  0.00    -0.334 N 
ATOM      9  H1  UNL     1      17.927   2.513  17.381  1.00  0.00     0.168 HD
HETATM   10  C9  UNL     1      19.225   2.331  19.029  1.00  0.00     0.148 A 
HETATM   11  C10 UNL     1      18.609   1.602  20.041  1.00  0.00     0.290 A 
HETATM   12  O1  UNL     1      17.435   1.173  19.833  1.00  0.00    -0.265 OA
HETATM   13  N2  UNL     1      19.273   1.387  21.178  1.00  0.00    -0.154 N 
ATOM     14  H2  UNL     1      18.828   0.853  21.925  1.00  0.00     0.187 HD
HETATM   15  C11 UNL     1      20.537   1.870  21.358  1.00  0.00     0.686 A 
HETATM   16  N6  UNL     1      21.146   2.576  20.390  1.00  0.00    -0.173 N 
ATOM     17  H6  UNL     1      22.090   2.931  20.540  1.00  0.00     0.186 HD
HETATM   18  C23 UNL     1      20.523   2.814  19.238  1.00  0.00     0.162 A 
HETATM   19  N7  UNL     1      20.895   3.494  18.115  1.00  0.00    -0.284 N 
ENDROOT
BRANCH  15  20
HETATM   20  N3  UNL     1      21.162   1.653  22.458  1.00  0.00    -0.202 N 
ATOM     21  H3  UNL     1      20.766   0.992  23.127  1.00  0.00     0.183 HD
BRANCH  20  22
HETATM   22  C12 UNL     1      22.376   2.296  22.776  1.00  0.00     0.106 C 
BRANCH  22  23
HETATM   23  C13 UNL     1      22.865   2.217  24.148  1.00  0.00     0.016 C 
BRANCH  23  24
HETATM   24  C14 UNL     1      23.456   3.096  24.866  1.00  0.00     0.010 C 
BRANCH  24  25
HETATM   25  C15 UNL     1      23.396   4.542  24.873  1.00  0.00     0.339 C 
BRANCH  25  26
HETATM   26  N4  UNL     1      24.416   5.117  25.772  1.00  0.00     0.021 N 
HETATM   27  C16 UNL     1      23.763   5.505  26.980  1.00  0.00     0.357 C 
HETATM   28  O2  UNL     1      25.371   4.154  25.999  1.00  0.00    -0.064 OA
BRANCH  26  29
HETATM   29  C17 UNL     1      25.067   6.191  25.068  1.00  0.00     0.413 C 
BRANCH  29  30
HETATM   30  C18 UNL     1      26.240   5.712  24.262  1.00  0.00     0.251 C 
HETATM   31  O3  UNL     1      25.984   5.268  23.114  1.00  0.00    -0.271 OA
HETATM   32  N5  UNL     1      27.555   5.766  24.788  1.00  0.00    -0.359 N 
ATOM     33  H5  UNL     1      27.669   6.140  25.730  1.00  0.00     0.162 HD
BRANCH  32  34
HETATM   34  C19 UNL     1      28.743   5.334  24.095  1.00  0.00     0.122 C 
BRANCH  34  35
HETATM   35  C20 UNL     1      29.488   6.426  23.404  1.00  0.00     0.020 C 
BRANCH  35  36
HETATM   36  C21 UNL     1      30.245   5.922  22.205  1.00  0.00     0.012 C 
BRANCH  36  37
HETATM   37  C22 UNL     1      30.346   4.419  22.207  1.00  0.00     0.085 C 
HETATM   38 BR2  UNL     1      29.946   3.709  20.438  1.00  0.00    -0.097 Br
ENDBRANCH  36  37
ENDBRANCH  35  36
ENDBRANCH  34  35
ENDBRANCH  32  34
ENDBRANCH  29  30
ENDBRANCH  26  29
ENDBRANCH  25  26
ENDBRANCH  24  25
ENDBRANCH  23  24
ENDBRANCH  22  23
ENDBRANCH  20  22
ENDBRANCH  15  20
BRANCH   1  39
HETATM   39  C2  UNL     1      23.181   4.265  18.643  1.00  0.00     0.054 C 
HETATM   40  C1  UNL     1      23.137   5.411  19.628  1.00  0.00     0.011 C 
ENDBRANCH   1  39
TORSDOF 13
ENDMDL
MODEL 5
REMARK VINA RESULT: -7.807404386      3.855      6.273
REMARK  13 active torsions:
REMARK  status: ('A' for Active; 'I' for Inactive)
REMARK    1  A    between atoms: C2_2  and  C3_3 
REMARK    2  A    between atoms: C11_17  and  N3_18 
REMARK    3  A    between atoms: N3_18  and  C12_20 
REMARK    4  A    between atoms: C12_20  and  C13_21 
REMARK    5  A    between atoms: C13_21  and  C14_22 
REMARK    6  A    between atoms: C14_22  and  C15_23 
REMARK    7  A    between atoms: C15_23  and  N4_24 
REMARK    8  A    between atoms: N4_24  and  C17_27 
REMARK    9  A    between atoms: C17_27  and  C18_28 
REMARK       I    between atoms: C18_28  and  N5_30 
REMARK   10  A    between atoms: N5_30  and  C19_32 
REMARK   11  A    between atoms: C19_32  and  C20_33 
REMARK   12  A    between atoms: C20_33  and  C21_34 
REMARK   13  A    between atoms: C21_34  and  C22_35 
ROOT
HETATM    1  C3  UNL     1      22.013   4.147  17.738  1.00  0.00     0.027 A 
HETATM    2  C4  UNL     1      22.133   4.801  16.508  1.00  0.00    -0.021 A 
HETATM    3  C5  UNL     1      23.368   5.497  16.164  1.00  0.00     0.052 C 
HETATM    4  C6  UNL     1      21.077   4.775  15.636  1.00  0.00     0.022 A 
HETATM    5 BR1  UNL     1      21.167   5.647  13.933  1.00  0.00    -0.050 Br
HETATM    6  C7  UNL     1      19.935   4.107  15.992  1.00  0.00     0.068 A 
HETATM    7  C8  UNL     1      19.822   3.461  17.212  1.00  0.00     0.115 A 
HETATM    8  N1  UNL     1      18.800   2.770  17.754  1.00  0.00    -0.334 N 
ATOM      9  H1  UNL     1      17.895   2.594  17.319  1.00  0.00     0.168 HD
HETATM   10  C9  UNL     1      19.187   2.358  18.963  1.00  0.00     0.148 A 
HETATM   11  C10 UNL     1      18.556   1.626  19.964  1.00  0.00     0.290 A 
HETATM   12  O1  UNL     1      17.374   1.225  19.749  1.00  0.00    -0.265 OA
HETATM   13  N2  UNL     1      19.215   1.378  21.097  1.00  0.00    -0.154 N 
ATOM     14  H2  UNL     1      18.759   0.841  21.835  1.00  0.00     0.187 HD
HETATM   15  C11 UNL     1      20.489   1.830  21.284  1.00  0.00     0.686 A 
HETATM   16  N6  UNL     1      21.114   2.539  20.329  1.00  0.00    -0.173 N 
ATOM     17  H6  UNL     1      22.065   2.872  20.484  1.00  0.00     0.186 HD
HETATM   18  C23 UNL     1      20.496   2.809  19.180  1.00  0.00     0.162 A 
HETATM   19  N7  UNL     1      20.882   3.500  18.069  1.00  0.00    -0.284 N 
ENDROOT
BRANCH  15  20
HETATM   20  N3  UNL     1      21.110   1.583  22.381  1.00  0.00    -0.202 N 
ATOM     21  H3  UNL     1      20.742   0.862  23.002  1.00  0.00     0.183 HD
BRANCH  20  22
HETATM   22  C12 UNL     1      22.280   2.271  22.759  1.00  0.00     0.106 C 
BRANCH  22  23
HETATM   23  C13 UNL     1      22.816   2.048  24.097  1.00  0.00     0.016 C 
BRANCH  23  24
HETATM   24  C14 UNL     1      23.392   2.860  24.902  1.00  0.00     0.010 C 
BRANCH  24  25
HETATM   25  C15 UNL     1      23.418   4.305  24.968  1.00  0.00     0.339 C 
BRANCH  25  26
HETATM   26  N4  UNL     1      24.740   4.798  25.400  1.00  0.00     0.021 N 
HETATM   27  C16 UNL     1      24.552   5.562  26.591  1.00  0.00     0.357 C 
HETATM   28  O2  UNL     1      25.548   3.707  25.619  1.00  0.00    -0.064 OA
BRANCH  26  29
HETATM   29  C17 UNL     1      25.317   5.530  24.302  1.00  0.00     0.413 C 
BRANCH  29  30
HETATM   30  C18 UNL     1      26.455   4.788  23.662  1.00  0.00     0.251 C 
HETATM   31  O3  UNL     1      27.603   5.267  23.839  1.00  0.00    -0.271 OA
HETATM   32  N5  UNL     1      26.222   3.613  22.903  1.00  0.00    -0.359 N 
ATOM     33  H5  UNL     1      25.256   3.298  22.810  1.00  0.00     0.162 HD
BRANCH  32  34
HETATM   34  C19 UNL     1      27.244   2.831  22.253  1.00  0.00     0.122 C 
BRANCH  34  35
HETATM   35  C20 UNL     1      26.887   2.363  20.883  1.00  0.00     0.020 C 
BRANCH  35  36
HETATM   36  C21 UNL     1      25.427   2.023  20.764  1.00  0.00     0.012 C 
BRANCH  36  37
HETATM   37  C22 UNL     1      25.173   0.566  21.053  1.00  0.00     0.085 C 
HETATM   38 BR2  UNL     1      23.677  -0.087  19.991  1.00  0.00    -0.097 Br
ENDBRANCH  36  37
ENDBRANCH  35  36
ENDBRANCH  34  35
ENDBRANCH  32  34
ENDBRANCH  29  30
ENDBRANCH  26  29
ENDBRANCH  25  26
ENDBRANCH  24  25
ENDBRANCH  23  24
ENDBRANCH  22  23
ENDBRANCH  20  22
ENDBRANCH  15  20
BRANCH   1  39
HETATM   39  C2  UNL     1      23.184   4.213  18.608  1.00  0.00     0.054 C 
HETATM   40  C1  UNL     1      23.159   5.336  19.620  1.00  0.00     0.011 C 
ENDBRANCH   1  39
TORSDOF 13
ENDMDL
