MODEL 1
REMARK VINA RESULT: -8.112662448      0.000      0.000
REMARK  11 active torsions:
REMARK  status: ('A' for Active; 'I' for Inactive)
REMARK    1  A    between atoms: C2_2  and  N1_3 
REMARK    2  A    between atoms: C5_8  and  C7_10 
REMARK    3  A    between atoms: C7_10  and  C8_11 
REMARK    4  A    between atoms: C8_11  and  C9_12 
REMARK    5  A    between atoms: C10_14  and  O2_15 
REMARK    6  A    between atoms: C11_17  and  C12_18 
REMARK       I    between atoms: N3_27  and  C19_28 
REMARK    7  A    between atoms: C19_28  and  C20_30 
REMARK    8  A    between atoms: C21_31  and  C22_32 
REMARK    9  A    between atoms: C22_32  and  C23_33 
REMARK   10  A    between atoms: C23_33  and  C24_34 
REMARK   11  A    between atoms: N4_35  and  N5_37 
ROOT
HETATM    1  C12 UNL     1      21.725   3.294  20.303  1.00  0.00     0.195 A 
HETATM    2  C13 UNL     1      20.560   2.438  20.556  1.00  0.00     0.000 A 
HETATM    3  C14 UNL     1      19.981   1.839  21.624  1.00  0.00     0.012 A 
HETATM    4  C15 UNL     1      18.869   1.043  21.458  1.00  0.00     0.001 A 
HETATM    5  C16 UNL     1      18.310   0.825  20.237  1.00  0.00     0.002 A 
HETATM    6  C17 UNL     1      18.880   1.422  19.156  1.00  0.00     0.031 A 
HETATM    7  C18 UNL     1      19.993   2.218  19.319  1.00  0.00     0.057 A 
HETATM    8  N2  UNL     1      20.674   2.937  18.295  1.00  0.00    -0.294 N 
ATOM      9  H2  UNL     1      20.448   2.938  17.301  1.00  0.00     0.187 HD
HETATM   10  N3  UNL     1      21.705   3.638  18.912  1.00  0.00    -0.242 N 
HETATM   11  C19 UNL     1      22.535   4.558  18.243  1.00  0.00     0.262 C 
HETATM   12  O3  UNL     1      23.433   5.256  18.798  1.00  0.00    -0.267 OA
ENDROOT
BRANCH   1  13
HETATM   13  C11 UNL     1      23.032   2.864  20.842  1.00  0.00     0.051 C 
HETATM   14  N1  UNL     1      23.246   1.431  20.923  1.00  0.00    -0.320 N 
HETATM   15  C3  UNL     1      23.251   0.872  22.254  1.00  0.00     0.239 C 
HETATM   16  O1  UNL     1      22.682  -0.236  22.413  1.00  0.00    -0.272 OA
HETATM   17  C4  UNL     1      23.918   1.611  23.380  1.00  0.00     0.161 C 
HETATM   18 BR1  UNL     1      22.799   1.515  24.914  1.00  0.00    -0.080 Br
HETATM   19  C5  UNL     1      24.372   2.963  22.977  1.00  0.00     0.009 C 
HETATM   20  C6  UNL     1      25.752   2.841  22.313  1.00  0.00     0.020 C 
HETATM   21  C10 UNL     1      23.479   3.668  21.989  1.00  0.00     0.176 C 
BRANCH  14  22
HETATM   22  C2  UNL     1      23.443   0.595  19.799  1.00  0.00     0.127 C 
HETATM   23  C1  UNL     1      24.659  -0.340  19.912  1.00  0.00     0.027 C 
ENDBRANCH  14  22
BRANCH  19  24
HETATM   24  C7  UNL     1      24.599   3.869  24.166  1.00  0.00     0.014 C 
BRANCH  24  25
HETATM   25  C8  UNL     1      25.500   5.044  23.867  1.00  0.00     0.012 C 
BRANCH  25  26
HETATM   26  C9  UNL     1      25.290   6.058  24.975  1.00  0.00     0.085 C 
HETATM   27 BR2  UNL     1      23.825   5.550  26.129  1.00  0.00    -0.097 Br
ENDBRANCH  25  26
ENDBRANCH  24  25
ENDBRANCH  19  24
BRANCH  21  28
HETATM   28  O2  UNL     1      22.521   4.366  22.686  1.00  0.00    -0.389 OA
ATOM     29  H2  UNL     1      22.742   5.289  22.661  1.00  0.00     0.210 HD
ENDBRANCH  21  28
ENDBRANCH   1  13
BRANCH  11  30
HETATM   30  C20 UNL     1      22.409   4.780  16.785  1.00  0.00     0.072 C 
HETATM   31  C21 UNL     1      23.339   5.344  16.067  1.00  0.00    -0.021 C 
BRANCH  31  32
HETATM   32  C22 UNL     1      23.164   5.540  14.626  1.00  0.00     0.032 C 
BRANCH  32  33
HETATM   33  C23 UNL     1      22.522   6.870  14.293  1.00  0.00     0.050 C 
BRANCH  33  34
HETATM   34  C24 UNL     1      21.243   6.710  13.583  1.00  0.00     0.081 C 
HETATM   35  N4  UNL     1      21.083   7.261  12.438  1.00  0.00    -0.302 N 
ATOM     36  H4  UNL     1      21.867   7.797  12.066  1.00  0.00     0.187 HD
BRANCH  35  37
HETATM   37  N5  UNL     1      19.941   7.193  11.664  1.00  0.00    -0.250 N 
HETATM   38  N6  UNL     1      18.812   7.134  12.210  1.00  0.00    -0.331 N 
ATOM     39  H62 UNL     1      18.756   7.138  13.229  1.00  0.00     0.178 HD
ATOM     40  H61 UNL     1      17.969   7.084  11.639  1.00  0.00     0.178 HD
ATOM     41  H5  UNL     1      20.015   7.191  10.647  1.00  0.00     0.207 HD
ENDBRANCH  35  37
ENDBRANCH  33  34
ENDBRANCH  32  33
ENDBRANCH  31  32
ENDBRANCH  11  30
TORSDOF 11
ENDMDL
MODEL 2
REMARK VINA RESULT: -8.100946463      1.283      1.396
REMARK  11 active torsions:
REMARK  status: ('A' for Active; 'I' for Inactive)
REMARK    1  A    between atoms: C2_2  and  N1_3 
REMARK    2  A    between atoms: C5_8  and  C7_10 
REMARK    3  A    between atoms: C7_10  and  C8_11 
REMARK    4  A    between atoms: C8_11  and  C9_12 
REMARK    5  A    between atoms: C10_14  and  O2_15 
REMARK    6  A    between atoms: C11_17  and  C12_18 
REMARK       I    between atoms: N3_27  and  C19_28 
REMARK    7  A    between atoms: C19_28  and  C20_30 
REMARK    8  A    between atoms: C21_31  and  C22_32 
REMARK    9  A    between atoms: C22_32  and  C23_33 
REMARK   10  A    between atoms: C23_33  and  C24_34 
REMARK   11  A    between atoms: N4_35  and  N5_37 
ROOT
HETATM    1  C12 UNL     1      21.734   3.348  20.118  1.00  0.00     0.195 A 
HETATM    2  C13 UNL     1      20.564   2.516  20.425  1.00  0.00     0.000 A 
HETATM    3  C14 UNL     1      19.987   1.981  21.527  1.00  0.00     0.012 A 
HETATM    4  C15 UNL     1      18.867   1.187  21.411  1.00  0.00     0.001 A 
HETATM    5  C16 UNL     1      18.299   0.907  20.207  1.00  0.00     0.002 A 
HETATM    6  C17 UNL     1      18.866   1.439  19.092  1.00  0.00     0.031 A 
HETATM    7  C18 UNL     1      19.987   2.234  19.204  1.00  0.00     0.057 A 
HETATM    8  N2  UNL     1      20.666   2.891  18.139  1.00  0.00    -0.294 N 
ATOM      9  H2  UNL     1      20.434   2.840  17.148  1.00  0.00     0.187 HD
HETATM   10  N3  UNL     1      21.707   3.616  18.710  1.00  0.00    -0.242 N 
HETATM   11  C19 UNL     1      22.539   4.491  17.987  1.00  0.00     0.262 C 
HETATM   12  O3  UNL     1      23.446   5.211  18.498  1.00  0.00    -0.267 OA
ENDROOT
BRANCH   1  13
HETATM   13  C11 UNL     1      23.040   2.937  20.671  1.00  0.00     0.051 C 
HETATM   14  N1  UNL     1      23.284   1.508  20.734  1.00  0.00    -0.320 N 
HETATM   15  C3  UNL     1      23.279   0.928  22.056  1.00  0.00     0.239 C 
HETATM   16  O1  UNL     1      22.732  -0.194  22.188  1.00  0.00    -0.272 OA
HETATM   17  C4  UNL     1      23.913   1.664  23.204  1.00  0.00     0.161 C 
HETATM   18 BR1  UNL     1      22.771   1.520  24.718  1.00  0.00    -0.080 Br
HETATM   19  C5  UNL     1      24.344   3.031  22.829  1.00  0.00     0.009 C 
HETATM   20  C6  UNL     1      25.737   2.948  22.185  1.00  0.00     0.020 C 
HETATM   21  C10 UNL     1      23.452   3.732  21.838  1.00  0.00     0.176 C 
BRANCH  14  22
HETATM   22  C2  UNL     1      23.516   0.694  19.601  1.00  0.00     0.127 C 
HETATM   23  C1  UNL     1      22.364  -0.268  19.266  1.00  0.00     0.027 C 
ENDBRANCH  14  22
BRANCH  19  24
HETATM   24  C7  UNL     1      24.533   3.923  24.035  1.00  0.00     0.014 C 
BRANCH  24  25
HETATM   25  C8  UNL     1      25.498   5.060  23.801  1.00  0.00     0.012 C 
BRANCH  25  26
HETATM   26  C9  UNL     1      25.271   6.071  24.907  1.00  0.00     0.085 C 
HETATM   27 BR2  UNL     1      23.787   5.562  26.037  1.00  0.00    -0.097 Br
ENDBRANCH  25  26
ENDBRANCH  24  25
ENDBRANCH  19  24
BRANCH  21  28
HETATM   28  O2  UNL     1      22.469   4.399  22.530  1.00  0.00    -0.389 OA
ATOM     29  H2  UNL     1      21.831   4.728  21.908  1.00  0.00     0.210 HD
ENDBRANCH  21  28
ENDBRANCH   1  13
BRANCH  11  30
HETATM   30  C20 UNL     1      22.405   4.635  16.520  1.00  0.00     0.072 C 
HETATM   31  C21 UNL     1      23.049   5.535  15.831  1.00  0.00    -0.021 C 
BRANCH  31  32
HETATM   32  C22 UNL     1      22.880   5.635  14.379  1.00  0.00     0.032 C 
BRANCH  32  33
HETATM   33  C23 UNL     1      22.444   4.329  13.752  1.00  0.00     0.050 C 
BRANCH  33  34
HETATM   34  C24 UNL     1      21.088   4.407  13.186  1.00  0.00     0.081 C 
HETATM   35  N4  UNL     1      20.146   3.711  13.704  1.00  0.00    -0.302 N 
ATOM     36  H4  UNL     1      20.386   3.122  14.502  1.00  0.00     0.187 HD
BRANCH  35  37
HETATM   37  N5  UNL     1      18.832   3.688  13.277  1.00  0.00    -0.250 N 
HETATM   38  N6  UNL     1      17.908   3.462  14.095  1.00  0.00    -0.331 N 
ATOM     39  H62 UNL     1      18.145   3.298  15.074  1.00  0.00     0.178 HD
ATOM     40  H61 UNL     1      16.939   3.445  13.780  1.00  0.00     0.178 HD
ATOM     41  H5  UNL     1      18.614   3.854  12.294  1.00  0.00     0.207 HD
ENDBRANCH  35  37
ENDBRANCH  33  34
ENDBRANCH  32  33
ENDBRANCH  31  32
ENDBRANCH  11  30
TORSDOF 11
ENDMDL
MODEL 3
REMARK VINA RESULT: -7.865717113      1.535      1.693
REMARK  11 active torsions:
REMARK  status: ('A' for Active; 'I' for Inactive)
REMARK    1  A    between atoms: C2_2  and  N1_3 
REMARK    2  A    between atoms: C5_8  and  C7_10 
REMARK    3  A    between atoms: C7_10  and  C8_11 
REMARK    4  A    between atoms: C8_11  and  C9_12 
REMARK    5  A    between atoms: C10_14  and  O2_15 
REMARK    6  A    between atoms: C11_17  and  C12_18 
REMARK       I    between atoms: N3_27  and  C19_28 
REMARK    7  A    between atoms: C19_28  and  C20_30 
REMARK    8  A    between atoms: C21_31  and  C22_32 
REMARK    9  A    between atoms: C22_32  and  C23_33 
REMARK   10  A    between atoms: C23_33  and  C24_34 
REMARK   11  A    between atoms: N4_35  and  N5_37 
ROOT
HETATM    1  C12 UNL     1      21.478   3.357  19.603  1.00  0.00     0.195 A 
HETATM    2  C13 UNL     1      20.249   2.687  20.047  1.00  0.00     0.000 A 
HETATM    3  C14 UNL     1      19.695   2.307  21.223  1.00  0.00     0.012 A 
HETATM    4  C15 UNL     1      18.492   1.636  21.242  1.00  0.00     0.001 A 
HETATM    5  C16 UNL     1      17.816   1.329  20.102  1.00  0.00     0.002 A 
HETATM    6  C17 UNL     1      18.360   1.706  18.914  1.00  0.00     0.031 A 
HETATM    7  C18 UNL     1      19.564   2.377  18.892  1.00  0.00     0.057 A 
HETATM    8  N2  UNL     1      20.235   2.868  17.736  1.00  0.00    -0.294 N 
ATOM      9  H2  UNL     1      19.932   2.766  16.768  1.00  0.00     0.187 HD
HETATM   10  N3  UNL     1      21.384   3.515  18.181  1.00  0.00    -0.242 N 
HETATM   11  C19 UNL     1      22.253   4.232  17.338  1.00  0.00     0.262 C 
HETATM   12  O3  UNL     1      23.265   4.884  17.731  1.00  0.00    -0.267 OA
ENDROOT
BRANCH   1  13
HETATM   13  C11 UNL     1      22.768   2.846  20.111  1.00  0.00     0.051 C 
HETATM   14  N1  UNL     1      22.835   1.418  20.357  1.00  0.00    -0.320 N 
HETATM   15  C3  UNL     1      22.879   1.023  21.745  1.00  0.00     0.239 C 
HETATM   16  O1  UNL     1      22.210   0.013  22.075  1.00  0.00    -0.272 OA
HETATM   17  C4  UNL     1      23.703   1.808  22.727  1.00  0.00     0.161 C 
HETATM   18 BR1  UNL     1      22.696   2.021  24.326  1.00  0.00    -0.080 Br
HETATM   19  C5  UNL     1      24.265   3.043  22.131  1.00  0.00     0.009 C 
HETATM   20  C6  UNL     1      25.572   2.687  21.405  1.00  0.00     0.020 C 
HETATM   21  C10 UNL     1      23.381   3.724  21.119  1.00  0.00     0.176 C 
BRANCH  14  22
HETATM   22  C2  UNL     1      22.858   0.438  19.337  1.00  0.00     0.127 C 
HETATM   23  C1  UNL     1      23.989  -0.595  19.478  1.00  0.00     0.027 C 
ENDBRANCH  14  22
BRANCH  19  24
HETATM   24  C7  UNL     1      24.675   4.050  23.182  1.00  0.00     0.014 C 
BRANCH  24  25
HETATM   25  C8  UNL     1      26.022   3.764  23.801  1.00  0.00     0.012 C 
BRANCH  25  26
HETATM   26  C9  UNL     1      25.928   4.145  25.265  1.00  0.00     0.085 C 
HETATM   27 BR2  UNL     1      24.412   5.296  25.600  1.00  0.00    -0.097 Br
ENDBRANCH  25  26
ENDBRANCH  24  25
ENDBRANCH  19  24
BRANCH  21  28
HETATM   28  O2  UNL     1      22.557   4.603  21.780  1.00  0.00    -0.389 OA
ATOM     29  H2  UNL     1      22.545   5.424  21.302  1.00  0.00     0.210 HD
ENDBRANCH  21  28
ENDBRANCH   1  13
BRANCH  11  30
HETATM   30  C20 UNL     1      22.036   4.275  15.875  1.00  0.00     0.072 C 
HETATM   31  C21 UNL     1      22.253   5.339  15.153  1.00  0.00    -0.021 C 
BRANCH  31  32
HETATM   32  C22 UNL     1      22.022   5.328  13.706  1.00  0.00     0.032 C 
BRANCH  32  33
HETATM   33  C23 UNL     1      20.634   5.802  13.335  1.00  0.00     0.050 C 
BRANCH  33  34
HETATM   34  C24 UNL     1      19.705   4.685  13.107  1.00  0.00     0.081 C 
HETATM   35  N4  UNL     1      18.809   4.419  13.983  1.00  0.00    -0.302 N 
ATOM     36  H4  UNL     1      18.782   5.008  14.815  1.00  0.00     0.187 HD
BRANCH  35  37
HETATM   37  N5  UNL     1      17.875   3.404  13.899  1.00  0.00    -0.250 N 
HETATM   38  N6  UNL     1      17.819   2.685  12.871  1.00  0.00    -0.331 N 
ATOM     39  H62 UNL     1      18.470   2.864  12.107  1.00  0.00     0.178 HD
ATOM     40  H61 UNL     1      17.129   1.936  12.809  1.00  0.00     0.178 HD
ATOM     41  H5  UNL     1      17.231   3.239  14.672  1.00  0.00     0.207 HD
ENDBRANCH  35  37
ENDBRANCH  33  34
ENDBRANCH  32  33
ENDBRANCH  31  32
ENDBRANCH  11  30
TORSDOF 11
ENDMDL
MODEL 4
REMARK VINA RESULT: -7.820501367      2.174      3.070
REMARK  11 active torsions:
REMARK  status: ('A' for Active; 'I' for Inactive)
REMARK    1  A    between atoms: C2_2  and  N1_3 
REMARK    2  A    between atoms: C5_8  and  C7_10 
REMARK    3  A    between atoms: C7_10  and  C8_11 
REMARK    4  A    between atoms: C8_11  and  C9_12 
REMARK    5  A    between atoms: C10_14  and  O2_15 
REMARK    6  A    between atoms: C11_17  and  C12_18 
REMARK       I    between atoms: N3_27  and  C19_28 
REMARK    7  A    between atoms: C19_28  and  C20_30 
REMARK    8  A    between atoms: C21_31  and  C22_32 
REMARK    9  A    between atoms: C22_32  and  C23_33 
REMARK   10  A    between atoms: C23_33  and  C24_34 
REMARK   11  A    between atoms: N4_35  and  N5_37 
ROOT
HETATM    1  C12 UNL     1      21.593   1.570  21.050  1.00  0.00     0.195 A 
HETATM    2  C13 UNL     1      22.044   0.173  21.044  1.00  0.00     0.000 A 
HETATM    3  C14 UNL     1      22.686  -0.668  21.889  1.00  0.00     0.012 A 
HETATM    4  C15 UNL     1      22.982  -1.956  21.500  1.00  0.00     0.001 A 
HETATM    5  C16 UNL     1      22.649  -2.436  20.272  1.00  0.00     0.002 A 
HETATM    6  C17 UNL     1      22.002  -1.604  19.412  1.00  0.00     0.031 A 
HETATM    7  C18 UNL     1      21.705  -0.314  19.799  1.00  0.00     0.057 A 
HETATM    8  N2  UNL     1      21.000   0.656  19.030  1.00  0.00    -0.294 N 
ATOM      9  H2  UNL     1      20.646   0.538  18.082  1.00  0.00     0.187 HD
HETATM   10  N3  UNL     1      20.888   1.794  19.822  1.00  0.00    -0.242 N 
HETATM   11  C19 UNL     1      20.152   2.935  19.451  1.00  0.00     0.262 C 
HETATM   12  O3  UNL     1      19.981   3.953  20.184  1.00  0.00    -0.267 OA
ENDROOT
BRANCH   1  13
HETATM   13  C11 UNL     1      22.570   2.611  21.432  1.00  0.00     0.051 C 
HETATM   14  N1  UNL     1      23.878   2.513  20.813  1.00  0.00    -0.320 N 
HETATM   15  C3  UNL     1      24.955   2.109  21.685  1.00  0.00     0.239 C 
HETATM   16  O1  UNL     1      25.804   1.312  21.215  1.00  0.00    -0.272 OA
HETATM   17  C4  UNL     1      25.029   2.640  23.089  1.00  0.00     0.161 C 
HETATM   18 BR1  UNL     1      25.490   1.208  24.253  1.00  0.00    -0.080 Br
HETATM   19  C5  UNL     1      23.831   3.430  23.457  1.00  0.00     0.009 C 
HETATM   20  C6  UNL     1      24.022   4.872  22.961  1.00  0.00     0.020 C 
HETATM   21  C10 UNL     1      22.535   2.939  22.865  1.00  0.00     0.176 C 
BRANCH  14  22
HETATM   22  C2  UNL     1      24.132   2.788  19.449  1.00  0.00     0.127 C 
HETATM   23  C1  UNL     1      23.639   4.168  18.979  1.00  0.00     0.027 C 
ENDBRANCH  14  22
BRANCH  19  24
HETATM   24  C7  UNL     1      23.668   3.560  24.955  1.00  0.00     0.014 C 
BRANCH  24  25
HETATM   25  C8  UNL     1      23.595   4.990  25.433  1.00  0.00     0.012 C 
BRANCH  25  26
HETATM   26  C9  UNL     1      24.623   5.143  26.536  1.00  0.00     0.085 C 
HETATM   27 BR2  UNL     1      26.401   4.719  25.909  1.00  0.00    -0.097 Br
ENDBRANCH  25  26
ENDBRANCH  24  25
ENDBRANCH  19  24
BRANCH  21  28
HETATM   28  O2  UNL     1      21.992   2.007  23.717  1.00  0.00    -0.389 OA
ATOM     29  H2  UNL     1      22.687   1.649  24.256  1.00  0.00     0.210 HD
ENDBRANCH  21  28
ENDBRANCH   1  13
BRANCH  11  30
HETATM   30  C20 UNL     1      19.502   3.027  18.125  1.00  0.00     0.072 C 
HETATM   31  C21 UNL     1      20.010   3.695  17.127  1.00  0.00    -0.021 C 
BRANCH  31  32
HETATM   32  C22 UNL     1      19.325   3.754  15.833  1.00  0.00     0.032 C 
BRANCH  32  33
HETATM   33  C23 UNL     1      19.221   5.164  15.293  1.00  0.00     0.050 C 
BRANCH  33  34
HETATM   34  C24 UNL     1      20.413   5.556  14.526  1.00  0.00     0.081 C 
HETATM   35  N4  UNL     1      20.881   6.742  14.647  1.00  0.00    -0.302 N 
ATOM     36  H4  UNL     1      20.394   7.372  15.285  1.00  0.00     0.187 HD
BRANCH  35  37
HETATM   37  N5  UNL     1      21.988   7.243  13.991  1.00  0.00    -0.250 N 
HETATM   38  N6  UNL     1      21.843   8.001  13.000  1.00  0.00    -0.331 N 
ATOM     39  H62 UNL     1      20.900   8.236  12.693  1.00  0.00     0.178 HD
ATOM     40  H61 UNL     1      22.661   8.370  12.515  1.00  0.00     0.178 HD
ATOM     41  H5  UNL     1      22.925   6.997  14.311  1.00  0.00     0.207 HD
ENDBRANCH  35  37
ENDBRANCH  33  34
ENDBRANCH  32  33
ENDBRANCH  31  32
ENDBRANCH  11  30
TORSDOF 11
ENDMDL
MODEL 5
REMARK VINA RESULT: -7.653773182      4.062      6.667
REMARK  11 active torsions:
REMARK  status: ('A' for Active; 'I' for Inactive)
REMARK    1  A    between atoms: C2_2  and  N1_3 
REMARK    2  A    between atoms: C5_8  and  C7_10 
REMARK    3  A    between atoms: C7_10  and  C8_11 
REMARK    4  A    between atoms: C8_11  and  C9_12 
REMARK    5  A    between atoms: C10_14  and  O2_15 
REMARK    6  A    between atoms: C11_17  and  C12_18 
REMARK       I    between atoms: N3_27  and  C19_28 
REMARK    7  A    between atoms: C19_28  and  C20_30 
REMARK    8  A    between atoms: C21_31  and  C22_32 
REMARK    9  A    between atoms: C22_32  and  C23_33 
REMARK   10  A    between atoms: C23_33  and  C24_34 
REMARK   11  A    between atoms: N4_35  and  N5_37 
ROOT
HETATM    1  C12 UNL     1      23.184   0.891  21.533  1.00  0.00     0.195 A 
HETATM    2  C13 UNL     1      24.055  -0.019  20.780  1.00  0.00     0.000 A 
HETATM    3  C14 UNL     1      25.351  -0.410  20.816  1.00  0.00     0.012 A 
HETATM    4  C15 UNL     1      25.839  -1.294  19.878  1.00  0.00     0.001 A 
HETATM    5  C16 UNL     1      25.057  -1.806  18.890  1.00  0.00     0.002 A 
HETATM    6  C17 UNL     1      23.752  -1.424  18.842  1.00  0.00     0.031 A 
HETATM    7  C18 UNL     1      23.261  -0.540  19.779  1.00  0.00     0.057 A 
HETATM    8  N2  UNL     1      21.918  -0.080  19.883  1.00  0.00    -0.294 N 
ATOM      9  H2  UNL     1      21.145  -0.319  19.264  1.00  0.00     0.187 HD
HETATM   10  N3  UNL     1      21.863   0.757  20.992  1.00  0.00    -0.242 N 
HETATM   11  C19 UNL     1      20.671   1.319  21.490  1.00  0.00     0.262 C 
HETATM   12  O3  UNL     1      20.589   2.027  22.535  1.00  0.00    -0.267 OA
ENDROOT
BRANCH   1  13
HETATM   13  C11 UNL     1      23.653   2.274  21.753  1.00  0.00     0.051 C 
HETATM   14  N1  UNL     1      24.533   2.818  20.736  1.00  0.00    -0.320 N 
HETATM   15  C3  UNL     1      25.913   2.984  21.125  1.00  0.00     0.239 C 
HETATM   16  O1  UNL     1      26.788   2.694  20.272  1.00  0.00    -0.272 OA
HETATM   17  C4  UNL     1      26.254   3.488  22.499  1.00  0.00     0.161 C 
HETATM   18 BR1  UNL     1      27.701   2.459  23.178  1.00  0.00    -0.080 Br
HETATM   19  C5  UNL     1      25.060   3.605  23.370  1.00  0.00     0.009 C 
HETATM   20  C6  UNL     1      24.386   4.960  23.101  1.00  0.00     0.020 C 
HETATM   21  C10 UNL     1      24.007   2.549  23.154  1.00  0.00     0.176 C 
BRANCH  14  22
HETATM   22  C2  UNL     1      24.111   3.178  19.434  1.00  0.00     0.127 C 
HETATM   23  C1  UNL     1      23.516   4.592  19.330  1.00  0.00     0.027 C 
ENDBRANCH  14  22
BRANCH  19  24
HETATM   24  C7  UNL     1      25.423   3.644  24.837  1.00  0.00     0.014 C 
BRANCH  24  25
HETATM   25  C8  UNL     1      26.124   4.915  25.253  1.00  0.00     0.012 C 
BRANCH  25  26
HETATM   26  C9  UNL     1      25.581   5.297  26.615  1.00  0.00     0.085 C 
HETATM   27 BR2  UNL     1      23.658   5.492  26.581  1.00  0.00    -0.097 Br
ENDBRANCH  25  26
ENDBRANCH  24  25
ENDBRANCH  19  24
BRANCH  21  28
HETATM   28  O2  UNL     1      24.298   1.472  23.958  1.00  0.00    -0.389 OA
ATOM     29  H2  UNL     1      23.642   0.801  23.812  1.00  0.00     0.210 HD
ENDBRANCH  21  28
ENDBRANCH   1  13
BRANCH  11  30
HETATM   30  C20 UNL     1      19.381   1.112  20.795  1.00  0.00     0.072 C 
HETATM   31  C21 UNL     1      18.339   1.872  20.984  1.00  0.00    -0.021 C 
BRANCH  31  32
HETATM   32  C22 UNL     1      17.084   1.623  20.270  1.00  0.00     0.032 C 
BRANCH  32  33
HETATM   33  C23 UNL     1      15.876   1.677  21.180  1.00  0.00     0.050 C 
BRANCH  33  34
HETATM   34  C24 UNL     1      15.903   0.622  22.205  1.00  0.00     0.081 C 
HETATM   35  N4  UNL     1      15.095   0.683  23.197  1.00  0.00    -0.302 N 
ATOM     36  H4  UNL     1      14.456   1.479  23.229  1.00  0.00     0.187 HD
BRANCH  35  37
HETATM   37  N5  UNL     1      15.011  -0.234  24.227  1.00  0.00    -0.250 N 
HETATM   38  N6  UNL     1      15.514  -1.376  24.094  1.00  0.00    -0.331 N 
ATOM     39  H62 UNL     1      15.981  -1.612  23.219  1.00  0.00     0.178 HD
ATOM     40  H61 UNL     1      15.451  -2.053  24.855  1.00  0.00     0.178 HD
ATOM     41  H5  UNL     1      14.540   0.018  25.096  1.00  0.00     0.207 HD
ENDBRANCH  35  37
ENDBRANCH  33  34
ENDBRANCH  32  33
ENDBRANCH  31  32
ENDBRANCH  11  30
TORSDOF 11
ENDMDL
