MODEL 1
REMARK VINA RESULT: -7.654934561      0.000      0.000
REMARK  13 active torsions:
REMARK  status: ('A' for Active; 'I' for Inactive)
REMARK    1  A    between atoms: C2_2  and  N1_5 
REMARK    2  A    between atoms: C6_7  and  C7_8 
REMARK    3  A    between atoms: C7_8  and  N2_9 
REMARK       I    between atoms: N2_9  and  C8_11 
REMARK    4  A    between atoms: C8_11  and  C9_13 
REMARK    5  A    between atoms: C14_19  and  N3_20 
REMARK    6  A    between atoms: N3_20  and  C15_22 
REMARK    7  A    between atoms: C15_22  and  N4_24 
REMARK    8  A    between atoms: N4_24  and  C16_26 
REMARK    9  A    between atoms: C16_26  and  C17_27 
REMARK   10  A    between atoms: C17_27  and  C18_28 
REMARK   11  A    between atoms: C18_28  and  C19_29 
REMARK   12  A    between atoms: C19_29  and  C20_30 
REMARK   13  A    between atoms: C20_30  and  C21_31 
ROOT
HETATM    1  C9  UNL     1      23.504   4.397  19.111  1.00  0.00     0.181 C 
HETATM    2  C10 UNL     1      23.008   5.583  19.897  1.00  0.00     0.060 C 
HETATM    3  C11 UNL     1      23.273   4.769  21.115  1.00  0.00     0.091 C 
HETATM    4  C12 UNL     1      24.355   5.277  22.051  1.00  0.00     0.043 C 
HETATM    5  C13 UNL     1      24.782   4.215  23.023  1.00  0.00     0.091 C 
HETATM    6 BR1  UNL     1      23.428   4.229  24.444  1.00  0.00    -0.088 Br
HETATM    7  C14 UNL     1      24.853   2.829  22.513  1.00  0.00     0.190 C 
HETATM    8  C22 UNL     1      24.600   2.722  21.061  1.00  0.00     0.244 C 
HETATM    9  O2  UNL     1      24.984   1.687  20.417  1.00  0.00    -0.271 OA
HETATM   10  N5  UNL     1      23.942   3.726  20.333  1.00  0.00    -0.332 N 
ENDROOT
BRANCH   1  11
HETATM   11  C8  UNL     1      22.489   3.626  18.383  1.00  0.00     0.241 C 
HETATM   12  N2  UNL     1      21.486   4.262  17.596  1.00  0.00    -0.355 N 
ATOM     13  H2  UNL     1      21.497   5.281  17.555  1.00  0.00     0.162 HD
HETATM   14  O1  UNL     1      22.463   2.361  18.424  1.00  0.00    -0.271 OA
BRANCH  12  15
HETATM   15  C7  UNL     1      20.467   3.582  16.861  1.00  0.00     0.164 C 
BRANCH  15  16
HETATM   16  C6  UNL     1      20.126   4.225  15.555  1.00  0.00    -0.006 A 
HETATM   17  C5  UNL     1      20.957   4.939  14.727  1.00  0.00     0.121 A 
HETATM   18  N1  UNL     1      20.264   5.357  13.650  1.00  0.00    -0.294 N 
HETATM   19  N6  UNL     1      19.023   4.917  13.791  1.00  0.00    -0.309 N 
HETATM   20  C23 UNL     1      18.889   4.227  14.929  1.00  0.00     0.117 A 
ATOM     21  H6  UNL     1      18.271   5.083  13.123  1.00  0.00     0.186 HD
BRANCH  18  22
HETATM   22  C2  UNL     1      20.780   6.148  12.534  1.00  0.00     0.042 C 
HETATM   23  C1  UNL     1      19.546   6.807  11.903  1.00  0.00     0.039 C 
HETATM   24  C3  UNL     1      21.681   7.241  13.058  1.00  0.00     0.039 C 
HETATM   25  C4  UNL     1      21.439   5.320  11.482  1.00  0.00     0.039 C 
ENDBRANCH  18  22
ENDBRANCH  15  16
ENDBRANCH  12  15
ENDBRANCH   1  11
BRANCH   7  26
HETATM   26  N3  UNL     1      24.062   1.924  23.279  1.00  0.00    -0.353 N 
ATOM     27  H3  UNL     1      24.322   1.883  24.264  1.00  0.00     0.162 HD
BRANCH  26  28
HETATM   28  C15 UNL     1      23.011   1.090  22.946  1.00  0.00     0.168 C 
HETATM   29  S1  UNL     1      23.469  -0.558  22.838  1.00  0.00    -0.041 SA
BRANCH  28  30
HETATM   30  N4  UNL     1      21.656   1.329  22.680  1.00  0.00    -0.367 N 
ATOM     31  H4  UNL     1      21.081   1.547  23.493  1.00  0.00     0.161 HD
BRANCH  30  32
HETATM   32  C16 UNL     1      20.955   1.310  21.402  1.00  0.00     0.122 C 
BRANCH  32  33
HETATM   33  C17 UNL     1      20.308   2.646  21.228  1.00  0.00     0.020 C 
BRANCH  33  34
HETATM   34  C18 UNL     1      19.053   2.785  20.512  1.00  0.00     0.002 C 
BRANCH  34  35
HETATM   35  C19 UNL     1      17.893   1.917  20.697  1.00  0.00     0.001 C 
BRANCH  35  36
HETATM   36  C20 UNL     1      16.616   2.464  21.206  1.00  0.00     0.011 C 
BRANCH  36  37
HETATM   37  C21 UNL     1      15.859   1.317  21.927  1.00  0.00     0.085 C 
HETATM   38 BR2  UNL     1      16.978  -0.240  21.947  1.00  0.00    -0.097 Br
ENDBRANCH  36  37
ENDBRANCH  35  36
ENDBRANCH  34  35
ENDBRANCH  33  34
ENDBRANCH  32  33
ENDBRANCH  30  32
ENDBRANCH  28  30
ENDBRANCH  26  28
ENDBRANCH   7  26
TORSDOF 13
ENDMDL
MODEL 2
REMARK VINA RESULT: -7.549563705      0.937      1.241
REMARK  13 active torsions:
REMARK  status: ('A' for Active; 'I' for Inactive)
REMARK    1  A    between atoms: C2_2  and  N1_5 
REMARK    2  A    between atoms: C6_7  and  C7_8 
REMARK    3  A    between atoms: C7_8  and  N2_9 
REMARK       I    between atoms: N2_9  and  C8_11 
REMARK    4  A    between atoms: C8_11  and  C9_13 
REMARK    5  A    between atoms: C14_19  and  N3_20 
REMARK    6  A    between atoms: N3_20  and  C15_22 
REMARK    7  A    between atoms: C15_22  and  N4_24 
REMARK    8  A    between atoms: N4_24  and  C16_26 
REMARK    9  A    between atoms: C16_26  and  C17_27 
REMARK   10  A    between atoms: C17_27  and  C18_28 
REMARK   11  A    between atoms: C18_28  and  C19_29 
REMARK   12  A    between atoms: C19_29  and  C20_30 
REMARK   13  A    between atoms: C20_30  and  C21_31 
ROOT
HETATM    1  C9  UNL     1      23.367   4.846  19.255  1.00  0.00     0.181 C 
HETATM    2  C10 UNL     1      23.014   5.963  20.201  1.00  0.00     0.060 C 
HETATM    3  C11 UNL     1      23.249   4.984  21.297  1.00  0.00     0.091 C 
HETATM    4  C12 UNL     1      24.409   5.274  22.233  1.00  0.00     0.043 C 
HETATM    5  C13 UNL     1      24.771   4.065  23.047  1.00  0.00     0.091 C 
HETATM    6 BR1  UNL     1      23.481   4.021  24.525  1.00  0.00    -0.088 Br
HETATM    7  C14 UNL     1      24.693   2.753  22.371  1.00  0.00     0.190 C 
HETATM    8  C22 UNL     1      24.376   2.851  20.931  1.00  0.00     0.244 C 
HETATM    9  O2  UNL     1      24.637   1.875  20.148  1.00  0.00    -0.271 OA
HETATM   10  N5  UNL     1      23.787   3.991  20.363  1.00  0.00    -0.332 N 
ENDROOT
BRANCH   1  11
HETATM   11  C8  UNL     1      22.257   4.264  18.490  1.00  0.00     0.241 C 
HETATM   12  N2  UNL     1      22.455   3.680  17.207  1.00  0.00    -0.355 N 
ATOM     13  H2  UNL     1      23.404   3.678  16.832  1.00  0.00     0.162 HD
HETATM   14  O1  UNL     1      21.073   4.257  18.942  1.00  0.00    -0.271 OA
BRANCH  12  15
HETATM   15  C7  UNL     1      21.428   3.095  16.403  1.00  0.00     0.164 C 
BRANCH  15  16
HETATM   16  C6  UNL     1      20.816   4.036  15.417  1.00  0.00    -0.006 A 
HETATM   17  C5  UNL     1      21.404   4.589  14.305  1.00  0.00     0.121 A 
HETATM   18  N1  UNL     1      20.518   5.391  13.682  1.00  0.00    -0.294 N 
HETATM   19  N6  UNL     1      19.394   5.347  14.383  1.00  0.00    -0.309 N 
HETATM   20  C23 UNL     1      19.525   4.541  15.442  1.00  0.00     0.117 A 
ATOM     21  H6  UNL     1      18.545   5.859  14.146  1.00  0.00     0.186 HD
BRANCH  18  22
HETATM   22  C2  UNL     1      20.748   6.166  12.465  1.00  0.00     0.042 C 
HETATM   23  C1  UNL     1      21.706   7.291  12.878  1.00  0.00     0.039 C 
HETATM   24  C3  UNL     1      21.447   5.307  11.438  1.00  0.00     0.039 C 
HETATM   25  C4  UNL     1      19.508   6.802  11.930  1.00  0.00     0.039 C 
ENDBRANCH  18  22
ENDBRANCH  15  16
ENDBRANCH  12  15
ENDBRANCH   1  11
BRANCH   7  26
HETATM   26  N3  UNL     1      23.852   1.832  23.060  1.00  0.00    -0.353 N 
ATOM     27  H3  UNL     1      24.142   1.650  24.020  1.00  0.00     0.162 HD
BRANCH  26  28
HETATM   28  C15 UNL     1      22.719   1.138  22.679  1.00  0.00     0.168 C 
HETATM   29  S1  UNL     1      23.042  -0.491  22.254  1.00  0.00    -0.041 SA
BRANCH  28  30
HETATM   30  N4  UNL     1      21.371   1.504  22.573  1.00  0.00    -0.367 N 
ATOM     31  H4  UNL     1      20.796   1.306  23.392  1.00  0.00     0.161 HD
BRANCH  30  32
HETATM   32  C16 UNL     1      20.675   2.129  21.454  1.00  0.00     0.122 C 
BRANCH  32  33
HETATM   33  C17 UNL     1      19.727   1.115  20.897  1.00  0.00     0.020 C 
BRANCH  33  34
HETATM   34  C18 UNL     1      18.362   1.023  21.378  1.00  0.00     0.002 C 
BRANCH  34  35
HETATM   35  C19 UNL     1      17.305   1.979  21.062  1.00  0.00     0.001 C 
BRANCH  35  36
HETATM   36  C20 UNL     1      15.987   1.898  21.731  1.00  0.00     0.011 C 
BRANCH  36  37
HETATM   37  C21 UNL     1      15.915   0.540  22.479  1.00  0.00     0.085 C 
HETATM   38 BR2  UNL     1      14.806   0.750  24.029  1.00  0.00    -0.097 Br
ENDBRANCH  36  37
ENDBRANCH  35  36
ENDBRANCH  34  35
ENDBRANCH  33  34
ENDBRANCH  32  33
ENDBRANCH  30  32
ENDBRANCH  28  30
ENDBRANCH  26  28
ENDBRANCH   7  26
TORSDOF 13
ENDMDL
MODEL 3
REMARK VINA RESULT: -7.306858584      1.807      2.562
REMARK  13 active torsions:
REMARK  status: ('A' for Active; 'I' for Inactive)
REMARK    1  A    between atoms: C2_2  and  N1_5 
REMARK    2  A    between atoms: C6_7  and  C7_8 
REMARK    3  A    between atoms: C7_8  and  N2_9 
REMARK       I    between atoms: N2_9  and  C8_11 
REMARK    4  A    between atoms: C8_11  and  C9_13 
REMARK    5  A    between atoms: C14_19  and  N3_20 
REMARK    6  A    between atoms: N3_20  and  C15_22 
REMARK    7  A    between atoms: C15_22  and  N4_24 
REMARK    8  A    between atoms: N4_24  and  C16_26 
REMARK    9  A    between atoms: C16_26  and  C17_27 
REMARK   10  A    between atoms: C17_27  and  C18_28 
REMARK   11  A    between atoms: C18_28  and  C19_29 
REMARK   12  A    between atoms: C19_29  and  C20_30 
REMARK   13  A    between atoms: C20_30  and  C21_31 
ROOT
HETATM    1  C9  UNL     1      23.558   3.690  18.720  1.00  0.00     0.181 C 
HETATM    2  C10 UNL     1      23.848   4.476  19.972  1.00  0.00     0.060 C 
HETATM    3  C11 UNL     1      23.195   3.362  20.712  1.00  0.00     0.091 C 
HETATM    4  C12 UNL     1      24.077   2.560  21.652  1.00  0.00     0.043 C 
HETATM    5  C13 UNL     1      23.422   1.269  22.050  1.00  0.00     0.091 C 
HETATM    6 BR1  UNL     1      22.170   1.737  23.488  1.00  0.00    -0.088 Br
HETATM    7  C14 UNL     1      22.638   0.567  21.012  1.00  0.00     0.190 C 
HETATM    8  C22 UNL     1      22.722   1.203  19.681  1.00  0.00     0.244 C 
HETATM    9  O2  UNL     1      22.426   0.535  18.631  1.00  0.00    -0.271 OA
HETATM   10  N5  UNL     1      23.122   2.536  19.504  1.00  0.00    -0.332 N 
ENDROOT
BRANCH   1  11
HETATM   11  C8  UNL     1      22.495   4.212  17.854  1.00  0.00     0.241 C 
HETATM   12  N2  UNL     1      21.421   3.391  17.406  1.00  0.00    -0.355 N 
ATOM     13  H2  UNL     1      21.415   2.417  17.710  1.00  0.00     0.162 HD
HETATM   14  O1  UNL     1      22.488   5.419  17.468  1.00  0.00    -0.271 OA
BRANCH  12  15
HETATM   15  C7  UNL     1      20.352   3.825  16.563  1.00  0.00     0.164 C 
BRANCH  15  16
HETATM   16  C6  UNL     1      20.779   4.203  15.182  1.00  0.00    -0.006 A 
HETATM   17  C5  UNL     1      20.391   5.301  14.453  1.00  0.00     0.121 A 
HETATM   18  N1  UNL     1      20.997   5.276  13.249  1.00  0.00    -0.294 N 
HETATM   19  N6  UNL     1      21.750   4.187  13.216  1.00  0.00    -0.309 N 
HETATM   20  C23 UNL     1      21.652   3.505  14.362  1.00  0.00     0.117 A 
ATOM     21  H6  UNL     1      22.328   3.907  12.424  1.00  0.00     0.186 HD
BRANCH  18  22
HETATM   22  C2  UNL     1      20.851   6.259  12.178  1.00  0.00     0.042 C 
HETATM   23  C1  UNL     1      21.700   7.460  12.615  1.00  0.00     0.039 C 
HETATM   24  C3  UNL     1      21.437   5.710  10.899  1.00  0.00     0.039 C 
HETATM   25  C4  UNL     1      19.447   6.736  12.005  1.00  0.00     0.039 C 
ENDBRANCH  18  22
ENDBRANCH  15  16
ENDBRANCH  12  15
ENDBRANCH   1  11
BRANCH   7  26
HETATM   26  N3  UNL     1      21.295   0.313  21.418  1.00  0.00    -0.353 N 
ATOM     27  H3  UNL     1      21.118   0.519  22.401  1.00  0.00     0.162 HD
BRANCH  26  28
HETATM   28  C15 UNL     1      20.187  -0.157  20.740  1.00  0.00     0.168 C 
HETATM   29  S1  UNL     1      19.760  -1.758  21.181  1.00  0.00    -0.041 SA
BRANCH  28  30
HETATM   30  N4  UNL     1      19.354   0.414  19.768  1.00  0.00    -0.367 N 
ATOM     31  H4  UNL     1      19.008  -0.228  19.055  1.00  0.00     0.161 HD
BRANCH  30  32
HETATM   32  C16 UNL     1      18.912   1.796  19.637  1.00  0.00     0.122 C 
BRANCH  32  33
HETATM   33  C17 UNL     1      18.239   2.173  20.918  1.00  0.00     0.020 C 
BRANCH  33  34
HETATM   34  C18 UNL     1      16.794   2.268  21.005  1.00  0.00     0.002 C 
BRANCH  34  35
HETATM   35  C19 UNL     1      15.944   1.329  21.733  1.00  0.00     0.001 C 
BRANCH  35  36
HETATM   36  C20 UNL     1      16.450  -0.008  22.114  1.00  0.00     0.011 C 
BRANCH  36  37
HETATM   37  C21 UNL     1      15.773  -0.412  23.451  1.00  0.00     0.085 C 
HETATM   38 BR2  UNL     1      14.641   1.026  24.025  1.00  0.00    -0.097 Br
ENDBRANCH  36  37
ENDBRANCH  35  36
ENDBRANCH  34  35
ENDBRANCH  33  34
ENDBRANCH  32  33
ENDBRANCH  30  32
ENDBRANCH  28  30
ENDBRANCH  26  28
ENDBRANCH   7  26
TORSDOF 13
ENDMDL
MODEL 4
REMARK VINA RESULT: -7.296852950      0.694      1.099
REMARK  13 active torsions:
REMARK  status: ('A' for Active; 'I' for Inactive)
REMARK    1  A    between atoms: C2_2  and  N1_5 
REMARK    2  A    between atoms: C6_7  and  C7_8 
REMARK    3  A    between atoms: C7_8  and  N2_9 
REMARK       I    between atoms: N2_9  and  C8_11 
REMARK    4  A    between atoms: C8_11  and  C9_13 
REMARK    5  A    between atoms: C14_19  and  N3_20 
REMARK    6  A    between atoms: N3_20  and  C15_22 
REMARK    7  A    between atoms: C15_22  and  N4_24 
REMARK    8  A    between atoms: N4_24  and  C16_26 
REMARK    9  A    between atoms: C16_26  and  C17_27 
REMARK   10  A    between atoms: C17_27  and  C18_28 
REMARK   11  A    between atoms: C18_28  and  C19_29 
REMARK   12  A    between atoms: C19_29  and  C20_30 
REMARK   13  A    between atoms: C20_30  and  C21_31 
ROOT
HETATM    1  C9  UNL     1      23.750   4.435  19.358  1.00  0.00     0.181 C 
HETATM    2  C10 UNL     1      23.203   5.538  20.225  1.00  0.00     0.060 C 
HETATM    3  C11 UNL     1      23.400   4.610  21.371  1.00  0.00     0.091 C 
HETATM    4  C12 UNL     1      24.422   5.023  22.415  1.00  0.00     0.043 C 
HETATM    5  C13 UNL     1      24.796   3.870  23.302  1.00  0.00     0.091 C 
HETATM    6 BR1  UNL     1      23.360   3.746  24.634  1.00  0.00    -0.088 Br
HETATM    7  C14 UNL     1      24.904   2.541  22.664  1.00  0.00     0.190 C 
HETATM    8  C22 UNL     1      24.738   2.577  21.196  1.00  0.00     0.244 C 
HETATM    9  O2  UNL     1      25.165   1.609  20.478  1.00  0.00    -0.271 OA
HETATM   10  N5  UNL     1      24.119   3.647  20.532  1.00  0.00    -0.332 N 
ENDROOT
BRANCH   1  11
HETATM   11  C8  UNL     1      22.784   3.740  18.499  1.00  0.00     0.241 C 
HETATM   12  N2  UNL     1      21.954   4.444  17.581  1.00  0.00    -0.355 N 
ATOM     13  H2  UNL     1      22.054   5.459  17.540  1.00  0.00     0.162 HD
HETATM   14  O1  UNL     1      22.649   2.481  18.538  1.00  0.00    -0.271 OA
BRANCH  12  15
HETATM   15  C7  UNL     1      20.991   3.840  16.714  1.00  0.00     0.164 C 
BRANCH  15  16
HETATM   16  C6  UNL     1      21.169   4.185  15.271  1.00  0.00    -0.006 A 
HETATM   17  C5  UNL     1      20.830   5.356  14.639  1.00  0.00     0.121 A 
HETATM   18  N1  UNL     1      21.147   5.267  13.332  1.00  0.00    -0.294 N 
HETATM   19  N6  UNL     1      21.676   4.068  13.141  1.00  0.00    -0.309 N 
HETATM   20  C23 UNL     1      21.711   3.375  14.285  1.00  0.00     0.117 A 
ATOM     21  H6  UNL     1      22.011   3.720  12.243  1.00  0.00     0.186 HD
BRANCH  18  22
HETATM   22  C2  UNL     1      20.946   6.296  12.313  1.00  0.00     0.042 C 
HETATM   23  C1  UNL     1      21.478   5.682  11.011  1.00  0.00     0.039 C 
HETATM   24  C3  UNL     1      19.469   6.560  12.140  1.00  0.00     0.039 C 
HETATM   25  C4  UNL     1      21.723   7.543  12.576  1.00  0.00     0.039 C 
ENDBRANCH  18  22
ENDBRANCH  15  16
ENDBRANCH  12  15
ENDBRANCH   1  11
BRANCH   7  26
HETATM   26  N3  UNL     1      24.074   1.566  23.290  1.00  0.00    -0.353 N 
ATOM     27  H3  UNL     1      24.325   1.374  24.259  1.00  0.00     0.162 HD
BRANCH  26  28
HETATM   28  C15 UNL     1      22.995   0.829  22.838  1.00  0.00     0.168 C 
HETATM   29  S1  UNL     1      23.384  -0.813  22.532  1.00  0.00    -0.041 SA
BRANCH  28  30
HETATM   30  N4  UNL     1      21.659   1.161  22.580  1.00  0.00    -0.367 N 
ATOM     31  H4  UNL     1      21.104   1.414  23.398  1.00  0.00     0.161 HD
BRANCH  30  32
HETATM   32  C16 UNL     1      20.951   1.195  21.306  1.00  0.00     0.122 C 
BRANCH  32  33
HETATM   33  C17 UNL     1      20.328   2.549  21.179  1.00  0.00     0.020 C 
BRANCH  33  34
HETATM   34  C18 UNL     1      19.078   2.734  20.465  1.00  0.00     0.002 C 
BRANCH  34  35
HETATM   35  C19 UNL     1      17.871   1.945  20.688  1.00  0.00     0.001 C 
BRANCH  35  36
HETATM   36  C20 UNL     1      16.682   2.548  21.331  1.00  0.00     0.011 C 
BRANCH  36  37
HETATM   37  C21 UNL     1      15.626   1.428  21.529  1.00  0.00     0.085 C 
HETATM   38 BR2  UNL     1      16.483  -0.090  22.328  1.00  0.00    -0.097 Br
ENDBRANCH  36  37
ENDBRANCH  35  36
ENDBRANCH  34  35
ENDBRANCH  33  34
ENDBRANCH  32  33
ENDBRANCH  30  32
ENDBRANCH  28  30
ENDBRANCH  26  28
ENDBRANCH   7  26
TORSDOF 13
ENDMDL
MODEL 5
REMARK VINA RESULT: -7.242175796      3.982      6.622
REMARK  13 active torsions:
REMARK  status: ('A' for Active; 'I' for Inactive)
REMARK    1  A    between atoms: C2_2  and  N1_5 
REMARK    2  A    between atoms: C6_7  and  C7_8 
REMARK    3  A    between atoms: C7_8  and  N2_9 
REMARK       I    between atoms: N2_9  and  C8_11 
REMARK    4  A    between atoms: C8_11  and  C9_13 
REMARK    5  A    between atoms: C14_19  and  N3_20 
REMARK    6  A    between atoms: N3_20  and  C15_22 
REMARK    7  A    between atoms: C15_22  and  N4_24 
REMARK    8  A    between atoms: N4_24  and  C16_26 
REMARK    9  A    between atoms: C16_26  and  C17_27 
REMARK   10  A    between atoms: C17_27  and  C18_28 
REMARK   11  A    between atoms: C18_28  and  C19_29 
REMARK   12  A    between atoms: C19_29  and  C20_30 
REMARK   13  A    between atoms: C20_30  and  C21_31 
ROOT
HETATM    1  C9  UNL     1      19.998  -2.426  19.574  1.00  0.00     0.181 C 
HETATM    2  C10 UNL     1      20.725  -2.616  18.268  1.00  0.00     0.060 C 
HETATM    3  C11 UNL     1      21.977  -2.376  19.037  1.00  0.00     0.091 C 
HETATM    4  C12 UNL     1      22.950  -3.537  19.134  1.00  0.00     0.043 C 
HETATM    5  C13 UNL     1      23.971  -3.308  20.211  1.00  0.00     0.091 C 
HETATM    6 BR1  UNL     1      25.323  -2.132  19.412  1.00  0.00    -0.088 Br
HETATM    7  C14 UNL     1      23.504  -2.644  21.448  1.00  0.00     0.190 C 
HETATM    8  C22 UNL     1      22.045  -2.412  21.475  1.00  0.00     0.244 C 
HETATM    9  O2  UNL     1      21.449  -2.204  22.588  1.00  0.00    -0.271 OA
HETATM   10  N5  UNL     1      21.258  -2.408  20.314  1.00  0.00    -0.332 N 
ENDROOT
BRANCH   1  11
HETATM   11  C8  UNL     1      19.243  -1.176  19.724  1.00  0.00     0.241 C 
HETATM   12  N2  UNL     1      19.834   0.093  19.464  1.00  0.00    -0.355 N 
ATOM     13  H2  UNL     1      20.810   0.106  19.166  1.00  0.00     0.162 HD
HETATM   14  O1  UNL     1      18.031  -1.175  20.091  1.00  0.00    -0.271 OA
BRANCH  12  15
HETATM   15  C7  UNL     1      19.166   1.351  19.587  1.00  0.00     0.164 C 
BRANCH  15  16
HETATM   16  C6  UNL     1      20.084   2.510  19.803  1.00  0.00    -0.006 A 
HETATM   17  C5  UNL     1      21.280   2.764  19.177  1.00  0.00     0.121 A 
HETATM   18  N1  UNL     1      21.803   3.908  19.660  1.00  0.00    -0.294 N 
HETATM   19  N6  UNL     1      20.959   4.369  20.570  1.00  0.00    -0.309 N 
HETATM   20  C23 UNL     1      19.902   3.558  20.693  1.00  0.00     0.117 A 
ATOM     21  H6  UNL     1      21.095   5.226  21.104  1.00  0.00     0.186 HD
BRANCH  18  22
HETATM   22  C2  UNL     1      23.066   4.527  19.260  1.00  0.00     0.042 C 
HETATM   23  C1  UNL     1      23.093   5.885  19.974  1.00  0.00     0.039 C 
HETATM   24  C3  UNL     1      24.223   3.702  19.772  1.00  0.00     0.039 C 
HETATM   25  C4  UNL     1      23.154   4.786  17.792  1.00  0.00     0.039 C 
ENDBRANCH  18  22
ENDBRANCH  15  16
ENDBRANCH  12  15
ENDBRANCH   1  11
BRANCH   7  26
HETATM   26  N3  UNL     1      24.255  -1.474  21.757  1.00  0.00    -0.353 N 
ATOM     27  H3  UNL     1      24.851  -1.155  20.994  1.00  0.00     0.162 HD
BRANCH  26  28
HETATM   28  C15 UNL     1      24.333  -0.687  22.891  1.00  0.00     0.168 C 
HETATM   29  S1  UNL     1      25.917  -0.103  23.194  1.00  0.00    -0.041 SA
BRANCH  28  30
HETATM   30  N4  UNL     1      23.379  -0.279  23.832  1.00  0.00    -0.367 N 
ATOM     31  H4  UNL     1      22.528  -0.839  23.865  1.00  0.00     0.161 HD
BRANCH  30  32
HETATM   32  C16 UNL     1      23.435   0.835  24.771  1.00  0.00     0.122 C 
BRANCH  32  33
HETATM   33  C17 UNL     1      22.579   1.928  24.217  1.00  0.00     0.020 C 
BRANCH  33  34
HETATM   34  C18 UNL     1      23.122   2.914  23.301  1.00  0.00     0.002 C 
BRANCH  34  35
HETATM   35  C19 UNL     1      23.324   4.324  23.625  1.00  0.00     0.001 C 
BRANCH  35  36
HETATM   36  C20 UNL     1      24.642   4.965  23.419  1.00  0.00     0.011 C 
BRANCH  36  37
HETATM   37  C21 UNL     1      25.205   5.357  24.811  1.00  0.00     0.085 C 
HETATM   38 BR2  UNL     1      23.739   5.568  26.029  1.00  0.00    -0.097 Br
ENDBRANCH  36  37
ENDBRANCH  35  36
ENDBRANCH  34  35
ENDBRANCH  33  34
ENDBRANCH  32  33
ENDBRANCH  30  32
ENDBRANCH  28  30
ENDBRANCH  26  28
ENDBRANCH   7  26
TORSDOF 13
ENDMDL
