MODEL 1
REMARK VINA RESULT: -8.893302296      0.000      0.000
REMARK  12 active torsions:
REMARK  status: ('A' for Active; 'I' for Inactive)
REMARK    1  A    between atoms: C2_2  and  C4_4 
REMARK    2  A    between atoms: C4_4  and  N1_5 
REMARK    3  A    between atoms: C4_4  and  C10_14 
REMARK       I    between atoms: N1_5  and  C5_7 
REMARK    4  A    between atoms: C5_7  and  C6_9 
REMARK    5  A    between atoms: C6_9  and  C9_12 
REMARK    6  A    between atoms: C13_17  and  C14_18 
REMARK    7  A    between atoms: C14_18  and  C16_20 
REMARK    8  A    between atoms: C17_21  and  C18_22 
REMARK    9  A    between atoms: C18_22  and  C19_23 
REMARK   10  A    between atoms: C19_23  and  N2_24 
REMARK       I    between atoms: C20_26  and  N3_27 
REMARK       I    between atoms: C20_26  and  N6_34 
REMARK       I    between atoms: N3_27  and  C21_29 
REMARK   11  A    between atoms: C25_39  and  C26_40 
REMARK   12  A    between atoms: C26_40  and  N7_41 
ROOT
HETATM    1  C18 UNL     1      23.251   4.943  18.293  1.00  0.00     0.114 C 
ENDROOT
BRANCH   1   2
HETATM    2  C17 UNL     1      24.018   4.056  19.171  1.00  0.00    -0.104 C 
HETATM    3  C16 UNL     1      24.668   3.308  19.888  1.00  0.00    -0.100 C 
BRANCH   3   4
HETATM    4  C14 UNL     1      25.426   2.405  20.758  1.00  0.00     0.090 C 
HETATM    5  C15 UNL     1      24.951   0.961  20.577  1.00  0.00     0.026 C 
BRANCH   4   6
HETATM    6  C13 UNL     1      25.181   2.803  22.198  1.00  0.00     0.137 C 
HETATM    7  C12 UNL     1      23.798   2.360  22.605  1.00  0.00     0.036 C 
HETATM    8  C11 UNL     1      23.272   3.625  23.276  1.00  0.00     0.036 C 
HETATM    9  C10 UNL     1      24.466   4.496  23.488  1.00  0.00     0.145 C 
HETATM   10  O2  UNL     1      25.251   4.169  22.358  1.00  0.00    -0.377 OA
BRANCH   9  11
HETATM   11  C4  UNL     1      25.287   4.177  24.693  1.00  0.00     0.116 C 
BRANCH  11  12
HETATM   12  C2  UNL     1      25.237   5.428  25.586  1.00  0.00     0.003 C 
HETATM   13  C1  UNL     1      23.921   5.495  26.328  1.00  0.00     0.011 C 
HETATM   14  C3  UNL     1      25.442   6.672  24.777  1.00  0.00     0.011 C 
ENDBRANCH  11  12
BRANCH  11  15
HETATM   15  N1  UNL     1      24.825   3.066  25.470  1.00  0.00    -0.353 N 
HETATM   16  C5  UNL     1      25.600   1.906  25.732  1.00  0.00     0.226 C 
HETATM   17  O1  UNL     1      26.756   1.850  25.257  1.00  0.00    -0.273 OA
ATOM     18  H1  UNL     1      23.882   3.110  25.858  1.00  0.00     0.163 HD
BRANCH  16  19
HETATM   19  C6  UNL     1      25.098   0.777  26.537  1.00  0.00     0.043 C 
HETATM   20  C7  UNL     1      23.828   1.200  27.245  1.00  0.00     0.026 C 
HETATM   21  C8  UNL     1      24.749  -0.419  25.677  1.00  0.00     0.026 C 
BRANCH  19  22
HETATM   22  C9  UNL     1      26.144   0.398  27.566  1.00  0.00     0.103 C 
HETATM   23 BR1  UNL     1      26.105  -1.511  27.800  1.00  0.00    -0.095 Br
ENDBRANCH  19  22
ENDBRANCH  16  19
ENDBRANCH  11  15
ENDBRANCH   9  11
ENDBRANCH   4   6
ENDBRANCH   3   4
ENDBRANCH   1   2
BRANCH   1  24
HETATM   24  C19 UNL     1      22.528   4.066  17.275  1.00  0.00     0.150 C 
BRANCH  24  25
HETATM   25  N2  UNL     1      22.360   4.761  16.019  1.00  0.00    -0.225 N 
HETATM   26  C20 UNL     1      21.367   4.467  15.261  1.00  0.00     0.679 C 
HETATM   27  N3  UNL     1      20.461   3.465  15.683  1.00  0.00    -0.164 N 
HETATM   28  N6  UNL     1      21.144   5.119  14.006  1.00  0.00    -0.209 N 
HETATM   29  C21 UNL     1      19.179   3.820  16.152  1.00  0.00     0.200 C 
ATOM     30  H3  UNL     1      20.736   2.484  15.647  1.00  0.00     0.187 HD
HETATM   31  N4  UNL     1      18.476   2.953  16.780  1.00  0.00    -0.373 N 
HETATM   32  N5  UNL     1      18.606   5.105  15.969  1.00  0.00    -0.063 NA
ATOM     33  H42 UNL     1      18.888   2.029  16.912  1.00  0.00     0.158 HD
ATOM     34  H41 UNL     1      17.549   3.209  17.120  1.00  0.00     0.158 HD
HETATM   35  C22 UNL     1      21.300   6.579  13.902  1.00  0.00     0.179 C 
HETATM   36  C25 UNL     1      20.772   4.606  12.726  1.00  0.00     0.131 C 
HETATM   37  C23 UNL     1      21.182   6.893  12.430  1.00  0.00     0.190 C 
HETATM   38  F1  UNL     1      22.062   7.874  12.039  1.00  0.00    -0.248 F 
HETATM   39  C24 UNL     1      21.515   5.562  11.795  1.00  0.00     0.066 C 
ATOM     40  H2  UNL     1      23.026   5.479  15.737  1.00  0.00     0.177 HD
BRANCH  36  41
HETATM   41  C26 UNL     1      21.215   3.196  12.523  1.00  0.00     0.263 C 
BRANCH  41  42
HETATM   42  N7  UNL     1      20.437   2.530  11.499  1.00  0.00    -0.066 N 
HETATM   43  C27 UNL     1      19.008   2.738  11.502  1.00  0.00     0.272 C 
HETATM   44  C28 UNL     1      21.057   2.156  10.263  1.00  0.00     0.265 A 
HETATM   45  C29 UNL     1      20.811   1.119  11.315  1.00  0.00     0.265 A 
ENDBRANCH  41  42
ENDBRANCH  36  41
ENDBRANCH  24  25
ENDBRANCH   1  24
TORSDOF 12
ENDMDL
MODEL 2
REMARK VINA RESULT: -8.715835155      2.410      3.312
REMARK  12 active torsions:
REMARK  status: ('A' for Active; 'I' for Inactive)
REMARK    1  A    between atoms: C2_2  and  C4_4 
REMARK    2  A    between atoms: C4_4  and  N1_5 
REMARK    3  A    between atoms: C4_4  and  C10_14 
REMARK       I    between atoms: N1_5  and  C5_7 
REMARK    4  A    between atoms: C5_7  and  C6_9 
REMARK    5  A    between atoms: C6_9  and  C9_12 
REMARK    6  A    between atoms: C13_17  and  C14_18 
REMARK    7  A    between atoms: C14_18  and  C16_20 
REMARK    8  A    between atoms: C17_21  and  C18_22 
REMARK    9  A    between atoms: C18_22  and  C19_23 
REMARK   10  A    between atoms: C19_23  and  N2_24 
REMARK       I    between atoms: C20_26  and  N3_27 
REMARK       I    between atoms: C20_26  and  N6_34 
REMARK       I    between atoms: N3_27  and  C21_29 
REMARK   11  A    between atoms: C25_39  and  C26_40 
REMARK   12  A    between atoms: C26_40  and  N7_41 
ROOT
HETATM    1  C18 UNL     1      22.999   6.048  17.201  1.00  0.00     0.114 C 
ENDROOT
BRANCH   1   2
HETATM    2  C17 UNL     1      22.654   5.173  18.324  1.00  0.00    -0.104 C 
HETATM    3  C16 UNL     1      22.380   4.427  19.255  1.00  0.00    -0.100 C 
BRANCH   3   4
HETATM    4  C14 UNL     1      22.028   3.539  20.365  1.00  0.00     0.090 C 
HETATM    5  C15 UNL     1      20.671   3.931  20.956  1.00  0.00     0.026 C 
BRANCH   4   6
HETATM    6  C13 UNL     1      23.073   3.685  21.451  1.00  0.00     0.137 C 
HETATM    7  C12 UNL     1      24.343   3.002  21.008  1.00  0.00     0.036 C 
HETATM    8  C11 UNL     1      24.690   2.194  22.255  1.00  0.00     0.036 C 
HETATM    9  C10 UNL     1      23.828   2.742  23.344  1.00  0.00     0.145 C 
HETATM   10  O2  UNL     1      22.662   3.092  22.624  1.00  0.00    -0.377 OA
BRANCH   9  11
HETATM   11  C4  UNL     1      24.328   3.990  23.992  1.00  0.00     0.116 C 
BRANCH  11  12
HETATM   12  C2  UNL     1      23.580   4.106  25.330  1.00  0.00     0.003 C 
HETATM   13  C1  UNL     1      23.677   5.516  25.868  1.00  0.00     0.011 C 
HETATM   14  C3  UNL     1      24.118   3.129  26.330  1.00  0.00     0.011 C 
ENDBRANCH  11  12
BRANCH  11  15
HETATM   15  N1  UNL     1      25.733   4.012  24.271  1.00  0.00    -0.353 N 
HETATM   16  C5  UNL     1      26.600   5.071  23.894  1.00  0.00     0.226 C 
HETATM   17  O1  UNL     1      26.109   6.045  23.281  1.00  0.00    -0.273 OA
ATOM     18  H1  UNL     1      26.135   3.218  24.771  1.00  0.00     0.163 HD
BRANCH  16  19
HETATM   19  C6  UNL     1      28.044   5.066  24.198  1.00  0.00     0.043 C 
HETATM   20  C7  UNL     1      28.244   4.655  25.640  1.00  0.00     0.026 C 
HETATM   21  C8  UNL     1      28.796   4.069  23.343  1.00  0.00     0.026 C 
BRANCH  19  22
HETATM   22  C9  UNL     1      28.597   6.461  23.991  1.00  0.00     0.103 C 
HETATM   23 BR1  UNL     1      30.068   6.355  22.754  1.00  0.00    -0.095 Br
ENDBRANCH  19  22
ENDBRANCH  16  19
ENDBRANCH  11  15
ENDBRANCH   9  11
ENDBRANCH   4   6
ENDBRANCH   3   4
ENDBRANCH   1   2
BRANCH   1  24
HETATM   24  C19 UNL     1      23.226   5.160  15.981  1.00  0.00     0.150 C 
BRANCH  24  25
HETATM   25  N2  UNL     1      22.363   5.547  14.890  1.00  0.00    -0.225 N 
HETATM   26  C20 UNL     1      21.334   4.831  14.612  1.00  0.00     0.679 C 
HETATM   27  N3  UNL     1      21.077   3.678  15.389  1.00  0.00    -0.164 N 
HETATM   28  N6  UNL     1      20.439   5.162  13.544  1.00  0.00    -0.209 N 
HETATM   29  C21 UNL     1      20.030   3.678  16.335  1.00  0.00     0.200 C 
ATOM     30  H3  UNL     1      21.650   2.844  15.265  1.00  0.00     0.187 HD
HETATM   31  N4  UNL     1      19.976   2.749  17.214  1.00  0.00    -0.373 N 
HETATM   32  N5  UNL     1      19.011   4.665  16.375  1.00  0.00    -0.063 NA
ATOM     33  H42 UNL     1      20.708   2.039  17.186  1.00  0.00     0.158 HD
ATOM     34  H41 UNL     1      19.219   2.749  17.899  1.00  0.00     0.158 HD
HETATM   35  C22 UNL     1      20.010   6.558  13.354  1.00  0.00     0.179 C 
HETATM   36  C25 UNL     1      19.823   4.353  12.541  1.00  0.00     0.131 C 
HETATM   37  C23 UNL     1      19.244   6.570  12.053  1.00  0.00     0.190 C 
HETATM   38  F1  UNL     1      19.498   7.701  11.314  1.00  0.00    -0.248 F 
HETATM   39  C24 UNL     1      19.767   5.328  11.366  1.00  0.00     0.066 C 
ATOM     40  H2  UNL     1      22.569   6.383  14.343  1.00  0.00     0.177 HD
BRANCH  36  41
HETATM   41  C26 UNL     1      20.631   3.144  12.205  1.00  0.00     0.263 C 
BRANCH  41  42
HETATM   42  N7  UNL     1      19.923   2.259  11.303  1.00  0.00    -0.066 N 
HETATM   43  C27 UNL     1      18.494   2.134  11.471  1.00  0.00     0.272 C 
HETATM   44  C28 UNL     1      20.474   1.965  10.014  1.00  0.00     0.265 A 
HETATM   45  C29 UNL     1      20.595   0.962  11.120  1.00  0.00     0.265 A 
ENDBRANCH  41  42
ENDBRANCH  36  41
ENDBRANCH  24  25
ENDBRANCH   1  24
TORSDOF 12
ENDMDL
MODEL 3
REMARK VINA RESULT: -8.382898410      3.855      5.256
REMARK  12 active torsions:
REMARK  status: ('A' for Active; 'I' for Inactive)
REMARK    1  A    between atoms: C2_2  and  C4_4 
REMARK    2  A    between atoms: C4_4  and  N1_5 
REMARK    3  A    between atoms: C4_4  and  C10_14 
REMARK       I    between atoms: N1_5  and  C5_7 
REMARK    4  A    between atoms: C5_7  and  C6_9 
REMARK    5  A    between atoms: C6_9  and  C9_12 
REMARK    6  A    between atoms: C13_17  and  C14_18 
REMARK    7  A    between atoms: C14_18  and  C16_20 
REMARK    8  A    between atoms: C17_21  and  C18_22 
REMARK    9  A    between atoms: C18_22  and  C19_23 
REMARK   10  A    between atoms: C19_23  and  N2_24 
REMARK       I    between atoms: C20_26  and  N3_27 
REMARK       I    between atoms: C20_26  and  N6_34 
REMARK       I    between atoms: N3_27  and  C21_29 
REMARK   11  A    between atoms: C25_39  and  C26_40 
REMARK   12  A    between atoms: C26_40  and  N7_41 
ROOT
HETATM    1  C18 UNL     1      23.082   5.836  18.484  1.00  0.00     0.114 C 
ENDROOT
BRANCH   1   2
HETATM    2  C17 UNL     1      22.845   5.105  19.731  1.00  0.00    -0.104 C 
HETATM    3  C16 UNL     1      22.667   4.494  20.776  1.00  0.00    -0.100 C 
BRANCH   3   4
HETATM    4  C14 UNL     1      22.439   3.747  22.016  1.00  0.00     0.090 C 
HETATM    5  C15 UNL     1      23.757   3.529  22.762  1.00  0.00     0.026 C 
BRANCH   4   6
HETATM    6  C13 UNL     1      21.867   2.390  21.663  1.00  0.00     0.137 C 
HETATM    7  C12 UNL     1      22.875   1.629  20.838  1.00  0.00     0.036 C 
HETATM    8  C11 UNL     1      21.996   1.116  19.702  1.00  0.00     0.036 C 
HETATM    9  C10 UNL     1      20.588   1.326  20.155  1.00  0.00     0.145 C 
HETATM   10  O2  UNL     1      20.716   2.511  20.917  1.00  0.00    -0.377 OA
BRANCH   9  11
HETATM   11  C4  UNL     1      20.047   0.278  21.071  1.00  0.00     0.116 C 
BRANCH  11  12
HETATM   12  C2  UNL     1      18.553   0.597  21.246  1.00  0.00     0.003 C 
HETATM   13  C1  UNL     1      17.809  -0.622  21.748  1.00  0.00     0.011 C 
HETATM   14  C3  UNL     1      17.953   1.079  19.961  1.00  0.00     0.011 C 
ENDBRANCH  11  12
BRANCH  11  15
HETATM   15  N1  UNL     1      20.155  -1.067  20.590  1.00  0.00    -0.353 N 
HETATM   16  C5  UNL     1      21.125  -1.996  21.050  1.00  0.00     0.226 C 
HETATM   17  O1  UNL     1      21.934  -1.619  21.927  1.00  0.00    -0.273 OA
ATOM     18  H1  UNL     1      19.496  -1.376  19.875  1.00  0.00     0.163 HD
BRANCH  16  19
HETATM   19  C6  UNL     1      21.211  -3.377  20.538  1.00  0.00     0.043 C 
HETATM   20  C7  UNL     1      21.801  -3.352  19.144  1.00  0.00     0.026 C 
HETATM   21  C8  UNL     1      22.119  -4.239  21.389  1.00  0.00     0.026 C 
BRANCH  19  22
HETATM   22  C9  UNL     1      19.819  -3.972  20.483  1.00  0.00     0.103 C 
HETATM   23 BR1  UNL     1      19.486  -4.579  18.688  1.00  0.00    -0.095 Br
ENDBRANCH  19  22
ENDBRANCH  16  19
ENDBRANCH  11  15
ENDBRANCH   9  11
ENDBRANCH   4   6
ENDBRANCH   3   4
ENDBRANCH   1   2
BRANCH   1  24
HETATM   24  C19 UNL     1      23.297   4.803  17.382  1.00  0.00     0.150 C 
BRANCH  24  25
HETATM   25  N2  UNL     1      22.953   5.346  16.088  1.00  0.00    -0.225 N 
HETATM   26  C20 UNL     1      22.010   4.806  15.406  1.00  0.00     0.679 C 
HETATM   27  N3  UNL     1      21.333   3.688  15.946  1.00  0.00    -0.164 N 
HETATM   28  N6  UNL     1      21.620   5.297  14.118  1.00  0.00    -0.209 N 
HETATM   29  C21 UNL     1      20.023   3.828  16.452  1.00  0.00     0.200 C 
ATOM     30  H3  UNL     1      21.792   2.778  15.969  1.00  0.00     0.187 HD
HETATM   31  N4  UNL     1      19.525   2.897  17.178  1.00  0.00    -0.373 N 
HETATM   32  N5  UNL     1      19.205   4.960  16.204  1.00  0.00    -0.063 NA
ATOM     33  H42 UNL     1      20.114   2.083  17.357  1.00  0.00     0.158 HD
ATOM     34  H41 UNL     1      18.579   2.999  17.545  1.00  0.00     0.158 HD
HETATM   35  C22 UNL     1      21.484   6.747  13.899  1.00  0.00     0.179 C 
HETATM   36  C25 UNL     1      21.309   4.618  12.901  1.00  0.00     0.131 C 
HETATM   37  C23 UNL     1      21.255   6.910  12.415  1.00  0.00     0.190 C 
HETATM   38  F1  UNL     1      21.913   8.005  11.908  1.00  0.00    -0.248 F 
HETATM   39  C24 UNL     1      21.819   5.618  11.864  1.00  0.00     0.066 C 
ATOM     40  H2  UNL     1      23.456   6.153  15.719  1.00  0.00     0.177 HD
BRANCH  36  41
HETATM   41  C26 UNL     1      22.011   3.307  12.781  1.00  0.00     0.263 C 
BRANCH  41  42
HETATM   42  N7  UNL     1      21.453   2.494  11.721  1.00  0.00    -0.066 N 
HETATM   43  C27 UNL     1      20.023   2.538  11.525  1.00  0.00     0.272 C 
HETATM   44  C28 UNL     1      22.269   2.114  10.607  1.00  0.00     0.265 A 
HETATM   45  C29 UNL     1      21.993   1.125  11.697  1.00  0.00     0.265 A 
ENDBRANCH  41  42
ENDBRANCH  36  41
ENDBRANCH  24  25
ENDBRANCH   1  24
TORSDOF 12
ENDMDL
MODEL 4
REMARK VINA RESULT: -8.331651893      3.707      5.033
REMARK  12 active torsions:
REMARK  status: ('A' for Active; 'I' for Inactive)
REMARK    1  A    between atoms: C2_2  and  C4_4 
REMARK    2  A    between atoms: C4_4  and  N1_5 
REMARK    3  A    between atoms: C4_4  and  C10_14 
REMARK       I    between atoms: N1_5  and  C5_7 
REMARK    4  A    between atoms: C5_7  and  C6_9 
REMARK    5  A    between atoms: C6_9  and  C9_12 
REMARK    6  A    between atoms: C13_17  and  C14_18 
REMARK    7  A    between atoms: C14_18  and  C16_20 
REMARK    8  A    between atoms: C17_21  and  C18_22 
REMARK    9  A    between atoms: C18_22  and  C19_23 
REMARK   10  A    between atoms: C19_23  and  N2_24 
REMARK       I    between atoms: C20_26  and  N3_27 
REMARK       I    between atoms: C20_26  and  N6_34 
REMARK       I    between atoms: N3_27  and  C21_29 
REMARK   11  A    between atoms: C25_39  and  C26_40 
REMARK   12  A    between atoms: C26_40  and  N7_41 
ROOT
HETATM    1  C18 UNL     1      22.965   5.945  17.288  1.00  0.00     0.114 C 
ENDROOT
BRANCH   1   2
HETATM    2  C17 UNL     1      22.889   5.362  18.630  1.00  0.00    -0.104 C 
HETATM    3  C16 UNL     1      22.847   4.872  19.751  1.00  0.00    -0.100 C 
BRANCH   3   4
HETATM    4  C14 UNL     1      22.776   4.271  21.085  1.00  0.00     0.090 C 
HETATM    5  C15 UNL     1      24.179   4.090  21.667  1.00  0.00     0.026 C 
BRANCH   4   6
HETATM    6  C13 UNL     1      22.136   2.904  20.965  1.00  0.00     0.137 C 
HETATM    7  C12 UNL     1      22.922   2.075  19.981  1.00  0.00     0.036 C 
HETATM    8  C11 UNL     1      21.801   1.506  19.117  1.00  0.00     0.036 C 
HETATM    9  C10 UNL     1      20.539   1.767  19.871  1.00  0.00     0.145 C 
HETATM   10  O2  UNL     1      20.843   2.997  20.502  1.00  0.00    -0.377 OA
BRANCH   9  11
HETATM   11  C4  UNL     1      20.224   0.790  20.955  1.00  0.00     0.116 C 
BRANCH  11  12
HETATM   12  C2  UNL     1      18.743   1.003  21.305  1.00  0.00     0.003 C 
HETATM   13  C1  UNL     1      18.119  -0.293  21.773  1.00  0.00     0.011 C 
HETATM   14  C3  UNL     1      17.988   1.549  20.132  1.00  0.00     0.011 C 
ENDBRANCH  11  12
BRANCH  11  15
HETATM   15  N1  UNL     1      20.398  -0.588  20.603  1.00  0.00    -0.353 N 
HETATM   16  C5  UNL     1      21.467  -1.396  21.072  1.00  0.00     0.226 C 
HETATM   17  O1  UNL     1      22.308  -0.876  21.838  1.00  0.00    -0.273 OA
ATOM     18  H1  UNL     1      19.713  -1.014  19.979  1.00  0.00     0.163 HD
BRANCH  16  19
HETATM   19  C6  UNL     1      21.619  -2.814  20.693  1.00  0.00     0.043 C 
HETATM   20  C7  UNL     1      22.466  -3.516  21.733  1.00  0.00     0.026 C 
HETATM   21  C8  UNL     1      20.287  -3.531  20.649  1.00  0.00     0.026 C 
BRANCH  19  22
HETATM   22  C9  UNL     1      22.307  -2.895  19.346  1.00  0.00     0.103 C 
HETATM   23 BR1  UNL     1      20.985  -3.311  18.011  1.00  0.00    -0.095 Br
ENDBRANCH  19  22
ENDBRANCH  16  19
ENDBRANCH  11  15
ENDBRANCH   9  11
ENDBRANCH   4   6
ENDBRANCH   3   4
ENDBRANCH   1   2
BRANCH   1  24
HETATM   24  C19 UNL     1      22.772   4.811  16.285  1.00  0.00     0.150 C 
BRANCH  24  25
HETATM   25  N2  UNL     1      22.106   5.282  15.093  1.00  0.00    -0.225 N 
HETATM   26  C20 UNL     1      21.029   4.705  14.699  1.00  0.00     0.679 C 
HETATM   27  N3  UNL     1      20.525   3.618  15.450  1.00  0.00    -0.164 N 
HETATM   28  N6  UNL     1      20.322   5.125  13.526  1.00  0.00    -0.209 N 
HETATM   29  C21 UNL     1      19.383   3.786  16.261  1.00  0.00     0.200 C 
ATOM     30  H3  UNL     1      20.989   2.711  15.405  1.00  0.00     0.187 HD
HETATM   31  N4  UNL     1      19.097   2.896  17.137  1.00  0.00    -0.373 N 
HETATM   32  N5  UNL     1      18.512   4.902  16.167  1.00  0.00    -0.063 NA
ATOM     33  H42 UNL     1      19.723   2.093  17.205  1.00  0.00     0.158 HD
ATOM     34  H41 UNL     1      18.271   3.017  17.724  1.00  0.00     0.158 HD
HETATM   35  C22 UNL     1      20.115   6.560  13.271  1.00  0.00     0.179 C 
HETATM   36  C25 UNL     1      19.726   4.380  12.463  1.00  0.00     0.131 C 
HETATM   37  C23 UNL     1      19.519   6.641  11.886  1.00  0.00     0.190 C 
HETATM   38  F1  UNL     1      20.013   7.707  11.172  1.00  0.00    -0.248 F 
HETATM   39  C24 UNL     1      19.945   5.321  11.281  1.00  0.00     0.066 C 
ATOM     40  H2  UNL     1      22.489   6.067  14.567  1.00  0.00     0.177 HD
BRANCH  36  41
HETATM   41  C26 UNL     1      20.394   3.064  12.241  1.00  0.00     0.263 C 
BRANCH  41  42
HETATM   42  N7  UNL     1      19.649   2.232  11.319  1.00  0.00    -0.066 N 
HETATM   43  C27 UNL     1      18.216   2.164  11.487  1.00  0.00     0.272 C 
HETATM   44  C28 UNL     1      20.185   1.947  10.022  1.00  0.00     0.265 A 
HETATM   45  C29 UNL     1      20.265   0.913  11.104  1.00  0.00     0.265 A 
ENDBRANCH  41  42
ENDBRANCH  36  41
ENDBRANCH  24  25
ENDBRANCH   1  24
TORSDOF 12
ENDMDL
MODEL 5
REMARK VINA RESULT: -8.281888265      3.195      4.912
REMARK  12 active torsions:
REMARK  status: ('A' for Active; 'I' for Inactive)
REMARK    1  A    between atoms: C2_2  and  C4_4 
REMARK    2  A    between atoms: C4_4  and  N1_5 
REMARK    3  A    between atoms: C4_4  and  C10_14 
REMARK       I    between atoms: N1_5  and  C5_7 
REMARK    4  A    between atoms: C5_7  and  C6_9 
REMARK    5  A    between atoms: C6_9  and  C9_12 
REMARK    6  A    between atoms: C13_17  and  C14_18 
REMARK    7  A    between atoms: C14_18  and  C16_20 
REMARK    8  A    between atoms: C17_21  and  C18_22 
REMARK    9  A    between atoms: C18_22  and  C19_23 
REMARK   10  A    between atoms: C19_23  and  N2_24 
REMARK       I    between atoms: C20_26  and  N3_27 
REMARK       I    between atoms: C20_26  and  N6_34 
REMARK       I    between atoms: N3_27  and  C21_29 
REMARK   11  A    between atoms: C25_39  and  C26_40 
REMARK   12  A    between atoms: C26_40  and  N7_41 
ROOT
HETATM    1  C18 UNL     1      23.010   6.318  17.422  1.00  0.00     0.114 C 
ENDROOT
BRANCH   1   2
HETATM    2  C17 UNL     1      23.000   5.717  18.759  1.00  0.00    -0.104 C 
HETATM    3  C16 UNL     1      23.002   5.200  19.868  1.00  0.00    -0.100 C 
BRANCH   3   4
HETATM    4  C14 UNL     1      22.980   4.584  21.197  1.00  0.00     0.090 C 
HETATM    5  C15 UNL     1      24.272   4.897  21.955  1.00  0.00     0.026 C 
BRANCH   4   6
HETATM    6  C13 UNL     1      22.882   3.082  21.033  1.00  0.00     0.137 C 
HETATM    7  C12 UNL     1      21.824   2.551  21.966  1.00  0.00     0.036 C 
HETATM    8  C11 UNL     1      22.555   1.370  22.596  1.00  0.00     0.036 C 
HETATM    9  C10 UNL     1      23.763   1.145  21.747  1.00  0.00     0.145 C 
HETATM   10  O2  UNL     1      24.072   2.467  21.349  1.00  0.00    -0.377 OA
BRANCH   9  11
HETATM   11  C4  UNL     1      23.532   0.359  20.499  1.00  0.00     0.116 C 
BRANCH  11  12
HETATM   12  C2  UNL     1      24.848  -0.382  20.211  1.00  0.00     0.003 C 
HETATM   13  C1  UNL     1      24.591  -1.599  19.350  1.00  0.00     0.011 C 
HETATM   14  C3  UNL     1      25.528  -0.780  21.485  1.00  0.00     0.011 C 
ENDBRANCH  11  12
BRANCH  11  15
HETATM   15  N1  UNL     1      22.487  -0.618  20.577  1.00  0.00    -0.353 N 
HETATM   16  C5  UNL     1      21.236  -0.494  19.917  1.00  0.00     0.226 C 
HETATM   17  O1  UNL     1      21.033   0.528  19.225  1.00  0.00    -0.273 OA
ATOM     18  H1  UNL     1      22.651  -1.452  21.141  1.00  0.00     0.163 HD
BRANCH  16  19
HETATM   19  C6  UNL     1      20.179  -1.519  20.015  1.00  0.00     0.043 C 
HETATM   20  C7  UNL     1      20.377  -2.542  18.917  1.00  0.00     0.026 C 
HETATM   21  C8  UNL     1      20.236  -2.263  21.331  1.00  0.00     0.026 C 
BRANCH  19  22
HETATM   22  C9  UNL     1      18.828  -0.854  19.844  1.00  0.00     0.103 C 
HETATM   23 BR1  UNL     1      18.268  -0.165  21.551  1.00  0.00    -0.095 Br
ENDBRANCH  19  22
ENDBRANCH  16  19
ENDBRANCH  11  15
ENDBRANCH   9  11
ENDBRANCH   4   6
ENDBRANCH   3   4
ENDBRANCH   1   2
BRANCH   1  24
HETATM   24  C19 UNL     1      23.025   5.178  16.408  1.00  0.00     0.150 C 
BRANCH  24  25
HETATM   25  N2  UNL     1      22.272   5.526  15.226  1.00  0.00    -0.225 N 
HETATM   26  C20 UNL     1      21.292   4.782  14.858  1.00  0.00     0.679 C 
HETATM   27  N3  UNL     1      20.980   3.638  15.627  1.00  0.00    -0.164 N 
HETATM   28  N6  UNL     1      20.506   5.074  13.697  1.00  0.00    -0.209 N 
HETATM   29  C21 UNL     1      19.841   3.632  16.460  1.00  0.00     0.200 C 
ATOM     30  H3  UNL     1      21.580   2.814  15.580  1.00  0.00     0.187 HD
HETATM   31  N4  UNL     1      19.714   2.717  17.348  1.00  0.00    -0.373 N 
HETATM   32  N5  UNL     1      18.803   4.596  16.375  1.00  0.00    -0.063 NA
ATOM     33  H42 UNL     1      20.461   2.023  17.409  1.00  0.00     0.158 HD
ATOM     34  H41 UNL     1      18.891   2.712  17.950  1.00  0.00     0.158 HD
HETATM   35  C22 UNL     1      20.071   6.455  13.436  1.00  0.00     0.179 C 
HETATM   36  C25 UNL     1      20.015   4.233  12.652  1.00  0.00     0.131 C 
HETATM   37  C23 UNL     1      19.443   6.427  12.063  1.00  0.00     0.190 C 
HETATM   38  F1  UNL     1      19.750   7.551  11.331  1.00  0.00    -0.248 F 
HETATM   39  C24 UNL     1      20.060   5.185  11.458  1.00  0.00     0.066 C 
ATOM     40  H2  UNL     1      22.516   6.356  14.687  1.00  0.00     0.177 HD
BRANCH  36  41
HETATM   41  C26 UNL     1      20.878   3.037  12.426  1.00  0.00     0.263 C 
BRANCH  41  42
HETATM   42  N7  UNL     1      20.315   2.149  11.429  1.00  0.00    -0.066 N 
HETATM   43  C27 UNL     1      18.879   1.990  11.408  1.00  0.00     0.272 C 
HETATM   44  C28 UNL     1      21.035   1.887  10.220  1.00  0.00     0.265 A 
HETATM   45  C29 UNL     1      21.036   0.871  11.320  1.00  0.00     0.265 A 
ENDBRANCH  41  42
ENDBRANCH  36  41
ENDBRANCH  24  25
ENDBRANCH   1  24
TORSDOF 12
ENDMDL
