MODEL 1
REMARK VINA RESULT: -8.721280864      0.000      0.000
REMARK  5 active torsions:
REMARK  status: ('A' for Active; 'I' for Inactive)
REMARK    1  A    between atoms: C2_2  and  C3_3 
REMARK    2  A    between atoms: C3_3  and  C6_6 
REMARK    3  A    between atoms: C6_6  and  C8_8 
REMARK    4  A    between atoms: C12_15  and  C13_16 
REMARK    5  A    between atoms: C20_26  and  O6_28 
ROOT
HETATM    1  C13 UNL     1      96.444  26.120  15.587  1.00  0.00    -0.002 C 
HETATM    2  C14 UNL     1      97.272  26.567  16.511  1.00  0.00     0.015 C 
HETATM    3  C15 UNL     1      98.063  27.806  16.429  1.00  0.00     0.060 C 
HETATM    4  C16 UNL     1      97.399  25.747  17.712  1.00  0.00     0.094 C 
HETATM    5  N1  UNL     1      97.490  25.110  18.671  1.00  0.00    -0.192 NA
ENDROOT
BRANCH   1   6
HETATM    6  C12 UNL     1      96.217  26.842  14.335  1.00  0.00     0.048 C 
HETATM    7  C10 UNL     1      96.120  26.005  13.087  1.00  0.00     0.145 C 
HETATM    8  C9  UNL     1      97.335  25.760  12.340  1.00  0.00     0.279 C 
HETATM    9  C11 UNL     1      95.567  24.629  13.282  1.00  0.00     0.178 C 
HETATM   10  C18 UNL     1      95.157  27.024  12.566  1.00  0.00     0.167 C 
HETATM   11  O1  UNL     1      97.662  24.445  12.455  1.00  0.00    -0.307 OA
HETATM   12  O2  UNL     1      98.000  26.603  11.682  1.00  0.00    -0.264 OA
HETATM   13  C8  UNL     1      96.731  23.757  13.367  1.00  0.00     0.207 C 
HETATM   14  O3  UNL     1      94.398  24.443  13.337  1.00  0.00    -0.294 OA
HETATM   15  C17 UNL     1      94.798  27.281  14.047  1.00  0.00     0.070 C 
HETATM   16  O4  UNL     1      95.818  28.216  12.199  1.00  0.00    -0.311 OA
HETATM   17  C20 UNL     1      94.536  28.746  14.100  1.00  0.00     0.148 C 
HETATM   18  C19 UNL     1      95.563  29.241  13.118  1.00  0.00     0.294 C 
HETATM   19  C21 UNL     1      94.668  29.383  15.442  1.00  0.00     0.057 C 
HETATM   20  O5  UNL     1      96.048  30.395  13.192  1.00  0.00    -0.262 OA
BRANCH  13  21
HETATM   21  C6  UNL     1      96.661  22.384  12.824  1.00  0.00     0.030 C 
HETATM   22  C7  UNL     1      96.883  22.487  11.284  1.00  0.00     0.014 C 
BRANCH  21  23
HETATM   23  C3  UNL     1      97.473  21.297  13.381  1.00  0.00    -0.025 C 
HETATM   24  C4  UNL     1      97.743  21.177  14.817  1.00  0.00     0.019 C 
HETATM   25  C5  UNL     1      96.719  19.954  13.036  1.00  0.00     0.019 C 
BRANCH  23  26
HETATM   26  C2  UNL     1      98.773  21.096  12.643  1.00  0.00    -0.028 C 
HETATM   27  C1  UNL     1      99.492  20.001  12.696  1.00  0.00     0.007 C 
ENDBRANCH  23  26
ENDBRANCH  21  23
ENDBRANCH  13  21
BRANCH  17  28
HETATM   28  O6  UNL     1      93.242  28.936  13.558  1.00  0.00    -0.379 OA
ATOM     29  H6  UNL     1      92.648  28.974  14.298  1.00  0.00     0.211 HD
ENDBRANCH  17  28
ENDBRANCH   1   6
TORSDOF 5
ENDMDL
MODEL 2
REMARK VINA RESULT: -8.719960319      0.307      1.106
REMARK  5 active torsions:
REMARK  status: ('A' for Active; 'I' for Inactive)
REMARK    1  A    between atoms: C2_2  and  C3_3 
REMARK    2  A    between atoms: C3_3  and  C6_6 
REMARK    3  A    between atoms: C6_6  and  C8_8 
REMARK    4  A    between atoms: C12_15  and  C13_16 
REMARK    5  A    between atoms: C20_26  and  O6_28 
ROOT
HETATM    1  C13 UNL     1      96.434  26.088  15.543  1.00  0.00    -0.002 C 
HETATM    2  C14 UNL     1      97.238  26.538  16.487  1.00  0.00     0.015 C 
HETATM    3  C15 UNL     1      97.998  27.798  16.437  1.00  0.00     0.060 C 
HETATM    4  C16 UNL     1      97.368  25.701  17.675  1.00  0.00     0.094 C 
HETATM    5  N1  UNL     1      97.461  25.051  18.625  1.00  0.00    -0.192 NA
ENDROOT
BRANCH   1   6
HETATM    6  C12 UNL     1      96.207  26.825  14.301  1.00  0.00     0.048 C 
HETATM    7  C10 UNL     1      96.075  26.001  13.047  1.00  0.00     0.145 C 
HETATM    8  C9  UNL     1      97.274  25.737  12.282  1.00  0.00     0.279 C 
HETATM    9  C11 UNL     1      95.495  24.636  13.238  1.00  0.00     0.178 C 
HETATM   10  C18 UNL     1      95.128  27.046  12.548  1.00  0.00     0.167 C 
HETATM   11  O1  UNL     1      97.574  24.414  12.381  1.00  0.00    -0.307 OA
HETATM   12  O2  UNL     1      97.949  26.571  11.622  1.00  0.00    -0.264 OA
HETATM   13  C8  UNL     1      96.641  23.739  13.300  1.00  0.00     0.207 C 
HETATM   14  O3  UNL     1      94.322  24.476  13.307  1.00  0.00    -0.294 OA
HETATM   15  C17 UNL     1      94.794  27.297  14.035  1.00  0.00     0.070 C 
HETATM   16  O4  UNL     1      95.810  28.226  12.182  1.00  0.00    -0.311 OA
HETATM   17  C20 UNL     1      94.565  28.768  14.105  1.00  0.00     0.148 C 
HETATM   18  C19 UNL     1      95.589  29.249  13.113  1.00  0.00     0.294 C 
HETATM   19  C21 UNL     1      94.728  29.389  15.450  1.00  0.00     0.057 C 
HETATM   20  O5  UNL     1      96.101  30.391  13.190  1.00  0.00    -0.262 OA
BRANCH  13  21
HETATM   21  C6  UNL     1      96.534  22.373  12.746  1.00  0.00     0.030 C 
HETATM   22  C7  UNL     1      96.976  22.446  11.252  1.00  0.00     0.014 C 
BRANCH  21  23
HETATM   23  C3  UNL     1      97.166  21.226  13.406  1.00  0.00    -0.025 C 
HETATM   24  C4  UNL     1      96.685  19.853  13.223  1.00  0.00     0.019 C 
HETATM   25  C5  UNL     1      98.652  21.167  12.875  1.00  0.00     0.019 C 
BRANCH  23  26
HETATM   26  C2  UNL     1      97.395  21.448  14.881  1.00  0.00    -0.028 C 
HETATM   27  C1  UNL     1      97.003  20.624  15.822  1.00  0.00     0.007 C 
ENDBRANCH  23  26
ENDBRANCH  21  23
ENDBRANCH  13  21
BRANCH  17  28
HETATM   28  O6  UNL     1      93.269  28.991  13.581  1.00  0.00    -0.379 OA
ATOM     29  H6  UNL     1      93.286  28.671  12.687  1.00  0.00     0.211 HD
ENDBRANCH  17  28
ENDBRANCH   1   6
TORSDOF 5
ENDMDL
MODEL 3
REMARK VINA RESULT: -8.403134126      2.802      4.485
REMARK  5 active torsions:
REMARK  status: ('A' for Active; 'I' for Inactive)
REMARK    1  A    between atoms: C2_2  and  C3_3 
REMARK    2  A    between atoms: C3_3  and  C6_6 
REMARK    3  A    between atoms: C6_6  and  C8_8 
REMARK    4  A    between atoms: C12_15  and  C13_16 
REMARK    5  A    between atoms: C20_26  and  O6_28 
ROOT
HETATM    1  C13 UNL     1      95.739  25.637  16.115  1.00  0.00    -0.002 C 
HETATM    2  C14 UNL     1      96.351  24.626  16.700  1.00  0.00     0.015 C 
HETATM    3  C15 UNL     1      97.463  24.734  17.659  1.00  0.00     0.060 C 
HETATM    4  C16 UNL     1      95.868  23.293  16.353  1.00  0.00     0.094 C 
HETATM    5  N1  UNL     1      95.478  22.238  16.095  1.00  0.00    -0.192 NA
ENDROOT
BRANCH   1   6
HETATM    6  C12 UNL     1      96.118  27.026  16.371  1.00  0.00     0.048 C 
HETATM    7  C10 UNL     1      96.206  27.930  15.170  1.00  0.00     0.145 C 
HETATM    8  C9  UNL     1      97.486  28.051  14.507  1.00  0.00     0.279 C 
HETATM    9  C11 UNL     1      95.281  27.589  14.045  1.00  0.00     0.178 C 
HETATM   10  C18 UNL     1      95.759  29.042  16.064  1.00  0.00     0.167 C 
HETATM   11  O1  UNL     1      97.405  27.459  13.285  1.00  0.00    -0.307 OA
HETATM   12  O2  UNL     1      98.522  28.608  14.959  1.00  0.00    -0.264 OA
HETATM   13  C8  UNL     1      96.088  26.824  13.104  1.00  0.00     0.207 C 
HETATM   14  O3  UNL     1      94.149  27.940  14.059  1.00  0.00    -0.294 OA
HETATM   15  C17 UNL     1      95.030  27.949  16.876  1.00  0.00     0.070 C 
HETATM   16  O4  UNL     1      96.790  29.441  16.943  1.00  0.00    -0.311 OA
HETATM   17  C20 UNL     1      95.157  28.410  18.288  1.00  0.00     0.148 C 
HETATM   18  C19 UNL     1      96.533  29.016  18.252  1.00  0.00     0.294 C 
HETATM   19  C21 UNL     1      95.018  27.354  19.332  1.00  0.00     0.057 C 
HETATM   20  O5  UNL     1      97.254  29.083  19.276  1.00  0.00    -0.262 OA
BRANCH  13  21
HETATM   21  C6  UNL     1      95.838  26.948  11.652  1.00  0.00     0.030 C 
HETATM   22  C7  UNL     1      96.246  28.395  11.237  1.00  0.00     0.014 C 
BRANCH  21  23
HETATM   23  C3  UNL     1      96.376  25.976  10.696  1.00  0.00    -0.025 C 
HETATM   24  C4  UNL     1      97.815  25.732  10.552  1.00  0.00     0.019 C 
HETATM   25  C5  UNL     1      95.807  24.566  11.121  1.00  0.00     0.019 C 
BRANCH  23  26
HETATM   26  C2  UNL     1      95.787  26.121   9.315  1.00  0.00    -0.028 C 
HETATM   27  C1  UNL     1      95.977  25.269   8.336  1.00  0.00     0.007 C 
ENDBRANCH  23  26
ENDBRANCH  21  23
ENDBRANCH  13  21
BRANCH  17  28
HETATM   28  O6  UNL     1      94.199  29.438  18.455  1.00  0.00    -0.379 OA
ATOM     29  H6  UNL     1      93.936  29.700  17.581  1.00  0.00     0.211 HD
ENDBRANCH  17  28
ENDBRANCH   1   6
TORSDOF 5
ENDMDL
MODEL 4
REMARK VINA RESULT: -8.305389793      3.721      6.087
REMARK  5 active torsions:
REMARK  status: ('A' for Active; 'I' for Inactive)
REMARK    1  A    between atoms: C2_2  and  C3_3 
REMARK    2  A    between atoms: C3_3  and  C6_6 
REMARK    3  A    between atoms: C6_6  and  C8_8 
REMARK    4  A    between atoms: C12_15  and  C13_16 
REMARK    5  A    between atoms: C20_26  and  O6_28 
ROOT
HETATM    1  C13 UNL     1      95.303  25.219  17.643  1.00  0.00    -0.002 C 
HETATM    2  C14 UNL     1      95.946  24.122  17.296  1.00  0.00     0.015 C 
HETATM    3  C15 UNL     1      97.377  23.857  17.524  1.00  0.00     0.060 C 
HETATM    4  C16 UNL     1      95.152  23.094  16.630  1.00  0.00     0.094 C 
HETATM    5  N1  UNL     1      94.525  22.270  16.119  1.00  0.00    -0.192 NA
ENDROOT
BRANCH   1   6
HETATM    6  C12 UNL     1      95.972  26.330  18.319  1.00  0.00     0.048 C 
HETATM    7  C10 UNL     1      96.198  27.574  17.502  1.00  0.00     0.145 C 
HETATM    8  C9  UNL     1      97.448  27.694  16.783  1.00  0.00     0.279 C 
HETATM    9  C11 UNL     1      95.178  27.835  16.440  1.00  0.00     0.178 C 
HETATM   10  C18 UNL     1      96.029  28.350  18.769  1.00  0.00     0.167 C 
HETATM   11  O1  UNL     1      97.196  27.607  15.449  1.00  0.00    -0.307 OA
HETATM   12  O2  UNL     1      98.594  27.854  17.281  1.00  0.00    -0.264 OA
HETATM   13  C8  UNL     1      95.769  27.328  15.208  1.00  0.00     0.207 C 
HETATM   14  O3  UNL     1      94.145  28.355  16.700  1.00  0.00    -0.294 OA
HETATM   15  C17 UNL     1      95.121  27.188  19.230  1.00  0.00     0.070 C 
HETATM   16  O4  UNL     1      97.154  28.213  19.610  1.00  0.00    -0.311 OA
HETATM   17  C20 UNL     1      95.397  27.078  20.690  1.00  0.00     0.148 C 
HETATM   18  C19 UNL     1      96.868  27.397  20.713  1.00  0.00     0.294 C 
HETATM   19  C21 UNL     1      95.084  25.761  21.315  1.00  0.00     0.057 C 
HETATM   20  O5  UNL     1      97.627  26.960  21.610  1.00  0.00    -0.262 OA
BRANCH  13  21
HETATM   21  C6  UNL     1      95.493  28.010  13.927  1.00  0.00     0.030 C 
HETATM   22  C7  UNL     1      96.033  29.468  14.055  1.00  0.00     0.014 C 
BRANCH  21  23
HETATM   23  C3  UNL     1      95.903  27.429  12.645  1.00  0.00    -0.025 C 
HETATM   24  C4  UNL     1      97.311  27.206  12.300  1.00  0.00     0.019 C 
HETATM   25  C5  UNL     1      95.279  25.980  12.590  1.00  0.00     0.019 C 
BRANCH  23  26
HETATM   26  C2  UNL     1      95.230  28.080  11.461  1.00  0.00    -0.028 C 
HETATM   27  C1  UNL     1      95.649  27.976  10.223  1.00  0.00     0.007 C 
ENDBRANCH  23  26
ENDBRANCH  21  23
ENDBRANCH  13  21
BRANCH  17  28
HETATM   28  O6  UNL     1      94.682  28.131  21.308  1.00  0.00    -0.379 OA
ATOM     29  H6  UNL     1      95.210  28.912  21.194  1.00  0.00     0.211 HD
ENDBRANCH  17  28
ENDBRANCH   1   6
TORSDOF 5
ENDMDL
MODEL 5
REMARK VINA RESULT: -7.763648353      2.480      3.594
REMARK  5 active torsions:
REMARK  status: ('A' for Active; 'I' for Inactive)
REMARK    1  A    between atoms: C2_2  and  C3_3 
REMARK    2  A    between atoms: C3_3  and  C6_6 
REMARK    3  A    between atoms: C6_6  and  C8_8 
REMARK    4  A    between atoms: C12_15  and  C13_16 
REMARK    5  A    between atoms: C20_26  and  O6_28 
ROOT
HETATM    1  C13 UNL     1      95.477  25.281  15.086  1.00  0.00    -0.002 C 
HETATM    2  C14 UNL     1      95.744  24.402  16.032  1.00  0.00     0.015 C 
HETATM    3  C15 UNL     1      96.755  24.562  17.091  1.00  0.00     0.060 C 
HETATM    4  C16 UNL     1      94.958  23.173  16.010  1.00  0.00     0.094 C 
HETATM    5  N1  UNL     1      94.326  22.206  16.006  1.00  0.00    -0.192 NA
ENDROOT
BRANCH   1   6
HETATM    6  C12 UNL     1      96.186  26.556  14.989  1.00  0.00     0.048 C 
HETATM    7  C10 UNL     1      96.456  27.070  13.600  1.00  0.00     0.145 C 
HETATM    8  C9  UNL     1      97.709  26.705  12.976  1.00  0.00     0.279 C 
HETATM    9  C11 UNL     1      95.445  26.682  12.568  1.00  0.00     0.178 C 
HETATM   10  C18 UNL     1      96.315  28.450  14.160  1.00  0.00     0.167 C 
HETATM   11  O1  UNL     1      97.454  25.855  11.945  1.00  0.00    -0.307 OA
HETATM   12  O2  UNL     1      98.860  27.096  13.307  1.00  0.00    -0.264 OA
HETATM   13  C8  UNL     1      96.018  25.529  11.886  1.00  0.00     0.207 C 
HETATM   14  O3  UNL     1      94.432  27.285  12.449  1.00  0.00    -0.294 OA
HETATM   15  C17 UNL     1      95.366  27.811  15.199  1.00  0.00     0.070 C 
HETATM   16  O4  UNL     1      97.435  28.803  14.944  1.00  0.00    -0.311 OA
HETATM   17  C20 UNL     1      95.639  28.577  16.448  1.00  0.00     0.148 C 
HETATM   18  C19 UNL     1      97.119  28.806  16.309  1.00  0.00     0.294 C 
HETATM   19  C21 UNL     1      95.278  27.893  17.723  1.00  0.00     0.057 C 
HETATM   20  O5  UNL     1      97.863  28.961  17.306  1.00  0.00    -0.262 OA
BRANCH  13  21
HETATM   21  C6  UNL     1      95.766  25.329  10.443  1.00  0.00     0.030 C 
HETATM   22  C7  UNL     1      96.085  26.679   9.729  1.00  0.00     0.014 C 
BRANCH  21  23
HETATM   23  C3  UNL     1      96.367  24.212   9.707  1.00  0.00    -0.025 C 
HETATM   24  C4  UNL     1      96.653  22.921  10.340  1.00  0.00     0.019 C 
HETATM   25  C5  UNL     1      95.354  23.839   8.555  1.00  0.00     0.019 C 
BRANCH  23  26
HETATM   26  C2  UNL     1      97.579  24.619   8.907  1.00  0.00    -0.028 C 
HETATM   27  C1  UNL     1      97.957  24.042   7.792  1.00  0.00     0.007 C 
ENDBRANCH  23  26
ENDBRANCH  21  23
ENDBRANCH  13  21
BRANCH  17  28
HETATM   28  O6  UNL     1      94.961  29.813  16.309  1.00  0.00    -0.379 OA
ATOM     29  H6  UNL     1      95.185  30.141  15.447  1.00  0.00     0.211 HD
ENDBRANCH  17  28
ENDBRANCH   1   6
TORSDOF 5
ENDMDL
