MODEL 1
REMARK VINA RESULT: -8.282368386      0.000      0.000
REMARK  7 active torsions:
REMARK  status: ('A' for Active; 'I' for Inactive)
REMARK    1  A    between atoms: O1_2  and  C2_3 
REMARK    2  A    between atoms: C2_3  and  C3_5 
REMARK    3  A    between atoms: C7_11  and  O5_12 
REMARK    4  A    between atoms: O5_12  and  C8_13 
REMARK    5  A    between atoms: C8_13  and  C9_15 
REMARK    6  A    between atoms: C15_22  and  O8_23 
REMARK    7  A    between atoms: C15_22  and  C16_25 
ROOT
HETATM    1  C3  UNL     1      97.170  21.698  11.184  1.00  0.00     0.048 C 
HETATM    2  C4  UNL     1      96.643  22.615  11.973  1.00  0.00     0.085 C 
HETATM    3  O3  UNL     1      96.618  22.802  13.371  1.00  0.00    -0.281 OA
HETATM    4  C5  UNL     1      96.642  24.182  13.076  1.00  0.00     0.277 C 
HETATM    5  O4  UNL     1      97.145  25.129  13.692  1.00  0.00    -0.264 OA
HETATM    6  C6  UNL     1      95.868  23.828  11.858  1.00  0.00     0.174 C 
HETATM    7  C7  UNL     1      96.059  24.689  10.655  1.00  0.00     0.163 C 
HETATM    8  C13 UNL     1      96.043  23.858   9.385  1.00  0.00     0.097 C 
HETATM    9  C14 UNL     1      96.311  24.511   8.123  1.00  0.00     0.169 C 
HETATM   10  O7  UNL     1      95.919  25.456   7.427  1.00  0.00    -0.294 OA
HETATM   11  C15 UNL     1      97.411  23.525   7.853  1.00  0.00     0.126 C 
HETATM   12  C19 UNL     1      97.378  23.108   9.248  1.00  0.00     0.046 C 
HETATM   13  C20 UNL     1      97.061  21.722   9.678  1.00  0.00     0.056 C 
ENDROOT
BRANCH   7  14
HETATM   14  O5  UNL     1      97.191  25.533  10.709  1.00  0.00    -0.313 OA
BRANCH  14  15
HETATM   15  C8  UNL     1      97.139  26.828  11.216  1.00  0.00     0.267 C 
HETATM   16  O6  UNL     1      98.206  27.216  11.805  1.00  0.00    -0.264 OA
BRANCH  15  17
HETATM   17  C9  UNL     1      95.982  27.718  11.112  1.00  0.00     0.037 C 
HETATM   18  C10 UNL     1      95.254  27.627   9.789  1.00  0.00     0.025 C 
HETATM   19  C11 UNL     1      94.960  27.443  12.221  1.00  0.00     0.025 C 
HETATM   20  C12 UNL     1      96.422  29.146  11.286  1.00  0.00     0.025 C 
ENDBRANCH  15  17
ENDBRANCH  14  15
ENDBRANCH   7  14
BRANCH   1  21
HETATM   21  C2  UNL     1      97.908  20.590  11.762  1.00  0.00     0.291 C 
HETATM   22  O2  UNL     1      97.414  19.437  11.681  1.00  0.00    -0.260 OA
BRANCH  21  23
HETATM   23  O1  UNL     1      99.115  20.713  12.394  1.00  0.00    -0.323 OA
HETATM   24  C1  UNL     1     100.282  20.043  11.945  1.00  0.00     0.213 C 
ENDBRANCH  21  23
ENDBRANCH   1  21
BRANCH  11  25
HETATM   25  O8  UNL     1      98.583  24.330   7.643  1.00  0.00    -0.381 OA
ATOM     26  H8  UNL     1      98.439  24.755   6.806  1.00  0.00     0.211 HD
ENDBRANCH  11  25
BRANCH  11  27
HETATM   27  C16 UNL     1      97.198  22.574   6.734  1.00  0.00     0.020 C 
HETATM   28  C17 UNL     1      98.265  22.762   5.637  1.00  0.00     0.013 C 
HETATM   29  C18 UNL     1      95.886  22.632   6.038  1.00  0.00     0.013 C 
ENDBRANCH  11  27
TORSDOF 7
ENDMDL
MODEL 2
REMARK VINA RESULT: -8.229319761      2.581      4.120
REMARK  7 active torsions:
REMARK  status: ('A' for Active; 'I' for Inactive)
REMARK    1  A    between atoms: O1_2  and  C2_3 
REMARK    2  A    between atoms: C2_3  and  C3_5 
REMARK    3  A    between atoms: C7_11  and  O5_12 
REMARK    4  A    between atoms: O5_12  and  C8_13 
REMARK    5  A    between atoms: C8_13  and  C9_15 
REMARK    6  A    between atoms: C15_22  and  O8_23 
REMARK    7  A    between atoms: C15_22  and  C16_25 
ROOT
HETATM    1  C3  UNL     1      96.894  22.120  12.939  1.00  0.00     0.048 C 
HETATM    2  C4  UNL     1      96.517  22.278  14.194  1.00  0.00     0.085 C 
HETATM    3  O3  UNL     1      96.759  21.560  15.383  1.00  0.00    -0.281 OA
HETATM    4  C5  UNL     1      96.708  22.817  16.022  1.00  0.00     0.277 C 
HETATM    5  O4  UNL     1      97.309  23.239  17.018  1.00  0.00    -0.264 OA
HETATM    6  C6  UNL     1      95.719  23.190  14.979  1.00  0.00     0.174 C 
HETATM    7  C7  UNL     1      95.664  24.625  14.575  1.00  0.00     0.163 C 
HETATM    8  C13 UNL     1      95.415  24.759  13.083  1.00  0.00     0.097 C 
HETATM    9  C14 UNL     1      95.427  26.078  12.492  1.00  0.00     0.169 C 
HETATM   10  O7  UNL     1      94.896  27.190  12.610  1.00  0.00    -0.294 OA
HETATM   11  C15 UNL     1      96.467  25.622  11.509  1.00  0.00     0.126 C 
HETATM   12  C19 UNL     1      96.708  24.435  12.317  1.00  0.00     0.046 C 
HETATM   13  C20 UNL     1      96.497  23.052  11.819  1.00  0.00     0.056 C 
ENDROOT
BRANCH   7  14
HETATM   14  O5  UNL     1      96.776  25.396  14.987  1.00  0.00    -0.313 OA
BRANCH  14  15
HETATM   15  C8  UNL     1      96.661  26.465  15.871  1.00  0.00     0.267 C 
HETATM   16  O6  UNL     1      95.767  26.318  16.773  1.00  0.00    -0.264 OA
BRANCH  15  17
HETATM   17  C9  UNL     1      97.473  27.680  15.818  1.00  0.00     0.037 C 
HETATM   18  C10 UNL     1      98.927  27.433  15.484  1.00  0.00     0.025 C 
HETATM   19  C11 UNL     1      96.926  28.678  14.791  1.00  0.00     0.025 C 
HETATM   20  C12 UNL     1      97.430  28.378  17.150  1.00  0.00     0.025 C 
ENDBRANCH  15  17
ENDBRANCH  14  15
ENDBRANCH   7  14
BRANCH   1  21
HETATM   21  C2  UNL     1      97.743  21.000  12.579  1.00  0.00     0.291 C 
HETATM   22  O2  UNL     1      98.990  21.147  12.655  1.00  0.00    -0.260 OA
BRANCH  21  23
HETATM   23  O1  UNL     1      97.279  19.784  12.159  1.00  0.00    -0.323 OA
HETATM   24  C1  UNL     1      97.196  18.660  13.023  1.00  0.00     0.213 C 
ENDBRANCH  21  23
ENDBRANCH   1  21
BRANCH  11  25
HETATM   25  O8  UNL     1      97.567  26.530  11.689  1.00  0.00    -0.381 OA
ATOM     26  H8  UNL     1      98.337  25.975  11.722  1.00  0.00     0.211 HD
ENDBRANCH  11  25
BRANCH  11  27
HETATM   27  C16 UNL     1      96.054  25.544  10.086  1.00  0.00     0.020 C 
HETATM   28  C17 UNL     1      97.122  24.823   9.238  1.00  0.00     0.013 C 
HETATM   29  C18 UNL     1      95.784  26.829   9.389  1.00  0.00     0.013 C 
ENDBRANCH  11  27
TORSDOF 7
ENDMDL
MODEL 3
REMARK VINA RESULT: -8.076586523      2.600      3.995
REMARK  7 active torsions:
REMARK  status: ('A' for Active; 'I' for Inactive)
REMARK    1  A    between atoms: O1_2  and  C2_3 
REMARK    2  A    between atoms: C2_3  and  C3_5 
REMARK    3  A    between atoms: C7_11  and  O5_12 
REMARK    4  A    between atoms: O5_12  and  C8_13 
REMARK    5  A    between atoms: C8_13  and  C9_15 
REMARK    6  A    between atoms: C15_22  and  O8_23 
REMARK    7  A    between atoms: C15_22  and  C16_25 
ROOT
HETATM    1  C3  UNL     1      96.739  22.352  13.357  1.00  0.00     0.048 C 
HETATM    2  C4  UNL     1      96.450  22.697  14.597  1.00  0.00     0.085 C 
HETATM    3  O3  UNL     1      96.687  22.105  15.855  1.00  0.00    -0.281 OA
HETATM    4  C5  UNL     1      96.796  23.428  16.333  1.00  0.00     0.277 C 
HETATM    5  O4  UNL     1      97.489  23.902  17.241  1.00  0.00    -0.264 OA
HETATM    6  C6  UNL     1      95.791  23.775  15.296  1.00  0.00     0.174 C 
HETATM    7  C7  UNL     1      95.854  25.149  14.718  1.00  0.00     0.163 C 
HETATM    8  C13 UNL     1      95.536  25.128  13.234  1.00  0.00     0.097 C 
HETATM    9  C14 UNL     1      95.644  26.358  12.482  1.00  0.00     0.169 C 
HETATM   10  O7  UNL     1      95.232  27.525  12.484  1.00  0.00    -0.294 OA
HETATM   11  C15 UNL     1      96.577  25.682  11.520  1.00  0.00     0.126 C 
HETATM   12  C19 UNL     1      96.746  24.582  12.459  1.00  0.00     0.046 C 
HETATM   13  C20 UNL     1      96.373  23.178  12.147  1.00  0.00     0.056 C 
ENDROOT
BRANCH   7  14
HETATM   14  O5  UNL     1      97.057  25.843  14.982  1.00  0.00    -0.313 OA
BRANCH  14  15
HETATM   15  C8  UNL     1      97.094  27.213  15.227  1.00  0.00     0.267 C 
HETATM   16  O6  UNL     1      97.829  27.880  14.421  1.00  0.00    -0.264 OA
BRANCH  15  17
HETATM   17  C9  UNL     1      96.370  27.886  16.305  1.00  0.00     0.037 C 
HETATM   18  C10 UNL     1      94.916  28.158  15.991  1.00  0.00     0.025 C 
HETATM   19  C11 UNL     1      96.418  27.076  17.606  1.00  0.00     0.025 C 
HETATM   20  C12 UNL     1      97.021  29.208  16.606  1.00  0.00     0.025 C 
ENDBRANCH  15  17
ENDBRANCH  14  15
ENDBRANCH   7  14
BRANCH   1  21
HETATM   21  C2  UNL     1      97.453  21.114  13.102  1.00  0.00     0.291 C 
HETATM   22  O2  UNL     1      96.875  20.027  13.362  1.00  0.00    -0.260 OA
BRANCH  21  23
HETATM   23  O1  UNL     1      98.722  21.045  12.595  1.00  0.00    -0.323 OA
HETATM   24  C1  UNL     1      99.018  20.396  11.368  1.00  0.00     0.213 C 
ENDBRANCH  21  23
ENDBRANCH   1  21
BRANCH  11  25
HETATM   25  O8  UNL     1      97.769  26.486  11.537  1.00  0.00    -0.381 OA
ATOM     26  H8  UNL     1      97.853  26.814  10.649  1.00  0.00     0.211 HD
ENDBRANCH  11  25
BRANCH  11  27
HETATM   27  C16 UNL     1      96.080  25.478  10.137  1.00  0.00     0.020 C 
HETATM   28  C17 UNL     1      97.086  24.661   9.301  1.00  0.00     0.013 C 
HETATM   29  C18 UNL     1      95.784  26.695   9.338  1.00  0.00     0.013 C 
ENDBRANCH  11  27
TORSDOF 7
ENDMDL
MODEL 4
REMARK VINA RESULT: -8.054402543      4.706      9.125
REMARK  7 active torsions:
REMARK  status: ('A' for Active; 'I' for Inactive)
REMARK    1  A    between atoms: O1_2  and  C2_3 
REMARK    2  A    between atoms: C2_3  and  C3_5 
REMARK    3  A    between atoms: C7_11  and  O5_12 
REMARK    4  A    between atoms: O5_12  and  C8_13 
REMARK    5  A    between atoms: C8_13  and  C9_15 
REMARK    6  A    between atoms: C15_22  and  O8_23 
REMARK    7  A    between atoms: C15_22  and  C16_25 
ROOT
HETATM    1  C3  UNL     1      97.059  28.491  15.927  1.00  0.00     0.048 C 
HETATM    2  C4  UNL     1      96.754  27.762  14.871  1.00  0.00     0.085 C 
HETATM    3  O3  UNL     1      97.100  27.830  13.505  1.00  0.00    -0.281 OA
HETATM    4  C5  UNL     1      97.036  26.421  13.532  1.00  0.00     0.277 C 
HETATM    5  O4  UNL     1      97.678  25.573  12.901  1.00  0.00    -0.264 OA
HETATM    6  C6  UNL     1      95.969  26.593  14.551  1.00  0.00     0.174 C 
HETATM    7  C7  UNL     1      95.829  25.521  15.578  1.00  0.00     0.163 C 
HETATM    8  C13 UNL     1      95.482  26.110  16.934  1.00  0.00     0.097 C 
HETATM    9  C14 UNL     1      95.403  25.228  18.076  1.00  0.00     0.169 C 
HETATM   10  O7  UNL     1      94.834  24.196  18.456  1.00  0.00    -0.294 OA
HETATM   11  C15 UNL     1      96.397  26.086  18.802  1.00  0.00     0.126 C 
HETATM   12  C19 UNL     1      96.738  26.747  17.551  1.00  0.00     0.046 C 
HETATM   13  C20 UNL     1      96.555  28.204  17.321  1.00  0.00     0.056 C 
ENDROOT
BRANCH   7  14
HETATM   14  O5  UNL     1      96.930  24.638  15.662  1.00  0.00    -0.313 OA
BRANCH  14  15
HETATM   15  C8  UNL     1      96.783  23.276  15.909  1.00  0.00     0.267 C 
HETATM   16  O6  UNL     1      97.360  22.860  16.972  1.00  0.00    -0.264 OA
BRANCH  15  17
HETATM   17  C9  UNL     1      96.039  22.350  15.055  1.00  0.00     0.037 C 
HETATM   18  C10 UNL     1      94.537  22.457  15.196  1.00  0.00     0.025 C 
HETATM   19  C11 UNL     1      96.380  22.554  13.574  1.00  0.00     0.025 C 
HETATM   20  C12 UNL     1      96.423  20.934  15.386  1.00  0.00     0.025 C 
ENDBRANCH  15  17
ENDBRANCH  14  15
ENDBRANCH   7  14
BRANCH   1  21
HETATM   21  C2  UNL     1      97.931  29.642  15.779  1.00  0.00     0.291 C 
HETATM   22  O2  UNL     1      97.485  30.657  15.185  1.00  0.00    -0.260 OA
BRANCH  21  23
HETATM   23  O1  UNL     1      99.216  29.702  16.245  1.00  0.00    -0.323 OA
HETATM   24  C1  UNL     1     100.157  28.664  16.019  1.00  0.00     0.213 C 
ENDBRANCH  21  23
ENDBRANCH   1  21
BRANCH  11  25
HETATM   25  O8  UNL     1      97.467  25.192  19.154  1.00  0.00    -0.381 OA
ATOM     26  H8  UNL     1      98.261  25.677  18.961  1.00  0.00     0.211 HD
ENDBRANCH  11  25
BRANCH  11  27
HETATM   27  C16 UNL     1      95.901  26.831  19.986  1.00  0.00     0.020 C 
HETATM   28  C17 UNL     1      96.983  26.915  21.081  1.00  0.00     0.013 C 
HETATM   29  C18 UNL     1      94.685  26.301  20.657  1.00  0.00     0.013 C 
ENDBRANCH  11  27
TORSDOF 7
ENDMDL
MODEL 5
REMARK VINA RESULT: -8.045547291      5.575      9.111
REMARK  7 active torsions:
REMARK  status: ('A' for Active; 'I' for Inactive)
REMARK    1  A    between atoms: O1_2  and  C2_3 
REMARK    2  A    between atoms: C2_3  and  C3_5 
REMARK    3  A    between atoms: C7_11  and  O5_12 
REMARK    4  A    between atoms: O5_12  and  C8_13 
REMARK    5  A    between atoms: C8_13  and  C9_15 
REMARK    6  A    between atoms: C15_22  and  O8_23 
REMARK    7  A    between atoms: C15_22  and  C16_25 
ROOT
HETATM    1  C3  UNL     1      96.233  27.888  15.231  1.00  0.00     0.048 C 
HETATM    2  C4  UNL     1      96.768  28.610  16.197  1.00  0.00     0.085 C 
HETATM    3  O3  UNL     1      96.765  29.987  16.501  1.00  0.00    -0.281 OA
HETATM    4  C5  UNL     1      96.788  29.577  17.851  1.00  0.00     0.277 C 
HETATM    5  O4  UNL     1      96.298  30.098  18.860  1.00  0.00    -0.264 OA
HETATM    6  C6  UNL     1      97.580  28.414  17.374  1.00  0.00     0.174 C 
HETATM    7  C7  UNL     1      97.442  27.138  18.135  1.00  0.00     0.163 C 
HETATM    8  C13 UNL     1      97.464  25.944  17.199  1.00  0.00     0.097 C 
HETATM    9  C14 UNL     1      97.244  24.625  17.749  1.00  0.00     0.169 C 
HETATM   10  O7  UNL     1      97.681  23.862  18.621  1.00  0.00    -0.294 OA
HETATM   11  C15 UNL     1      96.123  24.410  16.774  1.00  0.00     0.126 C 
HETATM   12  C19 UNL     1      96.112  25.835  16.476  1.00  0.00     0.046 C 
HETATM   13  C20 UNL     1      96.378  26.389  15.124  1.00  0.00     0.056 C 
ENDROOT
BRANCH   7  14
HETATM   14  O5  UNL     1      96.334  27.092  19.011  1.00  0.00    -0.313 OA
BRANCH  14  15
HETATM   15  C8  UNL     1      96.464  26.836  20.373  1.00  0.00     0.267 C 
HETATM   16  O6  UNL     1      97.492  27.363  20.920  1.00  0.00    -0.264 OA
BRANCH  15  17
HETATM   17  C9  UNL     1      95.528  26.037  21.164  1.00  0.00     0.037 C 
HETATM   18  C10 UNL     1      96.059  24.676  21.554  1.00  0.00     0.025 C 
HETATM   19  C11 UNL     1      95.121  26.761  22.453  1.00  0.00     0.025 C 
HETATM   20  C12 UNL     1      94.260  25.820  20.384  1.00  0.00     0.025 C 
ENDBRANCH  15  17
ENDBRANCH  14  15
ENDBRANCH   7  14
BRANCH   1  21
HETATM   21  C2  UNL     1      95.450  28.538  14.196  1.00  0.00     0.291 C 
HETATM   22  O2  UNL     1      94.196  28.522  14.297  1.00  0.00    -0.260 OA
BRANCH  21  23
HETATM   23  O1  UNL     1      95.984  29.172  13.108  1.00  0.00    -0.323 OA
HETATM   24  C1  UNL     1      95.746  28.736  11.779  1.00  0.00     0.213 C 
ENDBRANCH  21  23
ENDBRANCH   1  21
BRANCH  11  25
HETATM   25  O8  UNL     1      94.980  24.103  17.590  1.00  0.00    -0.381 OA
ATOM     26  H8  UNL     1      94.765  23.202  17.376  1.00  0.00     0.211 HD
ENDBRANCH  11  25
BRANCH  11  27
HETATM   27  C16 UNL     1      96.335  23.381  15.726  1.00  0.00     0.020 C 
HETATM   28  C17 UNL     1      95.033  23.106  14.948  1.00  0.00     0.013 C 
HETATM   29  C18 UNL     1      96.828  22.052  16.174  1.00  0.00     0.013 C 
ENDBRANCH  11  27
TORSDOF 7
ENDMDL
