MODEL 1
REMARK VINA RESULT: -7.141487565      0.000      0.000
REMARK  7 active torsions:
REMARK  status: ('A' for Active; 'I' for Inactive)
REMARK    1  A    between atoms: C2_2  and  C3_3 
REMARK    2  A    between atoms: C3_3  and  C4_4 
REMARK    3  A    between atoms: C4_4  and  C5_5 
REMARK    4  A    between atoms: C5_5  and  C6_6 
REMARK    5  A    between atoms: C6_6  and  C7_7 
REMARK    6  A    between atoms: C7_7  and  N1_9 
REMARK    7  A    between atoms: C7_7  and  C11_16 
ROOT
HETATM    1  C7  UNL     1      24.658 -13.457   7.432  1.00  0.00     0.060 C 
HETATM    2  C8  UNL     1      24.584 -14.254   8.727  1.00  0.00     0.041 C 
ENDROOT
BRANCH   1   3
HETATM    3  C6  UNL     1      24.782 -14.449   6.364  1.00  0.00     0.033 C 
BRANCH   3   4
HETATM    4  C5  UNL     1      23.949 -15.709   6.512  1.00  0.00     0.002 C 
BRANCH   4   5
HETATM    5  C4  UNL     1      25.019 -16.835   6.534  1.00  0.00     0.000 C 
BRANCH   5   6
HETATM    6  C3  UNL     1      24.552 -17.946   7.460  1.00  0.00    -0.000 C 
BRANCH   6   7
HETATM    7  C2  UNL     1      23.135 -18.288   7.068  1.00  0.00    -0.005 C 
HETATM    8  C1  UNL     1      22.294 -18.656   8.274  1.00  0.00     0.005 C 
ENDBRANCH   6   7
ENDBRANCH   5   6
ENDBRANCH   4   5
ENDBRANCH   3   4
ENDBRANCH   1   3
BRANCH   1   9
HETATM    9  N1  UNL     1      25.983 -12.759   7.569  1.00  0.00    -0.241 N 
HETATM   10  N2  UNL     1      26.657 -12.880   8.664  1.00  0.00    -0.299 N 
HETATM   11  C9  UNL     1      27.805 -12.301   8.836  1.00  0.00     0.162 A 
ATOM     12  H2  UNL     1      26.275 -13.451   9.419  1.00  0.00     0.187 HD
HETATM   13  S1  UNL     1      28.001 -11.496   7.339  1.00  0.00    -0.021 SA
HETATM   14  C10 UNL     1      26.529 -12.004   6.616  1.00  0.00     0.306 A 
HETATM   15  O1  UNL     1      26.167 -11.678   5.461  1.00  0.00    -0.258 OA
ENDBRANCH   1   9
BRANCH   1  16
HETATM   16  C11 UNL     1      23.551 -12.482   7.414  1.00  0.00    -0.024 C 
HETATM   17  C12 UNL     1      23.843 -11.129   8.005  1.00  0.00     0.017 C 
HETATM   18  C13 UNL     1      22.297 -12.968   8.143  1.00  0.00     0.017 C 
HETATM   19  C14 UNL     1      23.042 -12.191   6.006  1.00  0.00     0.017 C 
ENDBRANCH   1  16
TORSDOF 7
ENDMDL
MODEL 2
REMARK VINA RESULT: -6.552175939      2.454      4.046
REMARK  7 active torsions:
REMARK  status: ('A' for Active; 'I' for Inactive)
REMARK    1  A    between atoms: C2_2  and  C3_3 
REMARK    2  A    between atoms: C3_3  and  C4_4 
REMARK    3  A    between atoms: C4_4  and  C5_5 
REMARK    4  A    between atoms: C5_5  and  C6_6 
REMARK    5  A    between atoms: C6_6  and  C7_7 
REMARK    6  A    between atoms: C7_7  and  N1_9 
REMARK    7  A    between atoms: C7_7  and  C11_16 
ROOT
HETATM    1  C7  UNL     1      25.971 -11.313   6.826  1.00  0.00     0.060 C 
HETATM    2  C8  UNL     1      26.153 -12.309   5.690  1.00  0.00     0.041 C 
ENDROOT
BRANCH   1   3
HETATM    3  C6  UNL     1      24.534 -11.280   7.096  1.00  0.00     0.033 C 
BRANCH   3   4
HETATM    4  C5  UNL     1      23.666 -12.195   6.249  1.00  0.00     0.002 C 
BRANCH   4   5
HETATM    5  C4  UNL     1      22.769 -12.899   7.304  1.00  0.00     0.000 C 
BRANCH   5   6
HETATM    6  C3  UNL     1      23.352 -14.266   7.620  1.00  0.00    -0.000 C 
BRANCH   6   7
HETATM    7  C2  UNL     1      23.736 -14.902   6.306  1.00  0.00    -0.005 C 
HETATM    8  C1  UNL     1      24.980 -15.756   6.439  1.00  0.00     0.005 C 
ENDBRANCH   6   7
ENDBRANCH   5   6
ENDBRANCH   4   5
ENDBRANCH   3   4
ENDBRANCH   1   3
BRANCH   1   9
HETATM    9  N1  UNL     1      26.345 -10.014   6.166  1.00  0.00    -0.241 N 
HETATM   10  N2  UNL     1      27.327  -9.985   5.327  1.00  0.00    -0.299 N 
HETATM   11  C9  UNL     1      27.692  -8.894   4.729  1.00  0.00     0.162 A 
ATOM     12  H2  UNL     1      27.832 -10.850   5.127  1.00  0.00     0.187 HD
HETATM   13  S1  UNL     1      26.577  -7.769   5.375  1.00  0.00    -0.021 SA
HETATM   14  C10 UNL     1      25.720  -8.858   6.389  1.00  0.00     0.306 A 
HETATM   15  O1  UNL     1      24.755  -8.526   7.117  1.00  0.00    -0.258 OA
ENDBRANCH   1   9
BRANCH   1  16
HETATM   16  C11 UNL     1      26.921 -11.646   7.904  1.00  0.00    -0.024 C 
HETATM   17  C12 UNL     1      28.377 -11.669   7.527  1.00  0.00     0.017 C 
HETATM   18  C13 UNL     1      26.660 -13.009   8.548  1.00  0.00     0.017 C 
HETATM   19  C14 UNL     1      26.839 -10.684   9.084  1.00  0.00     0.017 C 
ENDBRANCH   1  16
TORSDOF 7
ENDMDL
MODEL 3
REMARK VINA RESULT: -6.452812968      2.242      3.350
REMARK  7 active torsions:
REMARK  status: ('A' for Active; 'I' for Inactive)
REMARK    1  A    between atoms: C2_2  and  C3_3 
REMARK    2  A    between atoms: C3_3  and  C4_4 
REMARK    3  A    between atoms: C4_4  and  C5_5 
REMARK    4  A    between atoms: C5_5  and  C6_6 
REMARK    5  A    between atoms: C6_6  and  C7_7 
REMARK    6  A    between atoms: C7_7  and  N1_9 
REMARK    7  A    between atoms: C7_7  and  C11_16 
ROOT
HETATM    1  C7  UNL     1      25.707 -11.700   6.703  1.00  0.00     0.060 C 
HETATM    2  C8  UNL     1      26.692 -12.682   6.088  1.00  0.00     0.041 C 
ENDROOT
BRANCH   1   3
HETATM    3  C6  UNL     1      24.417 -11.988   6.077  1.00  0.00     0.033 C 
BRANCH   3   4
HETATM    4  C5  UNL     1      24.162 -13.434   5.690  1.00  0.00     0.002 C 
BRANCH   4   5
HETATM    5  C4  UNL     1      23.145 -13.909   6.765  1.00  0.00     0.000 C 
BRANCH   5   6
HETATM    6  C3  UNL     1      23.708 -15.128   7.477  1.00  0.00    -0.000 C 
BRANCH   6   7
HETATM    7  C2  UNL     1      24.705 -15.770   6.543  1.00  0.00    -0.005 C 
HETATM    8  C1  UNL     1      24.924 -17.232   6.878  1.00  0.00     0.005 C 
ENDBRANCH   6   7
ENDBRANCH   5   6
ENDBRANCH   4   5
ENDBRANCH   3   4
ENDBRANCH   1   3
BRANCH   1   9
HETATM    9  N1  UNL     1      26.197 -10.385   6.163  1.00  0.00    -0.241 N 
HETATM   10  N2  UNL     1      27.293 -10.345   5.479  1.00  0.00    -0.299 N 
HETATM   11  C9  UNL     1      27.761  -9.239   4.989  1.00  0.00     0.162 A 
ATOM     12  H2  UNL     1      27.806 -11.212   5.319  1.00  0.00     0.187 HD
HETATM   13  S1  UNL     1      26.582  -8.116   5.512  1.00  0.00    -0.021 SA
HETATM   14  C10 UNL     1      25.566  -9.223   6.341  1.00  0.00     0.306 A 
HETATM   15  O1  UNL     1      24.510  -8.899   6.932  1.00  0.00    -0.258 OA
ENDBRANCH   1   9
BRANCH   1  16
HETATM   16  C11 UNL     1      25.846 -11.748   8.171  1.00  0.00    -0.024 C 
HETATM   17  C12 UNL     1      26.703 -10.680   8.795  1.00  0.00     0.017 C 
HETATM   18  C13 UNL     1      26.422 -13.067   8.686  1.00  0.00     0.017 C 
HETATM   19  C14 UNL     1      24.508 -11.647   8.896  1.00  0.00     0.017 C 
ENDBRANCH   1  16
TORSDOF 7
ENDMDL
MODEL 4
REMARK VINA RESULT: -6.343109241      1.906      3.370
REMARK  7 active torsions:
REMARK  status: ('A' for Active; 'I' for Inactive)
REMARK    1  A    between atoms: C2_2  and  C3_3 
REMARK    2  A    between atoms: C3_3  and  C4_4 
REMARK    3  A    between atoms: C4_4  and  C5_5 
REMARK    4  A    between atoms: C5_5  and  C6_6 
REMARK    5  A    between atoms: C6_6  and  C7_7 
REMARK    6  A    between atoms: C7_7  and  N1_9 
REMARK    7  A    between atoms: C7_7  and  C11_16 
ROOT
HETATM    1  C7  UNL     1      26.018 -12.598   7.546  1.00  0.00     0.060 C 
HETATM    2  C8  UNL     1      26.088 -12.235   6.070  1.00  0.00     0.041 C 
ENDROOT
BRANCH   1   3
HETATM    3  C6  UNL     1      25.778 -14.040   7.588  1.00  0.00     0.033 C 
BRANCH   3   4
HETATM    4  C5  UNL     1      25.333 -14.689   6.289  1.00  0.00     0.002 C 
BRANCH   4   5
HETATM    5  C4  UNL     1      24.120 -15.554   6.729  1.00  0.00     0.000 C 
BRANCH   5   6
HETATM    6  C3  UNL     1      24.527 -16.418   7.910  1.00  0.00    -0.000 C 
BRANCH   6   7
HETATM    7  C2  UNL     1      24.497 -17.854   7.446  1.00  0.00    -0.005 C 
HETATM    8  C1  UNL     1      23.110 -18.268   6.998  1.00  0.00     0.005 C 
ENDBRANCH   6   7
ENDBRANCH   5   6
ENDBRANCH   4   5
ENDBRANCH   3   4
ENDBRANCH   1   3
BRANCH   1   9
HETATM    9  N1  UNL     1      24.753 -11.908   7.977  1.00  0.00    -0.241 N 
HETATM   10  N2  UNL     1      24.030 -12.430   8.912  1.00  0.00    -0.299 N 
HETATM   11  C9  UNL     1      22.930 -11.878   9.323  1.00  0.00     0.162 A 
ATOM     12  H2  UNL     1      24.333 -13.305   9.341  1.00  0.00     0.187 HD
HETATM   13  S1  UNL     1      22.863 -10.486   8.331  1.00  0.00    -0.021 SA
HETATM   14  C10 UNL     1      24.310 -10.765   7.452  1.00  0.00     0.306 A 
HETATM   15  O1  UNL     1      24.744 -10.004   6.556  1.00  0.00    -0.258 OA
ENDBRANCH   1   9
BRANCH   1  16
HETATM   16  C11 UNL     1      27.190 -12.020   8.231  1.00  0.00    -0.024 C 
HETATM   17  C12 UNL     1      26.945 -10.770   9.032  1.00  0.00     0.017 C 
HETATM   18  C13 UNL     1      28.336 -11.663   7.283  1.00  0.00     0.017 C 
HETATM   19  C14 UNL     1      27.840 -12.991   9.211  1.00  0.00     0.017 C 
ENDBRANCH   1  16
TORSDOF 7
ENDMDL
MODEL 5
REMARK VINA RESULT: -6.274897057      1.499      1.684
REMARK  7 active torsions:
REMARK  status: ('A' for Active; 'I' for Inactive)
REMARK    1  A    between atoms: C2_2  and  C3_3 
REMARK    2  A    between atoms: C3_3  and  C4_4 
REMARK    3  A    between atoms: C4_4  and  C5_5 
REMARK    4  A    between atoms: C5_5  and  C6_6 
REMARK    5  A    between atoms: C6_6  and  C7_7 
REMARK    6  A    between atoms: C7_7  and  N1_9 
REMARK    7  A    between atoms: C7_7  and  C11_16 
ROOT
HETATM    1  C7  UNL     1      24.678 -13.510   7.606  1.00  0.00     0.060 C 
HETATM    2  C8  UNL     1      24.001 -13.512   8.969  1.00  0.00     0.041 C 
ENDROOT
BRANCH   1   3
HETATM    3  C6  UNL     1      25.339 -14.810   7.491  1.00  0.00     0.033 C 
BRANCH   3   4
HETATM    4  C5  UNL     1      24.889 -15.885   8.464  1.00  0.00     0.002 C 
BRANCH   4   5
HETATM    5  C4  UNL     1      24.831 -17.158   7.576  1.00  0.00     0.000 C 
BRANCH   5   6
HETATM    6  C3  UNL     1      23.377 -17.516   7.316  1.00  0.00    -0.000 C 
BRANCH   6   7
HETATM    7  C2  UNL     1      23.054 -18.721   8.167  1.00  0.00    -0.005 C 
HETATM    8  C1  UNL     1      21.599 -18.734   8.589  1.00  0.00     0.005 C 
ENDBRANCH   6   7
ENDBRANCH   5   6
ENDBRANCH   4   5
ENDBRANCH   3   4
ENDBRANCH   1   3
BRANCH   1   9
HETATM    9  N1  UNL     1      25.745 -12.466   7.788  1.00  0.00    -0.241 N 
HETATM   10  N2  UNL     1      26.940 -12.692   7.351  1.00  0.00    -0.299 N 
HETATM   11  C9  UNL     1      27.897 -11.827   7.481  1.00  0.00     0.162 A 
ATOM     12  H2  UNL     1      27.136 -13.581   6.889  1.00  0.00     0.187 HD
HETATM   13  S1  UNL     1      27.090 -10.553   8.287  1.00  0.00    -0.021 SA
HETATM   14  C10 UNL     1      25.543 -11.289   8.382  1.00  0.00     0.306 A 
HETATM   15  O1  UNL     1      24.541 -10.750   8.907  1.00  0.00    -0.258 OA
ENDBRANCH   1   9
BRANCH   1  16
HETATM   16  C11 UNL     1      23.696 -13.085   6.591  1.00  0.00    -0.024 C 
HETATM   17  C12 UNL     1      24.088 -11.912   5.733  1.00  0.00     0.017 C 
HETATM   18  C13 UNL     1      22.336 -12.707   7.179  1.00  0.00     0.017 C 
HETATM   19  C14 UNL     1      23.350 -14.193   5.601  1.00  0.00     0.017 C 
ENDBRANCH   1  16
TORSDOF 7
ENDMDL
