MODEL 1
REMARK VINA RESULT: -8.006440197      0.000      0.000
REMARK  10 active torsions:
REMARK  status: ('A' for Active; 'I' for Inactive)
REMARK    1  A    between atoms: N1_1  and  C1_5 
REMARK    2  A    between atoms: C1_5  and  C2_6 
REMARK    3  A    between atoms: C2_6  and  C3_7 
REMARK    4  A    between atoms: C3_7  and  C4_8 
REMARK    5  A    between atoms: C4_8  and  C5_9 
REMARK    6  A    between atoms: C5_9  and  C6_10 
REMARK    7  A    between atoms: C6_10  and  N2_11 
REMARK    8  A    between atoms: C8_13  and  C9_14 
REMARK    9  A    between atoms: C9_14  and  N3_15 
REMARK   10  A    between atoms: C15_23  and  C16_24 
ROOT
HETATM    1  N2  UNL     1     -24.469 -15.376  -7.833  1.00  0.00    -0.340 N 
HETATM    2  C7  UNL     1     -23.789 -16.579  -8.011  1.00  0.00     0.119 A 
HETATM    3  C8  UNL     1     -23.494 -17.094  -6.780  1.00  0.00     0.044 A 
HETATM    4  N4  UNL     1     -23.985 -16.216  -5.913  1.00  0.00    -0.341 N 
ATOM      5  H4  UNL     1     -23.924 -16.317  -4.900  1.00  0.00     0.167 HD
HETATM    6  C15 UNL     1     -24.587 -15.155  -6.548  1.00  0.00     0.135 A 
ENDROOT
BRANCH   1   7
HETATM    7  C6  UNL     1     -24.977 -14.609  -8.935  1.00  0.00     0.130 C 
BRANCH   7   8
HETATM    8  C5  UNL     1     -24.078 -13.469  -9.373  1.00  0.00     0.020 C 
BRANCH   8   9
HETATM    9  C4  UNL     1     -22.704 -13.812  -9.749  1.00  0.00     0.002 C 
BRANCH   9  10
HETATM   10  C3  UNL     1     -21.574 -13.434  -8.879  1.00  0.00     0.002 C 
BRANCH  10  11
HETATM   11  C2  UNL     1     -20.279 -14.108  -8.918  1.00  0.00     0.027 C 
BRANCH  11  12
HETATM   12  C1  UNL     1     -20.051 -15.337  -8.103  1.00  0.00     0.229 C 
BRANCH  12  13
HETATM   13  N1  UNL     1     -18.703 -15.260  -7.463  1.00  0.00    -0.079 N 
ATOM     14  H13 UNL     1     -18.022 -15.865  -7.922  1.00  0.00     0.274 HD
ATOM     15  H12 UNL     1     -18.243 -14.366  -7.637  1.00  0.00     0.274 HD
ATOM     16  H11 UNL     1     -18.791 -15.462  -6.468  1.00  0.00     0.274 HD
ENDBRANCH  12  13
ENDBRANCH  11  12
ENDBRANCH  10  11
ENDBRANCH   9  10
ENDBRANCH   8   9
ENDBRANCH   7   8
ENDBRANCH   1   7
BRANCH   6  17
HETATM   17  C16 UNL     1     -25.169 -14.036  -5.758  1.00  0.00     0.076 A 
HETATM   18  C17 UNL     1     -25.035 -12.695  -5.882  1.00  0.00     0.035 A 
HETATM   19  C18 UNL     1     -25.763 -12.061  -4.870  1.00  0.00     0.019 A 
HETATM   20  C19 UNL     1     -26.344 -13.057  -4.126  1.00  0.00     0.088 A 
HETATM   21  N5  UNL     1     -25.968 -14.204  -4.684  1.00  0.00    -0.363 N 
ATOM     22  H5  UNL     1     -26.256 -15.118  -4.335  1.00  0.00     0.165 HD
ENDBRANCH   6  17
BRANCH   3  23
HETATM   23  C9  UNL     1     -22.775 -18.364  -6.449  1.00  0.00     0.186 C 
BRANCH  23  24
HETATM   24  N3  UNL     1     -22.863 -19.333  -7.505  1.00  0.00    -0.361 N 
HETATM   25  C10 UNL     1     -23.883 -20.198  -7.490  1.00  0.00     0.090 A 
HETATM   26  C11 UNL     1     -24.012 -21.136  -8.469  1.00  0.00     0.017 A 
HETATM   27  C12 UNL     1     -23.094 -21.200  -9.481  1.00  0.00     0.003 A 
HETATM   28  C13 UNL     1     -22.044 -20.309  -9.495  1.00  0.00     0.017 A 
HETATM   29  C14 UNL     1     -21.959 -19.381  -8.485  1.00  0.00     0.090 A 
ENDBRANCH  23  24
ENDBRANCH   3  23
TORSDOF 10
ENDMDL
MODEL 2
REMARK VINA RESULT: -7.819168925      2.026      6.554
REMARK  10 active torsions:
REMARK  status: ('A' for Active; 'I' for Inactive)
REMARK    1  A    between atoms: N1_1  and  C1_5 
REMARK    2  A    between atoms: C1_5  and  C2_6 
REMARK    3  A    between atoms: C2_6  and  C3_7 
REMARK    4  A    between atoms: C3_7  and  C4_8 
REMARK    5  A    between atoms: C4_8  and  C5_9 
REMARK    6  A    between atoms: C5_9  and  C6_10 
REMARK    7  A    between atoms: C6_10  and  N2_11 
REMARK    8  A    between atoms: C8_13  and  C9_14 
REMARK    9  A    between atoms: C9_14  and  N3_15 
REMARK   10  A    between atoms: C15_23  and  C16_24 
ROOT
HETATM    1  N2  UNL     1     -23.121 -14.383  -9.333  1.00  0.00    -0.340 N 
HETATM    2  C7  UNL     1     -24.120 -13.411  -9.325  1.00  0.00     0.119 A 
HETATM    3  C8  UNL     1     -25.272 -13.980  -8.858  1.00  0.00     0.044 A 
HETATM    4  N4  UNL     1     -24.952 -15.243  -8.604  1.00  0.00    -0.341 N 
ATOM      5  H4  UNL     1     -25.606 -15.936  -8.240  1.00  0.00     0.167 HD
HETATM    6  C15 UNL     1     -23.633 -15.504  -8.893  1.00  0.00     0.135 A 
ENDROOT
BRANCH   1   7
HETATM    7  C6  UNL     1     -21.768 -14.092  -9.714  1.00  0.00     0.130 C 
BRANCH   7   8
HETATM    8  C5  UNL     1     -20.886 -13.610  -8.580  1.00  0.00     0.020 C 
BRANCH   8   9
HETATM    9  C4  UNL     1     -20.032 -14.609  -7.930  1.00  0.00     0.002 C 
BRANCH   9  10
HETATM   10  C3  UNL     1     -19.678 -15.859  -8.630  1.00  0.00     0.002 C 
BRANCH  10  11
HETATM   11  C2  UNL     1     -19.028 -16.986  -7.968  1.00  0.00     0.027 C 
BRANCH  11  12
HETATM   12  C1  UNL     1     -18.434 -18.089  -8.779  1.00  0.00     0.229 C 
BRANCH  12  13
HETATM   13  N1  UNL     1     -18.880 -17.951 -10.198  1.00  0.00    -0.079 N 
ATOM     14  H13 UNL     1     -18.094 -17.884 -10.845  1.00  0.00     0.274 HD
ATOM     15  H12 UNL     1     -19.292 -18.810 -10.560  1.00  0.00     0.274 HD
ATOM     16  H11 UNL     1     -19.513 -17.155 -10.276  1.00  0.00     0.274 HD
ENDBRANCH  12  13
ENDBRANCH  11  12
ENDBRANCH  10  11
ENDBRANCH   9  10
ENDBRANCH   8   9
ENDBRANCH   7   8
ENDBRANCH   1   7
BRANCH   6  17
HETATM   17  C16 UNL     1     -23.081 -16.875  -8.717  1.00  0.00     0.076 A 
HETATM   18  C17 UNL     1     -22.846 -17.602  -7.600  1.00  0.00     0.035 A 
HETATM   19  C18 UNL     1     -22.287 -18.833  -7.959  1.00  0.00     0.019 A 
HETATM   20  C19 UNL     1     -22.190 -18.833  -9.327  1.00  0.00     0.088 A 
HETATM   21  N5  UNL     1     -22.669 -17.661  -9.733  1.00  0.00    -0.363 N 
ATOM     22  H5  UNL     1     -22.719 -17.384 -10.713  1.00  0.00     0.165 HD
ENDBRANCH   6  17
BRANCH   3  23
HETATM   23  C9  UNL     1     -26.613 -13.345  -8.666  1.00  0.00     0.186 C 
BRANCH  23  24
HETATM   24  N3  UNL     1     -26.579 -12.276  -7.706  1.00  0.00    -0.361 N 
HETATM   25  C10 UNL     1     -25.773 -12.400  -6.647  1.00  0.00     0.090 A 
HETATM   26  C11 UNL     1     -25.705 -11.414  -5.708  1.00  0.00     0.017 A 
HETATM   27  C12 UNL     1     -26.464 -10.285  -5.845  1.00  0.00     0.003 A 
HETATM   28  C13 UNL     1     -27.294 -10.160  -6.937  1.00  0.00     0.017 A 
HETATM   29  C14 UNL     1     -27.327 -11.182  -7.855  1.00  0.00     0.090 A 
ENDBRANCH  23  24
ENDBRANCH   3  23
TORSDOF 10
ENDMDL
MODEL 3
REMARK VINA RESULT: -7.814889938      1.947      6.278
REMARK  10 active torsions:
REMARK  status: ('A' for Active; 'I' for Inactive)
REMARK    1  A    between atoms: N1_1  and  C1_5 
REMARK    2  A    between atoms: C1_5  and  C2_6 
REMARK    3  A    between atoms: C2_6  and  C3_7 
REMARK    4  A    between atoms: C3_7  and  C4_8 
REMARK    5  A    between atoms: C4_8  and  C5_9 
REMARK    6  A    between atoms: C5_9  and  C6_10 
REMARK    7  A    between atoms: C6_10  and  N2_11 
REMARK    8  A    between atoms: C8_13  and  C9_14 
REMARK    9  A    between atoms: C9_14  and  N3_15 
REMARK   10  A    between atoms: C15_23  and  C16_24 
ROOT
HETATM    1  N2  UNL     1     -22.355 -15.385  -7.260  1.00  0.00    -0.340 N 
HETATM    2  C7  UNL     1     -22.972 -14.361  -7.975  1.00  0.00     0.119 A 
HETATM    3  C8  UNL     1     -24.324 -14.551  -7.922  1.00  0.00     0.044 A 
HETATM    4  N4  UNL     1     -24.487 -15.654  -7.200  1.00  0.00    -0.341 N 
ATOM      5  H4  UNL     1     -25.395 -16.063  -6.978  1.00  0.00     0.167 HD
HETATM    6  C15 UNL     1     -23.284 -16.176  -6.787  1.00  0.00     0.135 A 
ENDROOT
BRANCH   1   7
HETATM    7  C6  UNL     1     -20.933 -15.442  -7.070  1.00  0.00     0.130 C 
BRANCH   7   8
HETATM    8  C5  UNL     1     -20.127 -15.421  -8.354  1.00  0.00     0.020 C 
BRANCH   8   9
HETATM    9  C4  UNL     1     -19.376 -16.634  -8.688  1.00  0.00     0.002 C 
BRANCH   9  10
HETATM   10  C3  UNL     1     -19.948 -17.967  -8.415  1.00  0.00     0.002 C 
BRANCH  10  11
HETATM   11  C2  UNL     1     -20.732 -18.713  -9.395  1.00  0.00     0.027 C 
BRANCH  11  12
HETATM   12  C1  UNL     1     -22.222 -18.708  -9.320  1.00  0.00     0.229 C 
BRANCH  12  13
HETATM   13  N1  UNL     1     -22.744 -17.474  -9.981  1.00  0.00    -0.079 N 
ATOM     14  H13 UNL     1     -22.130 -16.671  -9.840  1.00  0.00     0.274 HD
ATOM     15  H12 UNL     1     -22.683 -17.525 -10.998  1.00  0.00     0.274 HD
ATOM     16  H11 UNL     1     -23.694 -17.296  -9.659  1.00  0.00     0.274 HD
ENDBRANCH  12  13
ENDBRANCH  11  12
ENDBRANCH  10  11
ENDBRANCH   9  10
ENDBRANCH   8   9
ENDBRANCH   7   8
ENDBRANCH   1   7
BRANCH   6  17
HETATM   17  C16 UNL     1     -23.242 -17.436  -5.996  1.00  0.00     0.076 A 
HETATM   18  C17 UNL     1     -24.228 -18.144  -5.397  1.00  0.00     0.035 A 
HETATM   19  C18 UNL     1     -23.674 -19.251  -4.746  1.00  0.00     0.019 A 
HETATM   20  C19 UNL     1     -22.321 -19.196  -4.968  1.00  0.00     0.088 A 
HETATM   21  N5  UNL     1     -22.110 -18.112  -5.709  1.00  0.00    -0.363 N 
ATOM     22  H5  UNL     1     -21.186 -17.821  -6.028  1.00  0.00     0.165 HD
ENDBRANCH   6  17
BRANCH   3  23
HETATM   23  C9  UNL     1     -25.408 -13.721  -8.534  1.00  0.00     0.186 C 
BRANCH  23  24
HETATM   24  N3  UNL     1     -25.882 -12.698  -7.643  1.00  0.00    -0.361 N 
HETATM   25  C10 UNL     1     -27.021 -12.069  -7.948  1.00  0.00     0.090 A 
HETATM   26  C11 UNL     1     -27.513 -11.092  -7.135  1.00  0.00     0.017 A 
HETATM   27  C12 UNL     1     -26.841 -10.747  -5.995  1.00  0.00     0.003 A 
HETATM   28  C13 UNL     1     -25.667 -11.397  -5.683  1.00  0.00     0.017 A 
HETATM   29  C14 UNL     1     -25.213 -12.375  -6.535  1.00  0.00     0.090 A 
ENDBRANCH  23  24
ENDBRANCH   3  23
TORSDOF 10
ENDMDL
MODEL 4
REMARK VINA RESULT: -7.634625578      1.603      2.145
REMARK  10 active torsions:
REMARK  status: ('A' for Active; 'I' for Inactive)
REMARK    1  A    between atoms: N1_1  and  C1_5 
REMARK    2  A    between atoms: C1_5  and  C2_6 
REMARK    3  A    between atoms: C2_6  and  C3_7 
REMARK    4  A    between atoms: C3_7  and  C4_8 
REMARK    5  A    between atoms: C4_8  and  C5_9 
REMARK    6  A    between atoms: C5_9  and  C6_10 
REMARK    7  A    between atoms: C6_10  and  N2_11 
REMARK    8  A    between atoms: C8_13  and  C9_14 
REMARK    9  A    between atoms: C9_14  and  N3_15 
REMARK   10  A    between atoms: C15_23  and  C16_24 
ROOT
HETATM    1  N2  UNL     1     -24.012 -14.677  -8.332  1.00  0.00    -0.340 N 
HETATM    2  C7  UNL     1     -23.858 -16.014  -8.693  1.00  0.00     0.119 A 
HETATM    3  C8  UNL     1     -24.448 -16.791  -7.736  1.00  0.00     0.044 A 
HETATM    4  N4  UNL     1     -24.927 -15.932  -6.844  1.00  0.00    -0.341 N 
ATOM      5  H4  UNL     1     -25.429 -16.205  -6.000  1.00  0.00     0.167 HD
HETATM    6  C15 UNL     1     -24.665 -14.629  -7.199  1.00  0.00     0.135 A 
ENDROOT
BRANCH   1   7
HETATM    7  C6  UNL     1     -23.554 -13.599  -9.161  1.00  0.00     0.130 C 
BRANCH   7   8
HETATM    8  C5  UNL     1     -22.143 -13.133  -8.863  1.00  0.00     0.020 C 
BRANCH   8   9
HETATM    9  C4  UNL     1     -21.051 -13.859  -9.516  1.00  0.00     0.002 C 
BRANCH   9  10
HETATM   10  C3  UNL     1     -19.914 -14.371  -8.726  1.00  0.00     0.002 C 
BRANCH  10  11
HETATM   11  C2  UNL     1     -20.045 -14.824  -7.344  1.00  0.00     0.027 C 
BRANCH  11  12
HETATM   12  C1  UNL     1     -20.672 -16.145  -7.047  1.00  0.00     0.229 C 
BRANCH  12  13
HETATM   13  N1  UNL     1     -21.545 -16.016  -5.842  1.00  0.00    -0.079 N 
ATOM     14  H13 UNL     1     -21.788 -15.045  -5.642  1.00  0.00     0.274 HD
ATOM     15  H12 UNL     1     -22.487 -16.370  -6.007  1.00  0.00     0.274 HD
ATOM     16  H11 UNL     1     -21.094 -16.472  -5.049  1.00  0.00     0.274 HD
ENDBRANCH  12  13
ENDBRANCH  11  12
ENDBRANCH  10  11
ENDBRANCH   9  10
ENDBRANCH   8   9
ENDBRANCH   7   8
ENDBRANCH   1   7
BRANCH   6  17
HETATM   17  C16 UNL     1     -25.084 -13.509  -6.312  1.00  0.00     0.076 A 
HETATM   18  C17 UNL     1     -25.341 -13.475  -4.984  1.00  0.00     0.035 A 
HETATM   19  C18 UNL     1     -25.732 -12.182  -4.622  1.00  0.00     0.019 A 
HETATM   20  C19 UNL     1     -25.705 -11.430  -5.769  1.00  0.00     0.088 A 
HETATM   21  N5  UNL     1     -25.317 -12.251  -6.741  1.00  0.00    -0.363 N 
ATOM     22  H5  UNL     1     -25.207 -11.959  -7.712  1.00  0.00     0.165 HD
ENDBRANCH   6  17
BRANCH   3  23
HETATM   23  C9  UNL     1     -24.545 -18.283  -7.677  1.00  0.00     0.186 C 
BRANCH  23  24
HETATM   24  N3  UNL     1     -23.470 -18.871  -6.928  1.00  0.00    -0.361 N 
HETATM   25  C10 UNL     1     -23.609 -18.991  -5.604  1.00  0.00     0.090 A 
HETATM   26  C11 UNL     1     -22.617 -19.543  -4.848  1.00  0.00     0.017 A 
HETATM   27  C12 UNL     1     -21.467 -19.981  -5.444  1.00  0.00     0.003 A 
HETATM   28  C13 UNL     1     -21.326 -19.857  -6.808  1.00  0.00     0.017 A 
HETATM   29  C14 UNL     1     -22.354 -19.294  -7.525  1.00  0.00     0.090 A 
ENDBRANCH  23  24
ENDBRANCH   3  23
TORSDOF 10
ENDMDL
MODEL 5
REMARK VINA RESULT: -7.609020642      2.015      6.498
REMARK  10 active torsions:
REMARK  status: ('A' for Active; 'I' for Inactive)
REMARK    1  A    between atoms: N1_1  and  C1_5 
REMARK    2  A    between atoms: C1_5  and  C2_6 
REMARK    3  A    between atoms: C2_6  and  C3_7 
REMARK    4  A    between atoms: C3_7  and  C4_8 
REMARK    5  A    between atoms: C4_8  and  C5_9 
REMARK    6  A    between atoms: C5_9  and  C6_10 
REMARK    7  A    between atoms: C6_10  and  N2_11 
REMARK    8  A    between atoms: C8_13  and  C9_14 
REMARK    9  A    between atoms: C9_14  and  N3_15 
REMARK   10  A    between atoms: C15_23  and  C16_24 
ROOT
HETATM    1  N2  UNL     1     -22.915 -16.662  -8.627  1.00  0.00    -0.340 N 
HETATM    2  C7  UNL     1     -23.067 -15.364  -9.112  1.00  0.00     0.119 A 
HETATM    3  C8  UNL     1     -23.338 -14.538  -8.057  1.00  0.00     0.044 A 
HETATM    4  N4  UNL     1     -23.345 -15.332  -6.993  1.00  0.00    -0.341 N 
ATOM      5  H4  UNL     1     -23.521 -15.010  -6.041  1.00  0.00     0.167 HD
HETATM    6  C15 UNL     1     -23.087 -16.640  -7.329  1.00  0.00     0.135 A 
ENDROOT
BRANCH   1   7
HETATM    7  C6  UNL     1     -22.562 -17.764  -9.475  1.00  0.00     0.130 C 
BRANCH   7   8
HETATM    8  C5  UNL     1     -21.196 -18.358  -9.198  1.00  0.00     0.020 C 
BRANCH   8   9
HETATM    9  C4  UNL     1     -21.085 -19.820  -9.239  1.00  0.00     0.002 C 
BRANCH   9  10
HETATM   10  C3  UNL     1     -22.017 -20.618 -10.058  1.00  0.00     0.002 C 
BRANCH  10  11
HETATM   11  C2  UNL     1     -23.144 -21.354  -9.493  1.00  0.00     0.027 C 
BRANCH  11  12
HETATM   12  C1  UNL     1     -23.674 -20.990  -8.146  1.00  0.00     0.229 C 
BRANCH  12  13
HETATM   13  N1  UNL     1     -24.899 -20.150  -8.311  1.00  0.00    -0.079 N 
ATOM     14  H13 UNL     1     -25.117 -19.971  -9.291  1.00  0.00     0.274 HD
ATOM     15  H12 UNL     1     -25.750 -20.654  -8.063  1.00  0.00     0.274 HD
ATOM     16  H11 UNL     1     -24.790 -19.289  -7.775  1.00  0.00     0.274 HD
ENDBRANCH  12  13
ENDBRANCH  11  12
ENDBRANCH  10  11
ENDBRANCH   9  10
ENDBRANCH   8   9
ENDBRANCH   7   8
ENDBRANCH   1   7
BRANCH   6  17
HETATM   17  C16 UNL     1     -23.089 -17.700  -6.285  1.00  0.00     0.076 A 
HETATM   18  C17 UNL     1     -22.098 -18.502  -5.829  1.00  0.00     0.035 A 
HETATM   19  C18 UNL     1     -22.612 -19.363  -4.854  1.00  0.00     0.019 A 
HETATM   20  C19 UNL     1     -23.945 -19.061  -4.730  1.00  0.00     0.088 A 
HETATM   21  N5  UNL     1     -24.183 -18.076  -5.591  1.00  0.00    -0.363 N 
ATOM     22  H5  UNL     1     -25.101 -17.648  -5.713  1.00  0.00     0.165 HD
ENDBRANCH   6  17
BRANCH   3  23
HETATM   23  C9  UNL     1     -23.580 -13.062  -8.069  1.00  0.00     0.186 C 
BRANCH  23  24
HETATM   24  N3  UNL     1     -24.917 -12.724  -7.667  1.00  0.00    -0.361 N 
HETATM   25  C10 UNL     1     -25.916 -12.964  -8.522  1.00  0.00     0.090 A 
HETATM   26  C11 UNL     1     -27.203 -12.663  -8.189  1.00  0.00     0.017 A 
HETATM   27  C12 UNL     1     -27.482 -12.110  -6.970  1.00  0.00     0.003 A 
HETATM   28  C13 UNL     1     -26.451 -11.864  -6.090  1.00  0.00     0.017 A 
HETATM   29  C14 UNL     1     -25.172 -12.186  -6.473  1.00  0.00     0.090 A 
ENDBRANCH  23  24
ENDBRANCH   3  23
TORSDOF 10
ENDMDL
