MODEL 1
REMARK VINA RESULT: -9.158775525      0.000      0.000
REMARK  9 active torsions:
REMARK  status: ('A' for Active; 'I' for Inactive)
REMARK    1  A    between atoms: N3_7  and  C4_8 
REMARK    2  A    between atoms: C4_8  and  C5_9 
REMARK    3  A    between atoms: C5_9  and  C6_10 
REMARK    4  A    between atoms: C6_10  and  C7_11 
REMARK    5  A    between atoms: C7_11  and  N4_12 
REMARK    6  A    between atoms: C10_15  and  C11_16 
REMARK    7  A    between atoms: C11_16  and  C12_17 
REMARK    8  A    between atoms: C12_17  and  C13_18 
REMARK    9  A    between atoms: C13_18  and  C14_19 
ROOT
HETATM    1  N4  UNL     1     -22.661 -14.784  -7.902  1.00  0.00    -0.366 N 
HETATM    2  C8  UNL     1     -23.138 -15.355  -6.757  1.00  0.00     0.091 A 
HETATM    3  C9  UNL     1     -24.230 -14.773  -6.147  1.00  0.00     0.024 A 
HETATM    4  C10 UNL     1     -24.841 -13.651  -6.654  1.00  0.00    -0.056 A 
HETATM    5  C20 UNL     1     -24.305 -13.133  -7.810  1.00  0.00     0.024 A 
HETATM    6  C21 UNL     1     -23.207 -13.705  -8.439  1.00  0.00     0.091 A 
ENDROOT
BRANCH   1   7
HETATM    7  C7  UNL     1     -21.522 -15.441  -8.512  1.00  0.00     0.128 C 
BRANCH   7   8
HETATM    8  C6  UNL     1     -20.966 -16.486  -7.616  1.00  0.00     0.022 C 
BRANCH   8   9
HETATM    9  C5  UNL     1     -20.699 -17.822  -8.198  1.00  0.00     0.022 C 
BRANCH   9  10
HETATM   10  C4  UNL     1     -20.890 -18.990  -7.287  1.00  0.00     0.131 C 
BRANCH  10  11
HETATM   11  N3  UNL     1     -22.063 -19.779  -7.663  1.00  0.00    -0.330 N 
HETATM   12  C1  UNL     1     -23.063 -20.161  -6.848  1.00  0.00     0.194 A 
HETATM   13  N1  UNL     1     -23.211 -19.892  -5.451  1.00  0.00    -0.063 NA
HETATM   14  N2  UNL     1     -23.982 -20.882  -7.541  1.00  0.00    -0.339 N 
HETATM   15  C2  UNL     1     -23.569 -20.965  -8.828  1.00  0.00     0.108 A 
ATOM     16  H2  UNL     1     -24.836 -21.289  -7.159  1.00  0.00     0.168 HD
HETATM   17  C3  UNL     1     -22.375 -20.272  -8.873  1.00  0.00     0.110 A 
ENDBRANCH  10  11
ENDBRANCH   9  10
ENDBRANCH   8   9
ENDBRANCH   7   8
ENDBRANCH   1   7
BRANCH   4  18
HETATM   18  C11 UNL     1     -26.005 -13.092  -5.938  1.00  0.00     0.039 C 
BRANCH  18  19
HETATM   19  C12 UNL     1     -25.685 -11.928  -5.082  1.00  0.00     0.009 C 
BRANCH  19  20
HETATM   20  C13 UNL     1     -25.829 -10.653  -5.868  1.00  0.00     0.039 C 
BRANCH  20  21
HETATM   21  C14 UNL     1     -27.109 -10.501  -6.555  1.00  0.00    -0.058 A 
HETATM   22  C15 UNL     1     -27.292 -10.800  -7.884  1.00  0.00     0.007 A 
HETATM   23  C16 UNL     1     -28.527 -10.627  -8.447  1.00  0.00     0.001 A 
HETATM   24  C17 UNL     1     -29.594 -10.162  -7.718  1.00  0.00     0.000 A 
HETATM   25  C18 UNL     1     -29.395  -9.867  -6.386  1.00  0.00     0.001 A 
HETATM   26  C19 UNL     1     -28.180 -10.027  -5.799  1.00  0.00     0.007 A 
ENDBRANCH  20  21
ENDBRANCH  19  20
ENDBRANCH  18  19
ENDBRANCH   4  18
TORSDOF 9
ENDMDL
MODEL 2
REMARK VINA RESULT: -9.001973436      1.900      3.379
REMARK  9 active torsions:
REMARK  status: ('A' for Active; 'I' for Inactive)
REMARK    1  A    between atoms: N3_7  and  C4_8 
REMARK    2  A    between atoms: C4_8  and  C5_9 
REMARK    3  A    between atoms: C5_9  and  C6_10 
REMARK    4  A    between atoms: C6_10  and  C7_11 
REMARK    5  A    between atoms: C7_11  and  N4_12 
REMARK    6  A    between atoms: C10_15  and  C11_16 
REMARK    7  A    between atoms: C11_16  and  C12_17 
REMARK    8  A    between atoms: C12_17  and  C13_18 
REMARK    9  A    between atoms: C13_18  and  C14_19 
ROOT
HETATM    1  N4  UNL     1     -20.371 -15.543  -8.273  1.00  0.00    -0.366 N 
HETATM    2  C8  UNL     1     -21.638 -16.046  -8.193  1.00  0.00     0.091 A 
HETATM    3  C9  UNL     1     -22.682 -15.243  -8.602  1.00  0.00     0.024 A 
HETATM    4  C10 UNL     1     -22.484 -13.969  -9.080  1.00  0.00    -0.056 A 
HETATM    5  C20 UNL     1     -21.180 -13.532  -9.131  1.00  0.00     0.024 A 
HETATM    6  C21 UNL     1     -20.116 -14.326  -8.725  1.00  0.00     0.091 A 
ENDROOT
BRANCH   1   7
HETATM    7  C7  UNL     1     -19.308 -16.432  -7.846  1.00  0.00     0.128 C 
BRANCH   7   8
HETATM    8  C6  UNL     1     -19.100 -17.527  -8.827  1.00  0.00     0.022 C 
BRANCH   8   9
HETATM    9  C5  UNL     1     -19.511 -18.894  -8.430  1.00  0.00     0.022 C 
BRANCH   9  10
HETATM   10  C4  UNL     1     -20.627 -19.502  -9.215  1.00  0.00     0.131 C 
BRANCH  10  11
HETATM   11  N3  UNL     1     -21.743 -19.887  -8.351  1.00  0.00    -0.330 N 
HETATM   12  C1  UNL     1     -22.815 -20.618  -8.708  1.00  0.00     0.194 A 
HETATM   13  N1  UNL     1     -23.109 -21.179  -9.991  1.00  0.00    -0.063 NA
HETATM   14  N2  UNL     1     -23.648 -20.778  -7.647  1.00  0.00    -0.339 N 
HETATM   15  C2  UNL     1     -23.103 -20.140  -6.585  1.00  0.00     0.108 A 
ATOM     16  H2  UNL     1     -24.530 -21.290  -7.651  1.00  0.00     0.168 HD
HETATM   17  C3  UNL     1     -21.922 -19.597  -7.051  1.00  0.00     0.110 A 
ENDBRANCH  10  11
ENDBRANCH   9  10
ENDBRANCH   8   9
ENDBRANCH   7   8
ENDBRANCH   1   7
BRANCH   4  18
HETATM   18  C11 UNL     1     -23.657 -13.175  -9.495  1.00  0.00     0.039 C 
BRANCH  18  19
HETATM   19  C12 UNL     1     -24.957 -13.791  -9.144  1.00  0.00     0.009 C 
BRANCH  19  20
HETATM   20  C13 UNL     1     -25.846 -12.776  -8.478  1.00  0.00     0.039 C 
BRANCH  20  21
HETATM   21  C14 UNL     1     -25.724 -12.718  -7.024  1.00  0.00    -0.058 A 
HETATM   22  C15 UNL     1     -25.957 -11.578  -6.292  1.00  0.00     0.007 A 
HETATM   23  C16 UNL     1     -25.819 -11.614  -4.932  1.00  0.00     0.001 A 
HETATM   24  C17 UNL     1     -25.455 -12.763  -4.273  1.00  0.00     0.000 A 
HETATM   25  C18 UNL     1     -25.226 -13.898  -5.020  1.00  0.00     0.001 A 
HETATM   26  C19 UNL     1     -25.354 -13.894  -6.374  1.00  0.00     0.007 A 
ENDBRANCH  20  21
ENDBRANCH  19  20
ENDBRANCH  18  19
ENDBRANCH   4  18
TORSDOF 9
ENDMDL
MODEL 3
REMARK VINA RESULT: -8.959440423      1.744      3.519
REMARK  9 active torsions:
REMARK  status: ('A' for Active; 'I' for Inactive)
REMARK    1  A    between atoms: N3_7  and  C4_8 
REMARK    2  A    between atoms: C4_8  and  C5_9 
REMARK    3  A    between atoms: C5_9  and  C6_10 
REMARK    4  A    between atoms: C6_10  and  C7_11 
REMARK    5  A    between atoms: C7_11  and  N4_12 
REMARK    6  A    between atoms: C10_15  and  C11_16 
REMARK    7  A    between atoms: C11_16  and  C12_17 
REMARK    8  A    between atoms: C12_17  and  C13_18 
REMARK    9  A    between atoms: C13_18  and  C14_19 
ROOT
HETATM    1  N4  UNL     1     -24.022 -17.517  -6.362  1.00  0.00    -0.366 N 
HETATM    2  C8  UNL     1     -23.173 -16.503  -6.022  1.00  0.00     0.091 A 
HETATM    3  C9  UNL     1     -22.845 -15.580  -6.993  1.00  0.00     0.024 A 
HETATM    4  C10 UNL     1     -23.342 -15.652  -8.273  1.00  0.00    -0.056 A 
HETATM    5  C20 UNL     1     -24.192 -16.700  -8.539  1.00  0.00     0.024 A 
HETATM    6  C21 UNL     1     -24.534 -17.640  -7.575  1.00  0.00     0.091 A 
ENDROOT
BRANCH   1   7
HETATM    7  C7  UNL     1     -24.347 -18.453  -5.303  1.00  0.00     0.128 C 
BRANCH   7   8
HETATM    8  C6  UNL     1     -23.138 -19.179  -4.842  1.00  0.00     0.022 C 
BRANCH   8   9
HETATM    9  C5  UNL     1     -22.502 -20.126  -5.786  1.00  0.00     0.022 C 
BRANCH   9  10
HETATM   10  C4  UNL     1     -21.197 -19.698  -6.374  1.00  0.00     0.131 C 
BRANCH  10  11
HETATM   11  N3  UNL     1     -21.330 -19.366  -7.793  1.00  0.00    -0.330 N 
HETATM   12  C1  UNL     1     -20.743 -18.338  -8.431  1.00  0.00     0.194 A 
HETATM   13  N1  UNL     1     -19.869 -17.346  -7.884  1.00  0.00    -0.063 NA
HETATM   14  N2  UNL     1     -21.093 -18.339  -9.743  1.00  0.00    -0.339 N 
HETATM   15  C2  UNL     1     -21.921 -19.390  -9.956  1.00  0.00     0.108 A 
ATOM     16  H2  UNL     1     -20.786 -17.667 -10.446  1.00  0.00     0.168 HD
HETATM   17  C3  UNL     1     -22.049 -20.008  -8.728  1.00  0.00     0.110 A 
ENDBRANCH  10  11
ENDBRANCH   9  10
ENDBRANCH   8   9
ENDBRANCH   7   8
ENDBRANCH   1   7
BRANCH   4  18
HETATM   18  C11 UNL     1     -22.939 -14.622  -9.250  1.00  0.00     0.039 C 
BRANCH  18  19
HETATM   19  C12 UNL     1     -23.523 -13.287  -8.996  1.00  0.00     0.009 C 
BRANCH  19  20
HETATM   20  C13 UNL     1     -25.024 -13.381  -8.939  1.00  0.00     0.039 C 
BRANCH  20  21
HETATM   21  C14 UNL     1     -25.641 -12.632  -7.846  1.00  0.00    -0.058 A 
HETATM   22  C15 UNL     1     -26.816 -11.933  -7.981  1.00  0.00     0.007 A 
HETATM   23  C16 UNL     1     -27.323 -11.259  -6.904  1.00  0.00     0.001 A 
HETATM   24  C17 UNL     1     -26.689 -11.264  -5.686  1.00  0.00     0.000 A 
HETATM   25  C18 UNL     1     -25.512 -11.971  -5.566  1.00  0.00     0.001 A 
HETATM   26  C19 UNL     1     -24.983 -12.649  -6.618  1.00  0.00     0.007 A 
ENDBRANCH  20  21
ENDBRANCH  19  20
ENDBRANCH  18  19
ENDBRANCH   4  18
TORSDOF 9
ENDMDL
MODEL 4
REMARK VINA RESULT: -8.943552058      1.788      3.117
REMARK  9 active torsions:
REMARK  status: ('A' for Active; 'I' for Inactive)
REMARK    1  A    between atoms: N3_7  and  C4_8 
REMARK    2  A    between atoms: C4_8  and  C5_9 
REMARK    3  A    between atoms: C5_9  and  C6_10 
REMARK    4  A    between atoms: C6_10  and  C7_11 
REMARK    5  A    between atoms: C7_11  and  N4_12 
REMARK    6  A    between atoms: C10_15  and  C11_16 
REMARK    7  A    between atoms: C11_16  and  C12_17 
REMARK    8  A    between atoms: C12_17  and  C13_18 
REMARK    9  A    between atoms: C13_18  and  C14_19 
ROOT
HETATM    1  N4  UNL     1     -20.461 -15.660  -8.402  1.00  0.00    -0.366 N 
HETATM    2  C8  UNL     1     -21.745 -16.124  -8.354  1.00  0.00     0.091 A 
HETATM    3  C9  UNL     1     -22.760 -15.258  -8.703  1.00  0.00     0.024 A 
HETATM    4  C10 UNL     1     -22.518 -13.961  -9.091  1.00  0.00    -0.056 A 
HETATM    5  C20 UNL     1     -21.201 -13.567  -9.115  1.00  0.00     0.024 A 
HETATM    6  C21 UNL     1     -20.164 -14.424  -8.768  1.00  0.00     0.091 A 
ENDROOT
BRANCH   1   7
HETATM    7  C7  UNL     1     -19.430 -16.613  -8.041  1.00  0.00     0.128 C 
BRANCH   7   8
HETATM    8  C6  UNL     1     -19.409 -17.761  -8.982  1.00  0.00     0.022 C 
BRANCH   8   9
HETATM    9  C5  UNL     1     -19.711 -19.105  -8.436  1.00  0.00     0.022 C 
BRANCH   9  10
HETATM   10  C4  UNL     1     -20.675 -19.154  -7.297  1.00  0.00     0.131 C 
BRANCH  10  11
HETATM   11  N3  UNL     1     -21.910 -19.845  -7.668  1.00  0.00    -0.330 N 
HETATM   12  C1  UNL     1     -22.908 -20.198  -6.838  1.00  0.00     0.194 A 
HETATM   13  N1  UNL     1     -22.995 -19.984  -5.426  1.00  0.00    -0.063 NA
HETATM   14  N2  UNL     1     -23.895 -20.823  -7.531  1.00  0.00    -0.339 N 
HETATM   15  C2  UNL     1     -23.527 -20.874  -8.833  1.00  0.00     0.108 A 
ATOM     16  H2  UNL     1     -24.762 -21.191  -7.139  1.00  0.00     0.168 HD
HETATM   17  C3  UNL     1     -22.292 -20.260  -8.887  1.00  0.00     0.110 A 
ENDBRANCH  10  11
ENDBRANCH   9  10
ENDBRANCH   8   9
ENDBRANCH   7   8
ENDBRANCH   1   7
BRANCH   4  18
HETATM   18  C11 UNL     1     -23.664 -13.101  -9.447  1.00  0.00     0.039 C 
BRANCH  18  19
HETATM   19  C12 UNL     1     -24.983 -13.693  -9.136  1.00  0.00     0.009 C 
BRANCH  19  20
HETATM   20  C13 UNL     1     -25.857 -12.680  -8.448  1.00  0.00     0.039 C 
BRANCH  20  21
HETATM   21  C14 UNL     1     -25.740 -12.660  -6.992  1.00  0.00    -0.058 A 
HETATM   22  C15 UNL     1     -25.998 -11.546  -6.230  1.00  0.00     0.007 A 
HETATM   23  C16 UNL     1     -25.862 -11.617  -4.871  1.00  0.00     0.001 A 
HETATM   24  C17 UNL     1     -25.476 -12.776  -4.244  1.00  0.00     0.000 A 
HETATM   25  C18 UNL     1     -25.221 -13.885  -5.022  1.00  0.00     0.001 A 
HETATM   26  C19 UNL     1     -25.346 -13.845  -6.375  1.00  0.00     0.007 A 
ENDBRANCH  20  21
ENDBRANCH  19  20
ENDBRANCH  18  19
ENDBRANCH   4  18
TORSDOF 9
ENDMDL
MODEL 5
REMARK VINA RESULT: -8.920473717      2.062      4.052
REMARK  9 active torsions:
REMARK  status: ('A' for Active; 'I' for Inactive)
REMARK    1  A    between atoms: N3_7  and  C4_8 
REMARK    2  A    between atoms: C4_8  and  C5_9 
REMARK    3  A    between atoms: C5_9  and  C6_10 
REMARK    4  A    between atoms: C6_10  and  C7_11 
REMARK    5  A    between atoms: C7_11  and  N4_12 
REMARK    6  A    between atoms: C10_15  and  C11_16 
REMARK    7  A    between atoms: C11_16  and  C12_17 
REMARK    8  A    between atoms: C12_17  and  C13_18 
REMARK    9  A    between atoms: C13_18  and  C14_19 
ROOT
HETATM    1  N4  UNL     1     -21.616 -18.320  -8.992  1.00  0.00    -0.366 N 
HETATM    2  C8  UNL     1     -22.697 -17.715  -9.566  1.00  0.00     0.091 A 
HETATM    3  C9  UNL     1     -22.949 -16.398  -9.244  1.00  0.00     0.024 A 
HETATM    4  C10 UNL     1     -22.154 -15.689  -8.374  1.00  0.00    -0.056 A 
HETATM    5  C20 UNL     1     -21.084 -16.367  -7.837  1.00  0.00     0.024 A 
HETATM    6  C21 UNL     1     -20.813 -17.692  -8.149  1.00  0.00     0.091 A 
ENDROOT
BRANCH   1   7
HETATM    7  C7  UNL     1     -21.385 -19.700  -9.374  1.00  0.00     0.128 C 
BRANCH   7   8
HETATM    8  C6  UNL     1     -22.657 -20.373  -9.739  1.00  0.00     0.022 C 
BRANCH   8   9
HETATM    9  C5  UNL     1     -23.323 -21.196  -8.703  1.00  0.00     0.022 C 
BRANCH   9  10
HETATM   10  C4  UNL     1     -24.267 -20.479  -7.795  1.00  0.00     0.131 C 
BRANCH  10  11
HETATM   11  N3  UNL     1     -23.563 -19.845  -6.679  1.00  0.00    -0.330 N 
HETATM   12  C1  UNL     1     -23.834 -18.641  -6.144  1.00  0.00     0.194 A 
HETATM   13  N1  UNL     1     -24.853 -17.715  -6.533  1.00  0.00    -0.063 NA
HETATM   14  N2  UNL     1     -22.977 -18.378  -5.125  1.00  0.00    -0.339 N 
HETATM   15  C2  UNL     1     -22.137 -19.432  -4.998  1.00  0.00     0.108 A 
ATOM     16  H2  UNL     1     -22.966 -17.532  -4.554  1.00  0.00     0.168 HD
HETATM   17  C3  UNL     1     -22.525 -20.327  -5.976  1.00  0.00     0.110 A 
ENDBRANCH  10  11
ENDBRANCH   9  10
ENDBRANCH   8   9
ENDBRANCH   7   8
ENDBRANCH   1   7
BRANCH   4  18
HETATM   18  C11 UNL     1     -22.496 -14.283  -8.084  1.00  0.00     0.039 C 
BRANCH  18  19
HETATM   19  C12 UNL     1     -23.563 -13.731  -8.948  1.00  0.00     0.009 C 
BRANCH  19  20
HETATM   20  C13 UNL     1     -24.913 -14.008  -8.345  1.00  0.00     0.039 C 
BRANCH  20  21
HETATM   21  C14 UNL     1     -25.164 -13.335  -7.073  1.00  0.00    -0.058 A 
HETATM   22  C15 UNL     1     -25.407 -11.986  -6.969  1.00  0.00     0.007 A 
HETATM   23  C16 UNL     1     -25.632 -11.438  -5.737  1.00  0.00     0.001 A 
HETATM   24  C17 UNL     1     -25.623 -12.201  -4.595  1.00  0.00     0.000 A 
HETATM   25  C18 UNL     1     -25.379 -13.552  -4.715  1.00  0.00     0.001 A 
HETATM   26  C19 UNL     1     -25.151 -14.126  -5.926  1.00  0.00     0.007 A 
ENDBRANCH  20  21
ENDBRANCH  19  20
ENDBRANCH  18  19
ENDBRANCH   4  18
TORSDOF 9
ENDMDL
