MODEL 1
REMARK VINA RESULT: -7.893179339      0.000      0.000
REMARK  10 active torsions:
REMARK  status: ('A' for Active; 'I' for Inactive)
REMARK    1  A    between atoms: C1_1  and  C18_21 
REMARK    2  A    between atoms: C2_2  and  C3_3 
REMARK    3  A    between atoms: C6_6  and  C7_7 
REMARK    4  A    between atoms: C7_7  and  C8_8 
REMARK    5  A    between atoms: C8_8  and  C9_9 
REMARK    6  A    between atoms: C9_9  and  C10_10 
REMARK    7  A    between atoms: C10_10  and  C11_11 
REMARK    8  A    between atoms: C11_11  and  C12_12 
REMARK    9  A    between atoms: C12_12  and  N1_13 
REMARK   10  A    between atoms: C18_21  and  N3_22 
ROOT
HETATM    1  C3  UNL     1     -23.491 -15.255  -6.860  1.00  0.00     0.017 A 
HETATM    2  C4  UNL     1     -23.800 -15.926  -8.024  1.00  0.00     0.021 A 
HETATM    3  C5  UNL     1     -22.927 -16.838  -8.554  1.00  0.00     0.008 A 
HETATM    4  C6  UNL     1     -21.698 -17.130  -7.949  1.00  0.00    -0.058 A 
HETATM    5  C16 UNL     1     -21.414 -16.462  -6.807  1.00  0.00     0.008 A 
HETATM    6  C17 UNL     1     -22.303 -15.527  -6.262  1.00  0.00     0.021 A 
ENDROOT
BRANCH   4   7
HETATM    7  C7  UNL     1     -20.853 -18.145  -8.625  1.00  0.00     0.038 C 
BRANCH   7   8
HETATM    8  C8  UNL     1     -21.634 -18.808  -9.716  1.00  0.00     0.005 C 
BRANCH   8   9
HETATM    9  C9  UNL     1     -21.616 -20.291  -9.727  1.00  0.00     0.000 C 
BRANCH   9  10
HETATM   10  C10 UNL     1     -22.972 -20.940  -9.904  1.00  0.00     0.002 C 
BRANCH  10  11
HETATM   11  C11 UNL     1     -23.568 -21.387  -8.614  1.00  0.00     0.022 C 
BRANCH  11  12
HETATM   12  C12 UNL     1     -24.490 -20.323  -8.085  1.00  0.00     0.148 C 
BRANCH  12  13
HETATM   13  N1  UNL     1     -23.991 -19.804  -6.840  1.00  0.00    -0.304 N 
HETATM   14  C13 UNL     1     -22.858 -20.209  -6.235  1.00  0.00     0.111 A 
HETATM   15  C14 UNL     1     -22.682 -19.520  -5.066  1.00  0.00     0.037 A 
HETATM   16  C15 UNL     1     -23.754 -18.667  -4.966  1.00  0.00     0.108 A 
HETATM   17  N2  UNL     1     -24.498 -18.881  -6.049  1.00  0.00    -0.310 N 
ATOM     18  H2  UNL     1     -25.366 -18.384  -6.245  1.00  0.00     0.186 HD
ENDBRANCH  12  13
ENDBRANCH  11  12
ENDBRANCH  10  11
ENDBRANCH   9  10
ENDBRANCH   8   9
ENDBRANCH   7   8
ENDBRANCH   4   7
BRANCH   1  19
HETATM   19  C2  UNL     1     -24.398 -14.290  -6.286  1.00  0.00    -0.065 C 
HETATM   20  C1  UNL     1     -25.140 -13.473  -5.798  1.00  0.00    -0.081 C 
BRANCH  20  21
HETATM   21  C18 UNL     1     -26.032 -12.458  -5.188  1.00  0.00     0.223 C 
BRANCH  21  22
HETATM   22  N3  UNL     1     -26.776 -11.781  -6.223  1.00  0.00    -0.341 N 
HETATM   23  C19 UNL     1     -27.192 -12.352  -7.356  1.00  0.00     0.110 A 
HETATM   24  C20 UNL     1     -27.856 -11.398  -8.078  1.00  0.00     0.106 A 
HETATM   25  N4  UNL     1     -27.824 -10.283  -7.366  1.00  0.00    -0.361 N 
HETATM   26  C21 UNL     1     -27.162 -10.505  -6.222  1.00  0.00     0.183 A 
ATOM     27  H4  UNL     1     -28.238  -9.393  -7.645  1.00  0.00     0.166 HD
ENDBRANCH  21  22
ENDBRANCH  20  21
ENDBRANCH   1  19
TORSDOF 10
ENDMDL
MODEL 2
REMARK VINA RESULT: -7.733733547      1.289      1.953
REMARK  10 active torsions:
REMARK  status: ('A' for Active; 'I' for Inactive)
REMARK    1  A    between atoms: C1_1  and  C18_21 
REMARK    2  A    between atoms: C2_2  and  C3_3 
REMARK    3  A    between atoms: C6_6  and  C7_7 
REMARK    4  A    between atoms: C7_7  and  C8_8 
REMARK    5  A    between atoms: C8_8  and  C9_9 
REMARK    6  A    between atoms: C9_9  and  C10_10 
REMARK    7  A    between atoms: C10_10  and  C11_11 
REMARK    8  A    between atoms: C11_11  and  C12_12 
REMARK    9  A    between atoms: C12_12  and  N1_13 
REMARK   10  A    between atoms: C18_21  and  N3_22 
ROOT
HETATM    1  C3  UNL     1     -24.386 -13.649  -6.920  1.00  0.00     0.017 A 
HETATM    2  C4  UNL     1     -23.609 -13.511  -8.051  1.00  0.00     0.021 A 
HETATM    3  C5  UNL     1     -22.706 -14.481  -8.398  1.00  0.00     0.008 A 
HETATM    4  C6  UNL     1     -22.531 -15.641  -7.633  1.00  0.00    -0.058 A 
HETATM    5  C16 UNL     1     -23.303 -15.758  -6.528  1.00  0.00     0.008 A 
HETATM    6  C17 UNL     1     -24.228 -14.768  -6.169  1.00  0.00     0.021 A 
ENDROOT
BRANCH   4   7
HETATM    7  C7  UNL     1     -21.526 -16.613  -8.128  1.00  0.00     0.038 C 
BRANCH   7   8
HETATM    8  C8  UNL     1     -22.204 -17.679  -8.930  1.00  0.00     0.005 C 
BRANCH   8   9
HETATM    9  C9  UNL     1     -21.322 -18.706  -9.536  1.00  0.00     0.000 C 
BRANCH   9  10
HETATM   10  C10 UNL     1     -21.909 -20.101  -9.577  1.00  0.00     0.002 C 
BRANCH  10  11
HETATM   11  C11 UNL     1     -23.342 -20.134  -9.171  1.00  0.00     0.022 C 
BRANCH  11  12
HETATM   12  C12 UNL     1     -23.509 -21.023  -7.970  1.00  0.00     0.148 C 
BRANCH  12  13
HETATM   13  N1  UNL     1     -23.121 -20.324  -6.774  1.00  0.00    -0.304 N 
HETATM   14  C13 UNL     1     -23.911 -19.482  -6.083  1.00  0.00     0.111 A 
HETATM   15  C14 UNL     1     -23.230 -18.982  -5.006  1.00  0.00     0.037 A 
HETATM   16  C15 UNL     1     -21.980 -19.549  -5.054  1.00  0.00     0.108 A 
HETATM   17  N2  UNL     1     -21.974 -20.337  -6.126  1.00  0.00    -0.310 N 
ATOM     18  H2  UNL     1     -21.168 -20.891  -6.416  1.00  0.00     0.186 HD
ENDBRANCH  12  13
ENDBRANCH  11  12
ENDBRANCH  10  11
ENDBRANCH   9  10
ENDBRANCH   8   9
ENDBRANCH   7   8
ENDBRANCH   4   7
BRANCH   1  19
HETATM   19  C2  UNL     1     -25.342 -12.637  -6.539  1.00  0.00    -0.065 C 
HETATM   20  C1  UNL     1     -26.125 -11.777  -6.218  1.00  0.00    -0.081 C 
BRANCH  20  21
HETATM   21  C18 UNL     1     -27.069 -10.704  -5.823  1.00  0.00     0.223 C 
BRANCH  21  22
HETATM   22  N3  UNL     1     -28.034 -10.496  -6.876  1.00  0.00    -0.341 N 
HETATM   23  C19 UNL     1     -29.269 -10.024  -6.691  1.00  0.00     0.110 A 
HETATM   24  C20 UNL     1     -29.877  -9.969  -7.915  1.00  0.00     0.106 A 
HETATM   25  N4  UNL     1     -28.998 -10.406  -8.803  1.00  0.00    -0.361 N 
HETATM   26  C21 UNL     1     -27.859 -10.733  -8.176  1.00  0.00     0.183 A 
ATOM     27  H4  UNL     1     -29.162 -10.482  -9.807  1.00  0.00     0.166 HD
ENDBRANCH  21  22
ENDBRANCH  20  21
ENDBRANCH   1  19
TORSDOF 10
ENDMDL
MODEL 3
REMARK VINA RESULT: -7.685509953      0.481      1.053
REMARK  10 active torsions:
REMARK  status: ('A' for Active; 'I' for Inactive)
REMARK    1  A    between atoms: C1_1  and  C18_21 
REMARK    2  A    between atoms: C2_2  and  C3_3 
REMARK    3  A    between atoms: C6_6  and  C7_7 
REMARK    4  A    between atoms: C7_7  and  C8_8 
REMARK    5  A    between atoms: C8_8  and  C9_9 
REMARK    6  A    between atoms: C9_9  and  C10_10 
REMARK    7  A    between atoms: C10_10  and  C11_11 
REMARK    8  A    between atoms: C11_11  and  C12_12 
REMARK    9  A    between atoms: C12_12  and  N1_13 
REMARK   10  A    between atoms: C18_21  and  N3_22 
ROOT
HETATM    1  C3  UNL     1     -23.337 -15.500  -7.036  1.00  0.00     0.017 A 
HETATM    2  C4  UNL     1     -22.101 -15.793  -6.501  1.00  0.00     0.021 A 
HETATM    3  C5  UNL     1     -21.238 -16.628  -7.160  1.00  0.00     0.008 A 
HETATM    4  C6  UNL     1     -21.563 -17.214  -8.389  1.00  0.00    -0.058 A 
HETATM    5  C16 UNL     1     -22.781 -16.914  -8.897  1.00  0.00     0.008 A 
HETATM    6  C17 UNL     1     -23.668 -16.061  -8.227  1.00  0.00     0.021 A 
ENDROOT
BRANCH   4   7
HETATM    7  C7  UNL     1     -20.533 -18.091  -8.997  1.00  0.00     0.038 C 
BRANCH   7   8
HETATM    8  C8  UNL     1     -20.872 -19.525  -8.738  1.00  0.00     0.005 C 
BRANCH   8   9
HETATM    9  C9  UNL     1     -21.327 -20.314  -9.909  1.00  0.00     0.000 C 
BRANCH   9  10
HETATM   10  C10 UNL     1     -22.812 -20.606  -9.938  1.00  0.00     0.002 C 
BRANCH  10  11
HETATM   11  C11 UNL     1     -23.328 -21.093  -8.628  1.00  0.00     0.022 C 
BRANCH  11  12
HETATM   12  C12 UNL     1     -24.450 -20.207  -8.162  1.00  0.00     0.148 C 
BRANCH  12  13
HETATM   13  N1  UNL     1     -24.136 -19.637  -6.880  1.00  0.00    -0.304 N 
HETATM   14  C13 UNL     1     -23.099 -20.007  -6.106  1.00  0.00     0.111 A 
HETATM   15  C14 UNL     1     -23.095 -19.273  -4.950  1.00  0.00     0.037 A 
HETATM   16  C15 UNL     1     -24.176 -18.429  -5.036  1.00  0.00     0.108 A 
HETATM   17  N2  UNL     1     -24.756 -18.691  -6.205  1.00  0.00    -0.310 N 
ATOM     18  H2  UNL     1     -25.592 -18.212  -6.541  1.00  0.00     0.186 HD
ENDBRANCH  12  13
ENDBRANCH  11  12
ENDBRANCH  10  11
ENDBRANCH   9  10
ENDBRANCH   8   9
ENDBRANCH   7   8
ENDBRANCH   4   7
BRANCH   1  19
HETATM   19  C2  UNL     1     -24.260 -14.622  -6.356  1.00  0.00    -0.065 C 
HETATM   20  C1  UNL     1     -25.032 -13.877  -5.805  1.00  0.00    -0.081 C 
BRANCH  20  21
HETATM   21  C18 UNL     1     -25.983 -12.948  -5.149  1.00  0.00     0.223 C 
BRANCH  21  22
HETATM   22  N3  UNL     1     -26.586 -12.090  -6.142  1.00  0.00    -0.341 N 
HETATM   23  C19 UNL     1     -27.096 -12.513  -7.301  1.00  0.00     0.110 A 
HETATM   24  C20 UNL     1     -27.571 -11.416  -7.966  1.00  0.00     0.106 A 
HETATM   25  N4  UNL     1     -27.337 -10.366  -7.196  1.00  0.00    -0.361 N 
HETATM   26  C21 UNL     1     -26.731 -10.767  -6.070  1.00  0.00     0.183 A 
ATOM     27  H4  UNL     1     -27.579  -9.402  -7.424  1.00  0.00     0.166 HD
ENDBRANCH  21  22
ENDBRANCH  20  21
ENDBRANCH   1  19
TORSDOF 10
ENDMDL
MODEL 4
REMARK VINA RESULT: -7.631276674      2.302      3.474
REMARK  10 active torsions:
REMARK  status: ('A' for Active; 'I' for Inactive)
REMARK    1  A    between atoms: C1_1  and  C18_21 
REMARK    2  A    between atoms: C2_2  and  C3_3 
REMARK    3  A    between atoms: C6_6  and  C7_7 
REMARK    4  A    between atoms: C7_7  and  C8_8 
REMARK    5  A    between atoms: C8_8  and  C9_9 
REMARK    6  A    between atoms: C9_9  and  C10_10 
REMARK    7  A    between atoms: C10_10  and  C11_11 
REMARK    8  A    between atoms: C11_11  and  C12_12 
REMARK    9  A    between atoms: C12_12  and  N1_13 
REMARK   10  A    between atoms: C18_21  and  N3_22 
ROOT
HETATM    1  C3  UNL     1     -24.676 -14.692  -7.009  1.00  0.00     0.017 A 
HETATM    2  C4  UNL     1     -24.563 -15.080  -8.328  1.00  0.00     0.021 A 
HETATM    3  C5  UNL     1     -24.161 -16.349  -8.648  1.00  0.00     0.008 A 
HETATM    4  C6  UNL     1     -23.851 -17.301  -7.668  1.00  0.00    -0.058 A 
HETATM    5  C16 UNL     1     -23.969 -16.901  -6.381  1.00  0.00     0.008 A 
HETATM    6  C17 UNL     1     -24.379 -15.603  -6.048  1.00  0.00     0.021 A 
ENDROOT
BRANCH   4   7
HETATM    7  C7  UNL     1     -23.436 -18.639  -8.155  1.00  0.00     0.038 C 
BRANCH   7   8
HETATM    8  C8  UNL     1     -22.382 -18.491  -9.206  1.00  0.00     0.005 C 
BRANCH   8   9
HETATM    9  C9  UNL     1     -21.592 -19.707  -9.519  1.00  0.00     0.000 C 
BRANCH   9  10
HETATM   10  C10 UNL     1     -20.093 -19.539  -9.391  1.00  0.00     0.002 C 
BRANCH  10  11
HETATM   11  C11 UNL     1     -19.693 -18.909  -8.102  1.00  0.00     0.022 C 
BRANCH  11  12
HETATM   12  C12 UNL     1     -18.790 -17.736  -8.368  1.00  0.00     0.148 C 
BRANCH  12  13
HETATM   13  N1  UNL     1     -19.541 -16.510  -8.328  1.00  0.00    -0.304 N 
HETATM   14  C13 UNL     1     -20.299 -16.104  -7.293  1.00  0.00     0.111 A 
HETATM   15  C14 UNL     1     -20.884 -14.902  -7.586  1.00  0.00     0.037 A 
HETATM   16  C15 UNL     1     -20.458 -14.574  -8.850  1.00  0.00     0.108 A 
HETATM   17  N2  UNL     1     -19.662 -15.567  -9.240  1.00  0.00    -0.310 N 
ATOM     18  H2  UNL     1     -19.197 -15.595 -10.148  1.00  0.00     0.186 HD
ENDBRANCH  12  13
ENDBRANCH  11  12
ENDBRANCH  10  11
ENDBRANCH   9  10
ENDBRANCH   8   9
ENDBRANCH   7   8
ENDBRANCH   4   7
BRANCH   1  19
HETATM   19  C2  UNL     1     -25.099 -13.359  -6.653  1.00  0.00    -0.065 C 
HETATM   20  C1  UNL     1     -25.472 -12.250  -6.358  1.00  0.00    -0.081 C 
BRANCH  20  21
HETATM   21  C18 UNL     1     -25.955 -10.895  -5.999  1.00  0.00     0.223 C 
BRANCH  21  22
HETATM   22  N3  UNL     1     -27.215 -10.639  -6.655  1.00  0.00    -0.341 N 
HETATM   23  C19 UNL     1     -28.305 -10.167  -6.046  1.00  0.00     0.110 A 
HETATM   24  C20 UNL     1     -29.290 -10.059  -6.990  1.00  0.00     0.106 A 
HETATM   25  N4  UNL     1     -28.771 -10.466  -8.138  1.00  0.00    -0.361 N 
HETATM   26  C21 UNL     1     -27.494 -10.826  -7.945  1.00  0.00     0.183 A 
ATOM     27  H4  UNL     1     -29.266 -10.501  -9.029  1.00  0.00     0.166 HD
ENDBRANCH  21  22
ENDBRANCH  20  21
ENDBRANCH   1  19
TORSDOF 10
ENDMDL
MODEL 5
REMARK VINA RESULT: -7.567064143      2.210      3.702
REMARK  10 active torsions:
REMARK  status: ('A' for Active; 'I' for Inactive)
REMARK    1  A    between atoms: C1_1  and  C18_21 
REMARK    2  A    between atoms: C2_2  and  C3_3 
REMARK    3  A    between atoms: C6_6  and  C7_7 
REMARK    4  A    between atoms: C7_7  and  C8_8 
REMARK    5  A    between atoms: C8_8  and  C9_9 
REMARK    6  A    between atoms: C9_9  and  C10_10 
REMARK    7  A    between atoms: C10_10  and  C11_11 
REMARK    8  A    between atoms: C11_11  and  C12_12 
REMARK    9  A    between atoms: C12_12  and  N1_13 
REMARK   10  A    between atoms: C18_21  and  N3_22 
ROOT
HETATM    1  C3  UNL     1     -24.504 -15.081  -5.917  1.00  0.00     0.017 A 
HETATM    2  C4  UNL     1     -23.186 -15.394  -6.173  1.00  0.00     0.021 A 
HETATM    3  C5  UNL     1     -22.772 -16.699  -6.197  1.00  0.00     0.008 A 
HETATM    4  C6  UNL     1     -23.653 -17.763  -5.967  1.00  0.00    -0.058 A 
HETATM    5  C16 UNL     1     -24.942 -17.435  -5.718  1.00  0.00     0.008 A 
HETATM    6  C17 UNL     1     -25.370 -16.101  -5.692  1.00  0.00     0.021 A 
ENDROOT
BRANCH   4   7
HETATM    7  C7  UNL     1     -23.073 -19.127  -6.031  1.00  0.00     0.038 C 
BRANCH   7   8
HETATM    8  C8  UNL     1     -23.611 -19.850  -7.226  1.00  0.00     0.005 C 
BRANCH   8   9
HETATM    9  C9  UNL     1     -22.661 -20.066  -8.344  1.00  0.00     0.000 C 
BRANCH   9  10
HETATM   10  C10 UNL     1     -21.319 -19.386  -8.177  1.00  0.00     0.002 C 
BRANCH  10  11
HETATM   11  C11 UNL     1     -21.121 -18.262  -9.135  1.00  0.00     0.022 C 
BRANCH  11  12
HETATM   12  C12 UNL     1     -20.112 -17.295  -8.581  1.00  0.00     0.148 C 
BRANCH  12  13
HETATM   13  N1  UNL     1     -20.544 -15.942  -8.801  1.00  0.00    -0.304 N 
HETATM   14  C13 UNL     1     -19.867 -14.844  -8.416  1.00  0.00     0.111 A 
HETATM   15  C14 UNL     1     -20.561 -13.719  -8.771  1.00  0.00     0.037 A 
HETATM   16  C15 UNL     1     -21.703 -14.162  -9.394  1.00  0.00     0.108 A 
HETATM   17  N2  UNL     1     -21.637 -15.491  -9.382  1.00  0.00    -0.310 N 
ATOM     18  H2  UNL     1     -22.356 -16.096  -9.779  1.00  0.00     0.186 HD
ENDBRANCH  12  13
ENDBRANCH  11  12
ENDBRANCH  10  11
ENDBRANCH   9  10
ENDBRANCH   8   9
ENDBRANCH   7   8
ENDBRANCH   4   7
BRANCH   1  19
HETATM   19  C2  UNL     1     -24.958 -13.711  -5.888  1.00  0.00    -0.065 C 
HETATM   20  C1  UNL     1     -25.322 -12.561  -5.850  1.00  0.00    -0.081 C 
BRANCH  20  21
HETATM   21  C18 UNL     1     -25.748 -11.143  -5.791  1.00  0.00     0.223 C 
BRANCH  21  22
HETATM   22  N3  UNL     1     -26.917 -10.953  -6.615  1.00  0.00    -0.341 N 
HETATM   23  C19 UNL     1     -28.019 -10.304  -6.231  1.00  0.00     0.110 A 
HETATM   24  C20 UNL     1     -28.900 -10.333  -7.278  1.00  0.00     0.106 A 
HETATM   25  N4  UNL     1     -28.310 -10.995  -8.261  1.00  0.00    -0.361 N 
HETATM   26  C21 UNL     1     -27.089 -11.381  -7.866  1.00  0.00     0.183 A 
ATOM     27  H4  UNL     1     -28.721 -11.182  -9.176  1.00  0.00     0.166 HD
ENDBRANCH  21  22
ENDBRANCH  20  21
ENDBRANCH   1  19
TORSDOF 10
ENDMDL
