MODEL 1
REMARK VINA RESULT: -8.685829957      0.000      0.000
REMARK  10 active torsions:
REMARK  status: ('A' for Active; 'I' for Inactive)
REMARK    1  A    between atoms: O1_1  and  C1_3 
REMARK    2  A    between atoms: C1_3  and  C2_4 
REMARK    3  A    between atoms: C5_7  and  C6_8 
REMARK    4  A    between atoms: C6_8  and  C7_9 
REMARK    5  A    between atoms: C7_9  and  C8_10 
REMARK    6  A    between atoms: N2_15  and  C11_16 
REMARK    7  A    between atoms: C11_16  and  C12_17 
REMARK    8  A    between atoms: C12_17  and  C13_18 
REMARK    9  A    between atoms: C13_18  and  C14_19 
REMARK   10  A    between atoms: C14_19  and  N3_20 
ROOT
HETATM    1  C8  UNL     1     -22.124 -14.730  -8.557  1.00  0.00     0.028 A 
HETATM    2  C9  UNL     1     -21.723 -13.543  -9.147  1.00  0.00     0.114 A 
HETATM    3  N1  UNL     1     -20.391 -13.571  -9.262  1.00  0.00    -0.360 N 
ATOM      4  H1  UNL     1     -19.808 -12.834  -9.659  1.00  0.00     0.166 HD
HETATM    5  C10 UNL     1     -19.958 -14.735  -8.765  1.00  0.00     0.183 A 
HETATM    6  N2  UNL     1     -21.040 -15.456  -8.326  1.00  0.00    -0.345 N 
ENDROOT
BRANCH   1   7
HETATM    7  C7  UNL     1     -23.541 -15.098  -8.203  1.00  0.00     0.063 C 
BRANCH   7   8
HETATM    8  C6  UNL     1     -23.835 -14.449  -6.863  1.00  0.00     0.044 C 
BRANCH   8   9
HETATM    9  C5  UNL     1     -24.910 -13.439  -6.965  1.00  0.00    -0.058 A 
HETATM   10  C4  UNL     1     -25.652 -13.407  -8.127  1.00  0.00     0.007 A 
HETATM   11  C3  UNL     1     -26.671 -12.484  -8.284  1.00  0.00     0.010 A 
HETATM   12  C2  UNL     1     -26.978 -11.577  -7.294  1.00  0.00    -0.035 A 
HETATM   13  C21 UNL     1     -26.247 -11.601  -6.134  1.00  0.00     0.010 A 
HETATM   14  C20 UNL     1     -25.220 -12.533  -5.984  1.00  0.00     0.007 A 
BRANCH  12  15
HETATM   15  C1  UNL     1     -28.087 -10.618  -7.534  1.00  0.00     0.202 C 
BRANCH  15  16
HETATM   16  O1  UNL     1     -28.422 -10.569  -8.864  1.00  0.00    -0.396 OA
ATOM     17  H1  UNL     1     -28.889  -9.768  -9.072  1.00  0.00     0.209 HD
ENDBRANCH  15  16
ENDBRANCH  12  15
ENDBRANCH   8   9
ENDBRANCH   7   8
ENDBRANCH   1   7
BRANCH   6  18
HETATM   18  C11 UNL     1     -20.884 -16.773  -7.760  1.00  0.00     0.130 C 
BRANCH  18  19
HETATM   19  C12 UNL     1     -20.774 -17.867  -8.771  1.00  0.00     0.022 C 
BRANCH  19  20
HETATM   20  C13 UNL     1     -22.041 -18.413  -9.305  1.00  0.00     0.022 C 
BRANCH  20  21
HETATM   21  C14 UNL     1     -22.529 -19.568  -8.484  1.00  0.00     0.128 C 
BRANCH  21  22
HETATM   22  N3  UNL     1     -23.166 -19.227  -7.246  1.00  0.00    -0.366 N 
HETATM   23  C15 UNL     1     -24.251 -18.406  -7.239  1.00  0.00     0.090 A 
HETATM   24  C16 UNL     1     -24.835 -18.074  -6.036  1.00  0.00     0.017 A 
HETATM   25  C17 UNL     1     -24.373 -18.537  -4.828  1.00  0.00     0.003 A 
HETATM   26  C18 UNL     1     -23.269 -19.368  -4.879  1.00  0.00     0.017 A 
HETATM   27  C19 UNL     1     -22.687 -19.697  -6.088  1.00  0.00     0.090 A 
ENDBRANCH  21  22
ENDBRANCH  20  21
ENDBRANCH  19  20
ENDBRANCH  18  19
ENDBRANCH   6  18
TORSDOF 10
ENDMDL
MODEL 2
REMARK VINA RESULT: -8.539058951      1.675      2.091
REMARK  10 active torsions:
REMARK  status: ('A' for Active; 'I' for Inactive)
REMARK    1  A    between atoms: O1_1  and  C1_3 
REMARK    2  A    between atoms: C1_3  and  C2_4 
REMARK    3  A    between atoms: C5_7  and  C6_8 
REMARK    4  A    between atoms: C6_8  and  C7_9 
REMARK    5  A    between atoms: C7_9  and  C8_10 
REMARK    6  A    between atoms: N2_15  and  C11_16 
REMARK    7  A    between atoms: C11_16  and  C12_17 
REMARK    8  A    between atoms: C12_17  and  C13_18 
REMARK    9  A    between atoms: C13_18  and  C14_19 
REMARK   10  A    between atoms: C14_19  and  N3_20 
ROOT
HETATM    1  C8  UNL     1     -21.965 -14.797  -8.875  1.00  0.00     0.028 A 
HETATM    2  C9  UNL     1     -21.434 -13.596  -9.319  1.00  0.00     0.114 A 
HETATM    3  N1  UNL     1     -20.117 -13.621  -9.091  1.00  0.00    -0.360 N 
ATOM      4  H1  UNL     1     -19.456 -12.875  -9.312  1.00  0.00     0.166 HD
HETATM    5  C10 UNL     1     -19.817 -14.795  -8.524  1.00  0.00     0.183 A 
HETATM    6  N2  UNL     1     -20.971 -15.525  -8.390  1.00  0.00    -0.345 N 
ENDROOT
BRANCH   1   7
HETATM    7  C7  UNL     1     -23.423 -15.173  -8.901  1.00  0.00     0.063 C 
BRANCH   7   8
HETATM    8  C6  UNL     1     -24.207 -13.874  -8.861  1.00  0.00     0.044 C 
BRANCH   8   9
HETATM    9  C5  UNL     1     -24.636 -13.534  -7.487  1.00  0.00    -0.058 A 
HETATM   10  C4  UNL     1     -24.673 -14.550  -6.556  1.00  0.00     0.007 A 
HETATM   11  C3  UNL     1     -25.067 -14.295  -5.254  1.00  0.00     0.010 A 
HETATM   12  C2  UNL     1     -25.430 -13.030  -4.848  1.00  0.00    -0.035 A 
HETATM   13  C21 UNL     1     -25.397 -12.012  -5.766  1.00  0.00     0.010 A 
HETATM   14  C20 UNL     1     -25.000 -12.277  -7.076  1.00  0.00     0.007 A 
BRANCH  12  15
HETATM   15  C1  UNL     1     -25.841 -12.833  -3.434  1.00  0.00     0.202 C 
BRANCH  15  16
HETATM   16  O1  UNL     1     -26.955 -13.576  -3.131  1.00  0.00    -0.396 OA
ATOM     17  H1  UNL     1     -27.640 -13.447  -3.777  1.00  0.00     0.209 HD
ENDBRANCH  15  16
ENDBRANCH  12  15
ENDBRANCH   8   9
ENDBRANCH   7   8
ENDBRANCH   1   7
BRANCH   6  18
HETATM   18  C11 UNL     1     -20.957 -16.854  -7.829  1.00  0.00     0.130 C 
BRANCH  18  19
HETATM   19  C12 UNL     1     -20.817 -17.946  -8.839  1.00  0.00     0.022 C 
BRANCH  19  20
HETATM   20  C13 UNL     1     -22.066 -18.580  -9.314  1.00  0.00     0.022 C 
BRANCH  20  21
HETATM   21  C14 UNL     1     -22.488 -19.702  -8.413  1.00  0.00     0.128 C 
BRANCH  21  22
HETATM   22  N3  UNL     1     -23.154 -19.312  -7.204  1.00  0.00    -0.366 N 
HETATM   23  C15 UNL     1     -24.236 -18.487  -7.256  1.00  0.00     0.090 A 
HETATM   24  C16 UNL     1     -24.848 -18.109  -6.082  1.00  0.00     0.017 A 
HETATM   25  C17 UNL     1     -24.420 -18.529  -4.845  1.00  0.00     0.003 A 
HETATM   26  C18 UNL     1     -23.319 -19.366  -4.838  1.00  0.00     0.017 A 
HETATM   27  C19 UNL     1     -22.708 -19.742  -6.018  1.00  0.00     0.090 A 
ENDBRANCH  21  22
ENDBRANCH  20  21
ENDBRANCH  19  20
ENDBRANCH  18  19
ENDBRANCH   6  18
TORSDOF 10
ENDMDL
MODEL 3
REMARK VINA RESULT: -8.482657426      1.234      4.277
REMARK  10 active torsions:
REMARK  status: ('A' for Active; 'I' for Inactive)
REMARK    1  A    between atoms: O1_1  and  C1_3 
REMARK    2  A    between atoms: C1_3  and  C2_4 
REMARK    3  A    between atoms: C5_7  and  C6_8 
REMARK    4  A    between atoms: C6_8  and  C7_9 
REMARK    5  A    between atoms: C7_9  and  C8_10 
REMARK    6  A    between atoms: N2_15  and  C11_16 
REMARK    7  A    between atoms: C11_16  and  C12_17 
REMARK    8  A    between atoms: C12_17  and  C13_18 
REMARK    9  A    between atoms: C13_18  and  C14_19 
REMARK   10  A    between atoms: C14_19  and  N3_20 
ROOT
HETATM    1  C8  UNL     1     -24.402 -17.329  -5.870  1.00  0.00     0.028 A 
HETATM    2  C9  UNL     1     -25.457 -17.769  -5.087  1.00  0.00     0.114 A 
HETATM    3  N1  UNL     1     -25.030 -18.818  -4.376  1.00  0.00    -0.360 N 
ATOM      4  H1  UNL     1     -25.584 -19.355  -3.709  1.00  0.00     0.166 HD
HETATM    5  C10 UNL     1     -23.749 -19.038  -4.692  1.00  0.00     0.183 A 
HETATM    6  N2  UNL     1     -23.361 -18.109  -5.624  1.00  0.00    -0.345 N 
ENDROOT
BRANCH   1   7
HETATM    7  C7  UNL     1     -24.459 -16.194  -6.858  1.00  0.00     0.063 C 
BRANCH   7   8
HETATM    8  C6  UNL     1     -23.959 -14.960  -6.130  1.00  0.00     0.044 C 
BRANCH   8   9
HETATM    9  C5  UNL     1     -24.850 -13.798  -6.341  1.00  0.00    -0.058 A 
HETATM   10  C4  UNL     1     -25.321 -13.574  -7.617  1.00  0.00     0.007 A 
HETATM   11  C3  UNL     1     -26.157 -12.503  -7.880  1.00  0.00     0.010 A 
HETATM   12  C2  UNL     1     -26.545 -11.634  -6.883  1.00  0.00    -0.035 A 
HETATM   13  C21 UNL     1     -26.082 -11.848  -5.611  1.00  0.00     0.010 A 
HETATM   14  C20 UNL     1     -25.239 -12.929  -5.355  1.00  0.00     0.007 A 
BRANCH  12  15
HETATM   15  C1  UNL     1     -27.445 -10.508  -7.241  1.00  0.00     0.202 C 
BRANCH  15  16
HETATM   16  O1  UNL     1     -27.822 -10.571  -8.559  1.00  0.00    -0.396 OA
ATOM     17  H1  UNL     1     -28.707 -10.904  -8.649  1.00  0.00     0.209 HD
ENDBRANCH  15  16
ENDBRANCH  12  15
ENDBRANCH   8   9
ENDBRANCH   7   8
ENDBRANCH   1   7
BRANCH   6  18
HETATM   18  C11 UNL     1     -22.014 -18.081  -6.139  1.00  0.00     0.130 C 
BRANCH  18  19
HETATM   19  C12 UNL     1     -21.777 -19.002  -7.291  1.00  0.00     0.022 C 
BRANCH  19  20
HETATM   20  C13 UNL     1     -21.182 -18.410  -8.509  1.00  0.00     0.022 C 
BRANCH  20  21
HETATM   21  C14 UNL     1     -22.093 -17.389  -9.124  1.00  0.00     0.128 C 
BRANCH  21  22
HETATM   22  N3  UNL     1     -21.654 -16.027  -9.029  1.00  0.00    -0.366 N 
HETATM   23  C15 UNL     1     -20.447 -15.735  -8.474  1.00  0.00     0.090 A 
HETATM   24  C16 UNL     1     -20.054 -14.418  -8.375  1.00  0.00     0.017 A 
HETATM   25  C17 UNL     1     -20.828 -13.372  -8.815  1.00  0.00     0.003 A 
HETATM   26  C18 UNL     1     -22.048 -13.712  -9.372  1.00  0.00     0.017 A 
HETATM   27  C19 UNL     1     -22.437 -15.034  -9.469  1.00  0.00     0.090 A 
ENDBRANCH  21  22
ENDBRANCH  20  21
ENDBRANCH  19  20
ENDBRANCH  18  19
ENDBRANCH   6  18
TORSDOF 10
ENDMDL
MODEL 4
REMARK VINA RESULT: -8.425902866      1.565      2.467
REMARK  10 active torsions:
REMARK  status: ('A' for Active; 'I' for Inactive)
REMARK    1  A    between atoms: O1_1  and  C1_3 
REMARK    2  A    between atoms: C1_3  and  C2_4 
REMARK    3  A    between atoms: C5_7  and  C6_8 
REMARK    4  A    between atoms: C6_8  and  C7_9 
REMARK    5  A    between atoms: C7_9  and  C8_10 
REMARK    6  A    between atoms: N2_15  and  C11_16 
REMARK    7  A    between atoms: C11_16  and  C12_17 
REMARK    8  A    between atoms: C12_17  and  C13_18 
REMARK    9  A    between atoms: C13_18  and  C14_19 
REMARK   10  A    between atoms: C14_19  and  N3_20 
ROOT
HETATM    1  C8  UNL     1     -20.483 -16.903  -8.371  1.00  0.00     0.028 A 
HETATM    2  C9  UNL     1     -19.462 -16.231  -7.719  1.00  0.00     0.114 A 
HETATM    3  N1  UNL     1     -18.309 -16.836  -8.026  1.00  0.00    -0.360 N 
ATOM      4  H1  UNL     1     -17.383 -16.566  -7.693  1.00  0.00     0.166 HD
HETATM    5  C10 UNL     1     -18.584 -17.857  -8.846  1.00  0.00     0.183 A 
HETATM    6  N2  UNL     1     -19.940 -17.896  -9.059  1.00  0.00    -0.345 N 
ENDROOT
BRANCH   1   7
HETATM    7  C7  UNL     1     -21.950 -16.580  -8.268  1.00  0.00     0.063 C 
BRANCH   7   8
HETATM    8  C6  UNL     1     -22.116 -15.704  -7.041  1.00  0.00     0.044 C 
BRANCH   8   9
HETATM    9  C5  UNL     1     -23.287 -14.808  -7.160  1.00  0.00    -0.058 A 
HETATM   10  C4  UNL     1     -23.503 -14.192  -8.374  1.00  0.00     0.007 A 
HETATM   11  C3  UNL     1     -24.580 -13.341  -8.549  1.00  0.00     0.010 A 
HETATM   12  C2  UNL     1     -25.465 -13.084  -7.525  1.00  0.00    -0.035 A 
HETATM   13  C21 UNL     1     -25.260 -13.692  -6.313  1.00  0.00     0.010 A 
HETATM   14  C20 UNL     1     -24.171 -14.547  -6.145  1.00  0.00     0.007 A 
BRANCH  12  15
HETATM   15  C1  UNL     1     -26.599 -12.160  -7.788  1.00  0.00     0.202 C 
BRANCH  15  16
HETATM   16  O1  UNL     1     -27.588 -12.779  -8.509  1.00  0.00    -0.396 OA
ATOM     17  H1  UNL     1     -28.330 -13.000  -7.958  1.00  0.00     0.209 HD
ENDBRANCH  15  16
ENDBRANCH  12  15
ENDBRANCH   8   9
ENDBRANCH   7   8
ENDBRANCH   1   7
BRANCH   6  18
HETATM   18  C11 UNL     1     -20.533 -18.882  -9.928  1.00  0.00     0.130 C 
BRANCH  18  19
HETATM   19  C12 UNL     1     -21.190 -20.017  -9.212  1.00  0.00     0.022 C 
BRANCH  19  20
HETATM   20  C13 UNL     1     -22.587 -20.324  -9.587  1.00  0.00     0.022 C 
BRANCH  20  21
HETATM   21  C14 UNL     1     -23.347 -20.913  -8.437  1.00  0.00     0.128 C 
BRANCH  21  22
HETATM   22  N3  UNL     1     -23.578 -20.033  -7.328  1.00  0.00    -0.366 N 
HETATM   23  C15 UNL     1     -22.874 -20.190  -6.174  1.00  0.00     0.090 A 
HETATM   24  C16 UNL     1     -23.126 -19.346  -5.114  1.00  0.00     0.017 A 
HETATM   25  C17 UNL     1     -24.061 -18.341  -5.164  1.00  0.00     0.003 A 
HETATM   26  C18 UNL     1     -24.754 -18.216  -6.355  1.00  0.00     0.017 A 
HETATM   27  C19 UNL     1     -24.498 -19.065  -7.414  1.00  0.00     0.090 A 
ENDBRANCH  21  22
ENDBRANCH  20  21
ENDBRANCH  19  20
ENDBRANCH  18  19
ENDBRANCH   6  18
TORSDOF 10
ENDMDL
MODEL 5
REMARK VINA RESULT: -8.408625973      1.335      2.537
REMARK  10 active torsions:
REMARK  status: ('A' for Active; 'I' for Inactive)
REMARK    1  A    between atoms: O1_1  and  C1_3 
REMARK    2  A    between atoms: C1_3  and  C2_4 
REMARK    3  A    between atoms: C5_7  and  C6_8 
REMARK    4  A    between atoms: C6_8  and  C7_9 
REMARK    5  A    between atoms: C7_9  and  C8_10 
REMARK    6  A    between atoms: N2_15  and  C11_16 
REMARK    7  A    between atoms: C11_16  and  C12_17 
REMARK    8  A    between atoms: C12_17  and  C13_18 
REMARK    9  A    between atoms: C13_18  and  C14_19 
REMARK   10  A    between atoms: C14_19  and  N3_20 
ROOT
HETATM    1  C8  UNL     1     -23.204 -14.391  -8.454  1.00  0.00     0.028 A 
HETATM    2  C9  UNL     1     -22.571 -13.945  -9.603  1.00  0.00     0.114 A 
HETATM    3  N1  UNL     1     -21.305 -14.376  -9.569  1.00  0.00    -0.360 N 
ATOM      4  H1  UNL     1     -20.593 -14.204 -10.279  1.00  0.00     0.166 HD
HETATM    5  C10 UNL     1     -21.136 -15.073  -8.439  1.00  0.00     0.183 A 
HETATM    6  N2  UNL     1     -22.321 -15.080  -7.746  1.00  0.00    -0.345 N 
ENDROOT
BRANCH   1   7
HETATM    7  C7  UNL     1     -24.628 -14.095  -8.067  1.00  0.00     0.063 C 
BRANCH   7   8
HETATM    8  C6  UNL     1     -24.577 -12.977  -7.042  1.00  0.00     0.044 C 
BRANCH   8   9
HETATM    9  C5  UNL     1     -25.831 -12.195  -7.019  1.00  0.00    -0.058 A 
HETATM   10  C4  UNL     1     -26.768 -12.454  -7.997  1.00  0.00     0.007 A 
HETATM   11  C3  UNL     1     -27.962 -11.754  -8.029  1.00  0.00     0.010 A 
HETATM   12  C2  UNL     1     -28.252 -10.786  -7.093  1.00  0.00    -0.035 A 
HETATM   13  C21 UNL     1     -27.328 -10.520  -6.116  1.00  0.00     0.010 A 
HETATM   14  C20 UNL     1     -26.127 -11.229  -6.091  1.00  0.00     0.007 A 
BRANCH  12  15
HETATM   15  C1  UNL     1     -29.555 -10.078  -7.192  1.00  0.00     0.202 C 
BRANCH  15  16
HETATM   16  O1  UNL     1     -29.884  -9.822  -8.499  1.00  0.00    -0.396 OA
ATOM     17  H1  UNL     1     -30.763 -10.125  -8.699  1.00  0.00     0.209 HD
ENDBRANCH  15  16
ENDBRANCH  12  15
ENDBRANCH   8   9
ENDBRANCH   7   8
ENDBRANCH   1   7
BRANCH   6  18
HETATM   18  C11 UNL     1     -22.452 -15.780  -6.492  1.00  0.00     0.130 C 
BRANCH  18  19
HETATM   19  C12 UNL     1     -23.438 -16.902  -6.514  1.00  0.00     0.022 C 
BRANCH  19  20
HETATM   20  C13 UNL     1     -23.146 -18.066  -5.650  1.00  0.00     0.022 C 
BRANCH  20  21
HETATM   21  C14 UNL     1     -22.020 -18.889  -6.201  1.00  0.00     0.128 C 
BRANCH  21  22
HETATM   22  N3  UNL     1     -22.316 -19.627  -7.395  1.00  0.00    -0.366 N 
HETATM   23  C15 UNL     1     -21.511 -19.512  -8.486  1.00  0.00     0.090 A 
HETATM   24  C16 UNL     1     -21.825 -20.214  -9.629  1.00  0.00     0.017 A 
HETATM   25  C17 UNL     1     -22.921 -21.036  -9.725  1.00  0.00     0.003 A 
HETATM   26  C18 UNL     1     -23.713 -21.125  -8.593  1.00  0.00     0.017 A 
HETATM   27  C19 UNL     1     -23.394 -20.418  -7.450  1.00  0.00     0.090 A 
ENDBRANCH  21  22
ENDBRANCH  20  21
ENDBRANCH  19  20
ENDBRANCH  18  19
ENDBRANCH   6  18
TORSDOF 10
ENDMDL
