MODEL 1
REMARK VINA RESULT: -8.338023866      0.000      0.000
REMARK  9 active torsions:
REMARK  status: ('A' for Active; 'I' for Inactive)
REMARK    1  A    between atoms: N1_4  and  C4_5 
REMARK    2  A    between atoms: C4_5  and  C5_6 
REMARK    3  A    between atoms: C5_6  and  C6_7 
REMARK    4  A    between atoms: C6_7  and  C7_8 
REMARK    5  A    between atoms: N2_12  and  C11_13 
REMARK    6  A    between atoms: C11_13  and  C12_14 
REMARK    7  A    between atoms: C12_14  and  C13_15 
REMARK    8  A    between atoms: C13_15  and  C14_16 
REMARK    9  A    between atoms: C14_16  and  N3_17 
ROOT
HETATM    1  C7  UNL     1     -22.401 -14.101  -8.886  1.00  0.00    -0.043 A 
HETATM    2  C8  UNL     1     -21.171 -13.574  -9.220  1.00  0.00     0.010 A 
HETATM    3  C9  UNL     1     -20.003 -14.081  -8.696  1.00  0.00     0.018 A 
HETATM    4  C10 UNL     1     -20.072 -15.139  -7.818  1.00  0.00     0.090 A 
HETATM    5  N2  UNL     1     -21.283 -15.669  -7.482  1.00  0.00    -0.366 N 
HETATM    6  C18 UNL     1     -22.420 -15.159  -8.005  1.00  0.00     0.097 A 
ENDROOT
BRANCH   5   7
HETATM    7  C11 UNL     1     -21.368 -16.788  -6.554  1.00  0.00     0.128 C 
BRANCH   7   8
HETATM    8  C12 UNL     1     -22.833 -17.010  -6.271  1.00  0.00     0.022 C 
BRANCH   8   9
HETATM    9  C13 UNL     1     -23.101 -18.316  -5.579  1.00  0.00     0.023 C 
BRANCH   9  10
HETATM   10  C14 UNL     1     -22.108 -19.322  -6.178  1.00  0.00     0.148 C 
BRANCH  10  11
HETATM   11  N3  UNL     1     -22.658 -20.013  -7.302  1.00  0.00    -0.304 N 
HETATM   12  C15 UNL     1     -22.137 -19.977  -8.550  1.00  0.00     0.111 A 
HETATM   13  C16 UNL     1     -22.941 -20.760  -9.342  1.00  0.00     0.037 A 
HETATM   14  C17 UNL     1     -23.931 -21.239  -8.509  1.00  0.00     0.108 A 
HETATM   15  N4  UNL     1     -23.732 -20.766  -7.269  1.00  0.00    -0.310 N 
ATOM     16  H4  UNL     1     -24.309 -20.956  -6.450  1.00  0.00     0.186 HD
ENDBRANCH  10  11
ENDBRANCH   9  10
ENDBRANCH   8   9
ENDBRANCH   7   8
ENDBRANCH   5   7
BRANCH   1  17
HETATM   17  C6  UNL     1     -23.640 -13.565  -9.459  1.00  0.00     0.041 C 
BRANCH  17  18
HETATM   18  C5  UNL     1     -24.811 -14.339  -8.946  1.00  0.00     0.025 C 
BRANCH  18  19
HETATM   19  C4  UNL     1     -26.013 -13.492  -8.612  1.00  0.00     0.128 C 
BRANCH  19  20
HETATM   20  N1  UNL     1     -25.875 -13.055  -7.225  1.00  0.00    -0.366 N 
HETATM   21  C3  UNL     1     -25.383 -13.912  -6.300  1.00  0.00     0.090 A 
HETATM   22  C2  UNL     1     -25.237 -13.538  -4.981  1.00  0.00     0.017 A 
HETATM   23  C1  UNL     1     -25.592 -12.274  -4.572  1.00  0.00     0.003 A 
HETATM   24  C20 UNL     1     -26.099 -11.391  -5.527  1.00  0.00     0.017 A 
HETATM   25  C19 UNL     1     -26.230 -11.814  -6.854  1.00  0.00     0.090 A 
ENDBRANCH  19  20
ENDBRANCH  18  19
ENDBRANCH  17  18
ENDBRANCH   1  17
TORSDOF 9
ENDMDL
MODEL 2
REMARK VINA RESULT: -8.265657825      0.700      1.399
REMARK  9 active torsions:
REMARK  status: ('A' for Active; 'I' for Inactive)
REMARK    1  A    between atoms: N1_4  and  C4_5 
REMARK    2  A    between atoms: C4_5  and  C5_6 
REMARK    3  A    between atoms: C5_6  and  C6_7 
REMARK    4  A    between atoms: C6_7  and  C7_8 
REMARK    5  A    between atoms: N2_12  and  C11_13 
REMARK    6  A    between atoms: C11_13  and  C12_14 
REMARK    7  A    between atoms: C12_14  and  C13_15 
REMARK    8  A    between atoms: C13_15  and  C14_16 
REMARK    9  A    between atoms: C14_16  and  N3_17 
ROOT
HETATM    1  C7  UNL     1     -22.412 -14.134  -8.942  1.00  0.00    -0.043 A 
HETATM    2  C8  UNL     1     -21.161 -13.657  -9.275  1.00  0.00     0.010 A 
HETATM    3  C9  UNL     1     -20.016 -14.209  -8.748  1.00  0.00     0.018 A 
HETATM    4  C10 UNL     1     -20.128 -15.261  -7.868  1.00  0.00     0.090 A 
HETATM    5  N2  UNL     1     -21.359 -15.741  -7.532  1.00  0.00    -0.366 N 
HETATM    6  C18 UNL     1     -22.474 -15.188  -8.058  1.00  0.00     0.097 A 
ENDROOT
BRANCH   5   7
HETATM    7  C11 UNL     1     -21.489 -16.854  -6.602  1.00  0.00     0.128 C 
BRANCH   7   8
HETATM    8  C12 UNL     1     -22.924 -16.865  -6.134  1.00  0.00     0.022 C 
BRANCH   8   9
HETATM    9  C13 UNL     1     -23.469 -18.255  -5.963  1.00  0.00     0.023 C 
BRANCH   9  10
HETATM   10  C14 UNL     1     -24.369 -18.508  -7.180  1.00  0.00     0.148 C 
BRANCH  10  11
HETATM   11  N3  UNL     1     -23.796 -19.459  -8.081  1.00  0.00    -0.304 N 
HETATM   12  C15 UNL     1     -24.138 -20.768  -8.130  1.00  0.00     0.111 A 
HETATM   13  C16 UNL     1     -23.373 -21.344  -9.115  1.00  0.00     0.037 A 
HETATM   14  C17 UNL     1     -22.590 -20.327  -9.620  1.00  0.00     0.108 A 
HETATM   15  N4  UNL     1     -22.870 -19.188  -8.969  1.00  0.00    -0.310 N 
ATOM     16  H4  UNL     1     -22.442 -18.277  -9.135  1.00  0.00     0.186 HD
ENDBRANCH  10  11
ENDBRANCH   9  10
ENDBRANCH   8   9
ENDBRANCH   7   8
ENDBRANCH   5   7
BRANCH   1  17
HETATM   17  C6  UNL     1     -23.627 -13.551  -9.518  1.00  0.00     0.041 C 
BRANCH  17  18
HETATM   18  C5  UNL     1     -24.829 -14.270  -8.998  1.00  0.00     0.025 C 
BRANCH  18  19
HETATM   19  C4  UNL     1     -25.982 -13.367  -8.636  1.00  0.00     0.128 C 
BRANCH  19  20
HETATM   20  N1  UNL     1     -25.845 -13.019  -7.224  1.00  0.00    -0.366 N 
HETATM   21  C3  UNL     1     -26.214 -11.788  -6.800  1.00  0.00     0.090 A 
HETATM   22  C2  UNL     1     -26.101 -11.420  -5.477  1.00  0.00     0.017 A 
HETATM   23  C1  UNL     1     -25.604 -12.305  -4.549  1.00  0.00     0.003 A 
HETATM   24  C20 UNL     1     -25.223 -13.574  -4.986  1.00  0.00     0.017 A 
HETATM   25  C19 UNL     1     -25.356 -13.903  -6.339  1.00  0.00     0.090 A 
ENDBRANCH  19  20
ENDBRANCH  18  19
ENDBRANCH  17  18
ENDBRANCH   1  17
TORSDOF 9
ENDMDL
MODEL 3
REMARK VINA RESULT: -8.206480403      2.067      8.027
REMARK  9 active torsions:
REMARK  status: ('A' for Active; 'I' for Inactive)
REMARK    1  A    between atoms: N1_4  and  C4_5 
REMARK    2  A    between atoms: C4_5  and  C5_6 
REMARK    3  A    between atoms: C5_6  and  C6_7 
REMARK    4  A    between atoms: C6_7  and  C7_8 
REMARK    5  A    between atoms: N2_12  and  C11_13 
REMARK    6  A    between atoms: C11_13  and  C12_14 
REMARK    7  A    between atoms: C12_14  and  C13_15 
REMARK    8  A    between atoms: C13_15  and  C14_16 
REMARK    9  A    between atoms: C14_16  and  N3_17 
ROOT
HETATM    1  C7  UNL     1     -24.408 -16.843  -6.587  1.00  0.00    -0.043 A 
HETATM    2  C8  UNL     1     -24.223 -17.105  -7.928  1.00  0.00     0.010 A 
HETATM    3  C9  UNL     1     -24.216 -16.097  -8.865  1.00  0.00     0.018 A 
HETATM    4  C10 UNL     1     -24.399 -14.799  -8.447  1.00  0.00     0.090 A 
HETATM    5  N2  UNL     1     -24.582 -14.528  -7.123  1.00  0.00    -0.366 N 
HETATM    6  C18 UNL     1     -24.587 -15.529  -6.215  1.00  0.00     0.097 A 
ENDROOT
BRANCH   5   7
HETATM    7  C11 UNL     1     -24.778 -13.158  -6.669  1.00  0.00     0.128 C 
BRANCH   7   8
HETATM    8  C12 UNL     1     -25.298 -13.236  -5.255  1.00  0.00     0.022 C 
BRANCH   8   9
HETATM    9  C13 UNL     1     -26.121 -12.040  -4.870  1.00  0.00     0.023 C 
BRANCH   9  10
HETATM   10  C14 UNL     1     -25.940 -11.020  -6.003  1.00  0.00     0.148 C 
BRANCH  10  11
HETATM   11  N3  UNL     1     -27.172 -10.736  -6.670  1.00  0.00    -0.304 N 
HETATM   12  C15 UNL     1     -28.267 -10.220  -6.065  1.00  0.00     0.111 A 
HETATM   13  C16 UNL     1     -29.235 -10.094  -7.032  1.00  0.00     0.037 A 
HETATM   14  C17 UNL     1     -28.659 -10.553  -8.198  1.00  0.00     0.108 A 
HETATM   15  N4  UNL     1     -27.398 -10.939  -7.946  1.00  0.00    -0.310 N 
ATOM     16  H4  UNL     1     -26.737 -11.319  -8.623  1.00  0.00     0.186 HD
ENDBRANCH  10  11
ENDBRANCH   9  10
ENDBRANCH   8   9
ENDBRANCH   7   8
ENDBRANCH   5   7
BRANCH   1  17
HETATM   17  C6  UNL     1     -24.400 -17.921  -5.592  1.00  0.00     0.041 C 
BRANCH  17  18
HETATM   18  C5  UNL     1     -23.007 -18.431  -5.409  1.00  0.00     0.025 C 
BRANCH  18  19
HETATM   19  C4  UNL     1     -22.855 -19.912  -5.646  1.00  0.00     0.128 C 
BRANCH  19  20
HETATM   20  N1  UNL     1     -22.659 -20.113  -7.079  1.00  0.00    -0.366 N 
HETATM   21  C3  UNL     1     -21.564 -19.596  -7.683  1.00  0.00     0.090 A 
HETATM   22  C2  UNL     1     -21.343 -19.764  -9.034  1.00  0.00     0.017 A 
HETATM   23  C1  UNL     1     -22.239 -20.466  -9.804  1.00  0.00     0.003 A 
HETATM   24  C20 UNL     1     -23.369 -20.999  -9.180  1.00  0.00     0.017 A 
HETATM   25  C19 UNL     1     -23.552 -20.804  -7.807  1.00  0.00     0.090 A 
ENDBRANCH  19  20
ENDBRANCH  18  19
ENDBRANCH  17  18
ENDBRANCH   1  17
TORSDOF 9
ENDMDL
MODEL 4
REMARK VINA RESULT: -8.167379450      1.172      2.371
REMARK  9 active torsions:
REMARK  status: ('A' for Active; 'I' for Inactive)
REMARK    1  A    between atoms: N1_4  and  C4_5 
REMARK    2  A    between atoms: C4_5  and  C5_6 
REMARK    3  A    between atoms: C5_6  and  C6_7 
REMARK    4  A    between atoms: C6_7  and  C7_8 
REMARK    5  A    between atoms: N2_12  and  C11_13 
REMARK    6  A    between atoms: C11_13  and  C12_14 
REMARK    7  A    between atoms: C12_14  and  C13_15 
REMARK    8  A    between atoms: C13_15  and  C14_16 
REMARK    9  A    between atoms: C14_16  and  N3_17 
ROOT
HETATM    1  C7  UNL     1     -22.307 -14.338  -9.110  1.00  0.00    -0.043 A 
HETATM    2  C8  UNL     1     -21.132 -13.617  -9.072  1.00  0.00     0.010 A 
HETATM    3  C9  UNL     1     -19.926 -14.220  -8.796  1.00  0.00     0.018 A 
HETATM    4  C10 UNL     1     -19.899 -15.575  -8.553  1.00  0.00     0.090 A 
HETATM    5  N2  UNL     1     -21.054 -16.297  -8.589  1.00  0.00    -0.366 N 
HETATM    6  C18 UNL     1     -22.231 -15.690  -8.861  1.00  0.00     0.097 A 
ENDROOT
BRANCH   5   7
HETATM    7  C11 UNL     1     -21.038 -17.731  -8.334  1.00  0.00     0.128 C 
BRANCH   7   8
HETATM    8  C12 UNL     1     -22.128 -18.338  -9.182  1.00  0.00     0.022 C 
BRANCH   8   9
HETATM    9  C13 UNL     1     -22.261 -19.822  -8.985  1.00  0.00     0.023 C 
BRANCH   9  10
HETATM   10  C14 UNL     1     -23.630 -20.039  -8.325  1.00  0.00     0.148 C 
BRANCH  10  11
HETATM   11  N3  UNL     1     -23.661 -19.549  -6.982  1.00  0.00    -0.304 N 
HETATM   12  C15 UNL     1     -22.897 -20.030  -5.975  1.00  0.00     0.111 A 
HETATM   13  C16 UNL     1     -23.214 -19.305  -4.852  1.00  0.00     0.037 A 
HETATM   14  C17 UNL     1     -24.178 -18.403  -5.251  1.00  0.00     0.108 A 
HETATM   15  N4  UNL     1     -24.431 -18.575  -6.557  1.00  0.00    -0.310 N 
ATOM     16  H4  UNL     1     -25.099 -18.046  -7.117  1.00  0.00     0.186 HD
ENDBRANCH  10  11
ENDBRANCH   9  10
ENDBRANCH   8   9
ENDBRANCH   7   8
ENDBRANCH   5   7
BRANCH   1  17
HETATM   17  C6  UNL     1     -23.587 -13.692  -9.418  1.00  0.00     0.041 C 
BRANCH  17  18
HETATM   18  C5  UNL     1     -24.632 -14.153  -8.454  1.00  0.00     0.025 C 
BRANCH  18  19
HETATM   19  C4  UNL     1     -26.005 -13.585  -8.711  1.00  0.00     0.128 C 
BRANCH  19  20
HETATM   20  N1  UNL     1     -26.216 -12.493  -7.764  1.00  0.00    -0.366 N 
HETATM   21  C3  UNL     1     -27.183 -11.577  -8.005  1.00  0.00     0.090 A 
HETATM   22  C2  UNL     1     -27.414 -10.532  -7.137  1.00  0.00     0.017 A 
HETATM   23  C1  UNL     1     -26.659 -10.394  -5.997  1.00  0.00     0.003 A 
HETATM   24  C20 UNL     1     -25.661 -11.339  -5.749  1.00  0.00     0.017 A 
HETATM   25  C19 UNL     1     -25.463 -12.383  -6.658  1.00  0.00     0.090 A 
ENDBRANCH  19  20
ENDBRANCH  18  19
ENDBRANCH  17  18
ENDBRANCH   1  17
TORSDOF 9
ENDMDL
MODEL 5
REMARK VINA RESULT: -8.154149048      1.036      2.238
REMARK  9 active torsions:
REMARK  status: ('A' for Active; 'I' for Inactive)
REMARK    1  A    between atoms: N1_4  and  C4_5 
REMARK    2  A    between atoms: C4_5  and  C5_6 
REMARK    3  A    between atoms: C5_6  and  C6_7 
REMARK    4  A    between atoms: C6_7  and  C7_8 
REMARK    5  A    between atoms: N2_12  and  C11_13 
REMARK    6  A    between atoms: C11_13  and  C12_14 
REMARK    7  A    between atoms: C12_14  and  C13_15 
REMARK    8  A    between atoms: C13_15  and  C14_16 
REMARK    9  A    between atoms: C14_16  and  N3_17 
ROOT
HETATM    1  C7  UNL     1     -22.183 -14.336  -9.095  1.00  0.00    -0.043 A 
HETATM    2  C8  UNL     1     -21.002 -13.624  -9.079  1.00  0.00     0.010 A 
HETATM    3  C9  UNL     1     -19.812 -14.209  -8.709  1.00  0.00     0.018 A 
HETATM    4  C10 UNL     1     -19.808 -15.537  -8.348  1.00  0.00     0.090 A 
HETATM    5  N2  UNL     1     -20.969 -16.251  -8.361  1.00  0.00    -0.366 N 
HETATM    6  C18 UNL     1     -22.129 -15.662  -8.726  1.00  0.00     0.097 A 
ENDROOT
BRANCH   5   7
HETATM    7  C11 UNL     1     -20.977 -17.657  -7.980  1.00  0.00     0.128 C 
BRANCH   7   8
HETATM    8  C12 UNL     1     -21.814 -18.383  -9.005  1.00  0.00     0.022 C 
BRANCH   8   9
HETATM    9  C13 UNL     1     -22.105 -19.805  -8.617  1.00  0.00     0.023 C 
BRANCH   9  10
HETATM   10  C14 UNL     1     -23.593 -19.845  -8.244  1.00  0.00     0.148 C 
BRANCH  10  11
HETATM   11  N3  UNL     1     -23.834 -19.308  -6.942  1.00  0.00    -0.304 N 
HETATM   12  C15 UNL     1     -24.599 -18.220  -6.692  1.00  0.00     0.111 A 
HETATM   13  C16 UNL     1     -24.584 -18.025  -5.332  1.00  0.00     0.037 A 
HETATM   14  C17 UNL     1     -23.790 -19.030  -4.820  1.00  0.00     0.108 A 
HETATM   15  N4  UNL     1     -23.345 -19.798  -5.827  1.00  0.00    -0.310 N 
ATOM     16  H4  UNL     1     -22.740 -20.614  -5.741  1.00  0.00     0.186 HD
ENDBRANCH  10  11
ENDBRANCH   9  10
ENDBRANCH   8   9
ENDBRANCH   7   8
ENDBRANCH   5   7
BRANCH   1  17
HETATM   17  C6  UNL     1     -23.444 -13.710  -9.504  1.00  0.00     0.041 C 
BRANCH  17  18
HETATM   18  C5  UNL     1     -24.594 -14.448  -8.899  1.00  0.00     0.025 C 
BRANCH  18  19
HETATM   19  C4  UNL     1     -25.806 -13.592  -8.630  1.00  0.00     0.128 C 
BRANCH  19  20
HETATM   20  N1  UNL     1     -25.747 -13.169  -7.233  1.00  0.00    -0.366 N 
HETATM   21  C3  UNL     1     -26.283 -11.979  -6.872  1.00  0.00     0.090 A 
HETATM   22  C2  UNL     1     -26.248 -11.543  -5.564  1.00  0.00     0.017 A 
HETATM   23  C1  UNL     1     -25.662 -12.315  -4.589  1.00  0.00     0.003 A 
HETATM   24  C20 UNL     1     -25.110 -13.542  -4.962  1.00  0.00     0.017 A 
HETATM   25  C19 UNL     1     -25.168 -13.943  -6.301  1.00  0.00     0.090 A 
ENDBRANCH  19  20
ENDBRANCH  18  19
ENDBRANCH  17  18
ENDBRANCH   1  17
TORSDOF 9
ENDMDL
