MODEL 1
REMARK VINA RESULT: -8.536342134      0.000      0.000
REMARK  10 active torsions:
REMARK  status: ('A' for Active; 'I' for Inactive)
REMARK    1  A    between atoms: N1_1  and  C1_5 
REMARK    2  A    between atoms: C1_5  and  C2_6 
REMARK    3  A    between atoms: C5_9  and  C6_10 
REMARK    4  A    between atoms: C6_10  and  C7_11 
REMARK    5  A    between atoms: N2_14  and  C10_15 
REMARK    6  A    between atoms: C10_15  and  C11_16 
REMARK    7  A    between atoms: C11_16  and  C12_17 
REMARK    8  A    between atoms: C12_17  and  C13_18 
REMARK    9  A    between atoms: C13_18  and  C14_19 
REMARK   10  A    between atoms: C14_19  and  N3_20 
ROOT
HETATM    1  C7  UNL     1     -22.219 -14.284  -9.023  1.00  0.00     0.031 A 
HETATM    2  C8  UNL     1     -21.149 -13.439  -8.825  1.00  0.00     0.045 A 
HETATM    3  C9  UNL     1     -20.052 -14.281  -8.701  1.00  0.00     0.112 A 
HETATM    4  N2  UNL     1     -20.441 -15.564  -8.816  1.00  0.00    -0.303 N 
HETATM    5  N4  UNL     1     -21.739 -15.540  -9.009  1.00  0.00    -0.303 N 
ATOM      6  H4  UNL     1     -22.314 -16.373  -9.132  1.00  0.00     0.186 HD
ENDROOT
BRANCH   1   7
HETATM    7  C6  UNL     1     -23.659 -13.886  -9.220  1.00  0.00     0.097 C 
BRANCH   7   8
HETATM    8  C5  UNL     1     -24.204 -13.646  -7.847  1.00  0.00    -0.052 A 
HETATM    9  C4  UNL     1     -24.757 -12.426  -7.543  1.00  0.00     0.008 A 
HETATM   10  C3  UNL     1     -25.268 -12.170  -6.287  1.00  0.00     0.009 A 
HETATM   11  C2  UNL     1     -25.247 -13.130  -5.280  1.00  0.00    -0.033 A 
HETATM   12  C21 UNL     1     -24.691 -14.351  -5.601  1.00  0.00     0.009 A 
HETATM   13  C20 UNL     1     -24.176 -14.606  -6.863  1.00  0.00     0.008 A 
BRANCH  11  14
HETATM   14  C1  UNL     1     -25.801 -12.850  -3.927  1.00  0.00     0.268 C 
BRANCH  14  15
HETATM   15  N1  UNL     1     -26.799 -13.861  -3.642  1.00  0.00    -0.075 N 
ATOM     16  H13 UNL     1     -27.125 -14.343  -4.479  1.00  0.00     0.274 HD
ATOM     17  H12 UNL     1     -26.414 -14.673  -3.160  1.00  0.00     0.274 HD
ATOM     18  H11 UNL     1     -27.554 -13.413  -3.122  1.00  0.00     0.274 HD
ENDBRANCH  14  15
ENDBRANCH  11  14
ENDBRANCH   7   8
ENDBRANCH   1   7
BRANCH   4  19
HETATM   19  C10 UNL     1     -19.572 -16.755  -8.741  1.00  0.00     0.148 C 
BRANCH  19  20
HETATM   20  C11 UNL     1     -20.310 -17.852  -8.020  1.00  0.00     0.022 C 
BRANCH  20  21
HETATM   21  C12 UNL     1     -20.511 -19.084  -8.852  1.00  0.00     0.003 C 
BRANCH  21  22
HETATM   22  C13 UNL     1     -21.967 -19.197  -9.228  1.00  0.00     0.020 C 
BRANCH  22  23
HETATM   23  C14 UNL     1     -22.634 -20.303  -8.416  1.00  0.00     0.128 C 
BRANCH  23  24
HETATM   24  N3  UNL     1     -23.179 -19.674  -7.235  1.00  0.00    -0.366 N 
HETATM   25  C15 UNL     1     -22.767 -19.971  -5.997  1.00  0.00     0.090 A 
HETATM   26  C16 UNL     1     -23.291 -19.368  -4.876  1.00  0.00     0.017 A 
HETATM   27  C17 UNL     1     -24.274 -18.426  -5.044  1.00  0.00     0.003 A 
HETATM   28  C18 UNL     1     -24.719 -18.099  -6.320  1.00  0.00     0.017 A 
HETATM   29  C19 UNL     1     -24.153 -18.740  -7.398  1.00  0.00     0.090 A 
ENDBRANCH  23  24
ENDBRANCH  22  23
ENDBRANCH  21  22
ENDBRANCH  20  21
ENDBRANCH  19  20
ENDBRANCH   4  19
TORSDOF 10
ENDMDL
MODEL 2
REMARK VINA RESULT: -8.094257942      1.599      2.503
REMARK  10 active torsions:
REMARK  status: ('A' for Active; 'I' for Inactive)
REMARK    1  A    between atoms: N1_1  and  C1_5 
REMARK    2  A    between atoms: C1_5  and  C2_6 
REMARK    3  A    between atoms: C5_9  and  C6_10 
REMARK    4  A    between atoms: C6_10  and  C7_11 
REMARK    5  A    between atoms: N2_14  and  C10_15 
REMARK    6  A    between atoms: C10_15  and  C11_16 
REMARK    7  A    between atoms: C11_16  and  C12_17 
REMARK    8  A    between atoms: C12_17  and  C13_18 
REMARK    9  A    between atoms: C13_18  and  C14_19 
REMARK   10  A    between atoms: C14_19  and  N3_20 
ROOT
HETATM    1  C7  UNL     1     -23.577 -15.796  -7.182  1.00  0.00     0.031 A 
HETATM    2  C8  UNL     1     -23.826 -16.381  -8.406  1.00  0.00     0.045 A 
HETATM    3  C9  UNL     1     -22.633 -16.256  -9.105  1.00  0.00     0.112 A 
HETATM    4  N2  UNL     1     -21.717 -15.631  -8.345  1.00  0.00    -0.303 N 
HETATM    5  N4  UNL     1     -22.304 -15.367  -7.201  1.00  0.00    -0.303 N 
ATOM      6  H4  UNL     1     -21.849 -14.893  -6.421  1.00  0.00     0.186 HD
ENDROOT
BRANCH   1   7
HETATM    7  C6  UNL     1     -24.543 -15.660  -6.034  1.00  0.00     0.097 C 
BRANCH   7   8
HETATM    8  C5  UNL     1     -25.028 -14.245  -6.077  1.00  0.00    -0.052 A 
HETATM    9  C4  UNL     1     -25.214 -13.559  -4.902  1.00  0.00     0.008 A 
HETATM   10  C3  UNL     1     -25.661 -12.253  -4.905  1.00  0.00     0.009 A 
HETATM   11  C2  UNL     1     -25.939 -11.578  -6.090  1.00  0.00    -0.033 A 
HETATM   12  C21 UNL     1     -25.745 -12.281  -7.261  1.00  0.00     0.009 A 
HETATM   13  C20 UNL     1     -25.298 -13.594  -7.257  1.00  0.00     0.008 A 
BRANCH  11  14
HETATM   14  C1  UNL     1     -26.419 -10.170  -6.089  1.00  0.00     0.268 C 
BRANCH  14  15
HETATM   15  N1  UNL     1     -27.866 -10.198  -6.164  1.00  0.00    -0.075 N 
ATOM     16  H13 UNL     1     -28.220  -9.918  -7.079  1.00  0.00     0.274 HD
ATOM     17  H12 UNL     1     -28.245 -11.144  -6.156  1.00  0.00     0.274 HD
ATOM     18  H11 UNL     1     -28.227  -9.619  -5.405  1.00  0.00     0.274 HD
ENDBRANCH  14  15
ENDBRANCH  11  14
ENDBRANCH   7   8
ENDBRANCH   1   7
BRANCH   4  19
HETATM   19  C10 UNL     1     -20.327 -15.311  -8.730  1.00  0.00     0.148 C 
BRANCH  19  20
HETATM   20  C11 UNL     1     -19.400 -16.305  -8.080  1.00  0.00     0.022 C 
BRANCH  20  21
HETATM   21  C12 UNL     1     -19.082 -17.484  -8.953  1.00  0.00     0.003 C 
BRANCH  21  22
HETATM   22  C13 UNL     1     -19.420 -18.753  -8.213  1.00  0.00     0.020 C 
BRANCH  22  23
HETATM   23  C14 UNL     1     -20.687 -19.376  -8.793  1.00  0.00     0.128 C 
BRANCH  23  24
HETATM   24  N3  UNL     1     -21.660 -19.399  -7.725  1.00  0.00    -0.366 N 
HETATM   25  C15 UNL     1     -21.417 -18.896  -6.510  1.00  0.00     0.090 A 
HETATM   26  C16 UNL     1     -22.348 -18.920  -5.497  1.00  0.00     0.017 A 
HETATM   27  C17 UNL     1     -23.573 -19.485  -5.753  1.00  0.00     0.003 A 
HETATM   28  C18 UNL     1     -23.850 -20.014  -7.008  1.00  0.00     0.017 A 
HETATM   29  C19 UNL     1     -22.873 -19.957  -7.976  1.00  0.00     0.090 A 
ENDBRANCH  23  24
ENDBRANCH  22  23
ENDBRANCH  21  22
ENDBRANCH  20  21
ENDBRANCH  19  20
ENDBRANCH   4  19
TORSDOF 10
ENDMDL
MODEL 3
REMARK VINA RESULT: -8.071933143      2.304      4.186
REMARK  10 active torsions:
REMARK  status: ('A' for Active; 'I' for Inactive)
REMARK    1  A    between atoms: N1_1  and  C1_5 
REMARK    2  A    between atoms: C1_5  and  C2_6 
REMARK    3  A    between atoms: C5_9  and  C6_10 
REMARK    4  A    between atoms: C6_10  and  C7_11 
REMARK    5  A    between atoms: N2_14  and  C10_15 
REMARK    6  A    between atoms: C10_15  and  C11_16 
REMARK    7  A    between atoms: C11_16  and  C12_17 
REMARK    8  A    between atoms: C12_17  and  C13_18 
REMARK    9  A    between atoms: C13_18  and  C14_19 
REMARK   10  A    between atoms: C14_19  and  N3_20 
ROOT
HETATM    1  C7  UNL     1     -24.090 -15.028  -7.521  1.00  0.00     0.031 A 
HETATM    2  C8  UNL     1     -24.061 -15.937  -8.558  1.00  0.00     0.045 A 
HETATM    3  C9  UNL     1     -24.490 -17.130  -7.993  1.00  0.00     0.112 A 
HETATM    4  N2  UNL     1     -24.760 -16.951  -6.687  1.00  0.00    -0.303 N 
HETATM    5  N4  UNL     1     -24.515 -15.687  -6.430  1.00  0.00    -0.303 N 
ATOM      6  H4  UNL     1     -24.632 -15.258  -5.512  1.00  0.00     0.186 HD
ENDROOT
BRANCH   1   7
HETATM    7  C6  UNL     1     -23.718 -13.570  -7.589  1.00  0.00     0.097 C 
BRANCH   7   8
HETATM    8  C5  UNL     1     -25.003 -12.816  -7.437  1.00  0.00    -0.052 A 
HETATM    9  C4  UNL     1     -25.962 -12.913  -8.416  1.00  0.00     0.008 A 
HETATM   10  C3  UNL     1     -27.157 -12.231  -8.308  1.00  0.00     0.009 A 
HETATM   11  C2  UNL     1     -27.442 -11.422  -7.212  1.00  0.00    -0.033 A 
HETATM   12  C21 UNL     1     -26.469 -11.337  -6.238  1.00  0.00     0.009 A 
HETATM   13  C20 UNL     1     -25.267 -12.022  -6.347  1.00  0.00     0.008 A 
BRANCH  11  14
HETATM   14  C1  UNL     1     -28.732 -10.690  -7.100  1.00  0.00     0.268 C 
BRANCH  14  15
HETATM   15  N1  UNL     1     -29.130 -10.292  -8.435  1.00  0.00    -0.075 N 
ATOM     16  H13 UNL     1     -29.515 -11.062  -8.980  1.00  0.00     0.274 HD
ATOM     17  H12 UNL     1     -29.956  -9.695  -8.442  1.00  0.00     0.274 HD
ATOM     18  H11 UNL     1     -28.323  -9.855  -8.882  1.00  0.00     0.274 HD
ENDBRANCH  14  15
ENDBRANCH  11  14
ENDBRANCH   7   8
ENDBRANCH   1   7
BRANCH   4  19
HETATM   19  C10 UNL     1     -25.240 -17.978  -5.741  1.00  0.00     0.148 C 
BRANCH  19  20
HETATM   20  C11 UNL     1     -24.069 -18.489  -4.942  1.00  0.00     0.022 C 
BRANCH  20  21
HETATM   21  C12 UNL     1     -23.319 -19.596  -5.623  1.00  0.00     0.003 C 
BRANCH  21  22
HETATM   22  C13 UNL     1     -21.867 -19.210  -5.745  1.00  0.00     0.020 C 
BRANCH  22  23
HETATM   23  C14 UNL     1     -21.484 -19.069  -7.215  1.00  0.00     0.128 C 
BRANCH  23  24
HETATM   24  N3  UNL     1     -20.948 -17.736  -7.375  1.00  0.00    -0.366 N 
HETATM   25  C15 UNL     1     -21.108 -16.774  -6.459  1.00  0.00     0.090 A 
HETATM   26  C16 UNL     1     -20.595 -15.508  -6.617  1.00  0.00     0.017 A 
HETATM   27  C17 UNL     1     -19.892 -15.229  -7.762  1.00  0.00     0.003 A 
HETATM   28  C18 UNL     1     -19.712 -16.212  -8.728  1.00  0.00     0.017 A 
HETATM   29  C19 UNL     1     -20.252 -17.458  -8.508  1.00  0.00     0.090 A 
ENDBRANCH  23  24
ENDBRANCH  22  23
ENDBRANCH  21  22
ENDBRANCH  20  21
ENDBRANCH  19  20
ENDBRANCH   4  19
TORSDOF 10
ENDMDL
MODEL 4
REMARK VINA RESULT: -8.069296858      1.593      2.552
REMARK  10 active torsions:
REMARK  status: ('A' for Active; 'I' for Inactive)
REMARK    1  A    between atoms: N1_1  and  C1_5 
REMARK    2  A    between atoms: C1_5  and  C2_6 
REMARK    3  A    between atoms: C5_9  and  C6_10 
REMARK    4  A    between atoms: C6_10  and  C7_11 
REMARK    5  A    between atoms: N2_14  and  C10_15 
REMARK    6  A    between atoms: C10_15  and  C11_16 
REMARK    7  A    between atoms: C11_16  and  C12_17 
REMARK    8  A    between atoms: C12_17  and  C13_18 
REMARK    9  A    between atoms: C13_18  and  C14_19 
REMARK   10  A    between atoms: C14_19  and  N3_20 
ROOT
HETATM    1  C7  UNL     1     -23.593 -15.773  -7.171  1.00  0.00     0.031 A 
HETATM    2  C8  UNL     1     -23.832 -16.332  -8.408  1.00  0.00     0.045 A 
HETATM    3  C9  UNL     1     -22.638 -16.177  -9.100  1.00  0.00     0.112 A 
HETATM    4  N2  UNL     1     -21.731 -15.558  -8.323  1.00  0.00    -0.303 N 
HETATM    5  N4  UNL     1     -22.325 -15.327  -7.176  1.00  0.00    -0.303 N 
ATOM      6  H4  UNL     1     -21.878 -14.865  -6.384  1.00  0.00     0.186 HD
ENDROOT
BRANCH   1   7
HETATM    7  C6  UNL     1     -24.564 -15.675  -6.022  1.00  0.00     0.097 C 
BRANCH   7   8
HETATM    8  C5  UNL     1     -25.027 -14.252  -6.003  1.00  0.00    -0.052 A 
HETATM    9  C4  UNL     1     -25.297 -13.613  -7.189  1.00  0.00     0.008 A 
HETATM   10  C3  UNL     1     -25.725 -12.301  -7.208  1.00  0.00     0.009 A 
HETATM   11  C2  UNL     1     -25.902 -11.573  -6.035  1.00  0.00    -0.033 A 
HETATM   12  C21 UNL     1     -25.629 -12.229  -4.853  1.00  0.00     0.009 A 
HETATM   13  C20 UNL     1     -25.197 -13.547  -4.835  1.00  0.00     0.008 A 
BRANCH  11  14
HETATM   14  C1  UNL     1     -26.365 -10.159  -6.060  1.00  0.00     0.268 C 
BRANCH  14  15
HETATM   15  N1  UNL     1     -27.810 -10.171  -6.162  1.00  0.00    -0.075 N 
ATOM     16  H13 UNL     1     -28.147 -10.701  -6.966  1.00  0.00     0.274 HD
ATOM     17  H12 UNL     1     -28.254 -10.731  -5.436  1.00  0.00     0.274 HD
ATOM     18  H11 UNL     1     -28.129  -9.202  -6.164  1.00  0.00     0.274 HD
ENDBRANCH  14  15
ENDBRANCH  11  14
ENDBRANCH   7   8
ENDBRANCH   1   7
BRANCH   4  19
HETATM   19  C10 UNL     1     -20.345 -15.212  -8.697  1.00  0.00     0.148 C 
BRANCH  19  20
HETATM   20  C11 UNL     1     -19.406 -16.196  -8.049  1.00  0.00     0.022 C 
BRANCH  20  21
HETATM   21  C12 UNL     1     -19.103 -17.387  -8.910  1.00  0.00     0.003 C 
BRANCH  21  22
HETATM   22  C13 UNL     1     -19.457 -18.645  -8.159  1.00  0.00     0.020 C 
BRANCH  22  23
HETATM   23  C14 UNL     1     -20.673 -19.311  -8.795  1.00  0.00     0.128 C 
BRANCH  23  24
HETATM   24  N3  UNL     1     -21.687 -19.383  -7.767  1.00  0.00    -0.366 N 
HETATM   25  C15 UNL     1     -22.880 -19.956  -7.963  1.00  0.00     0.090 A 
HETATM   26  C16 UNL     1     -23.841 -20.022  -6.981  1.00  0.00     0.017 A 
HETATM   27  C17 UNL     1     -23.556 -19.477  -5.754  1.00  0.00     0.003 A 
HETATM   28  C18 UNL     1     -22.323 -18.878  -5.526  1.00  0.00     0.017 A 
HETATM   29  C19 UNL     1     -21.407 -18.845  -6.552  1.00  0.00     0.090 A 
ENDBRANCH  23  24
ENDBRANCH  22  23
ENDBRANCH  21  22
ENDBRANCH  20  21
ENDBRANCH  19  20
ENDBRANCH   4  19
TORSDOF 10
ENDMDL
MODEL 5
REMARK VINA RESULT: -8.051146964      2.683      4.312
REMARK  10 active torsions:
REMARK  status: ('A' for Active; 'I' for Inactive)
REMARK    1  A    between atoms: N1_1  and  C1_5 
REMARK    2  A    between atoms: C1_5  and  C2_6 
REMARK    3  A    between atoms: C5_9  and  C6_10 
REMARK    4  A    between atoms: C6_10  and  C7_11 
REMARK    5  A    between atoms: N2_14  and  C10_15 
REMARK    6  A    between atoms: C10_15  and  C11_16 
REMARK    7  A    between atoms: C11_16  and  C12_17 
REMARK    8  A    between atoms: C12_17  and  C13_18 
REMARK    9  A    between atoms: C13_18  and  C14_19 
REMARK   10  A    between atoms: C14_19  and  N3_20 
ROOT
HETATM    1  C7  UNL     1     -24.850 -13.136  -6.812  1.00  0.00     0.031 A 
HETATM    2  C8  UNL     1     -24.228 -12.892  -8.018  1.00  0.00     0.045 A 
HETATM    3  C9  UNL     1     -23.998 -14.151  -8.556  1.00  0.00     0.112 A 
HETATM    4  N2  UNL     1     -24.456 -15.100  -7.721  1.00  0.00    -0.303 N 
HETATM    5  N4  UNL     1     -24.961 -14.470  -6.686  1.00  0.00    -0.303 N 
ATOM      6  H4  UNL     1     -25.385 -14.935  -5.884  1.00  0.00     0.186 HD
ENDROOT
BRANCH   1   7
HETATM    7  C6  UNL     1     -25.322 -12.108  -5.816  1.00  0.00     0.097 C 
BRANCH   7   8
HETATM    8  C5  UNL     1     -26.577 -11.532  -6.392  1.00  0.00    -0.052 A 
HETATM    9  C4  UNL     1     -27.184 -10.472  -5.763  1.00  0.00     0.008 A 
HETATM   10  C3  UNL     1     -28.343  -9.917  -6.266  1.00  0.00     0.009 A 
HETATM   11  C2  UNL     1     -28.942 -10.401  -7.425  1.00  0.00    -0.033 A 
HETATM   12  C21 UNL     1     -28.319 -11.464  -8.045  1.00  0.00     0.009 A 
HETATM   13  C20 UNL     1     -27.156 -12.022  -7.538  1.00  0.00     0.008 A 
BRANCH  11  14
HETATM   14  C1  UNL     1     -30.191  -9.798  -7.965  1.00  0.00     0.268 C 
BRANCH  14  15
HETATM   15  N1  UNL     1     -31.306 -10.360  -7.229  1.00  0.00    -0.075 N 
ATOM     16  H13 UNL     1     -31.020 -10.808  -6.359  1.00  0.00     0.274 HD
ATOM     17  H12 UNL     1     -31.912  -9.649  -6.823  1.00  0.00     0.274 HD
ATOM     18  H11 UNL     1     -31.803 -10.993  -7.856  1.00  0.00     0.274 HD
ENDBRANCH  14  15
ENDBRANCH  11  14
ENDBRANCH   7   8
ENDBRANCH   1   7
BRANCH   4  19
HETATM   19  C10 UNL     1     -24.398 -16.560  -7.935  1.00  0.00     0.148 C 
BRANCH  19  20
HETATM   20  C11 UNL     1     -24.666 -17.256  -6.626  1.00  0.00     0.022 C 
BRANCH  20  21
HETATM   21  C12 UNL     1     -23.427 -17.505  -5.817  1.00  0.00     0.003 C 
BRANCH  21  22
HETATM   22  C13 UNL     1     -23.467 -18.909  -5.269  1.00  0.00     0.020 C 
BRANCH  22  23
HETATM   23  C14 UNL     1     -22.219 -19.674  -5.699  1.00  0.00     0.128 C 
BRANCH  23  24
HETATM   24  N3  UNL     1     -22.411 -20.028  -7.087  1.00  0.00    -0.366 N 
HETATM   25  C15 UNL     1     -23.481 -20.702  -7.524  1.00  0.00     0.090 A 
HETATM   26  C16 UNL     1     -23.658 -21.035  -8.847  1.00  0.00     0.017 A 
HETATM   27  C17 UNL     1     -22.694 -20.656  -9.748  1.00  0.00     0.003 A 
HETATM   28  C18 UNL     1     -21.574 -19.954  -9.319  1.00  0.00     0.017 A 
HETATM   29  C19 UNL     1     -21.459 -19.653  -7.981  1.00  0.00     0.090 A 
ENDBRANCH  23  24
ENDBRANCH  22  23
ENDBRANCH  21  22
ENDBRANCH  20  21
ENDBRANCH  19  20
ENDBRANCH   4  19
TORSDOF 10
ENDMDL
