MODEL 1
REMARK VINA RESULT: -7.679723546      0.000      0.000
REMARK  13 active torsions:
REMARK  status: ('A' for Active; 'I' for Inactive)
REMARK    1  A    between atoms: O1_1  and  C1_3 
REMARK    2  A    between atoms: C1_3  and  C2_4 
REMARK    3  A    between atoms: N2_8  and  C4_9 
REMARK    4  A    between atoms: C4_9  and  C5_10 
REMARK    5  A    between atoms: C5_10  and  C6_11 
REMARK    6  A    between atoms: C6_11  and  C7_12 
REMARK    7  A    between atoms: C7_12  and  C8_13 
REMARK    8  A    between atoms: C9_14  and  C10_15 
REMARK    9  A    between atoms: C11_16  and  C12_17 
REMARK   10  A    between atoms: C12_17  and  C13_18 
REMARK   11  A    between atoms: C13_18  and  C14_19 
REMARK   12  A    between atoms: C14_19  and  C15_20 
REMARK   13  A    between atoms: C15_20  and  N3_21 
ROOT
HETATM    1  C8  UNL     1     -23.829 -18.101  -5.503  1.00  0.00    -0.092 C 
HETATM    2  C9  UNL     1     -24.079 -16.932  -5.810  1.00  0.00    -0.015 C 
ENDROOT
BRANCH   1   3
HETATM    3  C7  UNL     1     -23.503 -19.456  -5.100  1.00  0.00     0.095 C 
BRANCH   3   4
HETATM    4  C6  UNL     1     -22.270 -19.949  -5.753  1.00  0.00     0.014 C 
BRANCH   4   5
HETATM    5  C5  UNL     1     -22.171 -19.962  -7.216  1.00  0.00     0.023 C 
BRANCH   5   6
HETATM    6  C4  UNL     1     -21.086 -19.215  -7.887  1.00  0.00     0.148 C 
BRANCH   6   7
HETATM    7  N2  UNL     1     -21.718 -17.980  -8.427  1.00  0.00    -0.303 N 
HETATM    8  N1  UNL     1     -22.833 -17.897  -9.091  1.00  0.00    -0.309 N 
HETATM    9  C3  UNL     1     -23.108 -16.626  -9.428  1.00  0.00     0.118 A 
ATOM     10  H1  UNL     1     -23.423 -18.695  -9.325  1.00  0.00     0.186 HD
HETATM   11  C2  UNL     1     -22.056 -15.886  -8.915  1.00  0.00    -0.001 A 
HETATM   12  C21 UNL     1     -21.197 -16.747  -8.293  1.00  0.00     0.120 A 
BRANCH  11  13
HETATM   13  C1  UNL     1     -21.938 -14.409  -9.051  1.00  0.00     0.205 C 
BRANCH  13  14
HETATM   14  O1  UNL     1     -22.455 -13.996 -10.283  1.00  0.00    -0.396 OA
ATOM     15  H1  UNL     1     -23.303 -13.587 -10.161  1.00  0.00     0.209 HD
ENDBRANCH  13  14
ENDBRANCH  11  13
ENDBRANCH   6   7
ENDBRANCH   5   6
ENDBRANCH   4   5
ENDBRANCH   3   4
ENDBRANCH   1   3
BRANCH   2  16
HETATM   16  C10 UNL     1     -24.384 -15.602  -6.176  1.00  0.00    -0.015 C 
HETATM   17  C11 UNL     1     -24.625 -14.463  -6.497  1.00  0.00    -0.092 C 
BRANCH  17  18
HETATM   18  C12 UNL     1     -24.899 -13.071  -6.881  1.00  0.00     0.095 C 
BRANCH  18  19
HETATM   19  C13 UNL     1     -25.268 -12.332  -5.602  1.00  0.00     0.014 C 
BRANCH  19  20
HETATM   20  C14 UNL     1     -26.069 -11.088  -5.898  1.00  0.00     0.021 C 
BRANCH  20  21
HETATM   21  C15 UNL     1     -26.779 -11.335  -7.227  1.00  0.00     0.128 C 
BRANCH  21  22
HETATM   22  N3  UNL     1     -28.020 -10.591  -7.178  1.00  0.00    -0.366 N 
HETATM   23  C16 UNL     1     -28.873 -10.622  -8.228  1.00  0.00     0.090 A 
HETATM   24  C17 UNL     1     -30.043  -9.892  -8.122  1.00  0.00     0.017 A 
HETATM   25  C18 UNL     1     -30.323  -9.166  -6.987  1.00  0.00     0.003 A 
HETATM   26  C19 UNL     1     -29.429  -9.165  -5.951  1.00  0.00     0.017 A 
HETATM   27  C20 UNL     1     -28.275  -9.885  -6.056  1.00  0.00     0.090 A 
ENDBRANCH  21  22
ENDBRANCH  20  21
ENDBRANCH  19  20
ENDBRANCH  18  19
ENDBRANCH  17  18
ENDBRANCH   2  16
TORSDOF 13
ENDMDL
MODEL 2
REMARK VINA RESULT: -7.614196164      0.376      1.019
REMARK  13 active torsions:
REMARK  status: ('A' for Active; 'I' for Inactive)
REMARK    1  A    between atoms: O1_1  and  C1_3 
REMARK    2  A    between atoms: C1_3  and  C2_4 
REMARK    3  A    between atoms: N2_8  and  C4_9 
REMARK    4  A    between atoms: C4_9  and  C5_10 
REMARK    5  A    between atoms: C5_10  and  C6_11 
REMARK    6  A    between atoms: C6_11  and  C7_12 
REMARK    7  A    between atoms: C7_12  and  C8_13 
REMARK    8  A    between atoms: C9_14  and  C10_15 
REMARK    9  A    between atoms: C11_16  and  C12_17 
REMARK   10  A    between atoms: C12_17  and  C13_18 
REMARK   11  A    between atoms: C13_18  and  C14_19 
REMARK   12  A    between atoms: C14_19  and  C15_20 
REMARK   13  A    between atoms: C15_20  and  N3_21 
ROOT
HETATM    1  C8  UNL     1     -23.776 -18.142  -5.451  1.00  0.00    -0.092 C 
HETATM    2  C9  UNL     1     -24.070 -16.993  -5.788  1.00  0.00    -0.015 C 
ENDROOT
BRANCH   1   3
HETATM    3  C7  UNL     1     -23.481 -19.512  -5.074  1.00  0.00     0.095 C 
BRANCH   3   4
HETATM    4  C6  UNL     1     -22.732 -20.230  -6.130  1.00  0.00     0.014 C 
BRANCH   4   5
HETATM    5  C5  UNL     1     -21.589 -19.586  -6.784  1.00  0.00     0.023 C 
BRANCH   5   6
HETATM    6  C4  UNL     1     -21.533 -19.508  -8.259  1.00  0.00     0.148 C 
BRANCH   6   7
HETATM    7  N2  UNL     1     -21.943 -18.119  -8.607  1.00  0.00    -0.303 N 
HETATM    8  N1  UNL     1     -22.994 -17.758  -9.280  1.00  0.00    -0.309 N 
HETATM    9  C3  UNL     1     -23.057 -16.422  -9.410  1.00  0.00     0.118 A 
ATOM     10  H1  UNL     1     -23.684 -18.406  -9.660  1.00  0.00     0.186 HD
HETATM   11  C2  UNL     1     -21.935 -15.948  -8.752  1.00  0.00    -0.001 A 
HETATM   12  C21 UNL     1     -21.250 -17.020  -8.256  1.00  0.00     0.120 A 
BRANCH  11  13
HETATM   13  C1  UNL     1     -21.589 -14.505  -8.639  1.00  0.00     0.205 C 
BRANCH  13  14
HETATM   14  O1  UNL     1     -21.391 -13.956  -9.910  1.00  0.00    -0.396 OA
ATOM     15  H1  UNL     1     -20.527 -13.567  -9.968  1.00  0.00     0.209 HD
ENDBRANCH  13  14
ENDBRANCH  11  13
ENDBRANCH   6   7
ENDBRANCH   5   6
ENDBRANCH   4   5
ENDBRANCH   3   4
ENDBRANCH   1   3
BRANCH   2  16
HETATM   16  C10 UNL     1     -24.383 -15.669  -6.171  1.00  0.00    -0.015 C 
HETATM   17  C11 UNL     1     -24.629 -14.533  -6.496  1.00  0.00    -0.092 C 
BRANCH  17  18
HETATM   18  C12 UNL     1     -24.915 -13.142  -6.877  1.00  0.00     0.095 C 
BRANCH  18  19
HETATM   19  C13 UNL     1     -25.283 -12.407  -5.596  1.00  0.00     0.014 C 
BRANCH  19  20
HETATM   20  C14 UNL     1     -26.029 -11.129  -5.890  1.00  0.00     0.021 C 
BRANCH  20  21
HETATM   21  C15 UNL     1     -26.770 -11.352  -7.206  1.00  0.00     0.128 C 
BRANCH  21  22
HETATM   22  N3  UNL     1     -28.002 -10.596  -7.123  1.00  0.00    -0.366 N 
HETATM   23  C16 UNL     1     -28.305  -9.910  -5.997  1.00  0.00     0.090 A 
HETATM   24  C17 UNL     1     -29.495  -9.206  -5.979  1.00  0.00     0.017 A 
HETATM   25  C18 UNL     1     -30.334  -9.206  -7.069  1.00  0.00     0.003 A 
HETATM   26  C19 UNL     1     -29.984  -9.915  -8.187  1.00  0.00     0.017 A 
HETATM   27  C20 UNL     1     -28.811 -10.610  -8.204  1.00  0.00     0.090 A 
ENDBRANCH  21  22
ENDBRANCH  20  21
ENDBRANCH  19  20
ENDBRANCH  18  19
ENDBRANCH  17  18
ENDBRANCH   2  16
TORSDOF 13
ENDMDL
MODEL 3
REMARK VINA RESULT: -7.601231332      2.483      8.867
REMARK  13 active torsions:
REMARK  status: ('A' for Active; 'I' for Inactive)
REMARK    1  A    between atoms: O1_1  and  C1_3 
REMARK    2  A    between atoms: C1_3  and  C2_4 
REMARK    3  A    between atoms: N2_8  and  C4_9 
REMARK    4  A    between atoms: C4_9  and  C5_10 
REMARK    5  A    between atoms: C5_10  and  C6_11 
REMARK    6  A    between atoms: C6_11  and  C7_12 
REMARK    7  A    between atoms: C7_12  and  C8_13 
REMARK    8  A    between atoms: C9_14  and  C10_15 
REMARK    9  A    between atoms: C11_16  and  C12_17 
REMARK   10  A    between atoms: C12_17  and  C13_18 
REMARK   11  A    between atoms: C13_18  and  C14_19 
REMARK   12  A    between atoms: C14_19  and  C15_20 
REMARK   13  A    between atoms: C15_20  and  N3_21 
ROOT
HETATM    1  C8  UNL     1     -24.619 -14.518  -5.795  1.00  0.00    -0.092 C 
HETATM    2  C9  UNL     1     -23.626 -14.946  -6.389  1.00  0.00    -0.015 C 
ENDROOT
BRANCH   1   3
HETATM    3  C7  UNL     1     -25.811 -14.066  -5.102  1.00  0.00     0.095 C 
BRANCH   3   4
HETATM    4  C6  UNL     1     -25.755 -12.621  -4.786  1.00  0.00     0.014 C 
BRANCH   4   5
HETATM    5  C5  UNL     1     -25.398 -11.656  -5.830  1.00  0.00     0.023 C 
BRANCH   5   6
HETATM    6  C4  UNL     1     -25.973 -10.294  -5.801  1.00  0.00     0.148 C 
BRANCH   6   7
HETATM    7  N2  UNL     1     -27.205 -10.356  -6.634  1.00  0.00    -0.303 N 
HETATM    8  N1  UNL     1     -27.294 -10.744  -7.871  1.00  0.00    -0.309 N 
HETATM    9  C3  UNL     1     -28.561 -10.673  -8.315  1.00  0.00     0.118 A 
ATOM     10  H1  UNL     1     -26.505 -11.060  -8.433  1.00  0.00     0.186 HD
HETATM   11  C2  UNL     1     -29.290 -10.198  -7.237  1.00  0.00    -0.001 A 
HETATM   12  C21 UNL     1     -28.428 -10.006  -6.196  1.00  0.00     0.120 A 
BRANCH  11  13
HETATM   13  C1  UNL     1     -30.758  -9.960  -7.271  1.00  0.00     0.205 C 
BRANCH  13  14
HETATM   14  O1  UNL     1     -31.021  -8.617  -7.561  1.00  0.00    -0.396 OA
ATOM     15  H1  UNL     1     -31.825  -8.541  -8.060  1.00  0.00     0.209 HD
ENDBRANCH  13  14
ENDBRANCH  11  13
ENDBRANCH   6   7
ENDBRANCH   5   6
ENDBRANCH   4   5
ENDBRANCH   3   4
ENDBRANCH   1   3
BRANCH   2  16
HETATM   16  C10 UNL     1     -22.475 -15.416  -7.061  1.00  0.00    -0.015 C 
HETATM   17  C11 UNL     1     -21.501 -15.813  -7.655  1.00  0.00    -0.092 C 
BRANCH  17  18
HETATM   18  C12 UNL     1     -20.328 -16.305  -8.391  1.00  0.00     0.095 C 
BRANCH  18  19
HETATM   19  C13 UNL     1     -20.377 -17.825  -8.320  1.00  0.00     0.014 C 
BRANCH  19  20
HETATM   20  C14 UNL     1     -21.555 -18.374  -9.086  1.00  0.00     0.021 C 
BRANCH  20  21
HETATM   21  C15 UNL     1     -21.922 -19.700  -8.424  1.00  0.00     0.128 C 
BRANCH  21  22
HETATM   22  N3  UNL     1     -22.631 -19.373  -7.205  1.00  0.00    -0.366 N 
HETATM   23  C16 UNL     1     -22.087 -19.663  -6.001  1.00  0.00     0.090 A 
HETATM   24  C17 UNL     1     -22.812 -19.325  -4.873  1.00  0.00     0.017 A 
HETATM   25  C18 UNL     1     -24.041 -18.716  -4.979  1.00  0.00     0.003 A 
HETATM   26  C19 UNL     1     -24.551 -18.441  -6.219  1.00  0.00     0.017 A 
HETATM   27  C20 UNL     1     -23.836 -18.775  -7.331  1.00  0.00     0.090 A 
ENDBRANCH  21  22
ENDBRANCH  20  21
ENDBRANCH  19  20
ENDBRANCH  18  19
ENDBRANCH  17  18
ENDBRANCH   2  16
TORSDOF 13
ENDMDL
MODEL 4
REMARK VINA RESULT: -7.589831010      1.688      2.138
REMARK  13 active torsions:
REMARK  status: ('A' for Active; 'I' for Inactive)
REMARK    1  A    between atoms: O1_1  and  C1_3 
REMARK    2  A    between atoms: C1_3  and  C2_4 
REMARK    3  A    between atoms: N2_8  and  C4_9 
REMARK    4  A    between atoms: C4_9  and  C5_10 
REMARK    5  A    between atoms: C5_10  and  C6_11 
REMARK    6  A    between atoms: C6_11  and  C7_12 
REMARK    7  A    between atoms: C7_12  and  C8_13 
REMARK    8  A    between atoms: C9_14  and  C10_15 
REMARK    9  A    between atoms: C11_16  and  C12_17 
REMARK   10  A    between atoms: C12_17  and  C13_18 
REMARK   11  A    between atoms: C13_18  and  C14_19 
REMARK   12  A    between atoms: C14_19  and  C15_20 
REMARK   13  A    between atoms: C15_20  and  N3_21 
ROOT
HETATM    1  C8  UNL     1     -24.556 -19.240  -7.538  1.00  0.00    -0.092 C 
HETATM    2  C9  UNL     1     -24.555 -18.060  -7.178  1.00  0.00    -0.015 C 
ENDROOT
BRANCH   1   3
HETATM    3  C7  UNL     1     -24.580 -20.611  -8.012  1.00  0.00     0.095 C 
BRANCH   3   4
HETATM    4  C6  UNL     1     -23.276 -21.026  -8.578  1.00  0.00     0.014 C 
BRANCH   4   5
HETATM    5  C5  UNL     1     -22.563 -20.138  -9.501  1.00  0.00     0.023 C 
BRANCH   5   6
HETATM    6  C4  UNL     1     -21.164 -19.750  -9.216  1.00  0.00     0.148 C 
BRANCH   6   7
HETATM    7  N2  UNL     1     -21.219 -18.327  -8.782  1.00  0.00    -0.303 N 
HETATM    8  N1  UNL     1     -21.758 -17.334  -9.423  1.00  0.00    -0.309 N 
HETATM    9  C3  UNL     1     -21.627 -16.183  -8.741  1.00  0.00     0.118 A 
ATOM     10  H1  UNL     1     -22.221 -17.416 -10.327  1.00  0.00     0.186 HD
HETATM   11  C2  UNL     1     -20.946 -16.530  -7.586  1.00  0.00    -0.001 A 
HETATM   12  C21 UNL     1     -20.699 -17.872  -7.628  1.00  0.00     0.120 A 
BRANCH  11  13
HETATM   13  C1  UNL     1     -20.575 -15.560  -6.521  1.00  0.00     0.205 C 
BRANCH  13  14
HETATM   14  O1  UNL     1     -19.532 -14.737  -6.960  1.00  0.00    -0.396 OA
ATOM     15  H1  UNL     1     -19.140 -14.284  -6.223  1.00  0.00     0.209 HD
ENDBRANCH  13  14
ENDBRANCH  11  13
ENDBRANCH   6   7
ENDBRANCH   5   6
ENDBRANCH   4   5
ENDBRANCH   3   4
ENDBRANCH   1   3
BRANCH   2  16
HETATM   16  C10 UNL     1     -24.538 -16.715  -6.746  1.00  0.00    -0.015 C 
HETATM   17  C11 UNL     1     -24.524 -15.559  -6.397  1.00  0.00    -0.092 C 
BRANCH  17  18
HETATM   18  C12 UNL     1     -24.494 -14.148  -5.988  1.00  0.00     0.095 C 
BRANCH  18  19
HETATM   19  C13 UNL     1     -25.683 -13.938  -5.061  1.00  0.00     0.014 C 
BRANCH  19  20
HETATM   20  C14 UNL     1     -25.805 -12.495  -4.639  1.00  0.00     0.021 C 
BRANCH  20  21
HETATM   21  C15 UNL     1     -25.395 -11.654  -5.846  1.00  0.00     0.128 C 
BRANCH  21  22
HETATM   22  N3  UNL     1     -26.619 -11.261  -6.512  1.00  0.00    -0.366 N 
HETATM   23  C16 UNL     1     -26.876 -11.685  -7.771  1.00  0.00     0.090 A 
HETATM   24  C17 UNL     1     -28.062 -11.277  -8.353  1.00  0.00     0.017 A 
HETATM   25  C18 UNL     1     -28.943 -10.471  -7.671  1.00  0.00     0.003 A 
HETATM   26  C19 UNL     1     -28.641 -10.067  -6.399  1.00  0.00     0.017 A 
HETATM   27  C20 UNL     1     -27.471 -10.470  -5.825  1.00  0.00     0.090 A 
ENDBRANCH  21  22
ENDBRANCH  20  21
ENDBRANCH  19  20
ENDBRANCH  18  19
ENDBRANCH  17  18
ENDBRANCH   2  16
TORSDOF 13
ENDMDL
MODEL 5
REMARK VINA RESULT: -7.512294640      2.279      8.674
REMARK  13 active torsions:
REMARK  status: ('A' for Active; 'I' for Inactive)
REMARK    1  A    between atoms: O1_1  and  C1_3 
REMARK    2  A    between atoms: C1_3  and  C2_4 
REMARK    3  A    between atoms: N2_8  and  C4_9 
REMARK    4  A    between atoms: C4_9  and  C5_10 
REMARK    5  A    between atoms: C5_10  and  C6_11 
REMARK    6  A    between atoms: C6_11  and  C7_12 
REMARK    7  A    between atoms: C7_12  and  C8_13 
REMARK    8  A    between atoms: C9_14  and  C10_15 
REMARK    9  A    between atoms: C11_16  and  C12_17 
REMARK   10  A    between atoms: C12_17  and  C13_18 
REMARK   11  A    between atoms: C13_18  and  C14_19 
REMARK   12  A    between atoms: C14_19  and  C15_20 
REMARK   13  A    between atoms: C15_20  and  N3_21 
ROOT
HETATM    1  C8  UNL     1     -24.678 -14.838  -6.165  1.00  0.00    -0.092 C 
HETATM    2  C9  UNL     1     -24.298 -15.999  -5.994  1.00  0.00    -0.015 C 
ENDROOT
BRANCH   1   3
HETATM    3  C7  UNL     1     -25.082 -13.455  -6.333  1.00  0.00     0.095 C 
BRANCH   3   4
HETATM    4  C6  UNL     1     -25.332 -12.788  -5.035  1.00  0.00     0.014 C 
BRANCH   4   5
HETATM    5  C5  UNL     1     -26.223 -11.625  -4.969  1.00  0.00     0.023 C 
BRANCH   5   6
HETATM    6  C4  UNL     1     -26.033 -10.498  -5.906  1.00  0.00     0.148 C 
BRANCH   6   7
HETATM    7  N2  UNL     1     -27.261 -10.458  -6.747  1.00  0.00    -0.303 N 
HETATM    8  N1  UNL     1     -27.353 -10.744  -8.012  1.00  0.00    -0.309 N 
HETATM    9  C3  UNL     1     -28.614 -10.602  -8.455  1.00  0.00     0.118 A 
ATOM     10  H1  UNL     1     -26.569 -11.039  -8.593  1.00  0.00     0.186 HD
HETATM   11  C2  UNL     1     -29.336 -10.193  -7.346  1.00  0.00    -0.001 A 
HETATM   12  C21 UNL     1     -28.476 -10.108  -6.289  1.00  0.00     0.120 A 
BRANCH  11  13
HETATM   13  C1  UNL     1     -30.796  -9.910  -7.368  1.00  0.00     0.205 C 
BRANCH  13  14
HETATM   14  O1  UNL     1     -31.019  -8.537  -7.526  1.00  0.00    -0.396 OA
ATOM     15  H1  UNL     1     -31.454  -8.186  -6.758  1.00  0.00     0.209 HD
ENDBRANCH  13  14
ENDBRANCH  11  13
ENDBRANCH   6   7
ENDBRANCH   5   6
ENDBRANCH   4   5
ENDBRANCH   3   4
ENDBRANCH   1   3
BRANCH   2  16
HETATM   16  C10 UNL     1     -23.877 -17.336  -5.819  1.00  0.00    -0.015 C 
HETATM   17  C11 UNL     1     -23.498 -18.472  -5.663  1.00  0.00    -0.092 C 
BRANCH  17  18
HETATM   18  C12 UNL     1     -23.018 -19.850  -5.483  1.00  0.00     0.095 C 
BRANCH  18  19
HETATM   19  C13 UNL     1     -21.616 -19.903  -6.073  1.00  0.00     0.014 C 
BRANCH  19  20
HETATM   20  C14 UNL     1     -21.636 -19.665  -7.563  1.00  0.00     0.021 C 
BRANCH  20  21
HETATM   21  C15 UNL     1     -20.533 -18.651  -7.855  1.00  0.00     0.128 C 
BRANCH  21  22
HETATM   22  N3  UNL     1     -21.192 -17.427  -8.260  1.00  0.00    -0.366 N 
HETATM   23  C16 UNL     1     -20.704 -16.228  -7.867  1.00  0.00     0.090 A 
HETATM   24  C17 UNL     1     -21.377 -15.095  -8.287  1.00  0.00     0.017 A 
HETATM   25  C18 UNL     1     -22.500 -15.192  -9.077  1.00  0.00     0.003 A 
HETATM   26  C19 UNL     1     -22.956 -16.427  -9.450  1.00  0.00     0.017 A 
HETATM   27  C20 UNL     1     -22.292 -17.544  -9.036  1.00  0.00     0.090 A 
ENDBRANCH  21  22
ENDBRANCH  20  21
ENDBRANCH  19  20
ENDBRANCH  18  19
ENDBRANCH  17  18
ENDBRANCH   2  16
TORSDOF 13
ENDMDL
