MODEL 1
REMARK VINA RESULT: -8.166528436      0.000      0.000
REMARK  7 active torsions:
REMARK  status: ('A' for Active; 'I' for Inactive)
REMARK    1  A    between atoms: C2_4  and  C3_5 
REMARK    2  A    between atoms: C2_4  and  N6_21 
REMARK    3  A    between atoms: C3_5  and  N2_6 
REMARK       I    between atoms: N2_6  and  C4_8 
REMARK       I    between atoms: C4_8  and  N4_12 
REMARK       I    between atoms: N4_12  and  C5_14 
REMARK    4  A    between atoms: C5_14  and  C6_16 
REMARK    5  A    between atoms: C6_16  and  N5_17 
REMARK    6  A    between atoms: N6_21  and  C7_23 
REMARK    7  A    between atoms: C7_23  and  N7_25 
ROOT
HETATM    1  N2  UNL     1      20.115 -27.084 -17.991  1.00  0.00    -0.219 N 
ATOM      2  H2  UNL     1      20.606 -26.372 -17.449  1.00  0.00     0.178 HD
HETATM    3  C4  UNL     1      20.432 -27.311 -19.366  1.00  0.00     0.674 C 
HETATM    4  N3  UNL     1      19.725 -26.860 -20.325  1.00  0.00    -0.235 N 
ATOM      5  H31 UNL     1      19.951 -27.023 -21.306  1.00  0.00     0.174 HD
ATOM      6  H32 UNL     1      18.892 -26.312 -20.110  1.00  0.00     0.174 HD
HETATM    7  N4  UNL     1      21.587 -28.072 -19.663  1.00  0.00    -0.159 N 
ATOM      8  H4  UNL     1      21.840 -28.251 -20.635  1.00  0.00     0.187 HD
HETATM    9  C5  UNL     1      22.385 -28.580 -18.633  1.00  0.00     0.261 C 
HETATM   10  O1  UNL     1      22.127 -28.394 -17.415  1.00  0.00    -0.271 OA
ENDROOT
BRANCH   1  11
HETATM   11  C3  UNL     1      19.078 -27.895 -17.393  1.00  0.00     0.214 C 
BRANCH  11  12
HETATM   12  C2  UNL     1      18.393 -27.151 -16.313  1.00  0.00     0.097 C 
HETATM   13  N1  UNL     1      18.879 -27.171 -15.120  1.00  0.00    -0.383 N 
HETATM   14  C1  UNL     1      20.072 -27.880 -14.742  1.00  0.00     0.147 C 
ATOM     15  H1  UNL     1      18.386 -26.649 -14.396  1.00  0.00     0.160 HD
BRANCH  12  16
HETATM   16  N6  UNL     1      17.207 -26.422 -16.610  1.00  0.00    -0.322 N 
ATOM     17  H6  UNL     1      17.264 -25.584 -17.187  1.00  0.00     0.169 HD
BRANCH  16  18
HETATM   18  C7  UNL     1      15.951 -26.845 -16.116  1.00  0.00     0.179 C 
HETATM   19  S1  UNL     1      15.489 -28.397 -16.197  1.00  0.00    -0.040 SA
BRANCH  18  20
HETATM   20  N7  UNL     1      15.080 -25.898 -15.545  1.00  0.00    -0.310 N 
HETATM   21  C8  UNL     1      15.274 -25.496 -14.346  1.00  0.00     0.203 C 
HETATM   22  N8  UNL     1      14.380 -24.544 -13.801  1.00  0.00    -0.066 NA
HETATM   23  N9  UNL     1      16.364 -26.010 -13.603  1.00  0.00    -0.066 NA
ATOM     24  H7  UNL     1      14.296 -25.532 -16.086  1.00  0.00     0.170 HD
ENDBRANCH  18  20
ENDBRANCH  16  18
ENDBRANCH  12  16
ENDBRANCH  11  12
ENDBRANCH   1  11
BRANCH   9  25
HETATM   25  C6  UNL     1      23.590 -29.373 -18.953  1.00  0.00     0.332 C 
BRANCH  25  26
HETATM   26  N5  UNL     1      23.324 -30.220 -20.074  1.00  0.00    -0.071 N 
ATOM     27  H53 UNL     1      23.183 -29.687 -20.933  1.00  0.00     0.274 HD
ATOM     28  H52 UNL     1      24.150 -30.746 -20.362  1.00  0.00     0.274 HD
ATOM     29  H51 UNL     1      22.534 -30.830 -19.864  1.00  0.00     0.274 HD
ENDBRANCH  25  26
ENDBRANCH   9  25
TORSDOF 7
ENDMDL
MODEL 2
REMARK VINA RESULT: -7.646314383      3.689      5.877
REMARK  7 active torsions:
REMARK  status: ('A' for Active; 'I' for Inactive)
REMARK    1  A    between atoms: C2_4  and  C3_5 
REMARK    2  A    between atoms: C2_4  and  N6_21 
REMARK    3  A    between atoms: C3_5  and  N2_6 
REMARK       I    between atoms: N2_6  and  C4_8 
REMARK       I    between atoms: C4_8  and  N4_12 
REMARK       I    between atoms: N4_12  and  C5_14 
REMARK    4  A    between atoms: C5_14  and  C6_16 
REMARK    5  A    between atoms: C6_16  and  N5_17 
REMARK    6  A    between atoms: N6_21  and  C7_23 
REMARK    7  A    between atoms: C7_23  and  N7_25 
ROOT
HETATM    1  N2  UNL     1      16.601 -29.278 -15.052  1.00  0.00    -0.219 N 
ATOM      2  H2  UNL     1      16.975 -29.847 -15.812  1.00  0.00     0.178 HD
HETATM    3  C4  UNL     1      15.272 -29.477 -14.567  1.00  0.00     0.674 C 
HETATM    4  N3  UNL     1      14.294 -28.728 -14.892  1.00  0.00    -0.235 N 
ATOM      5  H31 UNL     1      13.346 -28.871 -14.546  1.00  0.00     0.174 HD
ATOM      6  H32 UNL     1      14.459 -27.946 -15.526  1.00  0.00     0.174 HD
HETATM    7  N4  UNL     1      15.043 -30.563 -13.688  1.00  0.00    -0.159 N 
ATOM      8  H4  UNL     1      14.105 -30.732 -13.326  1.00  0.00     0.187 HD
HETATM    9  C5  UNL     1      16.095 -31.404 -13.314  1.00  0.00     0.261 C 
HETATM   10  O1  UNL     1      17.274 -31.249 -13.726  1.00  0.00    -0.271 OA
ENDROOT
BRANCH   1  11
HETATM   11  C3  UNL     1      17.398 -28.243 -14.431  1.00  0.00     0.214 C 
BRANCH  11  12
HETATM   12  C2  UNL     1      17.711 -27.173 -15.404  1.00  0.00     0.097 C 
HETATM   13  N1  UNL     1      18.940 -26.924 -15.702  1.00  0.00    -0.383 N 
HETATM   14  C1  UNL     1      20.067 -27.625 -15.149  1.00  0.00     0.147 C 
ATOM     15  H1  UNL     1      19.125 -26.181 -16.375  1.00  0.00     0.160 HD
BRANCH  12  16
HETATM   16  N6  UNL     1      16.648 -26.435 -15.997  1.00  0.00    -0.322 N 
ATOM     17  H6  UNL     1      16.194 -26.796 -16.836  1.00  0.00     0.169 HD
BRANCH  16  18
HETATM   18  C7  UNL     1      16.213 -25.210 -15.441  1.00  0.00     0.179 C 
HETATM   19  S1  UNL     1      17.091 -23.855 -15.588  1.00  0.00    -0.040 SA
BRANCH  18  20
HETATM   20  N7  UNL     1      14.992 -25.165 -14.741  1.00  0.00    -0.310 N 
HETATM   21  C8  UNL     1      14.989 -25.207 -13.463  1.00  0.00     0.203 C 
HETATM   22  N8  UNL     1      13.745 -25.160 -12.790  1.00  0.00    -0.066 NA
HETATM   23  N9  UNL     1      16.215 -25.299 -12.762  1.00  0.00    -0.066 NA
ATOM     24  H7  UNL     1      14.112 -25.099 -15.253  1.00  0.00     0.170 HD
ENDBRANCH  18  20
ENDBRANCH  16  18
ENDBRANCH  12  16
ENDBRANCH  11  12
ENDBRANCH   1  11
BRANCH   9  25
HETATM   25  C6  UNL     1      15.847 -32.535 -12.395  1.00  0.00     0.332 C 
BRANCH  25  26
HETATM   26  N5  UNL     1      14.457 -32.591 -12.066  1.00  0.00    -0.071 N 
ATOM     27  H53 UNL     1      14.242 -33.363 -11.434  1.00  0.00     0.274 HD
ATOM     28  H52 UNL     1      14.174 -31.821 -11.458  1.00  0.00     0.274 HD
ATOM     29  H51 UNL     1      13.902 -32.628 -12.921  1.00  0.00     0.274 HD
ENDBRANCH  25  26
ENDBRANCH   9  25
TORSDOF 7
ENDMDL
MODEL 3
REMARK VINA RESULT: -7.397061350      2.937      4.164
REMARK  7 active torsions:
REMARK  status: ('A' for Active; 'I' for Inactive)
REMARK    1  A    between atoms: C2_4  and  C3_5 
REMARK    2  A    between atoms: C2_4  and  N6_21 
REMARK    3  A    between atoms: C3_5  and  N2_6 
REMARK       I    between atoms: N2_6  and  C4_8 
REMARK       I    between atoms: C4_8  and  N4_12 
REMARK       I    between atoms: N4_12  and  C5_14 
REMARK    4  A    between atoms: C5_14  and  C6_16 
REMARK    5  A    between atoms: C6_16  and  N5_17 
REMARK    6  A    between atoms: N6_21  and  C7_23 
REMARK    7  A    between atoms: C7_23  and  N7_25 
ROOT
HETATM    1  N2  UNL     1      18.982 -28.077 -15.729  1.00  0.00    -0.219 N 
ATOM      2  H2  UNL     1      18.489 -28.934 -15.979  1.00  0.00     0.178 HD
HETATM    3  C4  UNL     1      20.403 -27.984 -15.845  1.00  0.00     0.674 C 
HETATM    4  N3  UNL     1      21.189 -28.090 -14.848  1.00  0.00    -0.235 N 
ATOM      5  H31 UNL     1      22.203 -28.023 -14.930  1.00  0.00     0.174 HD
ATOM      6  H32 UNL     1      20.794 -28.247 -13.921  1.00  0.00     0.174 HD
HETATM    7  N4  UNL     1      20.951 -27.765 -17.131  1.00  0.00    -0.159 N 
ATOM      8  H4  UNL     1      21.961 -27.695 -17.246  1.00  0.00     0.187 HD
HETATM    9  C5  UNL     1      20.115 -27.646 -18.246  1.00  0.00     0.261 C 
HETATM   10  O1  UNL     1      18.860 -27.723 -18.170  1.00  0.00    -0.271 OA
ENDROOT
BRANCH   1  11
HETATM   11  C3  UNL     1      18.265 -26.916 -15.247  1.00  0.00     0.214 C 
BRANCH  11  12
HETATM   12  C2  UNL     1      17.077 -27.326 -14.467  1.00  0.00     0.097 C 
HETATM   13  N1  UNL     1      16.206 -26.440 -14.123  1.00  0.00    -0.383 N 
HETATM   14  C1  UNL     1      16.299 -25.042 -14.447  1.00  0.00     0.147 C 
ATOM     15  H1  UNL     1      15.397 -26.751 -13.585  1.00  0.00     0.160 HD
BRANCH  12  16
HETATM   16  N6  UNL     1      16.913 -28.693 -14.109  1.00  0.00    -0.322 N 
ATOM     17  H6  UNL     1      17.529 -29.107 -13.409  1.00  0.00     0.169 HD
BRANCH  16  18
HETATM   18  C7  UNL     1      15.908 -29.487 -14.709  1.00  0.00     0.179 C 
HETATM   19  S1  UNL     1      15.637 -29.443 -16.307  1.00  0.00    -0.040 SA
BRANCH  18  20
HETATM   20  N7  UNL     1      15.123 -30.333 -13.902  1.00  0.00    -0.310 N 
HETATM   21  C8  UNL     1      15.658 -31.342 -13.328  1.00  0.00     0.203 C 
HETATM   22  N8  UNL     1      14.841 -32.173 -12.524  1.00  0.00    -0.066 NA
HETATM   23  N9  UNL     1      17.038 -31.601 -13.510  1.00  0.00    -0.066 NA
ATOM     24  H7  UNL     1      14.129 -30.141 -13.776  1.00  0.00     0.170 HD
ENDBRANCH  18  20
ENDBRANCH  16  18
ENDBRANCH  12  16
ENDBRANCH  11  12
ENDBRANCH   1  11
BRANCH   9  25
HETATM   25  C6  UNL     1      20.695 -27.418 -19.585  1.00  0.00     0.332 C 
BRANCH  25  26
HETATM   26  N5  UNL     1      19.715 -26.821 -20.439  1.00  0.00    -0.071 N 
ATOM     27  H53 UNL     1      18.806 -26.742 -19.983  1.00  0.00     0.274 HD
ATOM     28  H52 UNL     1      19.891 -25.828 -20.590  1.00  0.00     0.274 HD
ATOM     29  H51 UNL     1      19.663 -27.340 -21.316  1.00  0.00     0.274 HD
ENDBRANCH  25  26
ENDBRANCH   9  25
TORSDOF 7
ENDMDL
MODEL 4
REMARK VINA RESULT: -7.390241637      1.955      2.589
REMARK  7 active torsions:
REMARK  status: ('A' for Active; 'I' for Inactive)
REMARK    1  A    between atoms: C2_4  and  C3_5 
REMARK    2  A    between atoms: C2_4  and  N6_21 
REMARK    3  A    between atoms: C3_5  and  N2_6 
REMARK       I    between atoms: N2_6  and  C4_8 
REMARK       I    between atoms: C4_8  and  N4_12 
REMARK       I    between atoms: N4_12  and  C5_14 
REMARK    4  A    between atoms: C5_14  and  C6_16 
REMARK    5  A    between atoms: C6_16  and  N5_17 
REMARK    6  A    between atoms: N6_21  and  C7_23 
REMARK    7  A    between atoms: C7_23  and  N7_25 
ROOT
HETATM    1  N2  UNL     1      19.439 -28.283 -15.249  1.00  0.00    -0.219 N 
ATOM      2  H2  UNL     1      20.085 -28.346 -14.461  1.00  0.00     0.178 HD
HETATM    3  C4  UNL     1      19.533 -27.216 -16.195  1.00  0.00     0.674 C 
HETATM    4  N3  UNL     1      18.764 -26.201 -16.175  1.00  0.00    -0.235 N 
ATOM      5  H31 UNL     1      18.831 -25.440 -16.851  1.00  0.00     0.174 HD
ATOM      6  H32 UNL     1      18.044 -26.139 -15.455  1.00  0.00     0.174 HD
HETATM    7  N4  UNL     1      20.531 -27.302 -17.194  1.00  0.00    -0.159 N 
ATOM      8  H4  UNL     1      20.624 -26.557 -17.883  1.00  0.00     0.187 HD
HETATM    9  C5  UNL     1      21.392 -28.403 -17.242  1.00  0.00     0.261 C 
HETATM   10  O1  UNL     1      21.329 -29.355 -16.420  1.00  0.00    -0.271 OA
ENDROOT
BRANCH   1  11
HETATM   11  C3  UNL     1      18.399 -29.269 -15.443  1.00  0.00     0.214 C 
BRANCH  11  12
HETATM   12  C2  UNL     1      17.280 -29.038 -14.503  1.00  0.00     0.097 C 
HETATM   13  N1  UNL     1      16.739 -30.040 -13.899  1.00  0.00    -0.383 N 
HETATM   14  C1  UNL     1      17.149 -31.407 -14.070  1.00  0.00     0.147 C 
ATOM     15  H1  UNL     1      15.970 -29.850 -13.257  1.00  0.00     0.160 HD
BRANCH  12  16
HETATM   16  N6  UNL     1      16.818 -27.710 -14.279  1.00  0.00    -0.322 N 
ATOM     17  H6  UNL     1      17.343 -27.094 -13.658  1.00  0.00     0.169 HD
BRANCH  16  18
HETATM   18  C7  UNL     1      15.644 -27.232 -14.905  1.00  0.00     0.179 C 
HETATM   19  S1  UNL     1      15.279 -27.629 -16.434  1.00  0.00    -0.040 SA
BRANCH  18  20
HETATM   20  N7  UNL     1      14.772 -26.392 -14.187  1.00  0.00    -0.310 N 
HETATM   21  C8  UNL     1      15.008 -25.137 -14.122  1.00  0.00     0.203 C 
HETATM   22  N8  UNL     1      14.112 -24.319 -13.393  1.00  0.00    -0.066 NA
HETATM   23  N9  UNL     1      16.146 -24.603 -14.774  1.00  0.00    -0.066 NA
ATOM     24  H7  UNL     1      13.954 -26.783 -13.720  1.00  0.00     0.170 HD
ENDBRANCH  18  20
ENDBRANCH  16  18
ENDBRANCH  12  16
ENDBRANCH  11  12
ENDBRANCH   1  11
BRANCH   9  25
HETATM   25  C6  UNL     1      22.432 -28.485 -18.288  1.00  0.00     0.332 C 
BRANCH  25  26
HETATM   26  N5  UNL     1      21.880 -28.089 -19.546  1.00  0.00    -0.071 N 
ATOM     27  H53 UNL     1      22.303 -27.230 -19.898  1.00  0.00     0.274 HD
ATOM     28  H52 UNL     1      22.162 -28.713 -20.303  1.00  0.00     0.274 HD
ATOM     29  H51 UNL     1      20.865 -28.015 -19.468  1.00  0.00     0.274 HD
ENDBRANCH  25  26
ENDBRANCH   9  25
TORSDOF 7
ENDMDL
MODEL 5
REMARK VINA RESULT: -7.389951512      1.468      1.887
REMARK  7 active torsions:
REMARK  status: ('A' for Active; 'I' for Inactive)
REMARK    1  A    between atoms: C2_4  and  C3_5 
REMARK    2  A    between atoms: C2_4  and  N6_21 
REMARK    3  A    between atoms: C3_5  and  N2_6 
REMARK       I    between atoms: N2_6  and  C4_8 
REMARK       I    between atoms: C4_8  and  N4_12 
REMARK       I    between atoms: N4_12  and  C5_14 
REMARK    4  A    between atoms: C5_14  and  C6_16 
REMARK    5  A    between atoms: C6_16  and  N5_17 
REMARK    6  A    between atoms: N6_21  and  C7_23 
REMARK    7  A    between atoms: C7_23  and  N7_25 
ROOT
HETATM    1  N2  UNL     1      20.163 -27.048 -17.969  1.00  0.00    -0.219 N 
ATOM      2  H2  UNL     1      20.676 -26.325 -17.462  1.00  0.00     0.178 HD
HETATM    3  C4  UNL     1      20.434 -27.316 -19.345  1.00  0.00     0.674 C 
HETATM    4  N3  UNL     1      19.700 -26.886 -20.294  1.00  0.00    -0.235 N 
ATOM      5  H31 UNL     1      19.894 -27.077 -21.277  1.00  0.00     0.174 HD
ATOM      6  H32 UNL     1      18.879 -26.325 -20.069  1.00  0.00     0.174 HD
HETATM    7  N4  UNL     1      21.574 -28.094 -19.658  1.00  0.00    -0.159 N 
ATOM      8  H4  UNL     1      21.794 -28.302 -20.631  1.00  0.00     0.187 HD
HETATM    9  C5  UNL     1      22.400 -28.580 -18.639  1.00  0.00     0.261 C 
HETATM   10  O1  UNL     1      22.182 -28.358 -17.419  1.00  0.00    -0.271 OA
ENDROOT
BRANCH   1  11
HETATM   11  C3  UNL     1      19.139 -27.834 -17.316  1.00  0.00     0.214 C 
BRANCH  11  12
HETATM   12  C2  UNL     1      18.615 -27.123 -16.128  1.00  0.00     0.097 C 
HETATM   13  N1  UNL     1      19.239 -27.217 -15.004  1.00  0.00    -0.383 N 
HETATM   14  C1  UNL     1      20.441 -27.981 -14.805  1.00  0.00     0.147 C 
ATOM     15  H1  UNL     1      18.855 -26.716 -14.204  1.00  0.00     0.160 HD
BRANCH  12  16
HETATM   16  N6  UNL     1      17.430 -26.344 -16.247  1.00  0.00    -0.322 N 
ATOM     17  H6  UNL     1      17.249 -25.834 -17.111  1.00  0.00     0.169 HD
BRANCH  16  18
HETATM   18  C7  UNL     1      16.500 -26.267 -15.184  1.00  0.00     0.179 C 
HETATM   19  S1  UNL     1      16.033 -24.841 -14.571  1.00  0.00    -0.040 SA
BRANCH  18  20
HETATM   20  N7  UNL     1      15.970 -27.454 -14.644  1.00  0.00    -0.310 N 
HETATM   21  C8  UNL     1      15.105 -28.124 -15.306  1.00  0.00     0.203 C 
HETATM   22  N8  UNL     1      14.591 -29.313 -14.735  1.00  0.00    -0.066 NA
HETATM   23  N9  UNL     1      14.687 -27.664 -16.578  1.00  0.00    -0.066 NA
ATOM     24  H7  UNL     1      16.275 -27.779 -13.727  1.00  0.00     0.170 HD
ENDBRANCH  18  20
ENDBRANCH  16  18
ENDBRANCH  12  16
ENDBRANCH  11  12
ENDBRANCH   1  11
BRANCH   9  25
HETATM   25  C6  UNL     1      23.588 -29.392 -18.974  1.00  0.00     0.332 C 
BRANCH  25  26
HETATM   26  N5  UNL     1      23.290 -30.247 -20.081  1.00  0.00    -0.071 N 
ATOM     27  H53 UNL     1      22.495 -29.909 -20.625  1.00  0.00     0.274 HD
ATOM     28  H52 UNL     1      24.001 -30.193 -20.810  1.00  0.00     0.274 HD
ATOM     29  H51 UNL     1      23.151 -31.202 -19.749  1.00  0.00     0.274 HD
ENDBRANCH  25  26
ENDBRANCH   9  25
TORSDOF 7
ENDMDL
