MODEL 1
REMARK VINA RESULT: -7.452825625      0.000      0.000
REMARK  5 active torsions:
REMARK  status: ('A' for Active; 'I' for Inactive)
REMARK    1  A    between atoms: C2_2  and  N1_5 
REMARK       I    between atoms: N1_5  and  C5_7 
REMARK       I    between atoms: C5_7  and  N2_9 
REMARK    2  A    between atoms: N2_9  and  N3_11 
REMARK       I    between atoms: N3_11  and  C6_13 
REMARK    3  A    between atoms: C6_13  and  C7_15 
REMARK    4  A    between atoms: C7_15  and  N4_16 
REMARK       I    between atoms: C8_18  and  N6_20 
REMARK       I    between atoms: N6_20  and  C9_22 
REMARK    5  A    between atoms: C9_22  and  C10_24 
ROOT
HETATM    1  N3  UNL     1      14.824 -27.762 -15.492  1.00  0.00    -0.265 N 
ATOM      2  H3  UNL     1      15.132 -27.941 -16.448  1.00  0.00     0.190 HD
HETATM    3  C6  UNL     1      14.946 -26.445 -14.989  1.00  0.00     0.253 C 
HETATM    4  O2  UNL     1      14.574 -26.198 -13.821  1.00  0.00    -0.270 OA
ENDROOT
BRANCH   3   5
HETATM    5  C7  UNL     1      15.509 -25.374 -15.841  1.00  0.00     0.226 C 
BRANCH   5   6
HETATM    6  N4  UNL     1      16.540 -25.835 -16.718  1.00  0.00    -0.356 N 
HETATM    7  C8  UNL     1      17.600 -26.392 -16.270  1.00  0.00     0.191 C 
HETATM    8  N5  UNL     1      17.765 -26.560 -14.867  1.00  0.00    -0.063 NA
HETATM    9  N6  UNL     1      18.619 -26.844 -17.159  1.00  0.00    -0.293 N 
HETATM   10  C9  UNL     1      19.786 -27.458 -16.670  1.00  0.00     0.312 C 
ATOM     11  H6  UNL     1      18.500 -26.721 -18.165  1.00  0.00     0.172 HD
HETATM   12  O3  UNL     1      19.936 -27.612 -15.434  1.00  0.00    -0.262 OA
ATOM     13  H4  UNL     1      16.426 -25.715 -17.725  1.00  0.00     0.162 HD
BRANCH  10  14
HETATM   14  C10 UNL     1      20.836 -27.925 -17.581  1.00  0.00     0.322 C 
HETATM   15  N7  UNL     1      22.005 -28.520 -17.088  1.00  0.00    -0.053 NA
HETATM   16  O4  UNL     1      20.685 -27.788 -18.832  1.00  0.00    -0.266 OA
ENDBRANCH  10  14
ENDBRANCH   5   6
ENDBRANCH   3   5
BRANCH   1  17
HETATM   17  N2  UNL     1      14.307 -28.827 -14.761  1.00  0.00    -0.249 N 
HETATM   18  C5  UNL     1      15.141 -29.788 -14.122  1.00  0.00     0.335 C 
HETATM   19  N1  UNL     1      14.646 -30.873 -13.379  1.00  0.00    -0.334 N 
HETATM   20  O1  UNL     1      16.377 -29.642 -14.242  1.00  0.00    -0.246 OA
ATOM     21  H1  UNL     1      13.641 -31.004 -13.274  1.00  0.00     0.165 HD
ATOM     22  H2  UNL     1      13.295 -28.923 -14.680  1.00  0.00     0.192 HD
BRANCH  19  23
HETATM   23  C2  UNL     1      15.563 -31.802 -12.764  1.00  0.00     0.023 C 
HETATM   24  C1  UNL     1      14.782 -33.020 -12.335  1.00  0.00     0.037 C 
HETATM   25  C3  UNL     1      16.281 -31.194 -11.581  1.00  0.00     0.037 C 
HETATM   26  C4  UNL     1      16.604 -32.230 -13.803  1.00  0.00     0.037 C 
ENDBRANCH  19  23
ENDBRANCH   1  17
TORSDOF 5
ENDMDL
MODEL 2
REMARK VINA RESULT: -7.393466295      1.100      1.527
REMARK  5 active torsions:
REMARK  status: ('A' for Active; 'I' for Inactive)
REMARK    1  A    between atoms: C2_2  and  N1_5 
REMARK       I    between atoms: N1_5  and  C5_7 
REMARK       I    between atoms: C5_7  and  N2_9 
REMARK    2  A    between atoms: N2_9  and  N3_11 
REMARK       I    between atoms: N3_11  and  C6_13 
REMARK    3  A    between atoms: C6_13  and  C7_15 
REMARK    4  A    between atoms: C7_15  and  N4_16 
REMARK       I    between atoms: C8_18  and  N6_20 
REMARK       I    between atoms: N6_20  and  C9_22 
REMARK    5  A    between atoms: C9_22  and  C10_24 
ROOT
HETATM    1  N3  UNL     1      15.281 -27.469 -15.466  1.00  0.00    -0.265 N 
ATOM      2  H3  UNL     1      15.371 -27.581 -16.476  1.00  0.00     0.190 HD
HETATM    3  C6  UNL     1      15.806 -26.293 -14.878  1.00  0.00     0.253 C 
HETATM    4  O2  UNL     1      15.707 -26.130 -13.643  1.00  0.00    -0.270 OA
ENDROOT
BRANCH   3   5
HETATM    5  C7  UNL     1      16.463 -25.271 -15.722  1.00  0.00     0.226 C 
BRANCH   5   6
HETATM    6  N4  UNL     1      17.857 -25.515 -15.923  1.00  0.00    -0.356 N 
HETATM    7  C8  UNL     1      18.268 -26.405 -16.745  1.00  0.00     0.191 C 
HETATM    8  N5  UNL     1      17.321 -27.175 -17.478  1.00  0.00    -0.063 NA
HETATM    9  N6  UNL     1      19.662 -26.638 -16.933  1.00  0.00    -0.293 N 
HETATM   10  C9  UNL     1      20.118 -27.615 -17.836  1.00  0.00     0.312 C 
ATOM     11  H6  UNL     1      20.339 -26.086 -16.405  1.00  0.00     0.172 HD
HETATM   12  O3  UNL     1      19.288 -28.294 -18.488  1.00  0.00    -0.262 OA
ATOM     13  H4  UNL     1      18.539 -24.968 -15.399  1.00  0.00     0.162 HD
BRANCH  10  14
HETATM   14  C10 UNL     1      21.550 -27.856 -18.032  1.00  0.00     0.322 C 
HETATM   15  N7  UNL     1      22.254 -28.735 -17.197  1.00  0.00    -0.053 NA
HETATM   16  O4  UNL     1      22.162 -27.262 -18.969  1.00  0.00    -0.266 OA
ENDBRANCH  10  14
ENDBRANCH   5   6
ENDBRANCH   3   5
BRANCH   1  17
HETATM   17  N2  UNL     1      14.649 -28.479 -14.750  1.00  0.00    -0.249 N 
HETATM   18  C5  UNL     1      15.359 -29.591 -14.213  1.00  0.00     0.335 C 
HETATM   19  N1  UNL     1      14.747 -30.626 -13.486  1.00  0.00    -0.334 N 
HETATM   20  O1  UNL     1      16.593 -29.631 -14.411  1.00  0.00    -0.246 OA
ATOM     21  H1  UNL     1      13.741 -30.606 -13.318  1.00  0.00     0.165 HD
ATOM     22  H2  UNL     1      13.641 -28.423 -14.603  1.00  0.00     0.192 HD
BRANCH  19  23
HETATM   23  C2  UNL     1      15.542 -31.716 -12.978  1.00  0.00     0.023 C 
HETATM   24  C1  UNL     1      16.515 -32.131 -14.054  1.00  0.00     0.037 C 
HETATM   25  C3  UNL     1      14.691 -32.893 -12.557  1.00  0.00     0.037 C 
HETATM   26  C4  UNL     1      16.337 -31.225 -11.764  1.00  0.00     0.037 C 
ENDBRANCH  19  23
ENDBRANCH   1  17
TORSDOF 5
ENDMDL
MODEL 3
REMARK VINA RESULT: -7.272959473      0.863      1.169
REMARK  5 active torsions:
REMARK  status: ('A' for Active; 'I' for Inactive)
REMARK    1  A    between atoms: C2_2  and  N1_5 
REMARK       I    between atoms: N1_5  and  C5_7 
REMARK       I    between atoms: C5_7  and  N2_9 
REMARK    2  A    between atoms: N2_9  and  N3_11 
REMARK       I    between atoms: N3_11  and  C6_13 
REMARK    3  A    between atoms: C6_13  and  C7_15 
REMARK    4  A    between atoms: C7_15  and  N4_16 
REMARK       I    between atoms: C8_18  and  N6_20 
REMARK       I    between atoms: N6_20  and  C9_22 
REMARK    5  A    between atoms: C9_22  and  C10_24 
ROOT
HETATM    1  N3  UNL     1      15.037 -28.159 -15.741  1.00  0.00    -0.265 N 
ATOM      2  H3  UNL     1      15.476 -28.390 -16.633  1.00  0.00     0.190 HD
HETATM    3  C6  UNL     1      15.086 -26.813 -15.305  1.00  0.00     0.253 C 
HETATM    4  O2  UNL     1      14.555 -26.502 -14.217  1.00  0.00    -0.270 OA
ENDROOT
BRANCH   3   5
HETATM    5  C7  UNL     1      15.761 -25.789 -16.132  1.00  0.00     0.226 C 
BRANCH   5   6
HETATM    6  N4  UNL     1      16.861 -26.305 -16.884  1.00  0.00    -0.356 N 
HETATM    7  C8  UNL     1      17.915 -26.748 -16.310  1.00  0.00     0.191 C 
HETATM    8  N5  UNL     1      18.001 -26.727 -14.889  1.00  0.00    -0.063 NA
HETATM    9  N6  UNL     1      19.005 -27.259 -17.075  1.00  0.00    -0.293 N 
HETATM   10  C9  UNL     1      20.165 -27.746 -16.446  1.00  0.00     0.312 C 
ATOM     11  H6  UNL     1      18.942 -27.271 -18.093  1.00  0.00     0.172 HD
HETATM   12  O3  UNL     1      20.245 -27.734 -15.193  1.00  0.00    -0.262 OA
ATOM     13  H4  UNL     1      16.805 -26.321 -17.902  1.00  0.00     0.162 HD
BRANCH  10  14
HETATM   14  C10 UNL     1      21.286 -28.272 -17.229  1.00  0.00     0.322 C 
HETATM   15  N7  UNL     1      21.713 -27.627 -18.399  1.00  0.00    -0.053 NA
HETATM   16  O4  UNL     1      21.878 -29.324 -16.846  1.00  0.00    -0.266 OA
ENDBRANCH  10  14
ENDBRANCH   5   6
ENDBRANCH   3   5
BRANCH   1  17
HETATM   17  N2  UNL     1      14.426 -29.184 -15.028  1.00  0.00    -0.249 N 
HETATM   18  C5  UNL     1      15.143 -30.013 -14.120  1.00  0.00     0.335 C 
HETATM   19  N1  UNL     1      14.551 -31.056 -13.387  1.00  0.00    -0.334 N 
HETATM   20  O1  UNL     1      16.365 -29.787 -13.981  1.00  0.00    -0.246 OA
ATOM     21  H1  UNL     1      13.556 -31.252 -13.491  1.00  0.00     0.165 HD
ATOM     22  H2  UNL     1      13.428 -29.348 -15.160  1.00  0.00     0.192 HD
BRANCH  19  23
HETATM   23  C2  UNL     1      15.353 -31.849 -12.487  1.00  0.00     0.023 C 
HETATM   24  C1  UNL     1      15.358 -31.171 -11.140  1.00  0.00     0.037 C 
HETATM   25  C3  UNL     1      16.766 -32.027 -12.992  1.00  0.00     0.037 C 
HETATM   26  C4  UNL     1      14.707 -33.229 -12.336  1.00  0.00     0.037 C 
ENDBRANCH  19  23
ENDBRANCH   1  17
TORSDOF 5
ENDMDL
MODEL 4
REMARK VINA RESULT: -7.229596669      4.406      7.290
REMARK  5 active torsions:
REMARK  status: ('A' for Active; 'I' for Inactive)
REMARK    1  A    between atoms: C2_2  and  N1_5 
REMARK       I    between atoms: N1_5  and  C5_7 
REMARK       I    between atoms: C5_7  and  N2_9 
REMARK    2  A    between atoms: N2_9  and  N3_11 
REMARK       I    between atoms: N3_11  and  C6_13 
REMARK    3  A    between atoms: C6_13  and  C7_15 
REMARK    4  A    between atoms: C7_15  and  N4_16 
REMARK       I    between atoms: C8_18  and  N6_20 
REMARK       I    between atoms: N6_20  and  C9_22 
REMARK    5  A    between atoms: C9_22  and  C10_24 
ROOT
HETATM    1  N3  UNL     1      20.841 -27.293 -17.700  1.00  0.00    -0.265 N 
ATOM      2  H3  UNL     1      21.473 -27.166 -16.910  1.00  0.00     0.190 HD
HETATM    3  C6  UNL     1      21.321 -27.997 -18.830  1.00  0.00     0.253 C 
HETATM    4  O2  UNL     1      20.565 -28.168 -19.811  1.00  0.00    -0.270 OA
ENDROOT
BRANCH   3   5
HETATM    5  C7  UNL     1      22.703 -28.525 -18.844  1.00  0.00     0.226 C 
BRANCH   5   6
HETATM    6  N4  UNL     1      22.931 -29.483 -19.880  1.00  0.00    -0.356 N 
HETATM    7  C8  UNL     1      23.975 -30.221 -19.889  1.00  0.00     0.191 C 
HETATM    8  N5  UNL     1      24.937 -30.091 -18.848  1.00  0.00    -0.063 NA
HETATM    9  N6  UNL     1      24.189 -31.171 -20.931  1.00  0.00    -0.293 N 
HETATM   10  C9  UNL     1      25.336 -31.985 -20.945  1.00  0.00     0.312 C 
ATOM     11  H6  UNL     1      23.499 -31.262 -21.678  1.00  0.00     0.172 HD
HETATM   12  O3  UNL     1      26.185 -31.878 -20.027  1.00  0.00    -0.262 OA
ATOM     13  H4  UNL     1      22.246 -29.579 -20.629  1.00  0.00     0.162 HD
BRANCH  10  14
HETATM   14  C10 UNL     1      25.558 -32.963 -22.014  1.00  0.00     0.322 C 
HETATM   15  N7  UNL     1      24.989 -34.243 -21.950  1.00  0.00    -0.053 NA
HETATM   16  O4  UNL     1      26.274 -32.648 -23.011  1.00  0.00    -0.266 OA
ENDBRANCH  10  14
ENDBRANCH   5   6
ENDBRANCH   3   5
BRANCH   1  17
HETATM   17  N2  UNL     1      19.558 -26.764 -17.602  1.00  0.00    -0.249 N 
HETATM   18  C5  UNL     1      18.513 -27.424 -16.895  1.00  0.00     0.335 C 
HETATM   19  N1  UNL     1      17.209 -26.913 -16.781  1.00  0.00    -0.334 N 
HETATM   20  O1  UNL     1      18.791 -28.517 -16.354  1.00  0.00    -0.246 OA
ATOM     21  H1  UNL     1      16.969 -26.023 -17.218  1.00  0.00     0.165 HD
ATOM     22  H2  UNL     1      19.358 -25.871 -18.053  1.00  0.00     0.192 HD
BRANCH  19  23
HETATM   23  C2  UNL     1      16.210 -27.648 -16.045  1.00  0.00     0.023 C 
HETATM   24  C1  UNL     1      16.546 -27.560 -14.577  1.00  0.00     0.037 C 
HETATM   25  C3  UNL     1      16.132 -29.094 -16.481  1.00  0.00     0.037 C 
HETATM   26  C4  UNL     1      14.845 -26.992 -16.273  1.00  0.00     0.037 C 
ENDBRANCH  19  23
ENDBRANCH   1  17
TORSDOF 5
ENDMDL
MODEL 5
REMARK VINA RESULT: -7.087283583      4.191      8.752
REMARK  5 active torsions:
REMARK  status: ('A' for Active; 'I' for Inactive)
REMARK    1  A    between atoms: C2_2  and  N1_5 
REMARK       I    between atoms: N1_5  and  C5_7 
REMARK       I    between atoms: C5_7  and  N2_9 
REMARK    2  A    between atoms: N2_9  and  N3_11 
REMARK       I    between atoms: N3_11  and  C6_13 
REMARK    3  A    between atoms: C6_13  and  C7_15 
REMARK    4  A    between atoms: C7_15  and  N4_16 
REMARK       I    between atoms: C8_18  and  N6_20 
REMARK       I    between atoms: N6_20  and  C9_22 
REMARK    5  A    between atoms: C9_22  and  C10_24 
ROOT
HETATM    1  N3  UNL     1      22.616 -29.009 -18.833  1.00  0.00    -0.265 N 
ATOM      2  H3  UNL     1      23.292 -29.138 -18.080  1.00  0.00     0.190 HD
HETATM    3  C6  UNL     1      21.469 -28.222 -18.570  1.00  0.00     0.253 C 
HETATM    4  O2  UNL     1      20.626 -28.046 -19.475  1.00  0.00    -0.270 OA
ENDROOT
BRANCH   3   5
HETATM    5  C7  UNL     1      21.276 -27.616 -17.234  1.00  0.00     0.226 C 
BRANCH   5   6
HETATM    6  N4  UNL     1      20.095 -26.816 -17.142  1.00  0.00    -0.356 N 
HETATM    7  C8  UNL     1      19.225 -27.009 -16.224  1.00  0.00     0.191 C 
HETATM    8  N5  UNL     1      19.432 -28.044 -15.269  1.00  0.00    -0.063 NA
HETATM    9  N6  UNL     1      18.052 -26.203 -16.148  1.00  0.00    -0.293 N 
HETATM   10  C9  UNL     1      17.094 -26.412 -15.139  1.00  0.00     0.312 C 
ATOM     11  H6  UNL     1      17.904 -25.463 -16.835  1.00  0.00     0.172 HD
HETATM   12  O3  UNL     1      17.273 -27.321 -14.291  1.00  0.00    -0.262 OA
ATOM     13  H4  UNL     1      19.941 -26.074 -17.825  1.00  0.00     0.162 HD
BRANCH  10  14
HETATM   14  C10 UNL     1      15.887 -25.585 -15.057  1.00  0.00     0.322 C 
HETATM   15  N7  UNL     1      14.908 -25.833 -14.084  1.00  0.00    -0.053 NA
HETATM   16  O4  UNL     1      15.724 -24.633 -15.877  1.00  0.00    -0.266 OA
ENDBRANCH  10  14
ENDBRANCH   5   6
ENDBRANCH   3   5
BRANCH   1  17
HETATM   17  N2  UNL     1      22.877 -29.615 -20.057  1.00  0.00    -0.249 N 
HETATM   18  C5  UNL     1      23.929 -30.558 -20.231  1.00  0.00     0.335 C 
HETATM   19  N1  UNL     1      24.215 -31.185 -21.456  1.00  0.00    -0.334 N 
HETATM   20  O1  UNL     1      24.626 -30.829 -19.229  1.00  0.00    -0.246 OA
ATOM     21  H1  UNL     1      23.655 -30.973 -22.282  1.00  0.00     0.165 HD
ATOM     22  H2  UNL     1      22.293 -29.375 -20.859  1.00  0.00     0.192 HD
BRANCH  19  23
HETATM   23  C2  UNL     1      25.301 -32.129 -21.545  1.00  0.00     0.023 C 
HETATM   24  C1  UNL     1      24.718 -33.495 -21.809  1.00  0.00     0.037 C 
HETATM   25  C3  UNL     1      26.141 -32.150 -20.288  1.00  0.00     0.037 C 
HETATM   26  C4  UNL     1      26.196 -31.745 -22.727  1.00  0.00     0.037 C 
ENDBRANCH  19  23
ENDBRANCH   1  17
TORSDOF 5
ENDMDL
