MODEL 1
REMARK VINA RESULT: -6.567139358      0.000      0.000
REMARK  5 active torsions:
REMARK  status: ('A' for Active; 'I' for Inactive)
REMARK       I    between atoms: C2_4  and  N2_5 
REMARK       I    between atoms: C2_4  and  N3_11 
REMARK    1  A    between atoms: N2_5  and  C3_7 
REMARK    2  A    between atoms: C3_7  and  C4_8 
REMARK    3  A    between atoms: N3_11  and  N4_13 
REMARK       I    between atoms: N4_13  and  C5_15 
REMARK    4  A    between atoms: N6_17  and  S1_19 
REMARK    5  A    between atoms: S1_19  and  N7_20 
ROOT
HETATM    1  C1  UNL     1      19.652 -26.990 -19.300  1.00  0.00     0.165 C 
HETATM    2  N1  UNL     1      19.608 -26.875 -17.869  1.00  0.00    -0.229 N 
ATOM      3  H1  UNL     1      19.092 -26.094 -17.464  1.00  0.00     0.177 HD
HETATM    4  C2  UNL     1      20.189 -27.710 -17.064  1.00  0.00     0.688 C 
HETATM    5  N2  UNL     1      20.897 -28.781 -17.638  1.00  0.00    -0.215 N 
ATOM      6  H2  UNL     1      20.353 -29.442 -18.193  1.00  0.00     0.178 HD
HETATM    7  N3  UNL     1      20.066 -27.479 -15.682  1.00  0.00    -0.130 N 
ATOM      8  H3  UNL     1      20.842 -27.011 -15.214  1.00  0.00     0.205 HD
ENDROOT
BRANCH   7   9
HETATM    9  N4  UNL     1      18.962 -27.843 -14.897  1.00  0.00    -0.259 N 
HETATM   10  C5  UNL     1      17.719 -27.202 -14.894  1.00  0.00     0.216 C 
HETATM   11  N5  UNL     1      16.568 -27.842 -14.395  1.00  0.00    -0.061 NA
HETATM   12  N6  UNL     1      17.578 -26.006 -15.347  1.00  0.00    -0.264 N 
ATOM     13  H6  UNL     1      18.402 -25.528 -15.712  1.00  0.00     0.180 HD
ATOM     14  H4  UNL     1      19.075 -28.643 -14.275  1.00  0.00     0.190 HD
BRANCH  12  15
HETATM   15  S1  UNL     1      16.080 -25.171 -15.369  1.00  0.00     0.175 S 
HETATM   16  O3  UNL     1      16.306 -23.866 -16.104  1.00  0.00    -0.216 OA
HETATM   17  S2  UNL     1      15.568 -24.813 -13.805  1.00  0.00     0.052 SA
BRANCH  15  18
HETATM   18  N7  UNL     1      14.847 -26.011 -16.185  1.00  0.00    -0.336 N 
ATOM     19  H72 UNL     1      14.343 -26.791 -15.761  1.00  0.00     0.168 HD
ATOM     20  H71 UNL     1      14.668 -25.659 -17.126  1.00  0.00     0.168 HD
ENDBRANCH  15  18
ENDBRANCH  12  15
ENDBRANCH   7   9
BRANCH   5  21
HETATM   21  C3  UNL     1      22.300 -29.042 -17.526  1.00  0.00     0.251 C 
BRANCH  21  22
HETATM   22  C4  UNL     1      23.038 -28.864 -18.774  1.00  0.00     0.191 C 
HETATM   23  O1  UNL     1      23.076 -27.819 -19.463  1.00  0.00    -0.647 OA
HETATM   24  O2  UNL     1      23.796 -29.932 -19.307  1.00  0.00    -0.647 OA
ENDBRANCH  21  22
ENDBRANCH   5  21
TORSDOF 5
ENDMDL
MODEL 2
REMARK VINA RESULT: -6.444293575      3.126      4.256
REMARK  5 active torsions:
REMARK  status: ('A' for Active; 'I' for Inactive)
REMARK       I    between atoms: C2_4  and  N2_5 
REMARK       I    between atoms: C2_4  and  N3_11 
REMARK    1  A    between atoms: N2_5  and  C3_7 
REMARK    2  A    between atoms: C3_7  and  C4_8 
REMARK    3  A    between atoms: N3_11  and  N4_13 
REMARK       I    between atoms: N4_13  and  C5_15 
REMARK    4  A    between atoms: N6_17  and  S1_19 
REMARK    5  A    between atoms: S1_19  and  N7_20 
ROOT
HETATM    1  C1  UNL     1      16.663 -30.946 -13.402  1.00  0.00     0.165 C 
HETATM    2  N1  UNL     1      16.168 -30.441 -14.652  1.00  0.00    -0.229 N 
ATOM      3  H1  UNL     1      15.270 -30.787 -14.990  1.00  0.00     0.177 HD
HETATM    4  C2  UNL     1      16.800 -29.569 -15.375  1.00  0.00     0.688 C 
HETATM    5  N2  UNL     1      18.037 -29.102 -14.896  1.00  0.00    -0.215 N 
ATOM      6  H2  UNL     1      18.022 -28.598 -14.009  1.00  0.00     0.178 HD
HETATM    7  N3  UNL     1      16.201 -29.160 -16.580  1.00  0.00    -0.130 N 
ATOM      8  H3  UNL     1      16.523 -29.606 -17.439  1.00  0.00     0.205 HD
ENDROOT
BRANCH   7   9
HETATM    9  N4  UNL     1      15.196 -28.188 -16.693  1.00  0.00    -0.259 N 
HETATM   10  C5  UNL     1      15.129 -26.997 -15.963  1.00  0.00     0.216 C 
HETATM   11  N5  UNL     1      14.337 -25.918 -16.399  1.00  0.00    -0.061 NA
HETATM   12  N6  UNL     1      15.786 -26.842 -14.868  1.00  0.00    -0.264 N 
ATOM     13  H6  UNL     1      16.365 -27.615 -14.539  1.00  0.00     0.180 HD
ATOM     14  H4  UNL     1      14.450 -28.365 -17.366  1.00  0.00     0.190 HD
BRANCH  12  15
HETATM   15  S1  UNL     1      15.742 -25.406 -13.932  1.00  0.00     0.175 S 
HETATM   16  O3  UNL     1      16.613 -25.639 -12.714  1.00  0.00    -0.216 OA
HETATM   17  S2  UNL     1      14.177 -25.078 -13.406  1.00  0.00     0.052 SA
BRANCH  15  18
HETATM   18  N7  UNL     1      16.357 -24.045 -14.748  1.00  0.00    -0.336 N 
ATOM     19  H72 UNL     1      16.393 -23.989 -15.766  1.00  0.00     0.168 HD
ATOM     20  H71 UNL     1      16.680 -23.307 -14.121  1.00  0.00     0.168 HD
ENDBRANCH  15  18
ENDBRANCH  12  15
ENDBRANCH   7   9
BRANCH   5  21
HETATM   21  C3  UNL     1      19.315 -29.258 -15.521  1.00  0.00     0.251 C 
BRANCH  21  22
HETATM   22  C4  UNL     1      20.203 -28.110 -15.349  1.00  0.00     0.191 C 
HETATM   23  O1  UNL     1      20.808 -27.800 -14.298  1.00  0.00    -0.647 OA
HETATM   24  O2  UNL     1      20.440 -27.231 -16.431  1.00  0.00    -0.647 OA
ENDBRANCH  21  22
ENDBRANCH   5  21
TORSDOF 5
ENDMDL
MODEL 3
REMARK VINA RESULT: -6.150569469      2.049      2.829
REMARK  5 active torsions:
REMARK  status: ('A' for Active; 'I' for Inactive)
REMARK       I    between atoms: C2_4  and  N2_5 
REMARK       I    between atoms: C2_4  and  N3_11 
REMARK    1  A    between atoms: N2_5  and  C3_7 
REMARK    2  A    between atoms: C3_7  and  C4_8 
REMARK    3  A    between atoms: N3_11  and  N4_13 
REMARK       I    between atoms: N4_13  and  C5_15 
REMARK    4  A    between atoms: N6_17  and  S1_19 
REMARK    5  A    between atoms: S1_19  and  N7_20 
ROOT
HETATM    1  C1  UNL     1      20.528 -28.011 -14.986  1.00  0.00     0.165 C 
HETATM    2  N1  UNL     1      19.370 -28.847 -15.145  1.00  0.00    -0.229 N 
ATOM      3  H1  UNL     1      19.181 -29.549 -14.429  1.00  0.00     0.177 HD
HETATM    4  C2  UNL     1      18.553 -28.758 -16.148  1.00  0.00     0.688 C 
HETATM    5  N2  UNL     1      18.828 -27.786 -17.126  1.00  0.00    -0.215 N 
ATOM      6  H2  UNL     1      18.815 -26.813 -16.819  1.00  0.00     0.178 HD
HETATM    7  N3  UNL     1      17.458 -29.639 -16.180  1.00  0.00    -0.130 N 
ATOM      8  H3  UNL     1      17.544 -30.475 -16.759  1.00  0.00     0.205 HD
ENDROOT
BRANCH   7   9
HETATM    9  N4  UNL     1      16.256 -29.461 -15.478  1.00  0.00    -0.259 N 
HETATM   10  C5  UNL     1      15.608 -28.239 -15.271  1.00  0.00     0.216 C 
HETATM   11  N5  UNL     1      14.247 -28.185 -14.915  1.00  0.00    -0.061 NA
HETATM   12  N6  UNL     1      16.229 -27.119 -15.398  1.00  0.00    -0.264 N 
ATOM     13  H6  UNL     1      17.215 -27.140 -15.655  1.00  0.00     0.180 HD
ATOM     14  H4  UNL     1      15.818 -30.294 -15.086  1.00  0.00     0.190 HD
BRANCH  12  15
HETATM   15  S1  UNL     1      15.486 -25.592 -15.156  1.00  0.00     0.175 S 
HETATM   16  O3  UNL     1      14.428 -25.434 -16.230  1.00  0.00    -0.216 OA
HETATM   17  S2  UNL     1      16.604 -24.345 -15.331  1.00  0.00     0.052 SA
BRANCH  15  18
HETATM   18  N7  UNL     1      14.711 -25.445 -13.649  1.00  0.00    -0.336 N 
ATOM     19  H72 UNL     1      15.096 -25.849 -12.795  1.00  0.00     0.168 HD
ATOM     20  H71 UNL     1      13.838 -24.918 -13.690  1.00  0.00     0.168 HD
ENDBRANCH  15  18
ENDBRANCH  12  15
ENDBRANCH   7   9
BRANCH   5  21
HETATM   21  C3  UNL     1      19.124 -28.016 -18.508  1.00  0.00     0.251 C 
BRANCH  21  22
HETATM   22  C4  UNL     1      20.398 -27.447 -18.944  1.00  0.00     0.191 C 
HETATM   23  O1  UNL     1      20.604 -26.847 -20.023  1.00  0.00    -0.647 OA
HETATM   24  O2  UNL     1      21.540 -27.553 -18.116  1.00  0.00    -0.647 OA
ENDBRANCH  21  22
ENDBRANCH   5  21
TORSDOF 5
ENDMDL
MODEL 4
REMARK VINA RESULT: -6.130717148      2.638      2.989
REMARK  5 active torsions:
REMARK  status: ('A' for Active; 'I' for Inactive)
REMARK       I    between atoms: C2_4  and  N2_5 
REMARK       I    between atoms: C2_4  and  N3_11 
REMARK    1  A    between atoms: N2_5  and  C3_7 
REMARK    2  A    between atoms: C3_7  and  C4_8 
REMARK    3  A    between atoms: N3_11  and  N4_13 
REMARK       I    between atoms: N4_13  and  C5_15 
REMARK    4  A    between atoms: N6_17  and  S1_19 
REMARK    5  A    between atoms: S1_19  and  N7_20 
ROOT
HETATM    1  C1  UNL     1      19.737 -27.207 -19.825  1.00  0.00     0.165 C 
HETATM    2  N1  UNL     1      19.482 -26.540 -18.579  1.00  0.00    -0.229 N 
ATOM      3  H1  UNL     1      19.143 -25.579 -18.607  1.00  0.00     0.177 HD
HETATM    4  C2  UNL     1      19.661 -27.093 -17.419  1.00  0.00     0.688 C 
HETATM    5  N2  UNL     1      20.130 -28.419 -17.397  1.00  0.00    -0.215 N 
ATOM      6  H2  UNL     1      19.526 -29.124 -17.823  1.00  0.00     0.178 HD
HETATM    7  N3  UNL     1      19.373 -26.326 -16.277  1.00  0.00    -0.130 N 
ATOM      8  H3  UNL     1      20.157 -25.874 -15.805  1.00  0.00     0.205 HD
ENDROOT
BRANCH   7   9
HETATM    9  N4  UNL     1      18.094 -26.133 -15.734  1.00  0.00    -0.259 N 
HETATM   10  C5  UNL     1      17.284 -27.131 -15.183  1.00  0.00     0.216 C 
HETATM   11  N5  UNL     1      16.216 -26.813 -14.323  1.00  0.00    -0.061 NA
HETATM   12  N6  UNL     1      17.484 -28.377 -15.439  1.00  0.00    -0.264 N 
ATOM     13  H6  UNL     1      18.254 -28.624 -16.060  1.00  0.00     0.180 HD
ATOM     14  H4  UNL     1      17.723 -25.183 -15.742  1.00  0.00     0.190 HD
BRANCH  12  15
HETATM   15  S1  UNL     1      16.524 -29.643 -14.793  1.00  0.00     0.175 S 
HETATM   16  O3  UNL     1      16.887 -29.775 -13.328  1.00  0.00    -0.216 OA
HETATM   17  S2  UNL     1      16.865 -31.105 -15.554  1.00  0.00     0.052 SA
BRANCH  15  18
HETATM   18  N7  UNL     1      14.853 -29.339 -14.881  1.00  0.00    -0.336 N 
ATOM     19  H72 UNL     1      14.158 -30.083 -14.805  1.00  0.00     0.168 HD
ATOM     20  H71 UNL     1      14.624 -28.354 -15.016  1.00  0.00     0.168 HD
ENDBRANCH  15  18
ENDBRANCH  12  15
ENDBRANCH   7   9
BRANCH   5  21
HETATM   21  C3  UNL     1      21.363 -28.886 -16.841  1.00  0.00     0.251 C 
BRANCH  21  22
HETATM   22  C4  UNL     1      22.415 -29.104 -17.831  1.00  0.00     0.191 C 
HETATM   23  O1  UNL     1      22.827 -30.216 -18.234  1.00  0.00    -0.647 OA
HETATM   24  O2  UNL     1      23.067 -27.999 -18.426  1.00  0.00    -0.647 OA
ENDBRANCH  21  22
ENDBRANCH   5  21
TORSDOF 5
ENDMDL
MODEL 5
REMARK VINA RESULT: -6.023877625      1.817      2.579
REMARK  5 active torsions:
REMARK  status: ('A' for Active; 'I' for Inactive)
REMARK       I    between atoms: C2_4  and  N2_5 
REMARK       I    between atoms: C2_4  and  N3_11 
REMARK    1  A    between atoms: N2_5  and  C3_7 
REMARK    2  A    between atoms: C3_7  and  C4_8 
REMARK    3  A    between atoms: N3_11  and  N4_13 
REMARK       I    between atoms: N4_13  and  C5_15 
REMARK    4  A    between atoms: N6_17  and  S1_19 
REMARK    5  A    between atoms: S1_19  and  N7_20 
ROOT
HETATM    1  C1  UNL     1      20.615 -27.993 -14.987  1.00  0.00     0.165 C 
HETATM    2  N1  UNL     1      19.412 -28.762 -15.140  1.00  0.00    -0.229 N 
ATOM      3  H1  UNL     1      19.168 -29.427 -14.406  1.00  0.00     0.177 HD
HETATM    4  C2  UNL     1      18.618 -28.659 -16.161  1.00  0.00     0.688 C 
HETATM    5  N2  UNL     1      18.968 -27.738 -17.165  1.00  0.00    -0.215 N 
ATOM      6  H2  UNL     1      19.009 -26.757 -16.890  1.00  0.00     0.178 HD
HETATM    7  N3  UNL     1      17.472 -29.473 -16.184  1.00  0.00    -0.130 N 
ATOM      8  H3  UNL     1      17.517 -30.331 -16.734  1.00  0.00     0.205 HD
ENDROOT
BRANCH   7   9
HETATM    9  N4  UNL     1      16.272 -29.199 -15.512  1.00  0.00    -0.259 N 
HETATM   10  C5  UNL     1      15.713 -27.930 -15.329  1.00  0.00     0.216 C 
HETATM   11  N5  UNL     1      14.352 -27.772 -15.004  1.00  0.00    -0.061 NA
HETATM   12  N6  UNL     1      16.418 -26.861 -15.449  1.00  0.00    -0.264 N 
ATOM     13  H6  UNL     1      17.406 -26.958 -15.683  1.00  0.00     0.180 HD
ATOM     14  H4  UNL     1      15.764 -29.993 -15.124  1.00  0.00     0.190 HD
BRANCH  12  15
HETATM   15  S1  UNL     1      15.787 -25.281 -15.236  1.00  0.00     0.175 S 
HETATM   16  O3  UNL     1      16.791 -24.314 -15.831  1.00  0.00    -0.216 OA
HETATM   17  S2  UNL     1      15.612 -24.918 -13.600  1.00  0.00     0.052 SA
BRANCH  15  18
HETATM   18  N7  UNL     1      14.303 -25.030 -16.028  1.00  0.00    -0.336 N 
ATOM     19  H72 UNL     1      14.154 -25.289 -17.004  1.00  0.00     0.168 HD
ATOM     20  H71 UNL     1      13.592 -24.601 -15.435  1.00  0.00     0.168 HD
ENDBRANCH  15  18
ENDBRANCH  12  15
ENDBRANCH   7   9
BRANCH   5  21
HETATM   21  C3  UNL     1      19.273 -28.033 -18.533  1.00  0.00     0.251 C 
BRANCH  21  22
HETATM   22  C4  UNL     1      20.532 -27.454 -18.997  1.00  0.00     0.191 C 
HETATM   23  O1  UNL     1      20.710 -26.857 -20.083  1.00  0.00    -0.647 OA
HETATM   24  O2  UNL     1      21.691 -27.544 -18.193  1.00  0.00    -0.647 OA
ENDBRANCH  21  22
ENDBRANCH   5  21
TORSDOF 5
ENDMDL
