MODEL 1
REMARK VINA RESULT: -7.798095871      0.000      0.000
REMARK  7 active torsions:
REMARK  status: ('A' for Active; 'I' for Inactive)
REMARK    1  A    between atoms: C2_2  and  S1_3 
REMARK    2  A    between atoms: S1_3  and  C3_4 
REMARK    3  A    between atoms: C3_4  and  N2_6 
REMARK    4  A    between atoms: N2_6  and  N3_8 
REMARK       I    between atoms: N3_8  and  C4_10 
REMARK    5  A    between atoms: C4_10  and  C5_12 
REMARK       I    between atoms: C5_12  and  N4_14 
REMARK    6  A    between atoms: N4_14  and  C6_16 
REMARK    7  A    between atoms: C6_16  and  C7_17 
REMARK       I    between atoms: C7_17  and  N5_19 
ROOT
HETATM    1  C5  UNL     1      18.426 -27.862 -15.055  1.00  0.00     0.311 C 
HETATM    2  O2  UNL     1      17.921 -28.223 -13.965  1.00  0.00    -0.262 OA
HETATM    3  N4  UNL     1      17.575 -27.231 -16.003  1.00  0.00    -0.344 N 
ATOM      4  H4  UNL     1      17.946 -26.921 -16.902  1.00  0.00     0.163 HD
ENDROOT
BRANCH   1   5
HETATM    5  C4  UNL     1      19.835 -28.091 -15.324  1.00  0.00     0.327 C 
HETATM    6  N3  UNL     1      20.226 -28.778 -16.478  1.00  0.00    -0.260 N 
ATOM      7  H3  UNL     1      19.522 -29.124 -17.130  1.00  0.00     0.190 HD
HETATM    8  O1  UNL     1      20.685 -27.669 -14.517  1.00  0.00    -0.261 OA
BRANCH   6   9
HETATM    9  N2  UNL     1      21.581 -28.991 -16.735  1.00  0.00    -0.279 N 
ATOM     10  H2  UNL     1      22.182 -29.247 -15.952  1.00  0.00     0.189 HD
BRANCH   9  11
HETATM   11  C3  UNL     1      22.174 -28.874 -18.014  1.00  0.00     0.168 C 
HETATM   12  N1  UNL     1      23.198 -29.760 -18.395  1.00  0.00    -0.073 NA
BRANCH  11  13
HETATM   13  S1  UNL     1      21.663 -27.708 -19.020  1.00  0.00    -0.096 SA
BRANCH  13  14
HETATM   14  C2  UNL     1      19.879 -27.285 -19.224  1.00  0.00     0.077 C 
HETATM   15  C1  UNL     1      19.650 -26.647 -20.567  1.00  0.00     0.016 C 
ENDBRANCH  13  14
ENDBRANCH  11  13
ENDBRANCH   9  11
ENDBRANCH   6   9
ENDBRANCH   1   5
BRANCH   3  16
HETATM   16  C6  UNL     1      16.191 -27.037 -15.683  1.00  0.00     0.226 C 
BRANCH  16  17
HETATM   17  C7  UNL     1      15.920 -25.594 -15.532  1.00  0.00     0.241 C 
HETATM   18  O3  UNL     1      16.638 -24.754 -16.111  1.00  0.00    -0.271 OA
HETATM   19  N5  UNL     1      14.839 -25.188 -14.726  1.00  0.00    -0.302 N 
HETATM   20  C8  UNL     1      14.977 -25.124 -13.455  1.00  0.00     0.203 C 
ATOM     21  H5  UNL     1      13.946 -24.946 -15.154  1.00  0.00     0.171 HD
HETATM   22  N6  UNL     1      13.838 -24.705 -12.701  1.00  0.00    -0.066 NA
HETATM   23  N7  UNL     1      16.203 -25.454 -12.854  1.00  0.00    -0.066 NA
ENDBRANCH  16  17
ENDBRANCH   3  16
TORSDOF 7
ENDMDL
MODEL 2
REMARK VINA RESULT: -7.688109745      1.206      1.249
REMARK  7 active torsions:
REMARK  status: ('A' for Active; 'I' for Inactive)
REMARK    1  A    between atoms: C2_2  and  S1_3 
REMARK    2  A    between atoms: S1_3  and  C3_4 
REMARK    3  A    between atoms: C3_4  and  N2_6 
REMARK    4  A    between atoms: N2_6  and  N3_8 
REMARK       I    between atoms: N3_8  and  C4_10 
REMARK    5  A    between atoms: C4_10  and  C5_12 
REMARK       I    between atoms: C5_12  and  N4_14 
REMARK    6  A    between atoms: N4_14  and  C6_16 
REMARK    7  A    between atoms: C6_16  and  C7_17 
REMARK       I    between atoms: C7_17  and  N5_19 
ROOT
HETATM    1  C5  UNL     1      17.366 -28.005 -15.654  1.00  0.00     0.311 C 
HETATM    2  O2  UNL     1      16.476 -28.577 -14.981  1.00  0.00    -0.262 OA
HETATM    3  N4  UNL     1      17.000 -26.844 -16.389  1.00  0.00    -0.344 N 
ATOM      4  H4  UNL     1      17.694 -26.348 -16.949  1.00  0.00     0.163 HD
ENDROOT
BRANCH   1   5
HETATM    5  C4  UNL     1      18.722 -28.527 -15.674  1.00  0.00     0.327 C 
HETATM    6  N3  UNL     1      19.801 -27.665 -15.896  1.00  0.00    -0.260 N 
ATOM      7  H3  UNL     1      19.638 -26.670 -16.048  1.00  0.00     0.190 HD
HETATM    8  O1  UNL     1      18.908 -29.745 -15.493  1.00  0.00    -0.261 OA
BRANCH   6   9
HETATM    9  N2  UNL     1      21.103 -28.170 -15.909  1.00  0.00    -0.279 N 
ATOM     10  H2  UNL     1      21.676 -28.033 -15.076  1.00  0.00     0.189 HD
BRANCH   9  11
HETATM   11  C3  UNL     1      21.676 -28.858 -17.002  1.00  0.00     0.168 C 
HETATM   12  N1  UNL     1      22.048 -30.208 -16.863  1.00  0.00    -0.073 NA
BRANCH  11  13
HETATM   13  S1  UNL     1      21.903 -28.071 -18.403  1.00  0.00    -0.096 SA
BRANCH  13  14
HETATM   14  C2  UNL     1      20.629 -28.030 -19.736  1.00  0.00     0.077 C 
HETATM   15  C1  UNL     1      19.633 -26.936 -19.466  1.00  0.00     0.016 C 
ENDBRANCH  13  14
ENDBRANCH  11  13
ENDBRANCH   9  11
ENDBRANCH   6   9
ENDBRANCH   1   5
BRANCH   3  16
HETATM   16  C6  UNL     1      15.644 -26.380 -16.334  1.00  0.00     0.226 C 
BRANCH  16  17
HETATM   17  C7  UNL     1      15.611 -25.035 -15.727  1.00  0.00     0.241 C 
HETATM   18  O3  UNL     1      16.372 -24.137 -16.142  1.00  0.00    -0.271 OA
HETATM   19  N5  UNL     1      14.706 -24.788 -14.677  1.00  0.00    -0.302 N 
HETATM   20  C8  UNL     1      15.002 -25.135 -13.482  1.00  0.00     0.203 C 
ATOM     21  H5  UNL     1      13.814 -24.331 -14.869  1.00  0.00     0.171 HD
HETATM   22  N6  UNL     1      14.036 -24.853 -12.468  1.00  0.00    -0.066 NA
HETATM   23  N7  UNL     1      16.228 -25.764 -13.206  1.00  0.00    -0.066 NA
ENDBRANCH  16  17
ENDBRANCH   3  16
TORSDOF 7
ENDMDL
MODEL 3
REMARK VINA RESULT: -7.321027860      1.958      2.463
REMARK  7 active torsions:
REMARK  status: ('A' for Active; 'I' for Inactive)
REMARK    1  A    between atoms: C2_2  and  S1_3 
REMARK    2  A    between atoms: S1_3  and  C3_4 
REMARK    3  A    between atoms: C3_4  and  N2_6 
REMARK    4  A    between atoms: N2_6  and  N3_8 
REMARK       I    between atoms: N3_8  and  C4_10 
REMARK    5  A    between atoms: C4_10  and  C5_12 
REMARK       I    between atoms: C5_12  and  N4_14 
REMARK    6  A    between atoms: N4_14  and  C6_16 
REMARK    7  A    between atoms: C6_16  and  C7_17 
REMARK       I    between atoms: C7_17  and  N5_19 
ROOT
HETATM    1  C5  UNL     1      18.314 -27.348 -16.834  1.00  0.00     0.311 C 
HETATM    2  O2  UNL     1      17.617 -28.361 -17.079  1.00  0.00    -0.262 OA
HETATM    3  N4  UNL     1      17.659 -26.204 -16.302  1.00  0.00    -0.344 N 
ATOM      4  H4  UNL     1      18.188 -25.360 -16.087  1.00  0.00     0.163 HD
ENDROOT
BRANCH   1   5
HETATM    5  C4  UNL     1      19.744 -27.359 -17.092  1.00  0.00     0.327 C 
HETATM    6  N3  UNL     1      20.221 -27.563 -18.392  1.00  0.00    -0.260 N 
ATOM      7  H3  UNL     1      19.564 -27.709 -19.159  1.00  0.00     0.190 HD
HETATM    8  O1  UNL     1      20.535 -27.185 -16.146  1.00  0.00    -0.261 OA
BRANCH   6   9
HETATM    9  N2  UNL     1      21.595 -27.567 -18.636  1.00  0.00    -0.279 N 
ATOM     10  H2  UNL     1      22.036 -26.685 -18.896  1.00  0.00     0.189 HD
BRANCH   9  11
HETATM   11  C3  UNL     1      22.413 -28.717 -18.547  1.00  0.00     0.168 C 
HETATM   12  N1  UNL     1      22.296 -29.575 -17.438  1.00  0.00    -0.073 NA
BRANCH  11  13
HETATM   13  S1  UNL     1      23.483 -29.021 -19.728  1.00  0.00    -0.096 SA
BRANCH  13  14
HETATM   14  C2  UNL     1      24.359 -30.637 -19.882  1.00  0.00     0.077 C 
HETATM   15  C1  UNL     1      24.207 -31.177 -21.277  1.00  0.00     0.016 C 
ENDBRANCH  13  14
ENDBRANCH  11  13
ENDBRANCH   9  11
ENDBRANCH   6   9
ENDBRANCH   1   5
BRANCH   3  16
HETATM   16  C6  UNL     1      16.244 -26.252 -16.073  1.00  0.00     0.226 C 
BRANCH  16  17
HETATM   17  C7  UNL     1      15.782 -24.940 -15.580  1.00  0.00     0.241 C 
HETATM   18  O3  UNL     1      16.337 -23.890 -15.966  1.00  0.00    -0.271 OA
HETATM   19  N5  UNL     1      14.706 -24.897 -14.673  1.00  0.00    -0.302 N 
HETATM   20  C8  UNL     1      14.912 -25.103 -13.427  1.00  0.00     0.203 C 
ATOM     21  H5  UNL     1      13.763 -24.701 -15.008  1.00  0.00     0.171 HD
HETATM   22  N6  UNL     1      13.774 -25.044 -12.565  1.00  0.00    -0.066 NA
HETATM   23  N7  UNL     1      16.207 -25.373 -12.954  1.00  0.00    -0.066 NA
ENDBRANCH  16  17
ENDBRANCH   3  16
TORSDOF 7
ENDMDL
MODEL 4
REMARK VINA RESULT: -7.226606747      4.299      5.544
REMARK  7 active torsions:
REMARK  status: ('A' for Active; 'I' for Inactive)
REMARK    1  A    between atoms: C2_2  and  S1_3 
REMARK    2  A    between atoms: S1_3  and  C3_4 
REMARK    3  A    between atoms: C3_4  and  N2_6 
REMARK    4  A    between atoms: N2_6  and  N3_8 
REMARK       I    between atoms: N3_8  and  C4_10 
REMARK    5  A    between atoms: C4_10  and  C5_12 
REMARK       I    between atoms: C5_12  and  N4_14 
REMARK    6  A    between atoms: N4_14  and  C6_16 
REMARK    7  A    between atoms: C6_16  and  C7_17 
REMARK       I    between atoms: C7_17  and  N5_19 
ROOT
HETATM    1  C5  UNL     1      14.865 -27.573 -15.425  1.00  0.00     0.311 C 
HETATM    2  O2  UNL     1      14.193 -27.109 -16.377  1.00  0.00    -0.262 OA
HETATM    3  N4  UNL     1      16.151 -27.017 -15.187  1.00  0.00    -0.344 N 
ATOM      4  H4  UNL     1      16.730 -27.363 -14.422  1.00  0.00     0.163 HD
ENDROOT
BRANCH   1   5
HETATM    5  C4  UNL     1      14.331 -28.645 -14.602  1.00  0.00     0.327 C 
HETATM    6  N3  UNL     1      15.106 -29.780 -14.339  1.00  0.00    -0.260 N 
ATOM      7  H3  UNL     1      16.046 -29.858 -14.729  1.00  0.00     0.190 HD
HETATM    8  O1  UNL     1      13.180 -28.540 -14.136  1.00  0.00    -0.261 OA
BRANCH   6   9
HETATM    9  N2  UNL     1      14.592 -30.805 -13.544  1.00  0.00    -0.279 N 
ATOM     10  H2  UNL     1      13.583 -30.832 -13.393  1.00  0.00     0.189 HD
BRANCH   9  11
HETATM   11  C3  UNL     1      15.380 -31.808 -12.935  1.00  0.00     0.168 C 
HETATM   12  N1  UNL     1      14.768 -32.794 -12.140  1.00  0.00    -0.073 NA
BRANCH  11  13
HETATM   13  S1  UNL     1      16.987 -31.797 -13.159  1.00  0.00    -0.096 SA
BRANCH  13  14
HETATM   14  C2  UNL     1      17.756 -31.623 -14.826  1.00  0.00     0.077 C 
HETATM   15  C1  UNL     1      18.128 -30.188 -15.077  1.00  0.00     0.016 C 
ENDBRANCH  13  14
ENDBRANCH  11  13
ENDBRANCH   9  11
ENDBRANCH   6   9
ENDBRANCH   1   5
BRANCH   3  16
HETATM   16  C6  UNL     1      16.626 -25.963 -16.036  1.00  0.00     0.226 C 
BRANCH  16  17
HETATM   17  C7  UNL     1      16.156 -24.664 -15.517  1.00  0.00     0.241 C 
HETATM   18  O3  UNL     1      16.774 -23.615 -15.790  1.00  0.00    -0.271 OA
HETATM   19  N5  UNL     1      15.000 -24.634 -14.713  1.00  0.00    -0.302 N 
HETATM   20  C8  UNL     1      15.080 -24.913 -13.467  1.00  0.00     0.203 C 
ATOM     21  H5  UNL     1      14.099 -24.390 -15.124  1.00  0.00     0.171 HD
HETATM   22  N6  UNL     1      13.868 -24.862 -12.713  1.00  0.00    -0.066 NA
HETATM   23  N7  UNL     1      16.317 -25.249 -12.890  1.00  0.00    -0.066 NA
ENDBRANCH  16  17
ENDBRANCH   3  16
TORSDOF 7
ENDMDL
MODEL 5
REMARK VINA RESULT: -7.211303920      2.118      2.736
REMARK  7 active torsions:
REMARK  status: ('A' for Active; 'I' for Inactive)
REMARK    1  A    between atoms: C2_2  and  S1_3 
REMARK    2  A    between atoms: S1_3  and  C3_4 
REMARK    3  A    between atoms: C3_4  and  N2_6 
REMARK    4  A    between atoms: N2_6  and  N3_8 
REMARK       I    between atoms: N3_8  and  C4_10 
REMARK    5  A    between atoms: C4_10  and  C5_12 
REMARK       I    between atoms: C5_12  and  N4_14 
REMARK    6  A    between atoms: N4_14  and  C6_16 
REMARK    7  A    between atoms: C6_16  and  C7_17 
REMARK       I    between atoms: C7_17  and  N5_19 
ROOT
HETATM    1  C5  UNL     1      17.494 -27.391 -16.912  1.00  0.00     0.311 C 
HETATM    2  O2  UNL     1      17.002 -28.538 -17.038  1.00  0.00    -0.262 OA
HETATM    3  N4  UNL     1      16.609 -26.319 -16.610  1.00  0.00    -0.344 N 
ATOM      4  H4  UNL     1      16.968 -25.371 -16.497  1.00  0.00     0.163 HD
ENDROOT
BRANCH   1   5
HETATM    5  C4  UNL     1      18.922 -27.181 -17.074  1.00  0.00     0.327 C 
HETATM    6  N3  UNL     1      19.558 -27.569 -18.258  1.00  0.00    -0.260 N 
ATOM      7  H3  UNL     1      19.020 -28.004 -19.008  1.00  0.00     0.190 HD
HETATM    8  O1  UNL     1      19.569 -26.654 -16.149  1.00  0.00    -0.261 OA
BRANCH   6   9
HETATM    9  N2  UNL     1      20.929 -27.360 -18.412  1.00  0.00    -0.279 N 
ATOM     10  H2  UNL     1      21.241 -26.438 -18.715  1.00  0.00     0.189 HD
BRANCH   9  11
HETATM   11  C3  UNL     1      21.913 -28.347 -18.175  1.00  0.00     0.168 C 
HETATM   12  N1  UNL     1      21.911 -29.062 -16.963  1.00  0.00    -0.073 NA
BRANCH  11  13
HETATM   13  S1  UNL     1      23.038 -28.633 -19.309  1.00  0.00    -0.096 SA
BRANCH  13  14
HETATM   14  C2  UNL     1      23.919 -30.248 -19.449  1.00  0.00     0.077 C 
HETATM   15  C1  UNL     1      23.838 -30.760 -20.861  1.00  0.00     0.016 C 
ENDBRANCH  13  14
ENDBRANCH  11  13
ENDBRANCH   9  11
ENDBRANCH   6   9
ENDBRANCH   1   5
BRANCH   3  16
HETATM   16  C6  UNL     1      15.208 -26.588 -16.466  1.00  0.00     0.226 C 
BRANCH  16  17
HETATM   17  C7  UNL     1      14.936 -27.054 -15.092  1.00  0.00     0.241 C 
HETATM   18  O3  UNL     1      14.081 -27.939 -14.884  1.00  0.00    -0.271 OA
HETATM   19  N5  UNL     1      15.659 -26.483 -14.027  1.00  0.00    -0.302 N 
HETATM   20  C8  UNL     1      15.296 -25.359 -13.537  1.00  0.00     0.203 C 
ATOM     21  H5  UNL     1      16.473 -26.967 -13.646  1.00  0.00     0.171 HD
HETATM   22  N6  UNL     1      16.077 -24.840 -12.459  1.00  0.00    -0.066 NA
HETATM   23  N7  UNL     1      14.176 -24.685 -14.053  1.00  0.00    -0.066 NA
ENDBRANCH  16  17
ENDBRANCH   3  16
TORSDOF 7
ENDMDL
