MODEL 1
REMARK VINA RESULT: -8.479490441      0.000      0.000
REMARK  14 active torsions:
REMARK  status: ('A' for Active; 'I' for Inactive)
REMARK    1  A    between atoms: C2_2  and  O1_3 
REMARK    2  A    between atoms: C2_2  and  C3_5 
REMARK    3  A    between atoms: C2_2  and  C4_8 
REMARK    4  A    between atoms: C3_5  and  O2_6 
REMARK    5  A    between atoms: C4_8  and  C5_9 
REMARK    6  A    between atoms: C6_13  and  N1_14 
REMARK    7  A    between atoms: C11_26  and  N4_27 
REMARK    8  A    between atoms: C12_32  and  S2_33 
REMARK    9  A    between atoms: S2_33  and  C13_34 
REMARK   10  A    between atoms: C13_34  and  C14_35 
REMARK   11  A    between atoms: C14_35  and  C15_36 
REMARK       I    between atoms: C15_36  and  N7_38 
REMARK   12  A    between atoms: N7_38  and  N8_40 
REMARK       I    between atoms: N8_40  and  C16_42 
REMARK   13  A    between atoms: C16_42  and  C17_44 
REMARK   14  A    between atoms: C17_44  and  N9_45 
ROOT
HETATM    1  C4  UNL     1      33.520  -1.215  13.836  1.00  0.00     0.207 C 
HETATM    2  O5  UNL     1      32.540  -1.675  14.755  1.00  0.00    -0.338 OA
HETATM    3  C6  UNL     1      32.789  -3.035  14.947  1.00  0.00     0.239 C 
HETATM    4  C10 UNL     1      34.289  -3.162  14.997  1.00  0.00     0.087 C 
HETATM    5  C11 UNL     1      34.697  -2.043  14.042  1.00  0.00     0.181 C 
ENDROOT
BRANCH   5   6
HETATM    6  N4  UNL     1      35.430  -2.536  12.901  1.00  0.00    -0.209 N 
HETATM    7  N5  UNL     1      36.553  -2.164  12.367  1.00  0.00    -0.223 N 
HETATM    8  N6  UNL     1      36.843  -2.898  11.347  1.00  0.00    -0.263 N 
ATOM      9  H5  UNL     1      37.130  -1.394  12.708  1.00  0.00     0.210 HD
HETATM   10  C12 UNL     1      35.865  -3.809  11.190  1.00  0.00     0.180 A 
ATOM     11  H6  UNL     1      37.672  -2.804  10.760  1.00  0.00     0.190 HD
HETATM   12  N10 UNL     1      34.993  -3.567  12.170  1.00  0.00    -0.260 N 
ATOM     13  H10 UNL     1      34.131  -4.085  12.335  1.00  0.00     0.191 HD
BRANCH  10  14
HETATM   14  S2  UNL     1      35.788  -5.039   9.894  1.00  0.00    -0.063 SA
BRANCH  14  15
HETATM   15  C13 UNL     1      34.118  -5.502   9.484  1.00  0.00     0.059 C 
BRANCH  15  16
HETATM   16  C14 UNL     1      33.235  -4.548   9.278  1.00  0.00     0.083 C 
BRANCH  16  17
HETATM   17  C15 UNL     1      33.529  -3.327   8.518  1.00  0.00     0.260 C 
HETATM   18  O8  UNL     1      33.579  -3.412   7.267  1.00  0.00    -0.267 OA
HETATM   19  N7  UNL     1      33.754  -2.085   9.150  1.00  0.00    -0.264 N 
ATOM     20  H7  UNL     1      33.700  -2.061  10.169  1.00  0.00     0.190 HD
BRANCH  19  21
HETATM   21  N8  UNL     1      34.040  -0.906   8.505  1.00  0.00    -0.266 N 
HETATM   22  C16 UNL     1      35.124  -0.055   8.827  1.00  0.00     0.261 C 
HETATM   23  O9  UNL     1      35.877  -0.402   9.765  1.00  0.00    -0.270 OA
ATOM     24  H8  UNL     1      33.427  -0.623   7.740  1.00  0.00     0.190 HD
BRANCH  22  25
HETATM   25  C17 UNL     1      35.417   1.212   8.127  1.00  0.00     0.333 C 
BRANCH  25  26
HETATM   26  N9  UNL     1      36.818   1.555   8.172  1.00  0.00    -0.071 N 
ATOM     27  H93 UNL     1      37.098   1.838   9.111  1.00  0.00     0.274 HD
ATOM     28  H92 UNL     1      37.404   0.725   8.072  1.00  0.00     0.274 HD
ATOM     29  H91 UNL     1      37.067   2.265   7.485  1.00  0.00     0.274 HD
ENDBRANCH  25  26
ENDBRANCH  22  25
ENDBRANCH  19  21
ENDBRANCH  16  17
ENDBRANCH  15  16
ENDBRANCH  14  15
ENDBRANCH  10  14
ENDBRANCH   5   6
BRANCH   1  30
HETATM   30  C2  UNL     1      33.775   0.220  14.206  1.00  0.00     0.119 C 
HETATM   31  C1  UNL     1      33.366   0.447  15.685  1.00  0.00     0.052 C 
BRANCH  30  32
HETATM   32  O1  UNL     1      32.997   1.131  13.517  1.00  0.00    -0.384 OA
ATOM     33  H1  UNL     1      33.584   1.866  13.387  1.00  0.00     0.210 HD
ENDBRANCH  30  32
BRANCH  30  34
HETATM   34  C3  UNL     1      35.209   0.592  14.151  1.00  0.00     0.205 C 
BRANCH  34  35
HETATM   35  O2  UNL     1      35.533   1.915  14.115  1.00  0.00    -0.398 OA
ATOM     36  H2  UNL     1      36.306   2.177  13.631  1.00  0.00     0.209 HD
ENDBRANCH  34  35
ENDBRANCH  30  34
ENDBRANCH   1  30
BRANCH   1  37
HETATM   37  C5  UNL     1      32.885  -1.364  12.521  1.00  0.00     0.215 C 
HETATM   38  O3  UNL     1      33.116  -0.453  11.644  1.00  0.00    -0.646 OA
HETATM   39  O4  UNL     1      32.062  -2.354  12.054  1.00  0.00    -0.646 OA
ENDBRANCH   1  37
BRANCH   3  40
HETATM   40  N1  UNL     1      32.180  -3.467  16.213  1.00  0.00    -0.248 N 
HETATM   41  C7  UNL     1      32.351  -2.766  17.345  1.00  0.00     0.334 A 
HETATM   42  O6  UNL     1      33.054  -1.696  17.397  1.00  0.00    -0.246 OA
HETATM   43  N2  UNL     1      31.767  -3.197  18.483  1.00  0.00    -0.260 N 
HETATM   44  C8  UNL     1      31.006  -4.316  18.540  1.00  0.00     0.330 A 
ATOM     45  H2  UNL     1      31.905  -2.658  19.337  1.00  0.00     0.175 HD
HETATM   46  O7  UNL     1      30.454  -4.723  19.596  1.00  0.00    -0.246 OA
HETATM   47  N3  UNL     1      30.857  -4.991  17.390  1.00  0.00    -0.285 N 
HETATM   48  C9  UNL     1      31.435  -4.580  16.232  1.00  0.00     0.188 A 
ATOM     49  H3  UNL     1      30.290  -5.840  17.386  1.00  0.00     0.173 HD
HETATM   50  S1  UNL     1      31.182  -5.518  14.897  1.00  0.00    -0.040 SA
ENDBRANCH   3  40
TORSDOF 14
ENDMDL
MODEL 2
REMARK VINA RESULT: -8.208433617      2.682      9.213
REMARK  14 active torsions:
REMARK  status: ('A' for Active; 'I' for Inactive)
REMARK    1  A    between atoms: C2_2  and  O1_3 
REMARK    2  A    between atoms: C2_2  and  C3_5 
REMARK    3  A    between atoms: C2_2  and  C4_8 
REMARK    4  A    between atoms: C3_5  and  O2_6 
REMARK    5  A    between atoms: C4_8  and  C5_9 
REMARK    6  A    between atoms: C6_13  and  N1_14 
REMARK    7  A    between atoms: C11_26  and  N4_27 
REMARK    8  A    between atoms: C12_32  and  S2_33 
REMARK    9  A    between atoms: S2_33  and  C13_34 
REMARK   10  A    between atoms: C13_34  and  C14_35 
REMARK   11  A    between atoms: C14_35  and  C15_36 
REMARK       I    between atoms: C15_36  and  N7_38 
REMARK   12  A    between atoms: N7_38  and  N8_40 
REMARK       I    between atoms: N8_40  and  C16_42 
REMARK   13  A    between atoms: C16_42  and  C17_44 
REMARK   14  A    between atoms: C17_44  and  N9_45 
ROOT
HETATM    1  C4  UNL     1      33.812  -1.541  13.436  1.00  0.00     0.207 C 
HETATM    2  O5  UNL     1      34.251  -1.561  12.086  1.00  0.00    -0.338 OA
HETATM    3  C6  UNL     1      33.517  -2.562  11.448  1.00  0.00     0.239 C 
HETATM    4  C10 UNL     1      32.121  -2.447  12.004  1.00  0.00     0.087 C 
HETATM    5  C11 UNL     1      32.423  -1.969  13.422  1.00  0.00     0.181 C 
ENDROOT
BRANCH   5   6
HETATM    6  N4  UNL     1      31.952  -2.896  14.423  1.00  0.00    -0.209 N 
HETATM    7  N5  UNL     1      31.860  -4.191  14.430  1.00  0.00    -0.223 N 
HETATM    8  N6  UNL     1      31.383  -4.613  15.551  1.00  0.00    -0.263 N 
ATOM      9  H5  UNL     1      32.128  -4.794  13.652  1.00  0.00     0.210 HD
HETATM   10  C12 UNL     1      31.145  -3.547  16.338  1.00  0.00     0.180 A 
ATOM     11  H6  UNL     1      31.216  -5.587  15.800  1.00  0.00     0.190 HD
HETATM   12  N10 UNL     1      31.507  -2.485  15.616  1.00  0.00    -0.260 N 
ATOM     13  H10 UNL     1      31.454  -1.515  15.923  1.00  0.00     0.191 HD
BRANCH  10  14
HETATM   14  S2  UNL     1      30.450  -3.603  17.984  1.00  0.00    -0.063 SA
BRANCH  14  15
HETATM   15  C13 UNL     1      31.532  -2.902  19.213  1.00  0.00     0.059 C 
BRANCH  15  16
HETATM   16  C14 UNL     1      31.025  -2.581  20.384  1.00  0.00     0.083 C 
BRANCH  16  17
HETATM   17  C15 UNL     1      29.685  -2.991  20.824  1.00  0.00     0.260 C 
HETATM   18  O8  UNL     1      28.900  -2.099  21.224  1.00  0.00    -0.267 OA
HETATM   19  N7  UNL     1      29.271  -4.340  20.809  1.00  0.00    -0.264 N 
ATOM     20  H7  UNL     1      29.940  -5.033  20.472  1.00  0.00     0.190 HD
BRANCH  19  21
HETATM   21  N8  UNL     1      28.038  -4.797  21.211  1.00  0.00    -0.266 N 
HETATM   22  C16 UNL     1      26.945  -5.031  20.343  1.00  0.00     0.261 C 
HETATM   23  O9  UNL     1      27.112  -4.808  19.124  1.00  0.00    -0.270 OA
ATOM     24  H8  UNL     1      27.902  -4.980  22.205  1.00  0.00     0.190 HD
BRANCH  22  25
HETATM   25  C17 UNL     1      25.624  -5.518  20.790  1.00  0.00     0.333 C 
BRANCH  25  26
HETATM   26  N9  UNL     1      24.822  -4.473  21.379  1.00  0.00    -0.071 N 
ATOM     27  H93 UNL     1      25.336  -3.593  21.418  1.00  0.00     0.274 HD
ATOM     28  H92 UNL     1      24.066  -4.193  20.755  1.00  0.00     0.274 HD
ATOM     29  H91 UNL     1      24.463  -4.730  22.299  1.00  0.00     0.274 HD
ENDBRANCH  25  26
ENDBRANCH  22  25
ENDBRANCH  19  21
ENDBRANCH  16  17
ENDBRANCH  15  16
ENDBRANCH  14  15
ENDBRANCH  10  14
ENDBRANCH   5   6
BRANCH   1  30
HETATM   30  C2  UNL     1      33.950  -0.111  13.883  1.00  0.00     0.119 C 
HETATM   31  C1  UNL     1      33.454   0.017  15.347  1.00  0.00     0.052 C 
BRANCH  30  32
HETATM   32  O1  UNL     1      33.146   0.778  13.196  1.00  0.00    -0.384 OA
ATOM     33  H1  UNL     1      33.547   1.619  13.376  1.00  0.00     0.210 HD
ENDBRANCH  30  32
BRANCH  30  34
HETATM   34  C3  UNL     1      35.355   0.357  13.919  1.00  0.00     0.205 C 
BRANCH  34  35
HETATM   35  O2  UNL     1      36.079   0.323  12.765  1.00  0.00    -0.398 OA
ATOM     36  H2  UNL     1      37.001   0.101  12.817  1.00  0.00     0.209 HD
ENDBRANCH  34  35
ENDBRANCH  30  34
ENDBRANCH   1  30
BRANCH   1  37
HETATM   37  C5  UNL     1      34.729  -2.450  14.133  1.00  0.00     0.215 C 
HETATM   38  O3  UNL     1      35.771  -2.846  13.494  1.00  0.00    -0.646 OA
HETATM   39  O4  UNL     1      34.658  -2.960  15.402  1.00  0.00    -0.646 OA
ENDBRANCH   1  37
BRANCH   3  40
HETATM   40  N1  UNL     1      33.529  -2.325   9.998  1.00  0.00    -0.248 N 
HETATM   41  C7  UNL     1      33.788  -1.109   9.491  1.00  0.00     0.334 A 
HETATM   42  O6  UNL     1      34.029  -0.089  10.228  1.00  0.00    -0.246 OA
HETATM   43  N2  UNL     1      33.795  -0.940   8.152  1.00  0.00    -0.260 N 
HETATM   44  C8  UNL     1      33.551  -1.949   7.282  1.00  0.00     0.330 A 
ATOM     45  H2  UNL     1      33.992  -0.012   7.778  1.00  0.00     0.175 HD
HETATM   46  O7  UNL     1      33.560  -1.801   6.032  1.00  0.00    -0.246 OA
HETATM   47  N3  UNL     1      33.296  -3.150   7.824  1.00  0.00    -0.285 N 
HETATM   48  C9  UNL     1      33.281  -3.347   9.168  1.00  0.00     0.188 A 
ATOM     49  H3  UNL     1      33.108  -3.940   7.207  1.00  0.00     0.173 HD
HETATM   50  S1  UNL     1      32.934  -4.872   9.696  1.00  0.00    -0.040 SA
ENDBRANCH   3  40
TORSDOF 14
ENDMDL
MODEL 3
REMARK VINA RESULT: -8.087653582      2.897      9.180
REMARK  14 active torsions:
REMARK  status: ('A' for Active; 'I' for Inactive)
REMARK    1  A    between atoms: C2_2  and  O1_3 
REMARK    2  A    between atoms: C2_2  and  C3_5 
REMARK    3  A    between atoms: C2_2  and  C4_8 
REMARK    4  A    between atoms: C3_5  and  O2_6 
REMARK    5  A    between atoms: C4_8  and  C5_9 
REMARK    6  A    between atoms: C6_13  and  N1_14 
REMARK    7  A    between atoms: C11_26  and  N4_27 
REMARK    8  A    between atoms: C12_32  and  S2_33 
REMARK    9  A    between atoms: S2_33  and  C13_34 
REMARK   10  A    between atoms: C13_34  and  C14_35 
REMARK   11  A    between atoms: C14_35  and  C15_36 
REMARK       I    between atoms: C15_36  and  N7_38 
REMARK   12  A    between atoms: N7_38  and  N8_40 
REMARK       I    between atoms: N8_40  and  C16_42 
REMARK   13  A    between atoms: C16_42  and  C17_44 
REMARK   14  A    between atoms: C17_44  and  N9_45 
ROOT
HETATM    1  C4  UNL     1      35.178  -1.617  12.277  1.00  0.00     0.207 C 
HETATM    2  O5  UNL     1      34.978  -1.970  10.916  1.00  0.00    -0.338 OA
HETATM    3  C6  UNL     1      33.597  -2.009  10.719  1.00  0.00     0.239 C 
HETATM    4  C10 UNL     1      33.051  -0.843  11.501  1.00  0.00     0.087 C 
HETATM    5  C11 UNL     1      34.045  -0.790  12.658  1.00  0.00     0.181 C 
ENDROOT
BRANCH   5   6
HETATM    6  N4  UNL     1      33.409  -0.997  13.936  1.00  0.00    -0.209 N 
HETATM    7  N5  UNL     1      33.460  -0.326  15.048  1.00  0.00    -0.223 N 
HETATM    8  N6  UNL     1      32.719  -0.873  15.949  1.00  0.00    -0.263 N 
ATOM      9  H5  UNL     1      34.014   0.519  15.188  1.00  0.00     0.210 HD
HETATM   10  C12 UNL     1      32.139  -1.965  15.415  1.00  0.00     0.180 A 
ATOM     11  H6  UNL     1      32.592  -0.536  16.903  1.00  0.00     0.190 HD
HETATM   12  N10 UNL     1      32.583  -2.024  14.159  1.00  0.00    -0.260 N 
ATOM     13  H10 UNL     1      32.332  -2.738  13.476  1.00  0.00     0.191 HD
BRANCH  10  14
HETATM   14  S2  UNL     1      31.042  -3.085  16.275  1.00  0.00    -0.063 SA
BRANCH  14  15
HETATM   15  C13 UNL     1      31.695  -3.619  17.844  1.00  0.00     0.059 C 
BRANCH  15  16
HETATM   16  C14 UNL     1      31.698  -2.765  18.844  1.00  0.00     0.083 C 
BRANCH  16  17
HETATM   17  C15 UNL     1      30.753  -2.832  19.966  1.00  0.00     0.260 C 
HETATM   18  O8  UNL     1      31.048  -2.217  21.019  1.00  0.00    -0.267 OA
HETATM   19  N7  UNL     1      29.546  -3.559  19.888  1.00  0.00    -0.264 N 
ATOM     20  H7  UNL     1      29.344  -4.041  19.012  1.00  0.00     0.190 HD
BRANCH  19  21
HETATM   21  N8  UNL     1      28.620  -3.671  20.898  1.00  0.00    -0.266 N 
HETATM   22  C16 UNL     1      27.376  -4.337  20.777  1.00  0.00     0.261 C 
HETATM   23  O9  UNL     1      27.101  -4.861  19.675  1.00  0.00    -0.270 OA
ATOM     24  H8  UNL     1      28.844  -3.245  21.796  1.00  0.00     0.190 HD
BRANCH  22  25
HETATM   25  C17 UNL     1      26.388  -4.446  21.870  1.00  0.00     0.333 C 
BRANCH  25  26
HETATM   26  N9  UNL     1      25.945  -3.157  22.343  1.00  0.00    -0.071 N 
ATOM     27  H93 UNL     1      26.637  -2.434  22.144  1.00  0.00     0.274 HD
ATOM     28  H92 UNL     1      25.173  -2.803  21.779  1.00  0.00     0.274 HD
ATOM     29  H91 UNL     1      25.702  -3.168  23.333  1.00  0.00     0.274 HD
ENDBRANCH  25  26
ENDBRANCH  22  25
ENDBRANCH  19  21
ENDBRANCH  16  17
ENDBRANCH  15  16
ENDBRANCH  14  15
ENDBRANCH  10  14
ENDBRANCH   5   6
BRANCH   1  30
HETATM   30  C2  UNL     1      36.468  -0.844  12.307  1.00  0.00     0.119 C 
HETATM   31  C1  UNL     1      36.521   0.012  13.599  1.00  0.00     0.052 C 
BRANCH  30  32
HETATM   32  O1  UNL     1      36.591   0.093  11.299  1.00  0.00    -0.384 OA
ATOM     33  H1  UNL     1      35.807   0.621  11.394  1.00  0.00     0.210 HD
ENDBRANCH  30  32
BRANCH  30  34
HETATM   34  C3  UNL     1      37.668  -1.711  12.380  1.00  0.00     0.205 C 
BRANCH  34  35
HETATM   35  O2  UNL     1      37.944  -2.524  11.322  1.00  0.00    -0.398 OA
ATOM     36  H2  UNL     1      38.824  -2.518  10.966  1.00  0.00     0.209 HD
ENDBRANCH  34  35
ENDBRANCH  30  34
ENDBRANCH   1  30
BRANCH   1  37
HETATM   37  C5  UNL     1      35.265  -2.903  12.979  1.00  0.00     0.215 C 
HETATM   38  O3  UNL     1      35.487  -3.952  12.271  1.00  0.00    -0.646 OA
HETATM   39  O4  UNL     1      35.150  -3.178  14.316  1.00  0.00    -0.646 OA
ENDBRANCH   1  37
BRANCH   3  40
HETATM   40  N1  UNL     1      33.307  -1.867   9.286  1.00  0.00    -0.248 N 
HETATM   41  C7  UNL     1      34.019  -1.036   8.508  1.00  0.00     0.334 A 
HETATM   42  O6  UNL     1      34.977  -0.317   8.960  1.00  0.00    -0.246 OA
HETATM   43  N2  UNL     1      33.720  -0.943   7.194  1.00  0.00    -0.260 N 
HETATM   44  C8  UNL     1      32.725  -1.656   6.615  1.00  0.00     0.330 A 
ATOM     45  H2  UNL     1      34.267  -0.308   6.613  1.00  0.00     0.175 HD
HETATM   46  O7  UNL     1      32.443  -1.578   5.391  1.00  0.00    -0.246 OA
HETATM   47  N3  UNL     1      32.035  -2.475   7.422  1.00  0.00    -0.285 N 
HETATM   48  C9  UNL     1      32.313  -2.586   8.747  1.00  0.00     0.188 A 
ATOM     49  H3  UNL     1      31.276  -3.033   7.028  1.00  0.00     0.173 HD
HETATM   50  S1  UNL     1      31.370  -3.619   9.625  1.00  0.00    -0.040 SA
ENDBRANCH   3  40
TORSDOF 14
ENDMDL
MODEL 4
REMARK VINA RESULT: -8.044243450      2.011      3.050
REMARK  14 active torsions:
REMARK  status: ('A' for Active; 'I' for Inactive)
REMARK    1  A    between atoms: C2_2  and  O1_3 
REMARK    2  A    between atoms: C2_2  and  C3_5 
REMARK    3  A    between atoms: C2_2  and  C4_8 
REMARK    4  A    between atoms: C3_5  and  O2_6 
REMARK    5  A    between atoms: C4_8  and  C5_9 
REMARK    6  A    between atoms: C6_13  and  N1_14 
REMARK    7  A    between atoms: C11_26  and  N4_27 
REMARK    8  A    between atoms: C12_32  and  S2_33 
REMARK    9  A    between atoms: S2_33  and  C13_34 
REMARK   10  A    between atoms: C13_34  and  C14_35 
REMARK   11  A    between atoms: C14_35  and  C15_36 
REMARK       I    between atoms: C15_36  and  N7_38 
REMARK   12  A    between atoms: N7_38  and  N8_40 
REMARK       I    between atoms: N8_40  and  C16_42 
REMARK   13  A    between atoms: C16_42  and  C17_44 
REMARK   14  A    between atoms: C17_44  and  N9_45 
ROOT
HETATM    1  C4  UNL     1      33.439  -1.190  13.803  1.00  0.00     0.207 C 
HETATM    2  O5  UNL     1      32.477  -1.703  14.713  1.00  0.00    -0.338 OA
HETATM    3  C6  UNL     1      32.740  -3.068  14.835  1.00  0.00     0.239 C 
HETATM    4  C10 UNL     1      34.242  -3.184  14.857  1.00  0.00     0.087 C 
HETATM    5  C11 UNL     1      34.626  -2.016  13.952  1.00  0.00     0.181 C 
ENDROOT
BRANCH   5   6
HETATM    6  N4  UNL     1      35.346  -2.446  12.778  1.00  0.00    -0.209 N 
HETATM    7  N5  UNL     1      36.420  -1.993  12.206  1.00  0.00    -0.223 N 
HETATM    8  N6  UNL     1      36.720  -2.695  11.167  1.00  0.00    -0.263 N 
ATOM      9  H5  UNL     1      36.955  -1.188  12.534  1.00  0.00     0.210 HD
HETATM   10  C12 UNL     1      35.801  -3.671  11.037  1.00  0.00     0.180 A 
ATOM     11  H6  UNL     1      37.516  -2.539  10.550  1.00  0.00     0.190 HD
HETATM   12  N10 UNL     1      34.953  -3.498  12.052  1.00  0.00    -0.260 N 
ATOM     13  H10 UNL     1      34.136  -4.076  12.244  1.00  0.00     0.191 HD
BRANCH  10  14
HETATM   14  S2  UNL     1      35.758  -4.890   9.730  1.00  0.00    -0.063 SA
BRANCH  14  15
HETATM   15  C13 UNL     1      34.504  -4.551   8.512  1.00  0.00     0.059 C 
BRANCH  15  16
HETATM   16  C14 UNL     1      33.778  -3.462   8.647  1.00  0.00     0.083 C 
BRANCH  16  17
HETATM   17  C15 UNL     1      32.461  -3.445   9.296  1.00  0.00     0.260 C 
HETATM   18  O8  UNL     1      32.237  -4.294  10.192  1.00  0.00    -0.267 OA
HETATM   19  N7  UNL     1      31.461  -2.515   8.940  1.00  0.00    -0.264 N 
ATOM     20  H7  UNL     1      31.686  -1.840   8.209  1.00  0.00     0.190 HD
BRANCH  19  21
HETATM   21  N8  UNL     1      30.206  -2.445   9.499  1.00  0.00    -0.266 N 
HETATM   22  C16 UNL     1      29.089  -3.198   9.063  1.00  0.00     0.261 C 
HETATM   23  O9  UNL     1      29.255  -3.983   8.104  1.00  0.00    -0.270 OA
ATOM     24  H8  UNL     1      30.071  -1.806  10.281  1.00  0.00     0.190 HD
BRANCH  22  25
HETATM   25  C17 UNL     1      27.746  -3.109   9.671  1.00  0.00     0.333 C 
BRANCH  25  26
HETATM   26  N9  UNL     1      26.691  -3.260   8.698  1.00  0.00    -0.071 N 
ATOM     27  H93 UNL     1      25.812  -2.876   9.046  1.00  0.00     0.274 HD
ATOM     28  H92 UNL     1      26.834  -2.641   7.900  1.00  0.00     0.274 HD
ATOM     29  H91 UNL     1      26.575  -4.227   8.396  1.00  0.00     0.274 HD
ENDBRANCH  25  26
ENDBRANCH  22  25
ENDBRANCH  19  21
ENDBRANCH  16  17
ENDBRANCH  15  16
ENDBRANCH  14  15
ENDBRANCH  10  14
ENDBRANCH   5   6
BRANCH   1  30
HETATM   30  C2  UNL     1      33.688   0.228  14.239  1.00  0.00     0.119 C 
HETATM   31  C1  UNL     1      33.115   0.432  15.666  1.00  0.00     0.052 C 
BRANCH  30  32
HETATM   32  O1  UNL     1      33.020   1.177  13.490  1.00  0.00    -0.384 OA
ATOM     33  H1  UNL     1      32.149   0.810  13.397  1.00  0.00     0.210 HD
ENDBRANCH  30  32
BRANCH  30  34
HETATM   34  C3  UNL     1      35.127   0.558  14.360  1.00  0.00     0.205 C 
BRANCH  34  35
HETATM   35  O2  UNL     1      35.530   1.820  14.041  1.00  0.00    -0.398 OA
ATOM     36  H2  UNL     1      34.870   2.499  13.963  1.00  0.00     0.209 HD
ENDBRANCH  34  35
ENDBRANCH  30  34
ENDBRANCH   1  30
BRANCH   1  37
HETATM   37  C5  UNL     1      32.787  -1.281  12.492  1.00  0.00     0.215 C 
HETATM   38  O3  UNL     1      33.367  -0.707  11.499  1.00  0.00    -0.646 OA
HETATM   39  O4  UNL     1      31.620  -1.905  12.137  1.00  0.00    -0.646 OA
ENDBRANCH   1  37
BRANCH   3  40
HETATM   40  N1  UNL     1      32.154  -3.566  16.087  1.00  0.00    -0.248 N 
HETATM   41  C7  UNL     1      32.313  -2.905  17.245  1.00  0.00     0.334 A 
HETATM   42  O6  UNL     1      32.984  -1.817  17.333  1.00  0.00    -0.246 OA
HETATM   43  N2  UNL     1      31.750  -3.397  18.369  1.00  0.00    -0.260 N 
HETATM   44  C8  UNL     1      31.023  -4.539  18.388  1.00  0.00     0.330 A 
ATOM     45  H2  UNL     1      31.878  -2.887  19.242  1.00  0.00     0.175 HD
HETATM   46  O7  UNL     1      30.491  -5.003  19.430  1.00  0.00    -0.246 OA
HETATM   47  N3  UNL     1      30.885  -5.174  17.213  1.00  0.00    -0.285 N 
HETATM   48  C9  UNL     1      31.443  -4.702  16.068  1.00  0.00     0.188 A 
ATOM     49  H3  UNL     1      30.344  -6.038  17.180  1.00  0.00     0.173 HD
HETATM   50  S1  UNL     1      31.208  -5.595  14.699  1.00  0.00    -0.040 SA
ENDBRANCH   3  40
TORSDOF 14
ENDMDL
MODEL 5
REMARK VINA RESULT: -8.007108712      2.654      8.878
REMARK  14 active torsions:
REMARK  status: ('A' for Active; 'I' for Inactive)
REMARK    1  A    between atoms: C2_2  and  O1_3 
REMARK    2  A    between atoms: C2_2  and  C3_5 
REMARK    3  A    between atoms: C2_2  and  C4_8 
REMARK    4  A    between atoms: C3_5  and  O2_6 
REMARK    5  A    between atoms: C4_8  and  C5_9 
REMARK    6  A    between atoms: C6_13  and  N1_14 
REMARK    7  A    between atoms: C11_26  and  N4_27 
REMARK    8  A    between atoms: C12_32  and  S2_33 
REMARK    9  A    between atoms: S2_33  and  C13_34 
REMARK   10  A    between atoms: C13_34  and  C14_35 
REMARK   11  A    between atoms: C14_35  and  C15_36 
REMARK       I    between atoms: C15_36  and  N7_38 
REMARK   12  A    between atoms: N7_38  and  N8_40 
REMARK       I    between atoms: N8_40  and  C16_42 
REMARK   13  A    between atoms: C16_42  and  C17_44 
REMARK   14  A    between atoms: C17_44  and  N9_45 
ROOT
HETATM    1  C4  UNL     1      35.221  -1.618  12.272  1.00  0.00     0.207 C 
HETATM    2  O5  UNL     1      35.074  -1.936  10.895  1.00  0.00    -0.338 OA
HETATM    3  C6  UNL     1      33.702  -1.992  10.649  1.00  0.00     0.239 C 
HETATM    4  C10 UNL     1      33.109  -0.856  11.442  1.00  0.00     0.087 C 
HETATM    5  C11 UNL     1      34.062  -0.820  12.635  1.00  0.00     0.181 C 
ENDROOT
BRANCH   5   6
HETATM    6  N4  UNL     1      33.385  -1.072  13.884  1.00  0.00    -0.209 N 
HETATM    7  N5  UNL     1      33.394  -0.438  15.017  1.00  0.00    -0.223 N 
HETATM    8  N6  UNL     1      32.627  -1.018  15.875  1.00  0.00    -0.263 N 
ATOM      9  H5  UNL     1      33.934   0.407  15.203  1.00  0.00     0.210 HD
HETATM   10  C12 UNL     1      32.075  -2.097  15.288  1.00  0.00     0.180 A 
ATOM     11  H6  UNL     1      32.465  -0.713  16.835  1.00  0.00     0.190 HD
HETATM   12  N10 UNL     1      32.561  -2.112  14.046  1.00  0.00    -0.260 N 
ATOM     13  H10 UNL     1      32.339  -2.807  13.333  1.00  0.00     0.191 HD
BRANCH  10  14
HETATM   14  S2  UNL     1      30.960  -3.253  16.074  1.00  0.00    -0.063 SA
BRANCH  14  15
HETATM   15  C13 UNL     1      31.383  -4.951  15.744  1.00  0.00     0.059 C 
BRANCH  15  16
HETATM   16  C14 UNL     1      31.889  -5.672  16.721  1.00  0.00     0.083 C 
BRANCH  16  17
HETATM   17  C15 UNL     1      31.068  -6.418  17.683  1.00  0.00     0.260 C 
HETATM   18  O8  UNL     1      31.249  -7.656  17.773  1.00  0.00    -0.267 OA
HETATM   19  N7  UNL     1      30.097  -5.786  18.489  1.00  0.00    -0.264 N 
ATOM     20  H7  UNL     1      29.985  -4.778  18.385  1.00  0.00     0.190 HD
BRANCH  19  21
HETATM   21  N8  UNL     1      29.289  -6.420  19.403  1.00  0.00    -0.266 N 
HETATM   22  C16 UNL     1      29.619  -6.620  20.765  1.00  0.00     0.261 C 
HETATM   23  O9  UNL     1      30.723  -6.188  21.166  1.00  0.00    -0.270 OA
ATOM     24  H8  UNL     1      28.389  -6.771  19.078  1.00  0.00     0.190 HD
BRANCH  22  25
HETATM   25  C17 UNL     1      28.743  -7.307  21.736  1.00  0.00     0.333 C 
BRANCH  25  26
HETATM   26  N9  UNL     1      27.350  -6.981  21.546  1.00  0.00    -0.071 N 
ATOM     27  H93 UNL     1      26.748  -7.635  22.047  1.00  0.00     0.274 HD
ATOM     28  H92 UNL     1      27.103  -6.122  22.038  1.00  0.00     0.274 HD
ATOM     29  H91 UNL     1      27.094  -6.927  20.561  1.00  0.00     0.274 HD
ENDBRANCH  25  26
ENDBRANCH  22  25
ENDBRANCH  19  21
ENDBRANCH  16  17
ENDBRANCH  15  16
ENDBRANCH  14  15
ENDBRANCH  10  14
ENDBRANCH   5   6
BRANCH   1  30
HETATM   30  C2  UNL     1      36.496  -0.825  12.367  1.00  0.00     0.119 C 
HETATM   31  C1  UNL     1      36.493  -0.010  13.688  1.00  0.00     0.052 C 
BRANCH  30  32
HETATM   32  O1  UNL     1      36.634   0.146  11.395  1.00  0.00    -0.384 OA
ATOM     33  H1  UNL     1      36.177  -0.224  10.649  1.00  0.00     0.210 HD
ENDBRANCH  30  32
BRANCH  30  34
HETATM   34  C3  UNL     1      37.708  -1.674  12.451  1.00  0.00     0.205 C 
BRANCH  34  35
HETATM   35  O2  UNL     1      38.024  -2.457  11.383  1.00  0.00    -0.398 OA
ATOM     36  H2  UNL     1      38.939  -2.546  11.144  1.00  0.00     0.209 HD
ENDBRANCH  34  35
ENDBRANCH  30  34
ENDBRANCH   1  30
BRANCH   1  37
HETATM   37  C5  UNL     1      35.305  -2.921  12.941  1.00  0.00     0.215 C 
HETATM   38  O3  UNL     1      35.542  -3.950  12.209  1.00  0.00    -0.646 OA
HETATM   39  O4  UNL     1      35.175  -3.232  14.269  1.00  0.00    -0.646 OA
ENDBRANCH   1  37
BRANCH   3  40
HETATM   40  N1  UNL     1      33.459  -1.814   9.211  1.00  0.00    -0.248 N 
HETATM   41  C7  UNL     1      34.076  -0.848   8.512  1.00  0.00     0.334 A 
HETATM   42  O6  UNL     1      34.897  -0.024   9.047  1.00  0.00    -0.246 OA
HETATM   43  N2  UNL     1      33.826  -0.727   7.190  1.00  0.00    -0.260 N 
HETATM   44  C8  UNL     1      32.974  -1.543   6.526  1.00  0.00     0.330 A 
ATOM     45  H2  UNL     1      34.299   0.011   6.670  1.00  0.00     0.175 HD
HETATM   46  O7  UNL     1      32.739  -1.440   5.293  1.00  0.00    -0.246 OA
HETATM   47  N3  UNL     1      32.376  -2.497   7.256  1.00  0.00    -0.285 N 
HETATM   48  C9  UNL     1      32.607  -2.639   8.587  1.00  0.00     0.188 A 
ATOM     49  H3  UNL     1      31.726  -3.136   6.796  1.00  0.00     0.173 HD
HETATM   50  S1  UNL     1      31.788  -3.844   9.363  1.00  0.00    -0.040 SA
ENDBRANCH   3  40
TORSDOF 14
ENDMDL
