MODEL 1
REMARK VINA RESULT: -7.933144231      0.000      0.000
REMARK  18 active torsions:
REMARK  status: ('A' for Active; 'I' for Inactive)
REMARK    1  A    between atoms: O1_2  and  C2_3 
REMARK    2  A    between atoms: C3_4  and  N1_5 
REMARK    3  A    between atoms: C4_9  and  O2_10 
REMARK    4  A    between atoms: O2_10  and  C5_11 
REMARK    5  A    between atoms: C6_12  and  N2_13 
REMARK    6  A    between atoms: C9_19  and  N3_20 
REMARK    7  A    between atoms: C10_24  and  O3_25 
REMARK    8  A    between atoms: C11_27  and  N4_28 
REMARK    9  A    between atoms: N4_28  and  C12_30 
REMARK   10  A    between atoms: C12_30  and  O4_31 
REMARK   11  A    between atoms: C12_30  and  C13_33 
REMARK   12  A    between atoms: C13_33  and  N5_34 
REMARK   13  A    between atoms: C13_33  and  C14_38 
REMARK   14  A    between atoms: N9_45  and  C15_46 
REMARK   15  A    between atoms: C19_51  and  O5_52 
REMARK   16  A    between atoms: C20_54  and  C21_55 
REMARK   17  A    between atoms: C21_55  and  O6_56 
REMARK   18  A    between atoms: O6_56  and  C22_57 
ROOT
HETATM    1  C15 UNL     1      30.859  -4.266  17.816  1.00  0.00     0.137 C 
HETATM    2  C16 UNL     1      30.780  -4.669  19.312  1.00  0.00     0.057 C 
HETATM    3  C17 UNL     1      31.378  -5.485  17.125  1.00  0.00     0.057 C 
HETATM    4  C18 UNL     1      29.455  -3.964  17.471  1.00  0.00     0.092 C 
HETATM    5  N10 UNL     1      28.356  -3.741  17.184  1.00  0.00    -0.195 NA
ENDROOT
BRANCH   1   6
HETATM    6  N9  UNL     1      31.714  -3.117  17.765  1.00  0.00    -0.238 N 
HETATM    7  C14 UNL     1      32.109  -2.393  16.735  1.00  0.00     0.152 A 
HETATM    8  N6  UNL     1      32.889  -1.400  17.184  1.00  0.00    -0.270 N 
HETATM    9  N7  UNL     1      32.987  -1.493  18.487  1.00  0.00    -0.227 N 
ATOM     10  H6  UNL     1      33.334  -0.687  16.606  1.00  0.00     0.190 HD
HETATM   11  N8  UNL     1      32.280  -2.526  18.831  1.00  0.00    -0.223 N 
ATOM     12  H7  UNL     1      33.514  -0.877  19.107  1.00  0.00     0.210 HD
ATOM     13  H8  UNL     1      32.168  -2.850  19.792  1.00  0.00     0.210 HD
BRANCH   7  14
HETATM   14  C13 UNL     1      31.799  -2.514  15.280  1.00  0.00     0.301 C 
BRANCH  14  15
HETATM   15  C12 UNL     1      32.993  -3.120  14.508  1.00  0.00     0.256 C 
BRANCH  15  16
HETATM   16  N4  UNL     1      33.331  -2.357  13.379  1.00  0.00    -0.364 N 
ATOM     17  H4  UNL     1      33.135  -1.356  13.383  1.00  0.00     0.162 HD
BRANCH  16  18
HETATM   18  C11 UNL     1      33.930  -2.926  12.245  1.00  0.00     0.045 C 
HETATM   19  C4  UNL     1      33.297  -2.847  10.913  1.00  0.00     0.203 C 
HETATM   20  C3  UNL     1      33.652  -1.514  10.292  1.00  0.00     0.247 C 
HETATM   21  C2  UNL     1      35.126  -1.591   9.943  1.00  0.00     0.163 C 
HETATM   22  C20 UNL     1      35.969  -1.842  11.141  1.00  0.00     0.076 C 
HETATM   23  C19 UNL     1      35.433  -2.694  12.211  1.00  0.00     0.174 C 
BRANCH  19  24
HETATM   24  O2  UNL     1      31.991  -3.140  10.906  1.00  0.00    -0.368 OA
BRANCH  24  25
HETATM   25  C5  UNL     1      31.472  -3.802   9.842  1.00  0.00     0.183 C 
HETATM   26  C6  UNL     1      30.273  -3.164   9.191  1.00  0.00     0.215 C 
HETATM   27  C7  UNL     1      29.742  -4.139   8.157  1.00  0.00     0.037 C 
HETATM   28  C8  UNL     1      29.126  -5.354   8.776  1.00  0.00     0.037 C 
HETATM   29  C9  UNL     1      29.649  -5.485  10.170  1.00  0.00     0.214 C 
HETATM   30  C10 UNL     1      31.147  -5.211  10.152  1.00  0.00     0.179 C 
BRANCH  26  31
HETATM   31  N2  UNL     1      30.635  -1.991   8.410  1.00  0.00    -0.072 N 
ATOM     32  H23 UNL     1      30.903  -1.213   9.013  1.00  0.00     0.274 HD
ATOM     33  H22 UNL     1      31.521  -2.130   7.923  1.00  0.00     0.274 HD
ATOM     34  H21 UNL     1      29.896  -1.719   7.762  1.00  0.00     0.274 HD
ENDBRANCH  26  31
BRANCH  29  35
HETATM   35  N3  UNL     1      29.355  -6.794  10.655  1.00  0.00    -0.072 N 
ATOM     36  H33 UNL     1      29.507  -7.512   9.948  1.00  0.00     0.274 HD
ATOM     37  H32 UNL     1      30.041  -7.118  11.337  1.00  0.00     0.274 HD
ATOM     38  H31 UNL     1      28.404  -6.806  11.023  1.00  0.00     0.274 HD
ENDBRANCH  29  35
BRANCH  30  39
HETATM   39  O3  UNL     1      31.628  -6.005   9.075  1.00  0.00    -0.391 OA
ATOM     40  H3  UNL     1      30.898  -6.521   8.754  1.00  0.00     0.210 HD
ENDBRANCH  30  39
ENDBRANCH  24  25
ENDBRANCH  19  24
BRANCH  20  41
HETATM   41  N1  UNL     1      33.451  -0.382  11.135  1.00  0.00    -0.070 N 
ATOM     42  H13 UNL     1      33.064  -0.633  12.044  1.00  0.00     0.274 HD
ATOM     43  H12 UNL     1      34.326   0.023  11.463  1.00  0.00     0.274 HD
ATOM     44  H11 UNL     1      32.870   0.290  10.633  1.00  0.00     0.274 HD
ENDBRANCH  20  41
BRANCH  21  45
HETATM   45  O1  UNL     1      35.579  -0.455   9.273  1.00  0.00    -0.388 OA
HETATM   46  C1  UNL     1      34.917  -0.257   8.078  1.00  0.00     0.202 C 
ENDBRANCH  21  45
BRANCH  22  47
HETATM   47  C21 UNL     1      36.576  -0.538  11.652  1.00  0.00     0.190 C 
BRANCH  47  48
HETATM   48  O6  UNL     1      36.730  -0.564  13.053  1.00  0.00    -0.306 OA
BRANCH  48  49
HETATM   49  C22 UNL     1      35.918   0.241  13.821  1.00  0.00     0.372 C 
HETATM   50  N11 UNL     1      34.885  -0.244  14.658  1.00  0.00    -0.032 NA
HETATM   51  O7  UNL     1      36.078   1.510  13.801  1.00  0.00    -0.242 OA
ENDBRANCH  48  49
ENDBRANCH  47  48
ENDBRANCH  22  47
BRANCH  23  52
HETATM   52  O5  UNL     1      36.122  -3.898  12.341  1.00  0.00    -0.389 OA
ATOM     53  H5  UNL     1      37.017  -3.809  12.034  1.00  0.00     0.210 HD
ENDBRANCH  23  52
ENDBRANCH  16  18
ENDBRANCH  15  16
BRANCH  15  54
HETATM   54  O4  UNL     1      34.048  -3.244  15.424  1.00  0.00    -0.374 OA
ATOM     55  H4  UNL     1      34.513  -4.069  15.346  1.00  0.00     0.212 HD
ENDBRANCH  15  54
ENDBRANCH  14  15
BRANCH  14  56
HETATM   56  N5  UNL     1      31.628  -1.120  14.834  1.00  0.00    -0.064 N 
ATOM     57  H53 UNL     1      32.504  -0.597  14.827  1.00  0.00     0.275 HD
ATOM     58  H52 UNL     1      31.419  -1.048  13.838  1.00  0.00     0.275 HD
ATOM     59  H51 UNL     1      30.915  -0.686  15.419  1.00  0.00     0.275 HD
ENDBRANCH  14  56
ENDBRANCH   7  14
ENDBRANCH   1   6
TORSDOF 18
ENDMDL
MODEL 2
REMARK VINA RESULT: -7.921397108      1.951      2.324
REMARK  18 active torsions:
REMARK  status: ('A' for Active; 'I' for Inactive)
REMARK    1  A    between atoms: O1_2  and  C2_3 
REMARK    2  A    between atoms: C3_4  and  N1_5 
REMARK    3  A    between atoms: C4_9  and  O2_10 
REMARK    4  A    between atoms: O2_10  and  C5_11 
REMARK    5  A    between atoms: C6_12  and  N2_13 
REMARK    6  A    between atoms: C9_19  and  N3_20 
REMARK    7  A    between atoms: C10_24  and  O3_25 
REMARK    8  A    between atoms: C11_27  and  N4_28 
REMARK    9  A    between atoms: N4_28  and  C12_30 
REMARK   10  A    between atoms: C12_30  and  O4_31 
REMARK   11  A    between atoms: C12_30  and  C13_33 
REMARK   12  A    between atoms: C13_33  and  N5_34 
REMARK   13  A    between atoms: C13_33  and  C14_38 
REMARK   14  A    between atoms: N9_45  and  C15_46 
REMARK   15  A    between atoms: C19_51  and  O5_52 
REMARK   16  A    between atoms: C20_54  and  C21_55 
REMARK   17  A    between atoms: C21_55  and  O6_56 
REMARK   18  A    between atoms: O6_56  and  C22_57 
ROOT
HETATM    1  C15 UNL     1      30.746  -4.681  18.651  1.00  0.00     0.137 C 
HETATM    2  C16 UNL     1      30.848  -4.694  20.199  1.00  0.00     0.057 C 
HETATM    3  C17 UNL     1      31.213  -6.038  18.232  1.00  0.00     0.057 C 
HETATM    4  C18 UNL     1      29.306  -4.469  18.406  1.00  0.00     0.092 C 
HETATM    5  N10 UNL     1      28.176  -4.320  18.202  1.00  0.00    -0.195 NA
ENDROOT
BRANCH   1   6
HETATM    6  N9  UNL     1      31.562  -3.587  18.214  1.00  0.00    -0.238 N 
HETATM    7  C14 UNL     1      32.038  -3.303  17.017  1.00  0.00     0.152 A 
HETATM    8  N6  UNL     1      32.732  -2.158  17.093  1.00  0.00    -0.270 N 
HETATM    9  N7  UNL     1      32.695  -1.720  18.328  1.00  0.00    -0.227 N 
ATOM     10  H6  UNL     1      33.211  -1.702  16.317  1.00  0.00     0.190 HD
HETATM   11  N8  UNL     1      31.992  -2.583  18.998  1.00  0.00    -0.223 N 
ATOM     12  H7  UNL     1      33.132  -0.873  18.690  1.00  0.00     0.210 HD
ATOM     13  H8  UNL     1      31.790  -2.508  19.995  1.00  0.00     0.210 HD
BRANCH   7  14
HETATM   14  C13 UNL     1      31.887  -4.012  15.712  1.00  0.00     0.301 C 
BRANCH  14  15
HETATM   15  C12 UNL     1      32.470  -3.170  14.555  1.00  0.00     0.256 C 
BRANCH  15  16
HETATM   16  N4  UNL     1      32.345  -3.820  13.317  1.00  0.00    -0.364 N 
ATOM     17  H4  UNL     1      31.484  -4.325  13.109  1.00  0.00     0.162 HD
BRANCH  16  18
HETATM   18  C11 UNL     1      33.368  -3.799  12.356  1.00  0.00     0.045 C 
HETATM   19  C4  UNL     1      33.070  -3.804  10.909  1.00  0.00     0.203 C 
HETATM   20  C3  UNL     1      32.787  -2.383  10.474  1.00  0.00     0.247 C 
HETATM   21  C2  UNL     1      34.115  -1.654  10.526  1.00  0.00     0.163 C 
HETATM   22  C20 UNL     1      34.703  -1.667  11.891  1.00  0.00     0.076 C 
HETATM   23  C19 UNL     1      34.493  -2.850  12.735  1.00  0.00     0.174 C 
BRANCH  19  24
HETATM   24  O2  UNL     1      32.146  -4.699  10.540  1.00  0.00    -0.368 OA
BRANCH  24  25
HETATM   25  C5  UNL     1      32.335  -6.006  10.854  1.00  0.00     0.183 C 
HETATM   26  C6  UNL     1      32.928  -6.864   9.767  1.00  0.00     0.215 C 
HETATM   27  C7  UNL     1      32.886  -8.303  10.247  1.00  0.00     0.037 C 
HETATM   28  C8  UNL     1      31.493  -8.843  10.317  1.00  0.00     0.037 C 
HETATM   29  C9  UNL     1      30.545  -7.690  10.379  1.00  0.00     0.214 C 
HETATM   30  C10 UNL     1      31.103  -6.656  11.349  1.00  0.00     0.179 C 
BRANCH  26  31
HETATM   31  N2  UNL     1      34.347  -6.601   9.577  1.00  0.00    -0.072 N 
ATOM     32  H23 UNL     1      34.655  -5.807  10.140  1.00  0.00     0.274 HD
ATOM     33  H22 UNL     1      34.919  -7.331  10.002  1.00  0.00     0.274 HD
ATOM     34  H21 UNL     1      34.584  -6.471   8.594  1.00  0.00     0.274 HD
ENDBRANCH  26  31
BRANCH  29  35
HETATM   35  N3  UNL     1      29.263  -8.162  10.787  1.00  0.00    -0.072 N 
ATOM     36  H33 UNL     1      29.302  -8.677  11.666  1.00  0.00     0.274 HD
ATOM     37  H32 UNL     1      28.650  -7.407  11.091  1.00  0.00     0.274 HD
ATOM     38  H31 UNL     1      28.856  -8.714  10.031  1.00  0.00     0.274 HD
ENDBRANCH  29  35
BRANCH  30  39
HETATM   39  O3  UNL     1      31.457  -7.419  12.496  1.00  0.00    -0.391 OA
ATOM     40  H3  UNL     1      31.228  -6.904  13.261  1.00  0.00     0.210 HD
ENDBRANCH  30  39
ENDBRANCH  24  25
ENDBRANCH  19  24
BRANCH  20  41
HETATM   41  N1  UNL     1      31.855  -1.676  11.289  1.00  0.00    -0.070 N 
ATOM     42  H13 UNL     1      32.183  -1.557  12.247  1.00  0.00     0.274 HD
ATOM     43  H12 UNL     1      31.788  -0.689  11.042  1.00  0.00     0.274 HD
ATOM     44  H11 UNL     1      30.957  -2.156  11.238  1.00  0.00     0.274 HD
ENDBRANCH  20  41
BRANCH  21  45
HETATM   45  O1  UNL     1      34.026  -0.342  10.060  1.00  0.00    -0.388 OA
HETATM   46  C1  UNL     1      34.453  -0.225   8.752  1.00  0.00     0.202 C 
ENDBRANCH  21  45
BRANCH  22  47
HETATM   47  C21 UNL     1      34.416  -0.351  12.612  1.00  0.00     0.190 C 
BRANCH  47  48
HETATM   48  O6  UNL     1      34.447  -0.520  14.011  1.00  0.00    -0.306 OA
BRANCH  48  49
HETATM   49  C22 UNL     1      34.116   0.550  14.812  1.00  0.00     0.372 C 
HETATM   50  N11 UNL     1      33.325   0.449  15.981  1.00  0.00    -0.032 NA
HETATM   51  O7  UNL     1      34.531   1.722  14.512  1.00  0.00    -0.242 OA
ENDBRANCH  48  49
ENDBRANCH  47  48
ENDBRANCH  22  47
BRANCH  23  52
HETATM   52  O5  UNL     1      35.671  -3.555  12.983  1.00  0.00    -0.389 OA
ATOM     53  H5  UNL     1      36.359  -2.967  13.273  1.00  0.00     0.210 HD
ENDBRANCH  23  52
ENDBRANCH  16  18
ENDBRANCH  15  16
BRANCH  15  54
HETATM   54  O4  UNL     1      31.822  -1.926  14.591  1.00  0.00    -0.374 OA
ATOM     55  H4  UNL     1      32.341  -1.248  15.006  1.00  0.00     0.212 HD
ENDBRANCH  15  54
ENDBRANCH  14  15
BRANCH  14  56
HETATM   56  N5  UNL     1      30.429  -4.102  15.521  1.00  0.00    -0.064 N 
ATOM     57  H53 UNL     1      29.976  -3.189  15.508  1.00  0.00     0.275 HD
ATOM     58  H52 UNL     1      30.173  -4.395  14.578  1.00  0.00     0.275 HD
ATOM     59  H51 UNL     1      30.054  -4.718  16.242  1.00  0.00     0.275 HD
ENDBRANCH  14  56
ENDBRANCH   7  14
ENDBRANCH   1   6
TORSDOF 18
ENDMDL
MODEL 3
REMARK VINA RESULT: -7.755332009      2.183      2.763
REMARK  18 active torsions:
REMARK  status: ('A' for Active; 'I' for Inactive)
REMARK    1  A    between atoms: O1_2  and  C2_3 
REMARK    2  A    between atoms: C3_4  and  N1_5 
REMARK    3  A    between atoms: C4_9  and  O2_10 
REMARK    4  A    between atoms: O2_10  and  C5_11 
REMARK    5  A    between atoms: C6_12  and  N2_13 
REMARK    6  A    between atoms: C9_19  and  N3_20 
REMARK    7  A    between atoms: C10_24  and  O3_25 
REMARK    8  A    between atoms: C11_27  and  N4_28 
REMARK    9  A    between atoms: N4_28  and  C12_30 
REMARK   10  A    between atoms: C12_30  and  O4_31 
REMARK   11  A    between atoms: C12_30  and  C13_33 
REMARK   12  A    between atoms: C13_33  and  N5_34 
REMARK   13  A    between atoms: C13_33  and  C14_38 
REMARK   14  A    between atoms: N9_45  and  C15_46 
REMARK   15  A    between atoms: C19_51  and  O5_52 
REMARK   16  A    between atoms: C20_54  and  C21_55 
REMARK   17  A    between atoms: C21_55  and  O6_56 
REMARK   18  A    between atoms: O6_56  and  C22_57 
ROOT
HETATM    1  C15 UNL     1      30.826  -4.450  18.506  1.00  0.00     0.137 C 
HETATM    2  C16 UNL     1      30.886  -4.356  20.054  1.00  0.00     0.057 C 
HETATM    3  C17 UNL     1      31.269  -5.844  18.196  1.00  0.00     0.057 C 
HETATM    4  C18 UNL     1      29.398  -4.222  18.206  1.00  0.00     0.092 C 
HETATM    5  N10 UNL     1      28.278  -4.060  17.961  1.00  0.00    -0.195 NA
ENDROOT
BRANCH   1   6
HETATM    6  N9  UNL     1      31.680  -3.409  18.017  1.00  0.00    -0.238 N 
HETATM    7  C14 UNL     1      32.176  -3.207  16.811  1.00  0.00     0.152 A 
HETATM    8  N6  UNL     1      32.906  -2.083  16.830  1.00  0.00    -0.270 N 
HETATM    9  N7  UNL     1      32.873  -1.576  18.038  1.00  0.00    -0.227 N 
ATOM     10  H6  UNL     1      33.406  -1.687  16.035  1.00  0.00     0.190 HD
HETATM   11  N8  UNL     1      32.136  -2.377  18.748  1.00  0.00    -0.223 N 
ATOM     12  H7  UNL     1      33.334  -0.724  18.357  1.00  0.00     0.210 HD
ATOM     13  H8  UNL     1      31.929  -2.239  19.737  1.00  0.00     0.210 HD
BRANCH   7  14
HETATM   14  C13 UNL     1      32.013  -3.983  15.546  1.00  0.00     0.301 C 
BRANCH  14  15
HETATM   15  C12 UNL     1      32.569  -3.196  14.339  1.00  0.00     0.256 C 
BRANCH  15  16
HETATM   16  N4  UNL     1      32.460  -3.922  13.142  1.00  0.00    -0.364 N 
ATOM     17  H4  UNL     1      31.631  -4.495  12.987  1.00  0.00     0.162 HD
BRANCH  16  18
HETATM   18  C11 UNL     1      33.455  -3.885  12.153  1.00  0.00     0.045 C 
HETATM   19  C4  UNL     1      33.117  -3.896  10.715  1.00  0.00     0.203 C 
HETATM   20  C3  UNL     1      32.798  -2.481  10.287  1.00  0.00     0.247 C 
HETATM   21  C2  UNL     1      34.114  -1.729  10.302  1.00  0.00     0.163 C 
HETATM   22  C20 UNL     1      34.740  -1.730  11.649  1.00  0.00     0.076 C 
HETATM   23  C19 UNL     1      34.574  -2.916  12.500  1.00  0.00     0.174 C 
BRANCH  19  24
HETATM   24  O2  UNL     1      32.198  -4.808  10.372  1.00  0.00    -0.368 OA
BRANCH  24  25
HETATM   25  C5  UNL     1      32.586  -5.892   9.655  1.00  0.00     0.183 C 
HETATM   26  C6  UNL     1      32.890  -7.133  10.452  1.00  0.00     0.215 C 
HETATM   27  C7  UNL     1      33.474  -8.157   9.497  1.00  0.00     0.037 C 
HETATM   28  C8  UNL     1      34.839  -7.779   9.015  1.00  0.00     0.037 C 
HETATM   29  C9  UNL     1      35.013  -6.308   9.209  1.00  0.00     0.214 C 
HETATM   30  C10 UNL     1      33.735  -5.606   8.769  1.00  0.00     0.179 C 
BRANCH  26  31
HETATM   31  N2  UNL     1      31.681  -7.772  10.950  1.00  0.00    -0.072 N 
ATOM     32  H23 UNL     1      31.098  -7.111  11.465  1.00  0.00     0.274 HD
ATOM     33  H22 UNL     1      31.039  -7.994  10.189  1.00  0.00     0.274 HD
ATOM     34  H21 UNL     1      31.887  -8.597  11.512  1.00  0.00     0.274 HD
ENDBRANCH  26  31
BRANCH  29  35
HETATM   35  N3  UNL     1      36.144  -5.870   8.458  1.00  0.00    -0.072 N 
ATOM     36  H33 UNL     1      35.883  -5.252   7.691  1.00  0.00     0.274 HD
ATOM     37  H32 UNL     1      36.726  -5.214   8.979  1.00  0.00     0.274 HD
ATOM     38  H31 UNL     1      36.667  -6.686   8.138  1.00  0.00     0.274 HD
ENDBRANCH  29  35
BRANCH  30  39
HETATM   39  O3  UNL     1      33.447  -6.183   7.501  1.00  0.00    -0.391 OA
ATOM     40  H3  UNL     1      32.926  -5.555   7.015  1.00  0.00     0.210 HD
ENDBRANCH  30  39
ENDBRANCH  24  25
ENDBRANCH  19  24
BRANCH  20  41
HETATM   41  N1  UNL     1      31.877  -1.788  11.127  1.00  0.00    -0.070 N 
ATOM     42  H13 UNL     1      32.215  -1.692  12.084  1.00  0.00     0.274 HD
ATOM     43  H12 UNL     1      31.812  -0.796  10.903  1.00  0.00     0.274 HD
ATOM     44  H11 UNL     1      30.977  -2.264  11.074  1.00  0.00     0.274 HD
ENDBRANCH  20  41
BRANCH  21  45
HETATM   45  O1  UNL     1      33.991  -0.419   9.837  1.00  0.00    -0.388 OA
HETATM   46  C1  UNL     1      34.633  -0.234   8.629  1.00  0.00     0.202 C 
ENDBRANCH  21  45
BRANCH  22  47
HETATM   47  C21 UNL     1      34.451  -0.419  12.377  1.00  0.00     0.190 C 
BRANCH  47  48
HETATM   48  O6  UNL     1      34.496  -0.592  13.775  1.00  0.00    -0.306 OA
BRANCH  48  49
HETATM   49  C22 UNL     1      34.297   0.506  14.583  1.00  0.00     0.372 C 
HETATM   50  N11 UNL     1      33.405   0.530  15.681  1.00  0.00    -0.032 NA
HETATM   51  O7  UNL     1      34.940   1.588  14.355  1.00  0.00    -0.242 OA
ENDBRANCH  48  49
ENDBRANCH  47  48
ENDBRANCH  22  47
BRANCH  23  52
HETATM   52  O5  UNL     1      35.770  -3.600  12.715  1.00  0.00    -0.389 OA
ATOM     53  H5  UNL     1      36.145  -3.365  13.556  1.00  0.00     0.210 HD
ENDBRANCH  23  52
ENDBRANCH  16  18
ENDBRANCH  15  16
BRANCH  15  54
HETATM   54  O4  UNL     1      31.885  -1.971  14.303  1.00  0.00    -0.374 OA
ATOM     55  H4  UNL     1      31.041  -2.028  13.872  1.00  0.00     0.212 HD
ENDBRANCH  15  54
ENDBRANCH  14  15
BRANCH  14  56
HETATM   56  N5  UNL     1      30.552  -4.098  15.383  1.00  0.00    -0.064 N 
ATOM     57  H53 UNL     1      30.283  -4.870  14.774  1.00  0.00     0.275 HD
ATOM     58  H52 UNL     1      30.085  -4.421  16.230  1.00  0.00     0.275 HD
ATOM     59  H51 UNL     1      30.200  -3.198  15.057  1.00  0.00     0.275 HD
ENDBRANCH  14  56
ENDBRANCH   7  14
ENDBRANCH   1   6
TORSDOF 18
ENDMDL
MODEL 4
REMARK VINA RESULT: -7.722307989      1.432      1.760
REMARK  18 active torsions:
REMARK  status: ('A' for Active; 'I' for Inactive)
REMARK    1  A    between atoms: O1_2  and  C2_3 
REMARK    2  A    between atoms: C3_4  and  N1_5 
REMARK    3  A    between atoms: C4_9  and  O2_10 
REMARK    4  A    between atoms: O2_10  and  C5_11 
REMARK    5  A    between atoms: C6_12  and  N2_13 
REMARK    6  A    between atoms: C9_19  and  N3_20 
REMARK    7  A    between atoms: C10_24  and  O3_25 
REMARK    8  A    between atoms: C11_27  and  N4_28 
REMARK    9  A    between atoms: N4_28  and  C12_30 
REMARK   10  A    between atoms: C12_30  and  O4_31 
REMARK   11  A    between atoms: C12_30  and  C13_33 
REMARK   12  A    between atoms: C13_33  and  N5_34 
REMARK   13  A    between atoms: C13_33  and  C14_38 
REMARK   14  A    between atoms: N9_45  and  C15_46 
REMARK   15  A    between atoms: C19_51  and  O5_52 
REMARK   16  A    between atoms: C20_54  and  C21_55 
REMARK   17  A    between atoms: C21_55  and  O6_56 
REMARK   18  A    between atoms: O6_56  and  C22_57 
ROOT
HETATM    1  C15 UNL     1      31.022  -4.179  17.311  1.00  0.00     0.137 C 
HETATM    2  C16 UNL     1      30.816  -4.510  18.813  1.00  0.00     0.057 C 
HETATM    3  C17 UNL     1      31.599  -5.428  16.726  1.00  0.00     0.057 C 
HETATM    4  C18 UNL     1      29.653  -3.900  16.833  1.00  0.00     0.092 C 
HETATM    5  N10 UNL     1      28.582  -3.695  16.443  1.00  0.00    -0.195 NA
ENDROOT
BRANCH   1   6
HETATM    6  N9  UNL     1      31.879  -3.031  17.277  1.00  0.00    -0.238 N 
HETATM    7  C14 UNL     1      32.321  -2.326  16.253  1.00  0.00     0.152 A 
HETATM    8  N6  UNL     1      33.080  -1.324  16.718  1.00  0.00    -0.270 N 
HETATM    9  N7  UNL     1      33.119  -1.392  18.026  1.00  0.00    -0.227 N 
ATOM     10  H6  UNL     1      33.551  -0.622  16.148  1.00  0.00     0.190 HD
HETATM   11  N8  UNL     1      32.396  -2.420  18.357  1.00  0.00    -0.223 N 
ATOM     12  H7  UNL     1      33.616  -0.765  18.658  1.00  0.00     0.210 HD
ATOM     13  H8  UNL     1      32.240  -2.726  19.317  1.00  0.00     0.210 HD
BRANCH   7  14
HETATM   14  C13 UNL     1      32.077  -2.474  14.788  1.00  0.00     0.301 C 
BRANCH  14  15
HETATM   15  C12 UNL     1      33.264  -3.183  14.098  1.00  0.00     0.256 C 
BRANCH  15  16
HETATM   16  N4  UNL     1      33.197  -3.081  12.699  1.00  0.00    -0.364 N 
ATOM     17  H4  UNL     1      32.304  -2.851  12.264  1.00  0.00     0.162 HD
BRANCH  16  18
HETATM   18  C11 UNL     1      34.319  -3.285  11.881  1.00  0.00     0.045 C 
HETATM   19  C4  UNL     1      34.240  -3.150  10.412  1.00  0.00     0.203 C 
HETATM   20  C3  UNL     1      34.389  -1.687  10.057  1.00  0.00     0.247 C 
HETATM   21  C2  UNL     1      35.836  -1.331  10.336  1.00  0.00     0.163 C 
HETATM   22  C20 UNL     1      36.200  -1.555  11.759  1.00  0.00     0.076 C 
HETATM   23  C19 UNL     1      35.580  -2.679  12.473  1.00  0.00     0.174 C 
BRANCH  19  24
HETATM   24  O2  UNL     1      33.183  -3.757   9.859  1.00  0.00    -0.368 OA
BRANCH  24  25
HETATM   25  C5  UNL     1      32.774  -4.949  10.361  1.00  0.00     0.183 C 
HETATM   26  C6  UNL     1      33.082  -6.159   9.518  1.00  0.00     0.215 C 
HETATM   27  C7  UNL     1      32.390  -7.349  10.155  1.00  0.00     0.037 C 
HETATM   28  C8  UNL     1      30.900  -7.280  10.031  1.00  0.00     0.037 C 
HETATM   29  C9  UNL     1      30.517  -5.859   9.773  1.00  0.00     0.214 C 
HETATM   30  C10 UNL     1      31.333  -4.962  10.695  1.00  0.00     0.179 C 
BRANCH  26  31
HETATM   31  N2  UNL     1      34.494  -6.511   9.565  1.00  0.00    -0.072 N 
ATOM     32  H23 UNL     1      35.084  -5.700   9.378  1.00  0.00     0.274 HD
ATOM     33  H22 UNL     1      34.794  -6.712  10.519  1.00  0.00     0.274 HD
ATOM     34  H21 UNL     1      34.717  -7.282   8.936  1.00  0.00     0.274 HD
ENDBRANCH  26  31
BRANCH  29  35
HETATM   35  N3  UNL     1      29.116  -5.708   9.990  1.00  0.00    -0.072 N 
ATOM     36  H33 UNL     1      28.690  -6.552  10.372  1.00  0.00     0.274 HD
ATOM     37  H32 UNL     1      28.909  -5.080  10.766  1.00  0.00     0.274 HD
ATOM     38  H31 UNL     1      28.674  -5.411   9.120  1.00  0.00     0.274 HD
ENDBRANCH  29  35
BRANCH  30  39
HETATM   39  O3  UNL     1      31.199  -5.571  11.973  1.00  0.00    -0.391 OA
ATOM     40  H3  UNL     1      30.596  -5.040  12.478  1.00  0.00     0.210 HD
ENDBRANCH  30  39
ENDBRANCH  24  25
ENDBRANCH  19  24
BRANCH  20  41
HETATM   41  N1  UNL     1      33.558  -0.797  10.800  1.00  0.00    -0.070 N 
ATOM     42  H13 UNL     1      34.050  -0.360  11.580  1.00  0.00     0.274 HD
ATOM     43  H12 UNL     1      33.334   0.053  10.284  1.00  0.00     0.274 HD
ATOM     44  H11 UNL     1      32.727  -1.308  11.096  1.00  0.00     0.274 HD
ENDBRANCH  20  41
BRANCH  21  45
HETATM   45  O1  UNL     1      36.148  -0.022   9.966  1.00  0.00    -0.388 OA
HETATM   46  C1  UNL     1      35.993   0.186   8.611  1.00  0.00     0.202 C 
ENDBRANCH  21  45
BRANCH  22  47
HETATM   47  C21 UNL     1      36.153  -0.243  12.538  1.00  0.00     0.190 C 
BRANCH  47  48
HETATM   48  O6  UNL     1      35.022  -0.189  13.377  1.00  0.00    -0.306 OA
BRANCH  48  49
HETATM   49  C22 UNL     1      34.858   0.908  14.195  1.00  0.00     0.372 C 
HETATM   50  N11 UNL     1      33.853   1.015  15.184  1.00  0.00    -0.032 NA
HETATM   51  O7  UNL     1      35.646   1.909  14.081  1.00  0.00    -0.242 OA
ENDBRANCH  48  49
ENDBRANCH  47  48
ENDBRANCH  22  47
BRANCH  23  52
HETATM   52  O5  UNL     1      36.494  -3.675  12.813  1.00  0.00    -0.389 OA
ATOM     53  H5  UNL     1      36.593  -4.298  12.102  1.00  0.00     0.210 HD
ENDBRANCH  23  52
ENDBRANCH  16  18
ENDBRANCH  15  16
BRANCH  15  54
HETATM   54  O4  UNL     1      34.436  -2.628  14.634  1.00  0.00    -0.374 OA
ATOM     55  H4  UNL     1      34.303  -1.761  14.999  1.00  0.00     0.212 HD
ENDBRANCH  15  54
ENDBRANCH  14  15
BRANCH  14  56
HETATM   56  N5  UNL     1      32.023  -1.087  14.292  1.00  0.00    -0.064 N 
ATOM     57  H53 UNL     1      32.898  -0.582  14.437  1.00  0.00     0.275 HD
ATOM     58  H52 UNL     1      32.002  -1.033  13.274  1.00  0.00     0.275 HD
ATOM     59  H51 UNL     1      31.225  -0.626  14.729  1.00  0.00     0.275 HD
ENDBRANCH  14  56
ENDBRANCH   7  14
ENDBRANCH   1   6
TORSDOF 18
ENDMDL
MODEL 5
REMARK VINA RESULT: -7.636536695      1.961      2.460
REMARK  18 active torsions:
REMARK  status: ('A' for Active; 'I' for Inactive)
REMARK    1  A    between atoms: O1_2  and  C2_3 
REMARK    2  A    between atoms: C3_4  and  N1_5 
REMARK    3  A    between atoms: C4_9  and  O2_10 
REMARK    4  A    between atoms: O2_10  and  C5_11 
REMARK    5  A    between atoms: C6_12  and  N2_13 
REMARK    6  A    between atoms: C9_19  and  N3_20 
REMARK    7  A    between atoms: C10_24  and  O3_25 
REMARK    8  A    between atoms: C11_27  and  N4_28 
REMARK    9  A    between atoms: N4_28  and  C12_30 
REMARK   10  A    between atoms: C12_30  and  O4_31 
REMARK   11  A    between atoms: C12_30  and  C13_33 
REMARK   12  A    between atoms: C13_33  and  N5_34 
REMARK   13  A    between atoms: C13_33  and  C14_38 
REMARK   14  A    between atoms: N9_45  and  C15_46 
REMARK   15  A    between atoms: C19_51  and  O5_52 
REMARK   16  A    between atoms: C20_54  and  C21_55 
REMARK   17  A    between atoms: C21_55  and  O6_56 
REMARK   18  A    between atoms: O6_56  and  C22_57 
ROOT
HETATM    1  C15 UNL     1      31.028  -4.181  17.262  1.00  0.00     0.137 C 
HETATM    2  C16 UNL     1      30.835  -4.493  18.769  1.00  0.00     0.057 C 
HETATM    3  C17 UNL     1      31.582  -5.444  16.684  1.00  0.00     0.057 C 
HETATM    4  C18 UNL     1      29.657  -3.890  16.796  1.00  0.00     0.092 C 
HETATM    5  N10 UNL     1      28.585  -3.676  16.416  1.00  0.00    -0.195 NA
ENDROOT
BRANCH   1   6
HETATM    6  N9  UNL     1      31.899  -3.044  17.206  1.00  0.00    -0.238 N 
HETATM    7  C14 UNL     1      32.313  -2.337  16.172  1.00  0.00     0.152 A 
HETATM    8  N6  UNL     1      33.102  -1.349  16.618  1.00  0.00    -0.270 N 
HETATM    9  N7  UNL     1      33.187  -1.429  17.923  1.00  0.00    -0.227 N 
ATOM     10  H6  UNL     1      33.561  -0.649  16.036  1.00  0.00     0.190 HD
HETATM   11  N8  UNL     1      32.463  -2.450  18.271  1.00  0.00    -0.223 N 
ATOM     12  H7  UNL     1      33.716  -0.814  18.541  1.00  0.00     0.210 HD
ATOM     13  H8  UNL     1      32.338  -2.762  19.234  1.00  0.00     0.210 HD
BRANCH   7  14
HETATM   14  C13 UNL     1      32.014  -2.469  14.716  1.00  0.00     0.301 C 
BRANCH  14  15
HETATM   15  C12 UNL     1      33.159  -3.202  13.980  1.00  0.00     0.256 C 
BRANCH  15  16
HETATM   16  N4  UNL     1      33.065  -3.059  12.587  1.00  0.00    -0.364 N 
ATOM     17  H4  UNL     1      32.172  -2.782  12.178  1.00  0.00     0.162 HD
BRANCH  16  18
HETATM   18  C11 UNL     1      34.158  -3.286  11.737  1.00  0.00     0.045 C 
HETATM   19  C4  UNL     1      34.049  -3.120  10.274  1.00  0.00     0.203 C 
HETATM   20  C3  UNL     1      34.241  -1.656   9.943  1.00  0.00     0.247 C 
HETATM   21  C2  UNL     1      35.706  -1.355  10.192  1.00  0.00     0.163 C 
HETATM   22  C20 UNL     1      36.096  -1.620  11.601  1.00  0.00     0.076 C 
HETATM   23  C19 UNL     1      35.455  -2.735  12.310  1.00  0.00     0.174 C 
BRANCH  19  24
HETATM   24  O2  UNL     1      32.959  -3.679   9.735  1.00  0.00    -0.368 OA
BRANCH  24  25
HETATM   25  C5  UNL     1      33.037  -4.949   9.265  1.00  0.00     0.183 C 
HETATM   26  C6  UNL     1      33.054  -6.036  10.307  1.00  0.00     0.215 C 
HETATM   27  C7  UNL     1      33.330  -7.348   9.595  1.00  0.00     0.037 C 
HETATM   28  C8  UNL     1      34.726  -7.430   9.065  1.00  0.00     0.037 C 
HETATM   29  C9  UNL     1      35.267  -6.042   8.951  1.00  0.00     0.214 C 
HETATM   30  C10 UNL     1      34.186  -5.148   8.356  1.00  0.00     0.179 C 
BRANCH  26  31
HETATM   31  N2  UNL     1      31.744  -6.236  10.910  1.00  0.00    -0.072 N 
ATOM     32  H23 UNL     1      31.007  -5.828  10.335  1.00  0.00     0.274 HD
ATOM     33  H22 UNL     1      31.462  -7.215  10.865  1.00  0.00     0.274 HD
ATOM     34  H21 UNL     1      31.705  -5.883  11.866  1.00  0.00     0.274 HD
ENDBRANCH  26  31
BRANCH  29  35
HETATM   35  N3  UNL     1      36.441  -6.065   8.142  1.00  0.00    -0.072 N 
ATOM     36  H33 UNL     1      36.331  -6.651   7.315  1.00  0.00     0.274 HD
ATOM     37  H32 UNL     1      36.603  -5.177   7.667  1.00  0.00     0.274 HD
ATOM     38  H31 UNL     1      37.235  -6.350   8.716  1.00  0.00     0.274 HD
ENDBRANCH  29  35
BRANCH  30  39
HETATM   39  O3  UNL     1      33.717  -5.882   7.232  1.00  0.00    -0.391 OA
ATOM     40  H3  UNL     1      34.017  -5.430   6.452  1.00  0.00     0.210 HD
ENDBRANCH  30  39
ENDBRANCH  24  25
ENDBRANCH  19  24
BRANCH  20  41
HETATM   41  N1  UNL     1      33.460  -0.753  10.722  1.00  0.00    -0.070 N 
ATOM     42  H13 UNL     1      32.597  -1.175  11.064  1.00  0.00     0.274 HD
ATOM     43  H12 UNL     1      33.883  -0.549  11.627  1.00  0.00     0.274 HD
ATOM     44  H11 UNL     1      33.294   0.087  10.168  1.00  0.00     0.274 HD
ENDBRANCH  20  41
BRANCH  21  45
HETATM   45  O1  UNL     1      36.055  -0.052   9.840  1.00  0.00    -0.388 OA
HETATM   46  C1  UNL     1      35.837   0.201   8.500  1.00  0.00     0.202 C 
ENDBRANCH  21  45
BRANCH  22  47
HETATM   47  C21 UNL     1      36.114  -0.322  12.406  1.00  0.00     0.190 C 
BRANCH  47  48
HETATM   48  O6  UNL     1      35.010  -0.250  13.279  1.00  0.00    -0.306 OA
BRANCH  48  49
HETATM   49  C22 UNL     1      34.905   0.835  14.122  1.00  0.00     0.372 C 
HETATM   50  N11 UNL     1      33.885   0.992  15.089  1.00  0.00    -0.032 NA
HETATM   51  O7  UNL     1      35.766   1.779  14.053  1.00  0.00    -0.242 OA
ENDBRANCH  48  49
ENDBRANCH  47  48
ENDBRANCH  22  47
BRANCH  23  52
HETATM   52  O5  UNL     1      36.341  -3.769  12.608  1.00  0.00    -0.389 OA
ATOM     53  H5  UNL     1      37.234  -3.516  12.405  1.00  0.00     0.210 HD
ENDBRANCH  23  52
ENDBRANCH  16  18
ENDBRANCH  15  16
BRANCH  15  54
HETATM   54  O4  UNL     1      34.362  -2.704  14.504  1.00  0.00    -0.374 OA
ATOM     55  H4  UNL     1      34.440  -2.831  15.442  1.00  0.00     0.212 HD
ENDBRANCH  15  54
ENDBRANCH  14  15
BRANCH  14  56
HETATM   56  N5  UNL     1      31.977  -1.078  14.230  1.00  0.00    -0.064 N 
ATOM     57  H53 UNL     1      31.955  -1.016  13.213  1.00  0.00     0.275 HD
ATOM     58  H52 UNL     1      31.084  -0.620  14.415  1.00  0.00     0.275 HD
ATOM     59  H51 UNL     1      32.768  -0.580  14.638  1.00  0.00     0.275 HD
ENDBRANCH  14  56
ENDBRANCH   7  14
ENDBRANCH   1   6
TORSDOF 18
ENDMDL
