MODEL 1
REMARK VINA RESULT: -7.968142560      0.000      0.000
REMARK  18 active torsions:
REMARK  status: ('A' for Active; 'I' for Inactive)
REMARK    1  A    between atoms: O1_2  and  C2_3 
REMARK    2  A    between atoms: C3_4  and  O2_5 
REMARK    3  A    between atoms: O2_5  and  C4_6 
REMARK    4  A    between atoms: C5_8  and  O4_9 
REMARK    5  A    between atoms: O4_9  and  C6_10 
REMARK    6  A    between atoms: C7_12  and  C8_13 
REMARK    7  A    between atoms: C8_13  and  N1_14 
REMARK    8  A    between atoms: C9_18  and  O6_19 
REMARK    9  A    between atoms: C11_22  and  N2_23 
REMARK   10  A    between atoms: C12_27  and  N3_28 
REMARK   11  A    between atoms: C14_33  and  N4_34 
REMARK   12  A    between atoms: C15_38  and  N5_39 
REMARK   13  A    between atoms: C17_44  and  N6_45 
REMARK   14  A    between atoms: C18_49  and  O7_50 
REMARK   15  A    between atoms: O7_50  and  C19_51 
REMARK   16  A    between atoms: C20_53  and  C21_54 
REMARK   17  A    between atoms: C21_54  and  N7_55 
REMARK   18  A    between atoms: C23_60  and  O9_61 
ROOT
HETATM    1  C4  UNL     1      32.457  -2.338  13.908  1.00  0.00     0.294 C 
HETATM    2  O3  UNL     1      32.342  -3.465  14.737  1.00  0.00    -0.327 OA
HETATM    3  C5  UNL     1      32.033  -3.024  16.048  1.00  0.00     0.296 C 
HETATM    4  C12 UNL     1      33.188  -2.228  16.616  1.00  0.00     0.240 C 
HETATM    5  C13 UNL     1      34.268  -2.012  15.581  1.00  0.00     0.075 C 
HETATM    6  C14 UNL     1      33.585  -1.451  14.338  1.00  0.00     0.240 C 
ENDROOT
BRANCH   1   7
HETATM    7  O2  UNL     1      32.488  -2.590  12.599  1.00  0.00    -0.349 OA
BRANCH   7   8
HETATM    8  C3  UNL     1      33.399  -3.427  12.045  1.00  0.00     0.186 C 
HETATM    9  C2  UNL     1      32.735  -4.104  10.906  1.00  0.00     0.183 C 
HETATM   10  C18 UNL     1      33.555  -4.092   9.626  1.00  0.00     0.186 C 
HETATM   11  C17 UNL     1      33.969  -2.686   9.384  1.00  0.00     0.217 C 
HETATM   12  C16 UNL     1      35.028  -2.371  10.405  1.00  0.00     0.071 C 
HETATM   13  C15 UNL     1      34.737  -2.833  11.773  1.00  0.00     0.217 C 
BRANCH   9  14
HETATM   14  O1  UNL     1      31.484  -3.601  10.563  1.00  0.00    -0.385 OA
HETATM   15  C1  UNL     1      30.670  -4.573   9.979  1.00  0.00     0.202 C 
ENDBRANCH   9  14
BRANCH  10  16
HETATM   16  O7  UNL     1      34.571  -4.991   9.724  1.00  0.00    -0.349 OA
BRANCH  16  17
HETATM   17  C19 UNL     1      34.758  -5.794   8.626  1.00  0.00     0.289 C 
HETATM   18  O8  UNL     1      35.881  -6.601   8.779  1.00  0.00    -0.352 OA
HETATM   19  C20 UNL     1      35.799  -7.581   7.814  1.00  0.00     0.152 C 
HETATM   20  C22 UNL     1      34.356  -7.794   7.475  1.00  0.00     0.070 C 
HETATM   21  C23 UNL     1      33.666  -6.821   8.441  1.00  0.00     0.175 C 
BRANCH  19  22
HETATM   22  C21 UNL     1      36.563  -7.100   6.599  1.00  0.00     0.261 C 
BRANCH  22  23
HETATM   23  N7  UNL     1      37.915  -6.796   6.999  1.00  0.00    -0.077 N 
ATOM     24  H73 UNL     1      38.424  -7.621   7.318  1.00  0.00     0.274 HD
ATOM     25  H72 UNL     1      38.514  -6.559   6.209  1.00  0.00     0.274 HD
ATOM     26  H71 UNL     1      37.886  -6.059   7.703  1.00  0.00     0.274 HD
ENDBRANCH  22  23
ENDBRANCH  19  22
BRANCH  21  27
HETATM   27  O9  UNL     1      33.442  -7.550   9.613  1.00  0.00    -0.391 OA
ATOM     28  H9  UNL     1      32.514  -7.657   9.785  1.00  0.00     0.210 HD
ENDBRANCH  21  27
ENDBRANCH  16  17
ENDBRANCH  10  16
BRANCH  11  29
HETATM   29  N6  UNL     1      32.856  -1.777   9.431  1.00  0.00    -0.072 N 
ATOM     30  H63 UNL     1      32.829  -1.193   8.595  1.00  0.00     0.274 HD
ATOM     31  H62 UNL     1      31.974  -2.274   9.315  1.00  0.00     0.274 HD
ATOM     32  H61 UNL     1      32.845  -1.205  10.276  1.00  0.00     0.274 HD
ENDBRANCH  11  29
BRANCH  13  33
HETATM   33  N5  UNL     1      35.809  -3.737  12.149  1.00  0.00    -0.072 N 
ATOM     34  H53 UNL     1      36.478  -3.283  12.771  1.00  0.00     0.274 HD
ATOM     35  H52 UNL     1      35.477  -4.467  12.778  1.00  0.00     0.274 HD
ATOM     36  H51 UNL     1      36.271  -4.132  11.331  1.00  0.00     0.274 HD
ENDBRANCH  13  33
ENDBRANCH   7   8
ENDBRANCH   1   7
BRANCH   6  37
HETATM   37  N4  UNL     1      33.133  -0.099  14.684  1.00  0.00    -0.070 N 
ATOM     38  H43 UNL     1      32.427   0.232  14.027  1.00  0.00     0.274 HD
ATOM     39  H42 UNL     1      32.573  -0.106  15.537  1.00  0.00     0.274 HD
ATOM     40  H41 UNL     1      33.906   0.562  14.759  1.00  0.00     0.274 HD
ENDBRANCH   6  37
BRANCH   3  41
HETATM   41  O4  UNL     1      31.874  -4.150  16.815  1.00  0.00    -0.327 OA
BRANCH  41  42
HETATM   42  C6  UNL     1      30.543  -4.465  17.077  1.00  0.00     0.294 C 
HETATM   43  O5  UNL     1      30.479  -5.799  17.378  1.00  0.00    -0.350 OA
HETATM   44  C7  UNL     1      31.078  -6.168  18.549  1.00  0.00     0.178 C 
HETATM   45  C9  UNL     1      30.477  -5.473  19.761  1.00  0.00     0.151 C 
HETATM   46  C10 UNL     1      30.617  -3.992  19.533  1.00  0.00     0.072 C 
HETATM   47  C11 UNL     1      29.957  -3.662  18.214  1.00  0.00     0.240 C 
BRANCH  44  48
HETATM   48  C8  UNL     1      31.078  -7.665  18.767  1.00  0.00     0.264 C 
BRANCH  48  49
HETATM   49  N1  UNL     1      29.791  -8.135  19.224  1.00  0.00    -0.077 N 
ATOM     50  H13 UNL     1      29.244  -8.526  18.457  1.00  0.00     0.274 HD
ATOM     51  H12 UNL     1      29.882  -8.973  19.797  1.00  0.00     0.274 HD
ATOM     52  H11 UNL     1      29.276  -7.403  19.714  1.00  0.00     0.274 HD
ENDBRANCH  48  49
ENDBRANCH  44  48
BRANCH  45  53
HETATM   53  O6  UNL     1      31.192  -5.774  20.916  1.00  0.00    -0.393 OA
ATOM     54  H6  UNL     1      31.419  -4.984  21.393  1.00  0.00     0.210 HD
ENDBRANCH  45  53
BRANCH  47  55
HETATM   55  N2  UNL     1      28.557  -4.025  18.325  1.00  0.00    -0.070 N 
ATOM     56  H23 UNL     1      27.961  -3.511  17.676  1.00  0.00     0.274 HD
ATOM     57  H22 UNL     1      28.361  -4.962  17.974  1.00  0.00     0.274 HD
ATOM     58  H21 UNL     1      28.286  -3.899  19.300  1.00  0.00     0.274 HD
ENDBRANCH  47  55
ENDBRANCH  41  42
ENDBRANCH   3  41
BRANCH   4  59
HETATM   59  N3  UNL     1      32.765  -0.931  17.103  1.00  0.00    -0.070 N 
ATOM     60  H33 UNL     1      31.873  -0.992  17.592  1.00  0.00     0.274 HD
ATOM     61  H32 UNL     1      33.352  -0.617  17.877  1.00  0.00     0.274 HD
ATOM     62  H31 UNL     1      32.732  -0.235  16.358  1.00  0.00     0.274 HD
ENDBRANCH   4  59
TORSDOF 18
ENDMDL
MODEL 2
REMARK VINA RESULT: -7.933331087      1.539      1.850
REMARK  18 active torsions:
REMARK  status: ('A' for Active; 'I' for Inactive)
REMARK    1  A    between atoms: O1_2  and  C2_3 
REMARK    2  A    between atoms: C3_4  and  O2_5 
REMARK    3  A    between atoms: O2_5  and  C4_6 
REMARK    4  A    between atoms: C5_8  and  O4_9 
REMARK    5  A    between atoms: O4_9  and  C6_10 
REMARK    6  A    between atoms: C7_12  and  C8_13 
REMARK    7  A    between atoms: C8_13  and  N1_14 
REMARK    8  A    between atoms: C9_18  and  O6_19 
REMARK    9  A    between atoms: C11_22  and  N2_23 
REMARK   10  A    between atoms: C12_27  and  N3_28 
REMARK   11  A    between atoms: C14_33  and  N4_34 
REMARK   12  A    between atoms: C15_38  and  N5_39 
REMARK   13  A    between atoms: C17_44  and  N6_45 
REMARK   14  A    between atoms: C18_49  and  O7_50 
REMARK   15  A    between atoms: O7_50  and  C19_51 
REMARK   16  A    between atoms: C20_53  and  C21_54 
REMARK   17  A    between atoms: C21_54  and  N7_55 
REMARK   18  A    between atoms: C23_60  and  O9_61 
ROOT
HETATM    1  C4  UNL     1      32.211  -2.238  14.017  1.00  0.00     0.294 C 
HETATM    2  O3  UNL     1      32.064  -3.234  14.995  1.00  0.00    -0.327 OA
HETATM    3  C5  UNL     1      32.071  -2.612  16.268  1.00  0.00     0.296 C 
HETATM    4  C12 UNL     1      33.423  -1.987  16.537  1.00  0.00     0.240 C 
HETATM    5  C13 UNL     1      34.321  -2.080  15.324  1.00  0.00     0.075 C 
HETATM    6  C14 UNL     1      33.527  -1.534  14.141  1.00  0.00     0.240 C 
ENDROOT
BRANCH   1   7
HETATM    7  O2  UNL     1      31.966  -2.624  12.764  1.00  0.00    -0.349 OA
BRANCH   7   8
HETATM    8  C3  UNL     1      32.944  -3.079  11.943  1.00  0.00     0.186 C 
HETATM    9  C2  UNL     1      32.598  -4.474  11.581  1.00  0.00     0.183 C 
HETATM   10  C18 UNL     1      32.692  -4.760  10.091  1.00  0.00     0.186 C 
HETATM   11  C17 UNL     1      31.917  -3.704   9.392  1.00  0.00     0.217 C 
HETATM   12  C16 UNL     1      32.727  -2.440   9.493  1.00  0.00     0.071 C 
HETATM   13  C15 UNL     1      33.312  -2.175  10.818  1.00  0.00     0.217 C 
BRANCH   9  14
HETATM   14  O1  UNL     1      31.329  -4.891  11.970  1.00  0.00    -0.385 OA
HETATM   15  C1  UNL     1      31.280  -6.265  12.211  1.00  0.00     0.202 C 
ENDBRANCH   9  14
BRANCH  10  16
HETATM   16  O7  UNL     1      33.999  -4.862   9.726  1.00  0.00    -0.349 OA
BRANCH  16  17
HETATM   17  C19 UNL     1      34.446  -6.136   9.481  1.00  0.00     0.289 C 
HETATM   18  O8  UNL     1      33.405  -6.963   9.072  1.00  0.00    -0.352 OA
HETATM   19  C20 UNL     1      33.983  -8.095   8.539  1.00  0.00     0.152 C 
HETATM   20  C22 UNL     1      35.342  -7.735   8.021  1.00  0.00     0.070 C 
HETATM   21  C23 UNL     1      35.389  -6.227   8.304  1.00  0.00     0.175 C 
BRANCH  19  22
HETATM   22  C21 UNL     1      34.094  -9.124   9.644  1.00  0.00     0.261 C 
BRANCH  22  23
HETATM   23  N7  UNL     1      33.297 -10.270   9.282  1.00  0.00    -0.077 N 
ATOM     24  H73 UNL     1      32.990 -10.806  10.095  1.00  0.00     0.274 HD
ATOM     25  H72 UNL     1      32.376 -10.012   8.930  1.00  0.00     0.274 HD
ATOM     26  H71 UNL     1      33.826 -10.835   8.619  1.00  0.00     0.274 HD
ENDBRANCH  22  23
ENDBRANCH  19  22
BRANCH  21  27
HETATM   27  O9  UNL     1      34.853  -5.614   7.168  1.00  0.00    -0.391 OA
ATOM     28  H9  UNL     1      34.052  -6.040   6.886  1.00  0.00     0.210 HD
ENDBRANCH  21  27
ENDBRANCH  16  17
ENDBRANCH  10  16
BRANCH  11  29
HETATM   29  N6  UNL     1      30.589  -3.563   9.925  1.00  0.00    -0.072 N 
ATOM     30  H63 UNL     1      30.453  -4.174  10.731  1.00  0.00     0.274 HD
ATOM     31  H62 UNL     1      30.474  -2.658  10.382  1.00  0.00     0.274 HD
ATOM     32  H61 UNL     1      29.861  -3.714   9.226  1.00  0.00     0.274 HD
ENDBRANCH  11  29
BRANCH  13  33
HETATM   33  N5  UNL     1      34.751  -2.106  10.637  1.00  0.00    -0.072 N 
ATOM     34  H53 UNL     1      35.212  -1.719  11.460  1.00  0.00     0.274 HD
ATOM     35  H52 UNL     1      35.172  -3.035  10.641  1.00  0.00     0.274 HD
ATOM     36  H51 UNL     1      34.999  -1.590   9.793  1.00  0.00     0.274 HD
ENDBRANCH  13  33
ENDBRANCH   7   8
ENDBRANCH   1   7
BRANCH   6  37
HETATM   37  N4  UNL     1      33.372  -0.094  14.373  1.00  0.00    -0.070 N 
ATOM     38  H43 UNL     1      32.466   0.115  14.791  1.00  0.00     0.274 HD
ATOM     39  H42 UNL     1      33.978   0.224  15.131  1.00  0.00     0.274 HD
ATOM     40  H41 UNL     1      33.524   0.455  13.527  1.00  0.00     0.274 HD
ENDBRANCH   6  37
BRANCH   3  41
HETATM   41  O4  UNL     1      31.870  -3.605  17.193  1.00  0.00    -0.327 OA
BRANCH  41  42
HETATM   42  C6  UNL     1      30.536  -3.982  17.328  1.00  0.00     0.294 C 
HETATM   43  O5  UNL     1      30.485  -5.350  17.331  1.00  0.00    -0.350 OA
HETATM   44  C7  UNL     1      31.047  -5.957  18.418  1.00  0.00     0.178 C 
HETATM   45  C9  UNL     1      30.389  -5.547  19.726  1.00  0.00     0.151 C 
HETATM   46  C10 UNL     1      30.510  -4.050  19.829  1.00  0.00     0.072 C 
HETATM   47  C11 UNL     1      29.894  -3.449  18.586  1.00  0.00     0.240 C 
BRANCH  44  48
HETATM   48  C8  UNL     1      31.067  -7.466  18.309  1.00  0.00     0.264 C 
BRANCH  48  49
HETATM   49  N1  UNL     1      29.818  -8.046  18.747  1.00  0.00    -0.077 N 
ATOM     50  H13 UNL     1      29.163  -7.329  19.056  1.00  0.00     0.274 HD
ATOM     51  H12 UNL     1      29.286  -8.420  17.962  1.00  0.00     0.274 HD
ATOM     52  H11 UNL     1      29.966  -8.753  19.467  1.00  0.00     0.274 HD
ENDBRANCH  48  49
ENDBRANCH  44  48
BRANCH  45  53
HETATM   53  O6  UNL     1      31.066  -6.083  20.818  1.00  0.00    -0.393 OA
ATOM     54  H6  UNL     1      31.885  -5.626  20.968  1.00  0.00     0.210 HD
ENDBRANCH  45  53
BRANCH  47  55
HETATM   55  N2  UNL     1      28.498  -3.841  18.560  1.00  0.00    -0.070 N 
ATOM     56  H23 UNL     1      28.249  -4.373  17.726  1.00  0.00     0.274 HD
ATOM     57  H22 UNL     1      28.274  -4.561  19.247  1.00  0.00     0.274 HD
ATOM     58  H21 UNL     1      27.941  -2.995  18.673  1.00  0.00     0.274 HD
ENDBRANCH  47  55
ENDBRANCH  41  42
ENDBRANCH   3  41
BRANCH   4  59
HETATM   59  N3  UNL     1      33.312  -0.592  16.908  1.00  0.00    -0.070 N 
ATOM     60  H33 UNL     1      34.222  -0.131  16.892  1.00  0.00     0.274 HD
ATOM     61  H32 UNL     1      32.845  -0.051  16.180  1.00  0.00     0.274 HD
ATOM     62  H31 UNL     1      32.852  -0.472  17.811  1.00  0.00     0.274 HD
ENDBRANCH   4  59
TORSDOF 18
ENDMDL
MODEL 3
REMARK VINA RESULT: -7.910520008      1.490      1.850
REMARK  18 active torsions:
REMARK  status: ('A' for Active; 'I' for Inactive)
REMARK    1  A    between atoms: O1_2  and  C2_3 
REMARK    2  A    between atoms: C3_4  and  O2_5 
REMARK    3  A    between atoms: O2_5  and  C4_6 
REMARK    4  A    between atoms: C5_8  and  O4_9 
REMARK    5  A    between atoms: O4_9  and  C6_10 
REMARK    6  A    between atoms: C7_12  and  C8_13 
REMARK    7  A    between atoms: C8_13  and  N1_14 
REMARK    8  A    between atoms: C9_18  and  O6_19 
REMARK    9  A    between atoms: C11_22  and  N2_23 
REMARK   10  A    between atoms: C12_27  and  N3_28 
REMARK   11  A    between atoms: C14_33  and  N4_34 
REMARK   12  A    between atoms: C15_38  and  N5_39 
REMARK   13  A    between atoms: C17_44  and  N6_45 
REMARK   14  A    between atoms: C18_49  and  O7_50 
REMARK   15  A    between atoms: O7_50  and  C19_51 
REMARK   16  A    between atoms: C20_53  and  C21_54 
REMARK   17  A    between atoms: C21_54  and  N7_55 
REMARK   18  A    between atoms: C23_60  and  O9_61 
ROOT
HETATM    1  C4  UNL     1      32.423  -2.289  13.722  1.00  0.00     0.294 C 
HETATM    2  O3  UNL     1      32.313  -3.382  14.596  1.00  0.00    -0.327 OA
HETATM    3  C5  UNL     1      32.075  -2.886  15.902  1.00  0.00     0.296 C 
HETATM    4  C12 UNL     1      33.276  -2.106  16.390  1.00  0.00     0.240 C 
HETATM    5  C13 UNL     1      34.315  -1.960  15.302  1.00  0.00     0.075 C 
HETATM    6  C14 UNL     1      33.595  -1.423  14.070  1.00  0.00     0.240 C 
ENDROOT
BRANCH   1   7
HETATM    7  O2  UNL     1      32.389  -2.588  12.423  1.00  0.00    -0.349 OA
BRANCH   7   8
HETATM    8  C3  UNL     1      33.200  -3.526  11.875  1.00  0.00     0.186 C 
HETATM    9  C2  UNL     1      32.382  -4.306  10.917  1.00  0.00     0.183 C 
HETATM   10  C18 UNL     1      33.038  -4.485   9.558  1.00  0.00     0.186 C 
HETATM   11  C17 UNL     1      33.461  -3.139   9.093  1.00  0.00     0.217 C 
HETATM   12  C16 UNL     1      34.646  -2.750   9.934  1.00  0.00     0.071 C 
HETATM   13  C15 UNL     1      34.512  -3.029  11.374  1.00  0.00     0.217 C 
BRANCH   9  14
HETATM   14  O1  UNL     1      31.113  -3.793  10.664  1.00  0.00    -0.385 OA
HETATM   15  C1  UNL     1      30.269  -4.744  10.089  1.00  0.00     0.202 C 
ENDBRANCH   9  14
BRANCH  10  16
HETATM   16  O7  UNL     1      34.032  -5.410   9.647  1.00  0.00    -0.349 OA
BRANCH  16  17
HETATM   17  C19 UNL     1      33.620  -6.718   9.693  1.00  0.00     0.289 C 
HETATM   18  O8  UNL     1      32.904  -7.060   8.550  1.00  0.00    -0.352 OA
HETATM   19  C20 UNL     1      32.825  -8.435   8.527  1.00  0.00     0.152 C 
HETATM   20  C22 UNL     1      34.002  -8.990   9.268  1.00  0.00     0.070 C 
HETATM   21  C23 UNL     1      34.759  -7.710   9.647  1.00  0.00     0.175 C 
BRANCH  19  22
HETATM   22  C21 UNL     1      31.534  -8.837   9.208  1.00  0.00     0.261 C 
BRANCH  22  23
HETATM   23  N7  UNL     1      31.773 -10.042   9.964  1.00  0.00    -0.077 N 
ATOM     24  H73 UNL     1      32.194 -10.782   9.401  1.00  0.00     0.274 HD
ATOM     25  H72 UNL     1      32.528  -9.937  10.642  1.00  0.00     0.274 HD
ATOM     26  H71 UNL     1      30.896 -10.331  10.397  1.00  0.00     0.274 HD
ENDBRANCH  22  23
ENDBRANCH  19  22
BRANCH  21  27
HETATM   27  O9  UNL     1      35.622  -7.451   8.579  1.00  0.00    -0.391 OA
ATOM     28  H9  UNL     1      36.417  -7.968   8.639  1.00  0.00     0.210 HD
ENDBRANCH  21  27
ENDBRANCH  16  17
ENDBRANCH  10  16
BRANCH  11  29
HETATM   29  N6  UNL     1      32.389  -2.182   9.156  1.00  0.00    -0.072 N 
ATOM     30  H63 UNL     1      31.657  -2.497   9.793  1.00  0.00     0.274 HD
ATOM     31  H62 UNL     1      32.683  -1.338   9.646  1.00  0.00     0.274 HD
ATOM     32  H61 UNL     1      32.003  -1.957   8.239  1.00  0.00     0.274 HD
ENDBRANCH  11  29
BRANCH  13  33
HETATM   33  N5  UNL     1      35.595  -3.927  11.731  1.00  0.00    -0.072 N 
ATOM     34  H53 UNL     1      35.269  -4.890  11.811  1.00  0.00     0.274 HD
ATOM     35  H52 UNL     1      36.252  -4.044  10.961  1.00  0.00     0.274 HD
ATOM     36  H51 UNL     1      36.069  -3.623  12.581  1.00  0.00     0.274 HD
ENDBRANCH  13  33
ENDBRANCH   7   8
ENDBRANCH   1   7
BRANCH   6  37
HETATM   37  N4  UNL     1      33.199  -0.046  14.386  1.00  0.00    -0.070 N 
ATOM     38  H43 UNL     1      32.657   0.364  13.625  1.00  0.00     0.274 HD
ATOM     39  H42 UNL     1      32.491  -0.027  15.120  1.00  0.00     0.274 HD
ATOM     40  H41 UNL     1      33.996   0.542  14.629  1.00  0.00     0.274 HD
ENDBRANCH   6  37
BRANCH   3  41
HETATM   41  O4  UNL     1      31.917  -3.979  16.716  1.00  0.00    -0.327 OA
BRANCH  41  42
HETATM   42  C6  UNL     1      30.586  -4.295  16.976  1.00  0.00     0.294 C 
HETATM   43  O5  UNL     1      30.508  -5.647  17.177  1.00  0.00    -0.350 OA
HETATM   44  C7  UNL     1      31.119  -6.111  18.306  1.00  0.00     0.178 C 
HETATM   45  C9  UNL     1      30.546  -5.501  19.577  1.00  0.00     0.151 C 
HETATM   46  C10 UNL     1      30.704  -4.009  19.459  1.00  0.00     0.072 C 
HETATM   47  C11 UNL     1      30.028  -3.572  18.178  1.00  0.00     0.240 C 
BRANCH  44  48
HETATM   48  C8  UNL     1      31.102  -7.619  18.413  1.00  0.00     0.264 C 
BRANCH  48  49
HETATM   49  N1  UNL     1      29.819  -8.105  18.865  1.00  0.00    -0.077 N 
ATOM     50  H13 UNL     1      29.579  -7.725  19.781  1.00  0.00     0.274 HD
ATOM     51  H12 UNL     1      29.056  -7.704  18.321  1.00  0.00     0.274 HD
ATOM     52  H11 UNL     1      29.782  -9.125  18.863  1.00  0.00     0.274 HD
ENDBRANCH  48  49
ENDBRANCH  44  48
BRANCH  45  53
HETATM   53  O6  UNL     1      31.275  -5.897  20.695  1.00  0.00    -0.393 OA
ATOM     54  H6  UNL     1      30.935  -6.707  21.055  1.00  0.00     0.210 HD
ENDBRANCH  45  53
BRANCH  47  55
HETATM   55  N2  UNL     1      28.626  -3.925  18.285  1.00  0.00    -0.070 N 
ATOM     56  H23 UNL     1      28.122  -3.822  17.404  1.00  0.00     0.274 HD
ATOM     57  H22 UNL     1      28.476  -4.926  18.408  1.00  0.00     0.274 HD
ATOM     58  H21 UNL     1      28.227  -3.366  19.039  1.00  0.00     0.274 HD
ENDBRANCH  47  55
ENDBRANCH  41  42
ENDBRANCH   3  41
BRANCH   4  59
HETATM   59  N3  UNL     1      32.914  -0.780  16.847  1.00  0.00    -0.070 N 
ATOM     60  H33 UNL     1      33.549  -0.075  16.475  1.00  0.00     0.274 HD
ATOM     61  H32 UNL     1      32.047  -0.463  16.412  1.00  0.00     0.274 HD
ATOM     62  H31 UNL     1      32.859  -0.728  17.864  1.00  0.00     0.274 HD
ENDBRANCH   4  59
TORSDOF 18
ENDMDL
MODEL 4
REMARK VINA RESULT: -7.887862781      2.336      3.865
REMARK  18 active torsions:
REMARK  status: ('A' for Active; 'I' for Inactive)
REMARK    1  A    between atoms: O1_2  and  C2_3 
REMARK    2  A    between atoms: C3_4  and  O2_5 
REMARK    3  A    between atoms: O2_5  and  C4_6 
REMARK    4  A    between atoms: C5_8  and  O4_9 
REMARK    5  A    between atoms: O4_9  and  C6_10 
REMARK    6  A    between atoms: C7_12  and  C8_13 
REMARK    7  A    between atoms: C8_13  and  N1_14 
REMARK    8  A    between atoms: C9_18  and  O6_19 
REMARK    9  A    between atoms: C11_22  and  N2_23 
REMARK   10  A    between atoms: C12_27  and  N3_28 
REMARK   11  A    between atoms: C14_33  and  N4_34 
REMARK   12  A    between atoms: C15_38  and  N5_39 
REMARK   13  A    between atoms: C17_44  and  N6_45 
REMARK   14  A    between atoms: C18_49  and  O7_50 
REMARK   15  A    between atoms: O7_50  and  C19_51 
REMARK   16  A    between atoms: C20_53  and  C21_54 
REMARK   17  A    between atoms: C21_54  and  N7_55 
REMARK   18  A    between atoms: C23_60  and  O9_61 
ROOT
HETATM    1  C4  UNL     1      32.975  -2.695  13.865  1.00  0.00     0.294 C 
HETATM    2  O3  UNL     1      32.767  -3.571  14.943  1.00  0.00    -0.327 OA
HETATM    3  C5  UNL     1      32.273  -2.820  16.038  1.00  0.00     0.296 C 
HETATM    4  C12 UNL     1      33.325  -1.843  16.517  1.00  0.00     0.240 C 
HETATM    5  C13 UNL     1      34.533  -1.848  15.609  1.00  0.00     0.075 C 
HETATM    6  C14 UNL     1      34.018  -1.668  14.184  1.00  0.00     0.240 C 
ENDROOT
BRANCH   1   7
HETATM    7  O2  UNL     1      33.190  -3.278  12.685  1.00  0.00    -0.349 OA
BRANCH   7   8
HETATM    8  C3  UNL     1      32.957  -2.642  11.511  1.00  0.00     0.186 C 
HETATM    9  C2  UNL     1      34.263  -2.501  10.824  1.00  0.00     0.183 C 
HETATM   10  C18 UNL     1      34.235  -2.930   9.366  1.00  0.00     0.186 C 
HETATM   11  C17 UNL     1      33.628  -4.284   9.319  1.00  0.00     0.217 C 
HETATM   12  C16 UNL     1      32.160  -4.105   9.592  1.00  0.00     0.071 C 
HETATM   13  C15 UNL     1      31.836  -3.185  10.696  1.00  0.00     0.217 C 
BRANCH   9  14
HETATM   14  O1  UNL     1      35.319  -3.195  11.406  1.00  0.00    -0.385 OA
HETATM   15  C1  UNL     1      36.542  -2.553  11.206  1.00  0.00     0.202 C 
ENDBRANCH   9  14
BRANCH  10  16
HETATM   16  O7  UNL     1      33.605  -1.982   8.621  1.00  0.00    -0.349 OA
BRANCH  16  17
HETATM   17  C19 UNL     1      34.417  -1.238   7.801  1.00  0.00     0.289 C 
HETATM   18  O8  UNL     1      33.675  -0.574   6.830  1.00  0.00    -0.352 OA
HETATM   19  C20 UNL     1      34.503   0.383   6.284  1.00  0.00     0.152 C 
HETATM   20  C22 UNL     1      35.526   0.765   7.309  1.00  0.00     0.070 C 
HETATM   21  C23 UNL     1      35.093  -0.087   8.509  1.00  0.00     0.175 C 
BRANCH  19  22
HETATM   22  C21 UNL     1      35.173  -0.222   5.068  1.00  0.00     0.261 C 
BRANCH  22  23
HETATM   23  N7  UNL     1      36.482   0.370   4.926  1.00  0.00    -0.077 N 
ATOM     24  H73 UNL     1      36.460   1.248   4.407  1.00  0.00     0.274 HD
ATOM     25  H72 UNL     1      36.843   0.737   5.806  1.00  0.00     0.274 HD
ATOM     26  H71 UNL     1      37.104  -0.319   4.504  1.00  0.00     0.274 HD
ENDBRANCH  22  23
ENDBRANCH  19  22
BRANCH  21  27
HETATM   27  O9  UNL     1      34.173   0.694   9.214  1.00  0.00    -0.391 OA
ATOM     28  H9  UNL     1      34.535   1.002  10.037  1.00  0.00     0.210 HD
ENDBRANCH  21  27
ENDBRANCH  16  17
ENDBRANCH  10  16
BRANCH  11  29
HETATM   29  N6  UNL     1      34.262  -5.195  10.233  1.00  0.00    -0.072 N 
ATOM     30  H63 UNL     1      34.560  -4.711  11.080  1.00  0.00     0.274 HD
ATOM     31  H62 UNL     1      33.580  -5.836  10.640  1.00  0.00     0.274 HD
ATOM     32  H61 UNL     1      35.038  -5.706   9.812  1.00  0.00     0.274 HD
ENDBRANCH  11  29
BRANCH  13  33
HETATM   33  N5  UNL     1      31.021  -2.123  10.134  1.00  0.00    -0.072 N 
ATOM     34  H53 UNL     1      30.027  -2.350  10.184  1.00  0.00     0.274 HD
ATOM     35  H52 UNL     1      31.025  -1.296  10.730  1.00  0.00     0.274 HD
ATOM     36  H51 UNL     1      31.303  -1.897   9.181  1.00  0.00     0.274 HD
ENDBRANCH  13  33
ENDBRANCH   7   8
ENDBRANCH   1   7
BRANCH   6  37
HETATM   37  N4  UNL     1      33.500  -0.299  14.098  1.00  0.00    -0.070 N 
ATOM     38  H43 UNL     1      34.248   0.385  14.220  1.00  0.00     0.274 HD
ATOM     39  H42 UNL     1      33.223  -0.069  13.143  1.00  0.00     0.274 HD
ATOM     40  H41 UNL     1      32.736  -0.129  14.753  1.00  0.00     0.274 HD
ENDBRANCH   6  37
BRANCH   3  41
HETATM   41  O4  UNL     1      32.029  -3.713  17.050  1.00  0.00    -0.327 OA
BRANCH  41  42
HETATM   42  C6  UNL     1      30.675  -3.931  17.289  1.00  0.00     0.294 C 
HETATM   43  O5  UNL     1      30.461  -5.283  17.291  1.00  0.00    -0.350 OA
HETATM   44  C7  UNL     1      31.031  -5.968  18.326  1.00  0.00     0.178 C 
HETATM   45  C9  UNL     1      30.531  -5.501  19.685  1.00  0.00     0.151 C 
HETATM   46  C10 UNL     1      30.839  -4.031  19.784  1.00  0.00     0.072 C 
HETATM   47  C11 UNL     1      30.202  -3.343  18.597  1.00  0.00     0.240 C 
BRANCH  44  48
HETATM   48  C8  UNL     1      30.861  -7.467  18.209  1.00  0.00     0.264 C 
BRANCH  48  49
HETATM   49  N1  UNL     1      29.681  -7.924  18.906  1.00  0.00    -0.077 N 
ATOM     50  H13 UNL     1      29.446  -7.308  19.684  1.00  0.00     0.274 HD
ATOM     51  H12 UNL     1      28.841  -7.794  18.342  1.00  0.00     0.274 HD
ATOM     52  H11 UNL     1      29.778  -8.892  19.212  1.00  0.00     0.274 HD
ENDBRANCH  48  49
ENDBRANCH  44  48
BRANCH  45  53
HETATM   53  O6  UNL     1      31.224  -6.129  20.716  1.00  0.00    -0.393 OA
ATOM     54  H6  UNL     1      30.639  -6.365  21.426  1.00  0.00     0.210 HD
ENDBRANCH  45  53
BRANCH  47  55
HETATM   55  N2  UNL     1      28.772  -3.567  18.682  1.00  0.00    -0.070 N 
ATOM     56  H23 UNL     1      28.225  -2.759  18.384  1.00  0.00     0.274 HD
ATOM     57  H22 UNL     1      28.430  -4.224  17.981  1.00  0.00     0.274 HD
ATOM     58  H21 UNL     1      28.564  -3.859  19.636  1.00  0.00     0.274 HD
ENDBRANCH  47  55
ENDBRANCH  41  42
ENDBRANCH   3  41
BRANCH   4  59
HETATM   59  N3  UNL     1      32.817  -0.488  16.583  1.00  0.00    -0.070 N 
ATOM     60  H33 UNL     1      33.544   0.165  16.873  1.00  0.00     0.274 HD
ATOM     61  H32 UNL     1      32.629  -0.118  15.651  1.00  0.00     0.274 HD
ATOM     62  H31 UNL     1      31.995  -0.416  17.183  1.00  0.00     0.274 HD
ENDBRANCH   4  59
TORSDOF 18
ENDMDL
MODEL 5
REMARK VINA RESULT: -7.620753393      1.310      1.936
REMARK  18 active torsions:
REMARK  status: ('A' for Active; 'I' for Inactive)
REMARK    1  A    between atoms: O1_2  and  C2_3 
REMARK    2  A    between atoms: C3_4  and  O2_5 
REMARK    3  A    between atoms: O2_5  and  C4_6 
REMARK    4  A    between atoms: C5_8  and  O4_9 
REMARK    5  A    between atoms: O4_9  and  C6_10 
REMARK    6  A    between atoms: C7_12  and  C8_13 
REMARK    7  A    between atoms: C8_13  and  N1_14 
REMARK    8  A    between atoms: C9_18  and  O6_19 
REMARK    9  A    between atoms: C11_22  and  N2_23 
REMARK   10  A    between atoms: C12_27  and  N3_28 
REMARK   11  A    between atoms: C14_33  and  N4_34 
REMARK   12  A    between atoms: C15_38  and  N5_39 
REMARK   13  A    between atoms: C17_44  and  N6_45 
REMARK   14  A    between atoms: C18_49  and  O7_50 
REMARK   15  A    between atoms: O7_50  and  C19_51 
REMARK   16  A    between atoms: C20_53  and  C21_54 
REMARK   17  A    between atoms: C21_54  and  N7_55 
REMARK   18  A    between atoms: C23_60  and  O9_61 
ROOT
HETATM    1  C4  UNL     1      32.176  -2.514  14.165  1.00  0.00     0.294 C 
HETATM    2  O3  UNL     1      31.564  -3.563  14.869  1.00  0.00    -0.327 OA
HETATM    3  C5  UNL     1      31.286  -3.114  16.184  1.00  0.00     0.296 C 
HETATM    4  C12 UNL     1      32.576  -2.835  16.924  1.00  0.00     0.240 C 
HETATM    5  C13 UNL     1      33.774  -2.978  16.013  1.00  0.00     0.075 C 
HETATM    6  C14 UNL     1      33.491  -2.135  14.774  1.00  0.00     0.240 C 
ENDROOT
BRANCH   1   7
HETATM    7  O2  UNL     1      32.266  -2.686  12.845  1.00  0.00    -0.349 OA
BRANCH   7   8
HETATM    8  C3  UNL     1      33.202  -3.489  12.282  1.00  0.00     0.186 C 
HETATM    9  C2  UNL     1      32.530  -4.258  11.208  1.00  0.00     0.183 C 
HETATM   10  C18 UNL     1      33.284  -4.253   9.889  1.00  0.00     0.186 C 
HETATM   11  C17 UNL     1      33.595  -2.837   9.567  1.00  0.00     0.217 C 
HETATM   12  C16 UNL     1      34.679  -2.409  10.518  1.00  0.00     0.071 C 
HETATM   13  C15 UNL     1      34.484  -2.825  11.917  1.00  0.00     0.217 C 
BRANCH   9  14
HETATM   14  O1  UNL     1      31.233  -3.850  10.908  1.00  0.00    -0.385 OA
HETATM   15  C1  UNL     1      30.515  -4.841  10.236  1.00  0.00     0.202 C 
ENDBRANCH   9  14
BRANCH  10  16
HETATM   16  O7  UNL     1      34.361  -5.081   9.974  1.00  0.00    -0.349 OA
BRANCH  16  17
HETATM   17  C19 UNL     1      34.573  -5.887   8.883  1.00  0.00     0.289 C 
HETATM   18  O8  UNL     1      35.797  -6.542   8.974  1.00  0.00    -0.352 OA
HETATM   19  C20 UNL     1      35.777  -7.554   8.038  1.00  0.00     0.152 C 
HETATM   20  C22 UNL     1      34.353  -7.956   7.807  1.00  0.00     0.070 C 
HETATM   21  C23 UNL     1      33.611  -7.049   8.798  1.00  0.00     0.175 C 
BRANCH  19  22
HETATM   22  C21 UNL     1      36.389  -7.017   6.761  1.00  0.00     0.261 C 
BRANCH  22  23
HETATM   23  N7  UNL     1      37.816  -6.915   6.947  1.00  0.00    -0.077 N 
ATOM     24  H73 UNL     1      38.218  -7.756   7.361  1.00  0.00     0.274 HD
ATOM     25  H72 UNL     1      38.328  -6.934   6.065  1.00  0.00     0.274 HD
ATOM     26  H71 UNL     1      38.011  -6.077   7.495  1.00  0.00     0.274 HD
ENDBRANCH  22  23
ENDBRANCH  19  22
BRANCH  21  27
HETATM   27  O9  UNL     1      33.562  -7.764   9.998  1.00  0.00    -0.391 OA
ATOM     28  H9  UNL     1      33.940  -7.268  10.716  1.00  0.00     0.210 HD
ENDBRANCH  21  27
ENDBRANCH  16  17
ENDBRANCH  10  16
BRANCH  11  29
HETATM   29  N6  UNL     1      32.429  -1.998   9.630  1.00  0.00    -0.072 N 
ATOM     30  H63 UNL     1      31.593  -2.516   9.361  1.00  0.00     0.274 HD
ATOM     31  H62 UNL     1      32.187  -1.783  10.597  1.00  0.00     0.274 HD
ATOM     32  H61 UNL     1      32.523  -1.144   9.079  1.00  0.00     0.274 HD
ENDBRANCH  11  29
BRANCH  13  33
HETATM   33  N5  UNL     1      35.629  -3.642  12.277  1.00  0.00    -0.072 N 
ATOM     34  H53 UNL     1      35.683  -3.784  13.286  1.00  0.00     0.274 HD
ATOM     35  H52 UNL     1      35.502  -4.611  11.987  1.00  0.00     0.274 HD
ATOM     36  H51 UNL     1      36.497  -3.254  11.909  1.00  0.00     0.274 HD
ENDBRANCH  13  33
ENDBRANCH   7   8
ENDBRANCH   1   7
BRANCH   6  37
HETATM   37  N4  UNL     1      33.524  -0.734  15.207  1.00  0.00    -0.070 N 
ATOM     38  H43 UNL     1      32.602  -0.423  15.514  1.00  0.00     0.274 HD
ATOM     39  H42 UNL     1      34.032  -0.632  16.086  1.00  0.00     0.274 HD
ATOM     40  H41 UNL     1      33.902  -0.113  14.491  1.00  0.00     0.274 HD
ENDBRANCH   6  37
BRANCH   3  41
HETATM   41  O4  UNL     1      30.641  -4.141  16.823  1.00  0.00    -0.327 OA
BRANCH  41  42
HETATM   42  C6  UNL     1      30.937  -4.230  18.180  1.00  0.00     0.294 C 
HETATM   43  O5  UNL     1      30.098  -3.381  18.850  1.00  0.00    -0.350 OA
HETATM   44  C7  UNL     1      28.778  -3.730  18.841  1.00  0.00     0.178 C 
HETATM   45  C9  UNL     1      28.526  -5.091  19.470  1.00  0.00     0.151 C 
HETATM   46  C10 UNL     1      29.347  -6.090  18.700  1.00  0.00     0.072 C 
HETATM   47  C11 UNL     1      30.786  -5.628  18.730  1.00  0.00     0.240 C 
BRANCH  44  48
HETATM   48  C8  UNL     1      27.888  -2.695  19.492  1.00  0.00     0.264 C 
BRANCH  48  49
HETATM   49  N1  UNL     1      27.518  -3.081  20.834  1.00  0.00    -0.077 N 
ATOM     50  H13 UNL     1      27.756  -4.055  21.020  1.00  0.00     0.274 HD
ATOM     51  H12 UNL     1      28.118  -2.636  21.529  1.00  0.00     0.274 HD
ATOM     52  H11 UNL     1      26.532  -2.896  21.020  1.00  0.00     0.274 HD
ENDBRANCH  48  49
ENDBRANCH  44  48
BRANCH  45  53
HETATM   53  O6  UNL     1      27.193  -5.469  19.328  1.00  0.00    -0.393 OA
ATOM     54  H6  UNL     1      27.016  -6.276  19.797  1.00  0.00     0.210 HD
ENDBRANCH  45  53
BRANCH  47  55
HETATM   55  N2  UNL     1      31.203  -5.596  20.119  1.00  0.00    -0.070 N 
ATOM     56  H23 UNL     1      31.651  -4.717  20.379  1.00  0.00     0.274 HD
ATOM     57  H22 UNL     1      30.418  -5.542  20.769  1.00  0.00     0.274 HD
ATOM     58  H21 UNL     1      31.797  -6.409  20.278  1.00  0.00     0.274 HD
ENDBRANCH  47  55
ENDBRANCH  41  42
ENDBRANCH   3  41
BRANCH   4  59
HETATM   59  N3  UNL     1      32.600  -1.504  17.493  1.00  0.00    -0.070 N 
ATOM     60  H33 UNL     1      33.452  -1.346  18.029  1.00  0.00     0.274 HD
ATOM     61  H32 UNL     1      32.729  -0.795  16.771  1.00  0.00     0.274 HD
ATOM     62  H31 UNL     1      31.770  -1.314  18.055  1.00  0.00     0.274 HD
ENDBRANCH   4  59
TORSDOF 18
ENDMDL
