MODEL 1
REMARK VINA RESULT: -9.273165005      0.000      0.000
REMARK  13 active torsions:
REMARK  status: ('A' for Active; 'I' for Inactive)
REMARK    1  A    between atoms: N4_13  and  C5_14 
REMARK    2  A    between atoms: C5_14  and  C6_15 
REMARK    3  A    between atoms: C6_15  and  N5_16 
REMARK    4  A    between atoms: C6_15  and  C8_21 
REMARK    5  A    between atoms: C8_21  and  N8_22 
REMARK    6  A    between atoms: C8_21  and  C9_26 
REMARK    7  A    between atoms: C9_26  and  O3_28 
REMARK    8  A    between atoms: O3_28  and  C10_29 
REMARK    9  A    between atoms: C10_29  and  N9_30 
REMARK   10  A    between atoms: C10_29  and  C11_34 
REMARK   11  A    between atoms: C11_34  and  O4_35 
REMARK   12  A    between atoms: C12_39  and  C13_40 
REMARK   13  A    between atoms: C14_45  and  C15_46 
ROOT
HETATM    1  C8  UNL     1      33.221  -3.547  13.835  1.00  0.00     0.306 C 
ENDROOT
BRANCH   1   2
HETATM    2  C6  UNL     1      33.686  -2.193  13.366  1.00  0.00     0.144 C 
BRANCH   2   3
HETATM    3  C5  UNL     1      35.018  -2.258  12.659  1.00  0.00     0.180 C 
BRANCH   3   4
HETATM    4  N4  UNL     1      34.986  -1.707  11.335  1.00  0.00    -0.254 N 
HETATM    5  C4  UNL     1      35.888  -0.743  10.989  1.00  0.00     0.289 A 
HETATM    6  C3  UNL     1      35.895  -0.190   9.726  1.00  0.00     0.118 A 
HETATM    7  O1  UNL     1      36.727  -0.350  11.830  1.00  0.00    -0.264 OA
HETATM    8  N3  UNL     1      36.785   0.761   9.383  1.00  0.00    -0.347 N 
HETATM    9  C17 UNL     1      34.973  -0.618   8.791  1.00  0.00     0.057 A 
HETATM   10  C2  UNL     1      36.745   1.265   8.135  1.00  0.00     0.182 A 
ATOM     11  H3  UNL     1      37.477   1.093  10.056  1.00  0.00     0.167 HD
HETATM   12  N2  UNL     1      35.851   0.860   7.205  1.00  0.00    -0.338 N 
HETATM   13  C1  UNL     1      34.955  -0.086   7.523  1.00  0.00     0.114 A 
ATOM     14  H2  UNL     1      35.857   1.270   6.272  1.00  0.00     0.168 HD
HETATM   15  N1  UNL     1      34.100  -0.474   6.638  1.00  0.00    -0.385 N 
ATOM     16  H12 UNL     1      34.086  -0.080   5.698  1.00  0.00     0.157 HD
ATOM     17  H11 UNL     1      33.419  -1.194   6.880  1.00  0.00     0.157 HD
HETATM   18  C16 UNL     1      34.090  -1.578   9.168  1.00  0.00     0.125 A 
HETATM   19  N11 UNL     1      34.145  -2.069  10.420  1.00  0.00    -0.306 N 
ATOM     20  H11 UNL     1      33.466  -2.789  10.669  1.00  0.00     0.186 HD
ENDBRANCH   3   4
ENDBRANCH   2   3
BRANCH   2  21
HETATM   21  N5  UNL     1      33.838  -1.296  14.512  1.00  0.00    -0.358 N 
HETATM   22  C7  UNL     1      33.518  -0.059  14.415  1.00  0.00     0.197 C 
HETATM   23  N6  UNL     1      33.016   0.447  13.197  1.00  0.00    -0.067 NA
HETATM   24  N7  UNL     1      33.673   0.785  15.537  1.00  0.00    -0.067 NA
ATOM     25  H5  UNL     1      34.200  -1.658  15.394  1.00  0.00     0.162 HD
ENDBRANCH   2  21
ENDBRANCH   1   2
BRANCH   1  26
HETATM   26  N8  UNL     1      32.318  -4.075  12.777  1.00  0.00    -0.064 N 
ATOM     27  H83 UNL     1      32.787  -4.225  11.885  1.00  0.00     0.275 HD
ATOM     28  H82 UNL     1      32.034  -5.042  12.936  1.00  0.00     0.275 HD
ATOM     29  H81 UNL     1      31.532  -3.429  12.717  1.00  0.00     0.275 HD
ENDBRANCH   1  26
BRANCH   1  30
HETATM   30  C9  UNL     1      32.408  -3.527  15.050  1.00  0.00     0.293 C 
HETATM   31  O2  UNL     1      31.212  -3.068  14.942  1.00  0.00    -0.263 OA
BRANCH  30  32
HETATM   32  O3  UNL     1      32.727  -3.930  16.314  1.00  0.00    -0.282 OA
BRANCH  32  33
HETATM   33  C10 UNL     1      31.966  -4.881  17.057  1.00  0.00     0.376 C 
BRANCH  33  34
HETATM   34  N9  UNL     1      31.327  -5.738  16.080  1.00  0.00    -0.048 N 
ATOM     35  H93 UNL     1      30.353  -5.493  15.901  1.00  0.00     0.277 HD
ATOM     36  H92 UNL     1      31.668  -5.595  15.130  1.00  0.00     0.277 HD
ATOM     37  H91 UNL     1      31.449  -6.693  16.416  1.00  0.00     0.277 HD
ENDBRANCH  33  34
BRANCH  33  38
HETATM   38  C11 UNL     1      31.063  -4.250  18.045  1.00  0.00     0.198 C 
HETATM   39  S1  UNL     1      31.882  -2.638  18.546  1.00  0.00    -0.045 SA
HETATM   40  S2  UNL     1      30.950  -2.174  20.455  1.00  0.00    -0.030 SA
HETATM   41  C12 UNL     1      29.509  -3.218  20.440  1.00  0.00     0.155 C 
HETATM   42  N10 UNL     1      29.606  -4.370  19.928  1.00  0.00    -0.361 N 
HETATM   43  C14 UNL     1      30.823  -4.945  19.331  1.00  0.00     0.234 C 
ATOM     44  H10 UNL     1      28.768  -4.951  19.929  1.00  0.00     0.161 HD
BRANCH  38  45
HETATM   45  O4  UNL     1      29.849  -3.850  17.497  1.00  0.00    -0.372 OA
ATOM     46  H4  UNL     1      29.645  -2.938  17.669  1.00  0.00     0.212 HD
ENDBRANCH  38  45
BRANCH  41  47
HETATM   47  C13 UNL     1      28.277  -2.739  21.004  1.00  0.00     0.234 C 
HETATM   48  O5  UNL     1      27.507  -3.515  21.663  1.00  0.00    -0.642 OA
HETATM   49  O6  UNL     1      27.837  -1.428  20.882  1.00  0.00    -0.642 OA
ENDBRANCH  41  47
BRANCH  43  50
HETATM   50  C15 UNL     1      30.601  -6.394  19.278  1.00  0.00     0.200 C 
HETATM   51  O7  UNL     1      29.730  -6.903  18.550  1.00  0.00    -0.646 OA
HETATM   52  O8  UNL     1      31.377  -7.233  20.060  1.00  0.00    -0.646 OA
ENDBRANCH  43  50
ENDBRANCH  33  38
ENDBRANCH  32  33
ENDBRANCH  30  32
ENDBRANCH   1  30
TORSDOF 13
ENDMDL
MODEL 2
REMARK VINA RESULT: -9.186823882      1.653      2.588
REMARK  13 active torsions:
REMARK  status: ('A' for Active; 'I' for Inactive)
REMARK    1  A    between atoms: N4_13  and  C5_14 
REMARK    2  A    between atoms: C5_14  and  C6_15 
REMARK    3  A    between atoms: C6_15  and  N5_16 
REMARK    4  A    between atoms: C6_15  and  C8_21 
REMARK    5  A    between atoms: C8_21  and  N8_22 
REMARK    6  A    between atoms: C8_21  and  C9_26 
REMARK    7  A    between atoms: C9_26  and  O3_28 
REMARK    8  A    between atoms: O3_28  and  C10_29 
REMARK    9  A    between atoms: C10_29  and  N9_30 
REMARK   10  A    between atoms: C10_29  and  C11_34 
REMARK   11  A    between atoms: C11_34  and  O4_35 
REMARK   12  A    between atoms: C12_39  and  C13_40 
REMARK   13  A    between atoms: C14_45  and  C15_46 
ROOT
HETATM    1  C8  UNL     1      33.219  -3.326  14.179  1.00  0.00     0.306 C 
ENDROOT
BRANCH   1   2
HETATM    2  C6  UNL     1      33.713  -2.136  13.399  1.00  0.00     0.144 C 
BRANCH   2   3
HETATM    3  C5  UNL     1      34.939  -2.455  12.580  1.00  0.00     0.180 C 
BRANCH   3   4
HETATM    4  N4  UNL     1      34.935  -1.840  11.285  1.00  0.00    -0.254 N 
HETATM    5  C4  UNL     1      35.870  -0.892  10.990  1.00  0.00     0.289 A 
HETATM    6  C3  UNL     1      35.904  -0.279   9.756  1.00  0.00     0.118 A 
HETATM    7  O1  UNL     1      36.717  -0.568  11.853  1.00  0.00    -0.264 OA
HETATM    8  N3  UNL     1      36.827   0.657   9.464  1.00  0.00    -0.347 N 
HETATM    9  C17 UNL     1      34.974  -0.629   8.797  1.00  0.00     0.057 A 
HETATM   10  C2  UNL     1      36.812   1.222   8.241  1.00  0.00     0.182 A 
ATOM     11  H3  UNL     1      37.525   0.933  10.155  1.00  0.00     0.167 HD
HETATM   12  N2  UNL     1      35.910   0.893   7.289  1.00  0.00    -0.338 N 
HETATM   13  C1  UNL     1      34.981  -0.036   7.557  1.00  0.00     0.114 A 
ATOM     14  H2  UNL     1      35.936   1.348   6.377  1.00  0.00     0.168 HD
HETATM   15  N1  UNL     1      34.120  -0.352   6.650  1.00  0.00    -0.385 N 
ATOM     16  H12 UNL     1      34.124   0.088   5.729  1.00  0.00     0.157 HD
ATOM     17  H11 UNL     1      33.413  -1.059   6.853  1.00  0.00     0.157 HD
HETATM   18  C16 UNL     1      34.056  -1.576   9.123  1.00  0.00     0.125 A 
HETATM   19  N11 UNL     1      34.087  -2.129  10.349  1.00  0.00    -0.306 N 
ATOM     20  H11 UNL     1      33.383  -2.837  10.560  1.00  0.00     0.186 HD
ENDBRANCH   3   4
ENDBRANCH   2   3
BRANCH   2  21
HETATM   21  N5  UNL     1      34.065  -1.052  14.318  1.00  0.00    -0.358 N 
HETATM   22  C7  UNL     1      33.713   0.154  14.065  1.00  0.00     0.197 C 
HETATM   23  N6  UNL     1      32.981   0.445  12.894  1.00  0.00    -0.067 NA
HETATM   24  N7  UNL     1      34.066   1.181  14.969  1.00  0.00    -0.067 NA
ATOM     25  H5  UNL     1      34.595  -1.258  15.165  1.00  0.00     0.162 HD
ENDBRANCH   2  21
ENDBRANCH   1   2
BRANCH   1  26
HETATM   26  N8  UNL     1      32.312  -4.081  13.274  1.00  0.00    -0.064 N 
ATOM     27  H83 UNL     1      31.464  -3.568  13.034  1.00  0.00     0.275 HD
ATOM     28  H82 UNL     1      32.677  -4.175  12.326  1.00  0.00     0.275 HD
ATOM     29  H81 UNL     1      32.129  -4.976  13.726  1.00  0.00     0.275 HD
ENDBRANCH   1  26
BRANCH   1  30
HETATM   30  C9  UNL     1      32.400  -2.996  15.344  1.00  0.00     0.293 C 
HETATM   31  O2  UNL     1      31.594  -2.001  15.227  1.00  0.00    -0.263 OA
BRANCH  30  32
HETATM   32  O3  UNL     1      32.354  -3.595  16.570  1.00  0.00    -0.282 OA
BRANCH  32  33
HETATM   33  C10 UNL     1      31.391  -3.273  17.572  1.00  0.00     0.376 C 
BRANCH  33  34
HETATM   34  N9  UNL     1      31.934  -2.153  18.311  1.00  0.00    -0.048 N 
ATOM     35  H93 UNL     1      32.917  -2.269  18.558  1.00  0.00     0.277 HD
ATOM     36  H92 UNL     1      32.045  -1.311  17.747  1.00  0.00     0.277 HD
ATOM     37  H91 UNL     1      31.326  -2.023  19.119  1.00  0.00     0.277 HD
ENDBRANCH  33  34
BRANCH  33  38
HETATM   38  C11 UNL     1      30.992  -4.444  18.384  1.00  0.00     0.198 C 
HETATM   39  S1  UNL     1      31.835  -5.930  17.607  1.00  0.00    -0.045 SA
HETATM   40  S2  UNL     1      30.655  -7.609  18.325  1.00  0.00    -0.030 SA
HETATM   41  C12 UNL     1      29.767  -6.894  19.692  1.00  0.00     0.155 C 
HETATM   42  N10 UNL     1      29.364  -5.701  19.590  1.00  0.00    -0.361 N 
HETATM   43  C14 UNL     1      29.560  -4.824  18.423  1.00  0.00     0.234 C 
ATOM     44  H10 UNL     1      28.858  -5.311  20.386  1.00  0.00     0.161 HD
BRANCH  38  45
HETATM   45  O4  UNL     1      31.501  -4.411  19.677  1.00  0.00    -0.372 OA
ATOM     46  H4  UNL     1      31.109  -5.060  20.249  1.00  0.00     0.212 HD
ENDBRANCH  38  45
BRANCH  41  47
HETATM   47  C13 UNL     1      29.527  -7.679  20.873  1.00  0.00     0.234 C 
HETATM   48  O5  UNL     1      29.977  -7.314  22.010  1.00  0.00    -0.642 OA
HETATM   49  O6  UNL     1      28.807  -8.865  20.872  1.00  0.00    -0.642 OA
ENDBRANCH  41  47
BRANCH  43  50
HETATM   50  C15 UNL     1      28.583  -3.740  18.563  1.00  0.00     0.200 C 
HETATM   51  O7  UNL     1      27.812  -3.422  17.639  1.00  0.00    -0.646 OA
HETATM   52  O8  UNL     1      28.506  -3.039  19.754  1.00  0.00    -0.646 OA
ENDBRANCH  43  50
ENDBRANCH  33  38
ENDBRANCH  32  33
ENDBRANCH  30  32
ENDBRANCH   1  30
TORSDOF 13
ENDMDL
MODEL 3
REMARK VINA RESULT: -9.173426805      0.953      1.578
REMARK  13 active torsions:
REMARK  status: ('A' for Active; 'I' for Inactive)
REMARK    1  A    between atoms: N4_13  and  C5_14 
REMARK    2  A    between atoms: C5_14  and  C6_15 
REMARK    3  A    between atoms: C6_15  and  N5_16 
REMARK    4  A    between atoms: C6_15  and  C8_21 
REMARK    5  A    between atoms: C8_21  and  N8_22 
REMARK    6  A    between atoms: C8_21  and  C9_26 
REMARK    7  A    between atoms: C9_26  and  O3_28 
REMARK    8  A    between atoms: O3_28  and  C10_29 
REMARK    9  A    between atoms: C10_29  and  N9_30 
REMARK   10  A    between atoms: C10_29  and  C11_34 
REMARK   11  A    between atoms: C11_34  and  O4_35 
REMARK   12  A    between atoms: C12_39  and  C13_40 
REMARK   13  A    between atoms: C14_45  and  C15_46 
ROOT
HETATM    1  C8  UNL     1      33.304  -3.457  13.602  1.00  0.00     0.306 C 
ENDROOT
BRANCH   1   2
HETATM    2  C6  UNL     1      33.933  -2.171  13.131  1.00  0.00     0.144 C 
BRANCH   2   3
HETATM    3  C5  UNL     1      35.293  -2.390  12.515  1.00  0.00     0.180 C 
BRANCH   3   4
HETATM    4  N4  UNL     1      35.551  -1.541  11.389  1.00  0.00    -0.254 N 
HETATM    5  C4  UNL     1      34.772  -1.650  10.275  1.00  0.00     0.289 A 
HETATM    6  C3  UNL     1      34.983  -0.850   9.172  1.00  0.00     0.118 A 
HETATM    7  O1  UNL     1      33.845  -2.491  10.247  1.00  0.00    -0.264 OA
HETATM    8  N3  UNL     1      34.214  -0.956   8.071  1.00  0.00    -0.347 N 
HETATM    9  C17 UNL     1      36.003   0.081   9.193  1.00  0.00     0.057 A 
HETATM   10  C2  UNL     1      34.467  -0.148   7.024  1.00  0.00     0.182 A 
ATOM     11  H3  UNL     1      33.454  -1.636   8.032  1.00  0.00     0.167 HD
HETATM   12  N2  UNL     1      35.460   0.769   7.025  1.00  0.00    -0.338 N 
HETATM   13  C1  UNL     1      36.240   0.894   8.109  1.00  0.00     0.114 A 
ATOM     14  H2  UNL     1      35.616   1.360   6.208  1.00  0.00     0.168 HD
HETATM   15  N1  UNL     1      37.188   1.769   8.112  1.00  0.00    -0.385 N 
ATOM     16  H12 UNL     1      37.364   2.372   7.309  1.00  0.00     0.157 HD
ATOM     17  H11 UNL     1      37.780   1.864   8.937  1.00  0.00     0.157 HD
HETATM   18  C16 UNL     1      36.760   0.164  10.317  1.00  0.00     0.125 A 
HETATM   19  N11 UNL     1      36.493  -0.652  11.353  1.00  0.00    -0.306 N 
ATOM     20  H11 UNL     1      37.082  -0.563  12.181  1.00  0.00     0.186 HD
ENDBRANCH   3   4
ENDBRANCH   2   3
BRANCH   2  21
HETATM   21  N5  UNL     1      34.103  -1.258  14.262  1.00  0.00    -0.358 N 
HETATM   22  C7  UNL     1      33.691  -0.047  14.187  1.00  0.00     0.197 C 
HETATM   23  N6  UNL     1      33.069   0.415  13.007  1.00  0.00    -0.067 NA
HETATM   24  N7  UNL     1      33.866   0.813  15.294  1.00  0.00    -0.067 NA
ATOM     25  H5  UNL     1      34.552  -1.588  15.117  1.00  0.00     0.162 HD
ENDBRANCH   2  21
ENDBRANCH   1   2
BRANCH   1  26
HETATM   26  N8  UNL     1      32.313  -3.849  12.565  1.00  0.00    -0.064 N 
ATOM     27  H83 UNL     1      31.709  -3.081  12.274  1.00  0.00     0.275 HD
ATOM     28  H82 UNL     1      32.734  -4.032  11.654  1.00  0.00     0.275 HD
ATOM     29  H81 UNL     1      31.800  -4.646  12.940  1.00  0.00     0.275 HD
ENDBRANCH   1  26
BRANCH   1  30
HETATM   30  C9  UNL     1      32.532  -3.342  14.838  1.00  0.00     0.293 C 
HETATM   31  O2  UNL     1      31.422  -2.697  14.773  1.00  0.00    -0.263 OA
BRANCH  30  32
HETATM   32  O3  UNL     1      32.811  -3.825  16.083  1.00  0.00    -0.282 OA
BRANCH  32  33
HETATM   33  C10 UNL     1      32.060  -4.859  16.717  1.00  0.00     0.376 C 
BRANCH  33  34
HETATM   34  N9  UNL     1      31.400  -5.589  15.655  1.00  0.00    -0.048 N 
ATOM     35  H93 UNL     1      30.534  -5.152  15.340  1.00  0.00     0.277 HD
ATOM     36  H92 UNL     1      31.894  -5.542  14.764  1.00  0.00     0.277 HD
ATOM     37  H91 UNL     1      31.273  -6.540  15.999  1.00  0.00     0.277 HD
ENDBRANCH  33  34
BRANCH  33  38
HETATM   38  C11 UNL     1      31.177  -4.353  17.792  1.00  0.00     0.198 C 
HETATM   39  S1  UNL     1      31.945  -2.747  18.384  1.00  0.00    -0.045 SA
HETATM   40  S2  UNL     1      31.085  -2.480  20.364  1.00  0.00    -0.030 SA
HETATM   41  C12 UNL     1      29.695  -3.591  20.329  1.00  0.00     0.155 C 
HETATM   42  N10 UNL     1      29.819  -4.692  19.722  1.00  0.00    -0.361 N 
HETATM   43  C14 UNL     1      31.032  -5.158  19.027  1.00  0.00     0.234 C 
ATOM     44  H10 UNL     1      29.010  -5.313  19.713  1.00  0.00     0.161 HD
BRANCH  38  45
HETATM   45  O4  UNL     1      29.922  -3.972  17.332  1.00  0.00    -0.372 OA
ATOM     46  H4  UNL     1      29.426  -3.475  17.972  1.00  0.00     0.212 HD
ENDBRANCH  38  45
BRANCH  41  47
HETATM   47  C13 UNL     1      28.470  -3.219  20.984  1.00  0.00     0.234 C 
HETATM   48  O5  UNL     1      28.342  -2.080  21.546  1.00  0.00    -0.642 OA
HETATM   49  O6  UNL     1      27.358  -4.046  21.055  1.00  0.00    -0.642 OA
ENDBRANCH  41  47
BRANCH  43  50
HETATM   50  C15 UNL     1      30.875  -6.607  18.868  1.00  0.00     0.200 C 
HETATM   51  O7  UNL     1      29.905  -7.105  18.268  1.00  0.00    -0.646 OA
HETATM   52  O8  UNL     1      31.827  -7.460  19.399  1.00  0.00    -0.646 OA
ENDBRANCH  43  50
ENDBRANCH  33  38
ENDBRANCH  32  33
ENDBRANCH  30  32
ENDBRANCH   1  30
TORSDOF 13
ENDMDL
MODEL 4
REMARK VINA RESULT: -8.897412181      1.864      2.959
REMARK  13 active torsions:
REMARK  status: ('A' for Active; 'I' for Inactive)
REMARK    1  A    between atoms: N4_13  and  C5_14 
REMARK    2  A    between atoms: C5_14  and  C6_15 
REMARK    3  A    between atoms: C6_15  and  N5_16 
REMARK    4  A    between atoms: C6_15  and  C8_21 
REMARK    5  A    between atoms: C8_21  and  N8_22 
REMARK    6  A    between atoms: C8_21  and  C9_26 
REMARK    7  A    between atoms: C9_26  and  O3_28 
REMARK    8  A    between atoms: O3_28  and  C10_29 
REMARK    9  A    between atoms: C10_29  and  N9_30 
REMARK   10  A    between atoms: C10_29  and  C11_34 
REMARK   11  A    between atoms: C11_34  and  O4_35 
REMARK   12  A    between atoms: C12_39  and  C13_40 
REMARK   13  A    between atoms: C14_45  and  C15_46 
ROOT
HETATM    1  C8  UNL     1      33.286  -3.333  13.967  1.00  0.00     0.306 C 
ENDROOT
BRANCH   1   2
HETATM    2  C6  UNL     1      33.890  -2.121  13.307  1.00  0.00     0.144 C 
BRANCH   2   3
HETATM    3  C5  UNL     1      35.195  -2.433  12.618  1.00  0.00     0.180 C 
BRANCH   3   4
HETATM    4  N4  UNL     1      35.451  -1.601  11.479  1.00  0.00    -0.254 N 
HETATM    5  C4  UNL     1      34.662  -1.718  10.373  1.00  0.00     0.289 A 
HETATM    6  C3  UNL     1      34.871  -0.934   9.258  1.00  0.00     0.118 A 
HETATM    7  O1  UNL     1      33.728  -2.551  10.363  1.00  0.00    -0.264 OA
HETATM    8  N3  UNL     1      34.091  -1.048   8.165  1.00  0.00    -0.347 N 
HETATM    9  C17 UNL     1      35.898  -0.011   9.258  1.00  0.00     0.057 A 
HETATM   10  C2  UNL     1      34.342  -0.255   7.106  1.00  0.00     0.182 A 
ATOM     11  H3  UNL     1      33.325  -1.722   8.141  1.00  0.00     0.167 HD
HETATM   12  N2  UNL     1      35.343   0.653   7.086  1.00  0.00    -0.338 N 
HETATM   13  C1  UNL     1      36.132   0.786   8.163  1.00  0.00     0.114 A 
ATOM     14  H2  UNL     1      35.497   1.232   6.261  1.00  0.00     0.168 HD
HETATM   15  N1  UNL     1      37.088   1.652   8.147  1.00  0.00    -0.385 N 
ATOM     16  H12 UNL     1      37.262   2.243   7.334  1.00  0.00     0.157 HD
ATOM     17  H11 UNL     1      37.688   1.753   8.965  1.00  0.00     0.157 HD
HETATM   18  C16 UNL     1      36.665   0.080  10.376  1.00  0.00     0.125 A 
HETATM   19  N11 UNL     1      36.400  -0.721  11.424  1.00  0.00    -0.306 N 
ATOM     20  H11 UNL     1      36.996  -0.626  12.246  1.00  0.00     0.186 HD
ENDBRANCH   3   4
ENDBRANCH   2   3
BRANCH   2  21
HETATM   21  N5  UNL     1      34.155  -1.090  14.311  1.00  0.00    -0.358 N 
HETATM   22  C7  UNL     1      33.772   0.117  14.120  1.00  0.00     0.197 C 
HETATM   23  N6  UNL     1      33.088   0.461  12.934  1.00  0.00    -0.067 NA
HETATM   24  N7  UNL     1      34.040   1.093  15.105  1.00  0.00    -0.067 NA
ATOM     25  H5  UNL     1      34.649  -1.334  15.169  1.00  0.00     0.162 HD
ENDBRANCH   2  21
ENDBRANCH   1   2
BRANCH   1  26
HETATM   26  N8  UNL     1      32.364  -3.944  12.973  1.00  0.00    -0.064 N 
ATOM     27  H83 UNL     1      31.636  -3.306  12.653  1.00  0.00     0.275 HD
ATOM     28  H82 UNL     1      32.801  -4.105  12.065  1.00  0.00     0.275 HD
ATOM     29  H81 UNL     1      31.997  -4.794  13.400  1.00  0.00     0.275 HD
ENDBRANCH   1  26
BRANCH   1  30
HETATM   30  C9  UNL     1      32.448  -3.043  15.130  1.00  0.00     0.293 C 
HETATM   31  O2  UNL     1      31.625  -2.062  15.023  1.00  0.00    -0.263 OA
BRANCH  30  32
HETATM   32  O3  UNL     1      32.401  -3.666  16.343  1.00  0.00    -0.282 OA
BRANCH  32  33
HETATM   33  C10 UNL     1      31.491  -3.308  17.381  1.00  0.00     0.376 C 
BRANCH  33  34
HETATM   34  N9  UNL     1      32.101  -2.204  18.090  1.00  0.00    -0.048 N 
ATOM     35  H93 UNL     1      32.196  -2.368  19.093  1.00  0.00     0.277 HD
ATOM     36  H92 UNL     1      33.094  -2.090  17.888  1.00  0.00     0.277 HD
ATOM     37  H91 UNL     1      31.545  -1.379  17.865  1.00  0.00     0.277 HD
ENDBRANCH  33  34
BRANCH  33  38
HETATM   38  C11 UNL     1      31.088  -4.462  18.216  1.00  0.00     0.198 C 
HETATM   39  S1  UNL     1      31.917  -5.967  17.462  1.00  0.00    -0.045 SA
HETATM   40  S2  UNL     1      30.729  -7.624  18.217  1.00  0.00    -0.030 SA
HETATM   41  C12 UNL     1      29.853  -6.879  19.575  1.00  0.00     0.155 C 
HETATM   42  N10 UNL     1      29.457  -5.685  19.453  1.00  0.00    -0.361 N 
HETATM   43  C14 UNL     1      29.654  -4.831  18.269  1.00  0.00     0.234 C 
ATOM     44  H10 UNL     1      28.959  -5.277  20.244  1.00  0.00     0.161 HD
BRANCH  38  45
HETATM   45  O4  UNL     1      31.604  -4.408  19.506  1.00  0.00    -0.372 OA
ATOM     46  H4  UNL     1      31.298  -5.117  20.059  1.00  0.00     0.212 HD
ENDBRANCH  38  45
BRANCH  41  47
HETATM   47  C13 UNL     1      29.614  -7.640  20.771  1.00  0.00     0.234 C 
HETATM   48  O5  UNL     1      30.016  -7.225  21.909  1.00  0.00    -0.642 OA
HETATM   49  O6  UNL     1      28.944  -8.856  20.785  1.00  0.00    -0.642 OA
ENDBRANCH  41  47
BRANCH  43  50
HETATM   50  C15 UNL     1      28.685  -3.738  18.394  1.00  0.00     0.200 C 
HETATM   51  O7  UNL     1      27.913  -3.430  17.469  1.00  0.00    -0.646 OA
HETATM   52  O8  UNL     1      28.619  -3.014  19.573  1.00  0.00    -0.646 OA
ENDBRANCH  43  50
ENDBRANCH  33  38
ENDBRANCH  32  33
ENDBRANCH  30  32
ENDBRANCH   1  30
TORSDOF 13
ENDMDL
MODEL 5
REMARK VINA RESULT: -8.890921795      2.881      4.069
REMARK  13 active torsions:
REMARK  status: ('A' for Active; 'I' for Inactive)
REMARK    1  A    between atoms: N4_13  and  C5_14 
REMARK    2  A    between atoms: C5_14  and  C6_15 
REMARK    3  A    between atoms: C6_15  and  N5_16 
REMARK    4  A    between atoms: C6_15  and  C8_21 
REMARK    5  A    between atoms: C8_21  and  N8_22 
REMARK    6  A    between atoms: C8_21  and  C9_26 
REMARK    7  A    between atoms: C9_26  and  O3_28 
REMARK    8  A    between atoms: O3_28  and  C10_29 
REMARK    9  A    between atoms: C10_29  and  N9_30 
REMARK   10  A    between atoms: C10_29  and  C11_34 
REMARK   11  A    between atoms: C11_34  and  O4_35 
REMARK   12  A    between atoms: C12_39  and  C13_40 
REMARK   13  A    between atoms: C14_45  and  C15_46 
ROOT
HETATM    1  C8  UNL     1      32.711  -1.256  16.466  1.00  0.00     0.306 C 
ENDROOT
BRANCH   1   2
HETATM    2  C6  UNL     1      33.371  -1.413  15.122  1.00  0.00     0.144 C 
BRANCH   2   3
HETATM    3  C5  UNL     1      33.934  -2.798  14.918  1.00  0.00     0.180 C 
BRANCH   3   4
HETATM    4  N4  UNL     1      33.706  -3.317  13.601  1.00  0.00    -0.254 N 
HETATM    5  C4  UNL     1      34.731  -3.332  12.700  1.00  0.00     0.289 A 
HETATM    6  C3  UNL     1      34.555  -3.826  11.425  1.00  0.00     0.118 A 
HETATM    7  O1  UNL     1      35.854  -2.891  13.031  1.00  0.00    -0.264 OA
HETATM    8  N3  UNL     1      35.566  -3.842  10.535  1.00  0.00    -0.347 N 
HETATM    9  C17 UNL     1      33.320  -4.316  11.049  1.00  0.00     0.057 A 
HETATM   10  C2  UNL     1      35.336  -4.337   9.303  1.00  0.00     0.182 A 
ATOM     11  H3  UNL     1      36.489  -3.487  10.789  1.00  0.00     0.167 HD
HETATM   12  N2  UNL     1      34.134  -4.820   8.916  1.00  0.00    -0.338 N 
HETATM   13  C1  UNL     1      33.113  -4.815   9.785  1.00  0.00     0.114 A 
ATOM     14  H2  UNL     1      34.006  -5.185   7.972  1.00  0.00     0.168 HD
HETATM   15  N1  UNL     1      31.965  -5.276   9.418  1.00  0.00    -0.385 N 
ATOM     16  H12 UNL     1      31.811  -5.646   8.480  1.00  0.00     0.157 HD
ATOM     17  H11 UNL     1      31.188  -5.272  10.079  1.00  0.00     0.157 HD
HETATM   18  C16 UNL     1      32.322  -4.286  11.970  1.00  0.00     0.125 A 
HETATM   19  N11 UNL     1      32.570  -3.787  13.195  1.00  0.00    -0.306 N 
ATOM     20  H11 UNL     1      31.797  -3.780  13.861  1.00  0.00     0.186 HD
ENDBRANCH   3   4
ENDBRANCH   2   3
BRANCH   2  21
HETATM   21  N5  UNL     1      34.478  -0.463  14.998  1.00  0.00    -0.358 N 
HETATM   22  C7  UNL     1      34.442   0.466  14.116  1.00  0.00     0.197 C 
HETATM   23  N6  UNL     1      33.329   0.578  13.255  1.00  0.00    -0.067 NA
HETATM   24  N7  UNL     1      35.523   1.370  14.019  1.00  0.00    -0.067 NA
ATOM     25  H5  UNL     1      35.284  -0.541  15.618  1.00  0.00     0.162 HD
ENDBRANCH   2  21
ENDBRANCH   1   2
BRANCH   1  26
HETATM   26  N8  UNL     1      33.805  -1.062  17.456  1.00  0.00    -0.064 N 
ATOM     27  H83 UNL     1      33.655  -1.572  18.326  1.00  0.00     0.275 HD
ATOM     28  H82 UNL     1      34.676  -1.520  17.188  1.00  0.00     0.275 HD
ATOM     29  H81 UNL     1      33.902  -0.056  17.589  1.00  0.00     0.275 HD
ENDBRANCH   1  26
BRANCH   1  30
HETATM   30  C9  UNL     1      31.984  -2.435  16.933  1.00  0.00     0.293 C 
HETATM   31  O2  UNL     1      31.133  -2.954  16.121  1.00  0.00    -0.263 OA
BRANCH  30  32
HETATM   32  O3  UNL     1      32.070  -3.091  18.127  1.00  0.00    -0.282 OA
BRANCH  32  33
HETATM   33  C10 UNL     1      31.185  -2.859  19.222  1.00  0.00     0.376 C 
BRANCH  33  34
HETATM   34  N9  UNL     1      31.882  -1.965  20.122  1.00  0.00    -0.048 N 
ATOM     35  H93 UNL     1      32.656  -1.467  19.681  1.00  0.00     0.277 HD
ATOM     36  H92 UNL     1      31.337  -1.143  20.381  1.00  0.00     0.277 HD
ATOM     37  H91 UNL     1      32.168  -2.531  20.921  1.00  0.00     0.277 HD
ENDBRANCH  33  34
BRANCH  33  38
HETATM   38  C11 UNL     1      30.677  -4.110  19.826  1.00  0.00     0.198 C 
HETATM   39  S1  UNL     1      31.075  -5.479  18.606  1.00  0.00    -0.045 SA
HETATM   40  S2  UNL     1      29.693  -7.063  19.161  1.00  0.00    -0.030 SA
HETATM   41  C12 UNL     1      29.179  -6.568  20.791  1.00  0.00     0.155 C 
HETATM   42  N10 UNL     1      29.019  -5.336  21.024  1.00  0.00    -0.361 N 
HETATM   43  C14 UNL     1      29.219  -4.246  20.054  1.00  0.00     0.234 C 
ATOM     44  H10 UNL     1      28.726  -5.074  21.965  1.00  0.00     0.161 HD
BRANCH  38  45
HETATM   45  O4  UNL     1      31.365  -4.479  20.976  1.00  0.00    -0.372 OA
ATOM     46  H4  UNL     1      30.999  -4.100  21.767  1.00  0.00     0.212 HD
ENDBRANCH  38  45
BRANCH  41  47
HETATM   47  C13 UNL     1      28.958  -7.567  21.802  1.00  0.00     0.234 C 
HETATM   48  O5  UNL     1      28.324  -8.643  21.538  1.00  0.00    -0.642 OA
HETATM   49  O6  UNL     1      29.405  -7.445  23.110  1.00  0.00    -0.642 OA
ENDBRANCH  41  47
BRANCH  43  50
HETATM   50  C15 UNL     1      28.516  -3.082  20.603  1.00  0.00     0.200 C 
HETATM   51  O7  UNL     1      28.901  -2.504  21.635  1.00  0.00    -0.646 OA
HETATM   52  O8  UNL     1      27.384  -2.604  19.965  1.00  0.00    -0.646 OA
ENDBRANCH  43  50
ENDBRANCH  33  38
ENDBRANCH  32  33
ENDBRANCH  30  32
ENDBRANCH   1  30
TORSDOF 13
ENDMDL
