MODEL 1
REMARK VINA RESULT: -8.425333733      0.000      0.000
REMARK  13 active torsions:
REMARK  status: ('A' for Active; 'I' for Inactive)
REMARK       I    between atoms: C1_4  and  N3_6 
REMARK    1  A    between atoms: N3_6  and  C2_8 
REMARK    2  A    between atoms: C2_8  and  C3_9 
REMARK    3  A    between atoms: C3_9  and  C4_10 
REMARK    4  A    between atoms: C4_10  and  C5_11 
REMARK    5  A    between atoms: C5_11  and  N4_12 
REMARK    6  A    between atoms: N4_12  and  S1_14 
REMARK    7  A    between atoms: S1_14  and  C6_17 
REMARK    8  A    between atoms: C7_20  and  N6_21 
REMARK    9  A    between atoms: N10_31  and  O4_32 
REMARK   10  A    between atoms: N13_41  and  C14_42 
REMARK   11  A    between atoms: C15_46  and  N15_47 
REMARK   12  A    between atoms: C16_51  and  N16_52 
REMARK   13  A    between atoms: C17_56  and  O5_57 
ROOT
HETATM    1  C6  UNL     1      33.193  -1.792  14.479  1.00  0.00     0.180 A 
HETATM    2  N5  UNL     1      33.074  -2.330  13.254  1.00  0.00    -0.327 N 
ATOM      3  H5  UNL     1      33.498  -1.849  12.462  1.00  0.00     0.168 HD
HETATM    4  C7  UNL     1      32.412  -3.487  13.039  1.00  0.00     0.158 A 
HETATM    5  C10 UNL     1      31.850  -4.113  14.135  1.00  0.00     0.121 A 
HETATM    6  N11 UNL     1      31.158  -5.325  13.908  1.00  0.00    -0.096 NA
HETATM    7  C11 UNL     1      31.929  -3.622  15.430  1.00  0.00     0.095 A 
HETATM    8  C12 UNL     1      32.631  -2.419  15.570  1.00  0.00     0.103 A 
HETATM    9  N12 UNL     1      32.582  -2.133  16.892  1.00  0.00    -0.348 N 
ATOM     10  H12 UNL     1      32.998  -1.318  17.341  1.00  0.00     0.167 HD
HETATM   11  C13 UNL     1      31.894  -3.101  17.511  1.00  0.00     0.186 A 
HETATM   12  N13 UNL     1      31.479  -4.030  16.636  1.00  0.00    -0.308 N 
ENDROOT
BRANCH  12  13
HETATM   13  C14 UNL     1      30.717  -5.228  16.871  1.00  0.00     0.325 C 
HETATM   14  N14 UNL     1      29.538  -4.892  17.686  1.00  0.00    -0.020 N 
HETATM   15  C15 UNL     1      29.656  -5.568  18.932  1.00  0.00     0.415 C 
ATOM     16 2H14 UNL     1      29.408  -3.885  17.794  1.00  0.00     0.282 HD
ATOM     17 1H14 UNL     1      28.659  -5.093  17.209  1.00  0.00     0.282 HD
HETATM   18  C16 UNL     1      31.157  -5.780  19.108  1.00  0.00     0.273 C 
HETATM   19  C17 UNL     1      31.531  -6.184  17.690  1.00  0.00     0.203 C 
BRANCH  15  20
HETATM   20  N15 UNL     1      29.080  -4.875  20.053  1.00  0.00    -0.048 N 
ATOM     21 3H15 UNL     1      28.265  -4.339  19.756  1.00  0.00     0.276 HD
ATOM     22 2H15 UNL     1      28.633  -5.539  20.686  1.00  0.00     0.276 HD
ATOM     23 1H15 UNL     1      29.727  -4.278  20.568  1.00  0.00     0.276 HD
ENDBRANCH  15  20
BRANCH  18  24
HETATM   24  N16 UNL     1      31.423  -6.856  20.044  1.00  0.00    -0.069 N 
ATOM     25 3H16 UNL     1      31.346  -6.541  21.011  1.00  0.00     0.275 HD
ATOM     26 2H16 UNL     1      30.674  -7.548  20.044  1.00  0.00     0.275 HD
ATOM     27 1H16 UNL     1      32.330  -7.284  19.859  1.00  0.00     0.275 HD
ENDBRANCH  18  24
BRANCH  19  28
HETATM   28  O5  UNL     1      31.047  -7.472  17.495  1.00  0.00    -0.389 OA
ATOM     29  H5  UNL     1      31.782  -8.069  17.410  1.00  0.00     0.210 HD
ENDBRANCH  19  28
ENDBRANCH  12  13
BRANCH   4  30
HETATM   30  N6  UNL     1      32.278  -4.066  11.747  1.00  0.00    -0.202 N 
HETATM   31  N7  UNL     1      32.698  -5.299  11.468  1.00  0.00    -0.231 N 
HETATM   32  N8  UNL     1      32.458  -5.591  10.213  1.00  0.00    -0.264 N 
ATOM     33  H7  UNL     1      33.144  -5.928  12.137  1.00  0.00     0.209 HD
HETATM   34  C8  UNL     1      31.860  -4.531   9.622  1.00  0.00     0.224 A 
ATOM     35  H8  UNL     1      32.686  -6.474   9.756  1.00  0.00     0.190 HD
HETATM   36  C9  UNL     1      31.761  -3.584  10.621  1.00  0.00     0.202 A 
HETATM   37  N10 UNL     1      31.326  -4.000   8.506  1.00  0.00    -0.079 N 
HETATM   38  N9  UNL     1      31.177  -2.529  10.069  1.00  0.00    -0.218 N 
HETATM   39  O3  UNL     1      30.934  -2.804   8.831  1.00  0.00    -0.125 OA
ATOM     40  H9  UNL     1      30.956  -1.652  10.541  1.00  0.00     0.199 HD
BRANCH  37  41
HETATM   41  O4  UNL     1      31.235  -4.638   7.280  1.00  0.00    -0.260 OA
ATOM     42  H4  UNL     1      31.697  -4.381   6.491  1.00  0.00     0.247 HD
ENDBRANCH  37  41
ENDBRANCH   4  30
BRANCH   1  43
HETATM   43  S1  UNL     1      34.061  -0.293  14.696  1.00  0.00     0.276 S 
HETATM   44  O1  UNL     1      33.785   0.318  16.055  1.00  0.00    -0.199 OA
HETATM   45  O2  UNL     1      33.624   0.736  13.678  1.00  0.00    -0.199 OA
BRANCH  43  46
HETATM   46  N4  UNL     1      35.753  -0.486  14.561  1.00  0.00    -0.314 N 
ATOM     47  H4  UNL     1      36.307  -1.062  15.193  1.00  0.00     0.172 HD
BRANCH  46  48
HETATM   48  C5  UNL     1      36.316   0.256  13.451  1.00  0.00     0.132 C 
BRANCH  48  49
HETATM   49  C4  UNL     1      36.461  -0.709  12.283  1.00  0.00     0.022 C 
BRANCH  49  50
HETATM   50  C3  UNL     1      36.748  -2.087  12.850  1.00  0.00     0.021 C 
BRANCH  50  51
HETATM   51  C2  UNL     1      37.262  -2.974  11.713  1.00  0.00     0.122 C 
BRANCH  51  52
HETATM   52  N3  UNL     1      36.266  -3.972  11.420  1.00  0.00    -0.365 N 
HETATM   53  C1  UNL     1      35.619  -3.988  10.156  1.00  0.00     0.181 C 
HETATM   54  N1  UNL     1      35.198  -2.912   9.625  1.00  0.00    -0.374 N 
HETATM   55  N2  UNL     1      35.474  -5.260   9.535  1.00  0.00    -0.064 NA
ATOM     56  H12 UNL     1      34.734  -2.924   8.717  1.00  0.00     0.158 HD
ATOM     57  H11 UNL     1      35.301  -2.001  10.071  1.00  0.00     0.158 HD
ATOM     58  H3  UNL     1      36.024  -4.671  12.123  1.00  0.00     0.162 HD
ENDBRANCH  51  52
ENDBRANCH  50  51
ENDBRANCH  49  50
ENDBRANCH  48  49
ENDBRANCH  46  48
ENDBRANCH  43  46
ENDBRANCH   1  43
TORSDOF 13
ENDMDL
MODEL 2
REMARK VINA RESULT: -8.402685787      0.985      1.375
REMARK  13 active torsions:
REMARK  status: ('A' for Active; 'I' for Inactive)
REMARK       I    between atoms: C1_4  and  N3_6 
REMARK    1  A    between atoms: N3_6  and  C2_8 
REMARK    2  A    between atoms: C2_8  and  C3_9 
REMARK    3  A    between atoms: C3_9  and  C4_10 
REMARK    4  A    between atoms: C4_10  and  C5_11 
REMARK    5  A    between atoms: C5_11  and  N4_12 
REMARK    6  A    between atoms: N4_12  and  S1_14 
REMARK    7  A    between atoms: S1_14  and  C6_17 
REMARK    8  A    between atoms: C7_20  and  N6_21 
REMARK    9  A    between atoms: N10_31  and  O4_32 
REMARK   10  A    between atoms: N13_41  and  C14_42 
REMARK   11  A    between atoms: C15_46  and  N15_47 
REMARK   12  A    between atoms: C16_51  and  N16_52 
REMARK   13  A    between atoms: C17_56  and  O5_57 
ROOT
HETATM    1  C6  UNL     1      33.144  -1.785  14.441  1.00  0.00     0.180 A 
HETATM    2  N5  UNL     1      33.031  -2.340  13.224  1.00  0.00    -0.327 N 
ATOM      3  H5  UNL     1      33.450  -1.866  12.425  1.00  0.00     0.168 HD
HETATM    4  C7  UNL     1      32.379  -3.506  13.024  1.00  0.00     0.158 A 
HETATM    5  C10 UNL     1      31.824  -4.124  14.128  1.00  0.00     0.121 A 
HETATM    6  N11 UNL     1      31.144  -5.345  13.917  1.00  0.00    -0.096 NA
HETATM    7  C11 UNL     1      31.898  -3.614  15.417  1.00  0.00     0.095 A 
HETATM    8  C12 UNL     1      32.588  -2.402  15.541  1.00  0.00     0.103 A 
HETATM    9  N12 UNL     1      32.536  -2.100  16.858  1.00  0.00    -0.348 N 
ATOM     10  H12 UNL     1      32.944  -1.275  17.296  1.00  0.00     0.167 HD
HETATM   11  C13 UNL     1      31.857  -3.065  17.490  1.00  0.00     0.186 A 
HETATM   12  N13 UNL     1      31.451  -4.010  16.628  1.00  0.00    -0.308 N 
ENDROOT
BRANCH  12  13
HETATM   13  C14 UNL     1      30.700  -5.213  16.879  1.00  0.00     0.325 C 
HETATM   14  N14 UNL     1      29.528  -4.879  17.704  1.00  0.00    -0.020 N 
HETATM   15  C15 UNL     1      29.664  -5.546  18.953  1.00  0.00     0.415 C 
ATOM     16 2H14 UNL     1      29.392  -3.873  17.806  1.00  0.00     0.282 HD
ATOM     17 1H14 UNL     1      28.645  -5.090  17.238  1.00  0.00     0.282 HD
HETATM   18  C16 UNL     1      31.168  -5.745  19.115  1.00  0.00     0.273 C 
HETATM   19  C17 UNL     1      31.531  -6.157  17.696  1.00  0.00     0.203 C 
BRANCH  15  20
HETATM   20  N15 UNL     1      29.094  -4.850  20.075  1.00  0.00    -0.048 N 
ATOM     21 3H15 UNL     1      29.831  -4.523  20.699  1.00  0.00     0.276 HD
ATOM     22 2H15 UNL     1      28.705  -3.956  19.776  1.00  0.00     0.276 HD
ATOM     23 1H15 UNL     1      28.397  -5.379  20.600  1.00  0.00     0.276 HD
ENDBRANCH  15  20
BRANCH  18  24
HETATM   24  N16 UNL     1      31.452  -6.813  20.055  1.00  0.00    -0.069 N 
ATOM     25 3H16 UNL     1      31.060  -6.618  20.976  1.00  0.00     0.275 HD
ATOM     26 2H16 UNL     1      30.923  -7.657  19.837  1.00  0.00     0.275 HD
ATOM     27 1H16 UNL     1      32.453  -7.000  20.104  1.00  0.00     0.275 HD
ENDBRANCH  18  24
BRANCH  19  28
HETATM   28  O5  UNL     1      31.054  -7.450  17.514  1.00  0.00    -0.389 OA
ATOM     29  H5  UNL     1      31.674  -8.063  17.890  1.00  0.00     0.210 HD
ENDBRANCH  19  28
ENDBRANCH  12  13
BRANCH   4  30
HETATM   30  N6  UNL     1      32.252  -4.104  11.740  1.00  0.00    -0.202 N 
HETATM   31  N7  UNL     1      32.746  -5.308  11.458  1.00  0.00    -0.231 N 
HETATM   32  N8  UNL     1      32.494  -5.626  10.212  1.00  0.00    -0.264 N 
ATOM     33  H7  UNL     1      33.250  -5.900  12.119  1.00  0.00     0.209 HD
HETATM   34  C8  UNL     1      31.811  -4.613   9.630  1.00  0.00     0.224 A 
ATOM     35  H8  UNL     1      32.768  -6.495   9.755  1.00  0.00     0.190 HD
HETATM   36  C9  UNL     1      31.674  -3.667  10.625  1.00  0.00     0.202 A 
HETATM   37  N10 UNL     1      31.213  -4.129   8.525  1.00  0.00    -0.079 N 
HETATM   38  N9  UNL     1      31.006  -2.658  10.082  1.00  0.00    -0.218 N 
HETATM   39  O3  UNL     1      30.750  -2.960   8.853  1.00  0.00    -0.125 OA
ATOM     40  H9  UNL     1      30.739  -1.794  10.554  1.00  0.00     0.199 HD
BRANCH  37  41
HETATM   41  O4  UNL     1      31.133  -4.782   7.306  1.00  0.00    -0.260 OA
ATOM     42  H4  UNL     1      30.891  -5.692   7.185  1.00  0.00     0.247 HD
ENDBRANCH  37  41
ENDBRANCH   4  30
BRANCH   1  43
HETATM   43  S1  UNL     1      33.998  -0.275  14.638  1.00  0.00     0.276 S 
HETATM   44  O1  UNL     1      33.717   0.351  15.989  1.00  0.00    -0.199 OA
HETATM   45  O2  UNL     1      33.550   0.737  13.607  1.00  0.00    -0.199 OA
BRANCH  43  46
HETATM   46  N4  UNL     1      35.691  -0.453  14.504  1.00  0.00    -0.314 N 
ATOM     47  H4  UNL     1      36.313  -0.553  15.306  1.00  0.00     0.172 HD
BRANCH  46  48
HETATM   48  C5  UNL     1      36.150  -0.448  13.130  1.00  0.00     0.132 C 
BRANCH  48  49
HETATM   49  C4  UNL     1      36.484  -1.885  12.755  1.00  0.00     0.022 C 
BRANCH  49  50
HETATM   50  C3  UNL     1      36.652  -1.946  11.248  1.00  0.00     0.021 C 
BRANCH  50  51
HETATM   51  C2  UNL     1      35.454  -2.699  10.663  1.00  0.00     0.122 C 
BRANCH  51  52
HETATM   52  N3  UNL     1      34.947  -1.957   9.537  1.00  0.00    -0.365 N 
HETATM   53  C1  UNL     1      34.322  -0.698   9.732  1.00  0.00     0.181 C 
HETATM   54  N1  UNL     1      33.479  -0.525  10.668  1.00  0.00    -0.374 N 
HETATM   55  N2  UNL     1      34.693   0.340   8.831  1.00  0.00    -0.064 NA
ATOM     56  H12 UNL     1      33.030   0.379  10.808  1.00  0.00     0.158 HD
ATOM     57  H11 UNL     1      33.212  -1.269  11.313  1.00  0.00     0.158 HD
ATOM     58  H3  UNL     1      35.038  -2.338   8.595  1.00  0.00     0.162 HD
ENDBRANCH  51  52
ENDBRANCH  50  51
ENDBRANCH  49  50
ENDBRANCH  48  49
ENDBRANCH  46  48
ENDBRANCH  43  46
ENDBRANCH   1  43
TORSDOF 13
ENDMDL
MODEL 3
REMARK VINA RESULT: -8.329745933      1.437      6.332
REMARK  13 active torsions:
REMARK  status: ('A' for Active; 'I' for Inactive)
REMARK       I    between atoms: C1_4  and  N3_6 
REMARK    1  A    between atoms: N3_6  and  C2_8 
REMARK    2  A    between atoms: C2_8  and  C3_9 
REMARK    3  A    between atoms: C3_9  and  C4_10 
REMARK    4  A    between atoms: C4_10  and  C5_11 
REMARK    5  A    between atoms: C5_11  and  N4_12 
REMARK    6  A    between atoms: N4_12  and  S1_14 
REMARK    7  A    between atoms: S1_14  and  C6_17 
REMARK    8  A    between atoms: C7_20  and  N6_21 
REMARK    9  A    between atoms: N10_31  and  O4_32 
REMARK   10  A    between atoms: N13_41  and  C14_42 
REMARK   11  A    between atoms: C15_46  and  N15_47 
REMARK   12  A    between atoms: C16_51  and  N16_52 
REMARK   13  A    between atoms: C17_56  and  O5_57 
ROOT
HETATM    1  C6  UNL     1      32.924  -1.844  14.391  1.00  0.00     0.180 A 
HETATM    2  N5  UNL     1      32.458  -2.545  15.436  1.00  0.00    -0.327 N 
ATOM      3  H5  UNL     1      32.553  -2.155  16.373  1.00  0.00     0.168 HD
HETATM    4  C7  UNL     1      31.866  -3.750  15.288  1.00  0.00     0.158 A 
HETATM    5  C10 UNL     1      31.753  -4.250  14.005  1.00  0.00     0.121 A 
HETATM    6  N11 UNL     1      31.132  -5.511  13.851  1.00  0.00    -0.096 NA
HETATM    7  C11 UNL     1      32.209  -3.588  12.874  1.00  0.00     0.095 A 
HETATM    8  C12 UNL     1      32.810  -2.346  13.112  1.00  0.00     0.103 A 
HETATM    9  N12 UNL     1      33.172  -1.890  11.891  1.00  0.00    -0.348 N 
ATOM     10  H12 UNL     1      33.640  -1.004  11.701  1.00  0.00     0.167 HD
HETATM   11  C13 UNL     1      32.814  -2.797  10.974  1.00  0.00     0.186 A 
HETATM   12  N13 UNL     1      32.220  -3.854  11.550  1.00  0.00    -0.308 N 
ENDROOT
BRANCH  12  13
HETATM   13  C14 UNL     1      31.685  -5.044  10.942  1.00  0.00     0.325 C 
HETATM   14  N14 UNL     1      32.720  -5.650  10.089  1.00  0.00    -0.020 N 
HETATM   15  C15 UNL     1      32.263  -5.608   8.743  1.00  0.00     0.415 C 
ATOM     16 2H14 UNL     1      33.635  -5.213  10.209  1.00  0.00     0.282 HD
ATOM     17 1H14 UNL     1      32.978  -6.590  10.389  1.00  0.00     0.282 HD
HETATM   18  C16 UNL     1      31.282  -4.438   8.712  1.00  0.00     0.273 C 
HETATM   19  C17 UNL     1      30.556  -4.672  10.028  1.00  0.00     0.203 C 
BRANCH  15  20
HETATM   20  N15 UNL     1      33.298  -5.461   7.756  1.00  0.00    -0.048 N 
ATOM     21 3H15 UNL     1      33.599  -4.489   7.701  1.00  0.00     0.276 HD
ATOM     22 2H15 UNL     1      34.162  -5.896   8.083  1.00  0.00     0.276 HD
ATOM     23 1H15 UNL     1      33.059  -5.809   6.827  1.00  0.00     0.276 HD
ENDBRANCH  15  20
BRANCH  18  24
HETATM   24  N16 UNL     1      30.372  -4.553   7.588  1.00  0.00    -0.069 N 
ATOM     25 3H16 UNL     1      30.592  -3.877   6.856  1.00  0.00     0.275 HD
ATOM     26 2H16 UNL     1      30.532  -5.411   7.061  1.00  0.00     0.275 HD
ATOM     27 1H16 UNL     1      29.403  -4.475   7.894  1.00  0.00     0.275 HD
ENDBRANCH  18  24
BRANCH  19  28
HETATM   28  O5  UNL     1      29.738  -5.781   9.848  1.00  0.00    -0.389 OA
ATOM     29  H5  UNL     1      29.633  -6.225  10.682  1.00  0.00     0.210 HD
ENDBRANCH  19  28
ENDBRANCH  12  13
BRANCH   4  30
HETATM   30  N6  UNL     1      31.369  -4.503  16.388  1.00  0.00    -0.202 N 
HETATM   31  N7  UNL     1      32.048  -5.511  16.931  1.00  0.00    -0.231 N 
HETATM   32  N8  UNL     1      31.372  -6.034  17.925  1.00  0.00    -0.264 N 
ATOM     33  H7  UNL     1      32.965  -5.831  16.618  1.00  0.00     0.209 HD
HETATM   34  C8  UNL     1      30.204  -5.366  18.061  1.00  0.00     0.224 A 
ATOM     35  H8  UNL     1      31.677  -6.818  18.501  1.00  0.00     0.190 HD
HETATM   36  C9  UNL     1      30.234  -4.403  17.072  1.00  0.00     0.202 A 
HETATM   37  N10 UNL     1      29.041  -5.228  18.726  1.00  0.00    -0.079 N 
HETATM   38  N9  UNL     1      29.096  -3.730  17.182  1.00  0.00    -0.218 N 
HETATM   39  O3  UNL     1      28.421  -4.236  18.159  1.00  0.00    -0.125 OA
ATOM     40  H9  UNL     1      28.806  -2.948  16.596  1.00  0.00     0.199 HD
BRANCH  37  41
HETATM   41  O4  UNL     1      28.631  -6.008  19.794  1.00  0.00    -0.260 OA
ATOM     42  H4  UNL     1      28.734  -6.951  19.858  1.00  0.00     0.247 HD
ENDBRANCH  37  41
ENDBRANCH   4  30
BRANCH   1  43
HETATM   43  S1  UNL     1      33.680  -0.292  14.645  1.00  0.00     0.276 S 
HETATM   44  O1  UNL     1      33.327   0.284  16.002  1.00  0.00    -0.199 OA
HETATM   45  O2  UNL     1      33.198   0.717  13.626  1.00  0.00    -0.199 OA
BRANCH  43  46
HETATM   46  N4  UNL     1      35.383  -0.364  14.552  1.00  0.00    -0.314 N 
ATOM     47  H4  UNL     1      35.975  -0.714  15.306  1.00  0.00     0.172 HD
BRANCH  46  48
HETATM   48  C5  UNL     1      35.899   0.123  13.289  1.00  0.00     0.132 C 
BRANCH  48  49
HETATM   49  C4  UNL     1      36.985  -0.843  12.836  1.00  0.00     0.022 C 
BRANCH  49  50
HETATM   50  C3  UNL     1      36.417  -2.248  12.909  1.00  0.00     0.021 C 
BRANCH  50  51
HETATM   51  C2  UNL     1      37.182  -3.125  11.914  1.00  0.00     0.122 C 
BRANCH  51  52
HETATM   52  N3  UNL     1      36.308  -4.175  11.457  1.00  0.00    -0.365 N 
HETATM   53  C1  UNL     1      35.914  -4.237  10.095  1.00  0.00     0.181 C 
HETATM   54  N1  UNL     1      35.551  -3.189   9.473  1.00  0.00    -0.374 N 
HETATM   55  N2  UNL     1      35.951  -5.520   9.482  1.00  0.00    -0.064 NA
ATOM     56  H12 UNL     1      35.267  -3.233   8.495  1.00  0.00     0.158 HD
ATOM     57  H11 UNL     1      35.524  -2.269   9.913  1.00  0.00     0.158 HD
ATOM     58  H3  UNL     1      35.971  -4.878  12.115  1.00  0.00     0.162 HD
ENDBRANCH  51  52
ENDBRANCH  50  51
ENDBRANCH  49  50
ENDBRANCH  48  49
ENDBRANCH  46  48
ENDBRANCH  43  46
ENDBRANCH   1  43
TORSDOF 13
ENDMDL
MODEL 4
REMARK VINA RESULT: -8.277547530      1.424      1.899
REMARK  13 active torsions:
REMARK  status: ('A' for Active; 'I' for Inactive)
REMARK       I    between atoms: C1_4  and  N3_6 
REMARK    1  A    between atoms: N3_6  and  C2_8 
REMARK    2  A    between atoms: C2_8  and  C3_9 
REMARK    3  A    between atoms: C3_9  and  C4_10 
REMARK    4  A    between atoms: C4_10  and  C5_11 
REMARK    5  A    between atoms: C5_11  and  N4_12 
REMARK    6  A    between atoms: N4_12  and  S1_14 
REMARK    7  A    between atoms: S1_14  and  C6_17 
REMARK    8  A    between atoms: C7_20  and  N6_21 
REMARK    9  A    between atoms: N10_31  and  O4_32 
REMARK   10  A    between atoms: N13_41  and  C14_42 
REMARK   11  A    between atoms: C15_46  and  N15_47 
REMARK   12  A    between atoms: C16_51  and  N16_52 
REMARK   13  A    between atoms: C17_56  and  O5_57 
ROOT
HETATM    1  C6  UNL     1      33.173  -1.766  14.453  1.00  0.00     0.180 A 
HETATM    2  N5  UNL     1      33.148  -2.370  13.254  1.00  0.00    -0.327 N 
ATOM      3  H5  UNL     1      33.611  -1.921  12.466  1.00  0.00     0.168 HD
HETATM    4  C7  UNL     1      32.529  -3.554  13.060  1.00  0.00     0.158 A 
HETATM    5  C10 UNL     1      31.911  -4.138  14.149  1.00  0.00     0.121 A 
HETATM    6  N11 UNL     1      31.264  -5.378  13.944  1.00  0.00    -0.096 NA
HETATM    7  C11 UNL     1      31.893  -3.577  15.419  1.00  0.00     0.095 A 
HETATM    8  C12 UNL     1      32.556  -2.350  15.538  1.00  0.00     0.103 A 
HETATM    9  N12 UNL     1      32.414  -1.997  16.837  1.00  0.00    -0.348 N 
ATOM     10  H12 UNL     1      32.780  -1.148  17.267  1.00  0.00     0.167 HD
HETATM   11  C13 UNL     1      31.710  -2.949  17.462  1.00  0.00     0.186 A 
HETATM   12  N13 UNL     1      31.375  -3.934  16.614  1.00  0.00    -0.308 N 
ENDROOT
BRANCH  12  13
HETATM   13  C14 UNL     1      30.627  -5.138  16.863  1.00  0.00     0.325 C 
HETATM   14  N14 UNL     1      29.481  -4.817  17.729  1.00  0.00    -0.020 N 
HETATM   15  C15 UNL     1      29.652  -5.508  18.960  1.00  0.00     0.415 C 
ATOM     16 2H14 UNL     1      29.352  -3.812  17.856  1.00  0.00     0.282 HD
ATOM     17 1H14 UNL     1      28.584  -5.015  17.286  1.00  0.00     0.282 HD
HETATM   18  C16 UNL     1      31.160  -5.716  19.073  1.00  0.00     0.273 C 
HETATM   19  C17 UNL     1      31.477  -6.101  17.636  1.00  0.00     0.203 C 
BRANCH  15  20
HETATM   20  N15 UNL     1      29.119  -4.833  20.113  1.00  0.00    -0.048 N 
ATOM     21 3H15 UNL     1      28.879  -3.870  19.878  1.00  0.00     0.276 HD
ATOM     22 2H15 UNL     1      28.192  -5.196  20.338  1.00  0.00     0.276 HD
ATOM     23 1H15 UNL     1      29.716  -4.857  20.939  1.00  0.00     0.276 HD
ENDBRANCH  15  20
BRANCH  18  24
HETATM   24  N16 UNL     1      31.467  -6.803  19.983  1.00  0.00    -0.069 N 
ATOM     25 3H16 UNL     1      30.857  -6.794  20.800  1.00  0.00     0.275 HD
ATOM     26 2H16 UNL     1      31.195  -7.707  19.596  1.00  0.00     0.275 HD
ATOM     27 1H16 UNL     1      32.452  -6.790  20.249  1.00  0.00     0.275 HD
ENDBRANCH  18  24
BRANCH  19  28
HETATM   28  O5  UNL     1      30.990  -7.388  17.443  1.00  0.00    -0.389 OA
ATOM     29  H5  UNL     1      30.258  -7.354  16.839  1.00  0.00     0.210 HD
ENDBRANCH  19  28
ENDBRANCH  12  13
BRANCH   4  30
HETATM   30  N6  UNL     1      32.494  -4.204  11.795  1.00  0.00    -0.202 N 
HETATM   31  N7  UNL     1      31.353  -4.515  11.180  1.00  0.00    -0.231 N 
HETATM   32  N8  UNL     1      31.598  -5.104  10.035  1.00  0.00    -0.264 N 
ATOM     33  H7  UNL     1      30.422  -4.321  11.549  1.00  0.00     0.209 HD
HETATM   34  C8  UNL     1      32.936  -5.198   9.866  1.00  0.00     0.224 A 
ATOM     35  H8  UNL     1      30.892  -5.438   9.379  1.00  0.00     0.190 HD
HETATM   36  C9  UNL     1      33.473  -4.619  10.998  1.00  0.00     0.202 A 
HETATM   37  N10 UNL     1      33.961  -5.600   9.091  1.00  0.00    -0.079 N 
HETATM   38  N9  UNL     1      34.790  -4.696  10.859  1.00  0.00    -0.218 N 
HETATM   39  O3  UNL     1      35.043  -5.275   9.733  1.00  0.00    -0.125 OA
ATOM     40  H9  UNL     1      35.483  -4.357  11.526  1.00  0.00     0.199 HD
BRANCH  37  41
HETATM   41  O4  UNL     1      33.839  -6.230   7.864  1.00  0.00    -0.260 OA
ATOM     42  H4  UNL     1      34.251  -7.052   7.623  1.00  0.00     0.247 HD
ENDBRANCH  37  41
ENDBRANCH   4  30
BRANCH   1  43
HETATM   43  S1  UNL     1      33.990  -0.235  14.644  1.00  0.00     0.276 S 
HETATM   44  O1  UNL     1      33.670   0.404  15.980  1.00  0.00    -0.199 OA
HETATM   45  O2  UNL     1      33.540   0.752  13.590  1.00  0.00    -0.199 OA
BRANCH  43  46
HETATM   46  N4  UNL     1      35.689  -0.378  14.545  1.00  0.00    -0.314 N 
ATOM     47  H4  UNL     1      36.291  -0.521  15.355  1.00  0.00     0.172 HD
BRANCH  46  48
HETATM   48  C5  UNL     1      36.184  -0.274  13.188  1.00  0.00     0.132 C 
BRANCH  48  49
HETATM   49  C4  UNL     1      36.553  -1.677  12.727  1.00  0.00     0.022 C 
BRANCH  49  50
HETATM   50  C3  UNL     1      36.612  -1.670  11.212  1.00  0.00     0.021 C 
BRANCH  50  51
HETATM   51  C2  UNL     1      35.291  -1.103  10.685  1.00  0.00     0.122 C 
BRANCH  51  52
HETATM   52  N3  UNL     1      35.068  -1.610   9.355  1.00  0.00    -0.365 N 
HETATM   53  C1  UNL     1      33.813  -1.425   8.719  1.00  0.00     0.181 C 
HETATM   54  N1  UNL     1      32.726  -1.620   9.350  1.00  0.00    -0.374 N 
HETATM   55  N2  UNL     1      33.847  -1.014   7.357  1.00  0.00    -0.064 NA
ATOM     56  H12 UNL     1      31.824  -1.487   8.894  1.00  0.00     0.158 HD
ATOM     57  H11 UNL     1      32.701  -1.915  10.326  1.00  0.00     0.158 HD
ATOM     58  H3  UNL     1      35.816  -2.104   8.868  1.00  0.00     0.162 HD
ENDBRANCH  51  52
ENDBRANCH  50  51
ENDBRANCH  49  50
ENDBRANCH  48  49
ENDBRANCH  46  48
ENDBRANCH  43  46
ENDBRANCH   1  43
TORSDOF 13
ENDMDL
MODEL 5
REMARK VINA RESULT: -8.094228046      1.825      6.360
REMARK  13 active torsions:
REMARK  status: ('A' for Active; 'I' for Inactive)
REMARK       I    between atoms: C1_4  and  N3_6 
REMARK    1  A    between atoms: N3_6  and  C2_8 
REMARK    2  A    between atoms: C2_8  and  C3_9 
REMARK    3  A    between atoms: C3_9  and  C4_10 
REMARK    4  A    between atoms: C4_10  and  C5_11 
REMARK    5  A    between atoms: C5_11  and  N4_12 
REMARK    6  A    between atoms: N4_12  and  S1_14 
REMARK    7  A    between atoms: S1_14  and  C6_17 
REMARK    8  A    between atoms: C7_20  and  N6_21 
REMARK    9  A    between atoms: N10_31  and  O4_32 
REMARK   10  A    between atoms: N13_41  and  C14_42 
REMARK   11  A    between atoms: C15_46  and  N15_47 
REMARK   12  A    between atoms: C16_51  and  N16_52 
REMARK   13  A    between atoms: C17_56  and  O5_57 
ROOT
HETATM    1  C6  UNL     1      32.782  -2.135  14.558  1.00  0.00     0.180 A 
HETATM    2  N5  UNL     1      32.244  -2.739  15.630  1.00  0.00    -0.327 N 
ATOM      3  H5  UNL     1      32.266  -2.259  16.529  1.00  0.00     0.168 HD
HETATM    4  C7  UNL     1      31.674  -3.960  15.556  1.00  0.00     0.158 A 
HETATM    5  C10 UNL     1      31.659  -4.583  14.322  1.00  0.00     0.121 A 
HETATM    6  N11 UNL     1      31.061  -5.862  14.246  1.00  0.00    -0.096 NA
HETATM    7  C11 UNL     1      32.194  -4.025  13.169  1.00  0.00     0.095 A 
HETATM    8  C12 UNL     1      32.767  -2.758  13.329  1.00  0.00     0.103 A 
HETATM    9  N12 UNL     1      33.216  -2.416  12.100  1.00  0.00    -0.348 N 
ATOM     10  H12 UNL     1      33.690  -1.546  11.860  1.00  0.00     0.167 HD
HETATM   11  C13 UNL     1      32.933  -3.412  11.251  1.00  0.00     0.186 A 
HETATM   12  N13 UNL     1      32.305  -4.417  11.881  1.00  0.00    -0.308 N 
ENDROOT
BRANCH  12  13
HETATM   13  C14 UNL     1      31.825  -5.668  11.354  1.00  0.00     0.325 C 
HETATM   14  N14 UNL     1      32.728  -6.108  10.278  1.00  0.00    -0.020 N 
HETATM   15  C15 UNL     1      31.990  -6.123   9.062  1.00  0.00     0.415 C 
ATOM     16 2H14 UNL     1      33.576  -5.544  10.219  1.00  0.00     0.282 HD
ATOM     17 1H14 UNL     1      33.174  -7.004  10.479  1.00  0.00     0.282 HD
HETATM   18  C16 UNL     1      30.871  -5.108   9.285  1.00  0.00     0.273 C 
HETATM   19  C17 UNL     1      30.486  -5.457  10.715  1.00  0.00     0.203 C 
BRANCH  15  20
HETATM   20  N15 UNL     1      32.758  -5.818   7.885  1.00  0.00    -0.048 N 
ATOM     21 3H15 UNL     1      33.148  -4.879   7.951  1.00  0.00     0.276 HD
ATOM     22 2H15 UNL     1      33.618  -6.367   7.873  1.00  0.00     0.276 HD
ATOM     23 1H15 UNL     1      32.256  -5.931   7.003  1.00  0.00     0.276 HD
ENDBRANCH  15  20
BRANCH  18  24
HETATM   24  N16 UNL     1      29.766  -5.346   8.376  1.00  0.00    -0.069 N 
ATOM     25 3H16 UNL     1      29.322  -6.247   8.550  1.00  0.00     0.275 HD
ATOM     26 2H16 UNL     1      28.973  -4.738   8.580  1.00  0.00     0.275 HD
ATOM     27 1H16 UNL     1      30.067  -5.257   7.405  1.00  0.00     0.275 HD
ENDBRANCH  18  24
BRANCH  19  28
HETATM   28  O5  UNL     1      29.812  -6.673  10.669  1.00  0.00    -0.389 OA
ATOM     29  H5  UNL     1      30.151  -7.239  11.352  1.00  0.00     0.210 HD
ENDBRANCH  19  28
ENDBRANCH  12  13
BRANCH   4  30
HETATM   30  N6  UNL     1      31.101  -4.611  16.683  1.00  0.00    -0.202 N 
HETATM   31  N7  UNL     1      31.718  -5.598  17.331  1.00  0.00    -0.231 N 
HETATM   32  N8  UNL     1      30.980  -6.022  18.328  1.00  0.00    -0.264 N 
ATOM     33  H7  UNL     1      32.635  -5.971  17.086  1.00  0.00     0.209 HD
HETATM   34  C8  UNL     1      29.832  -5.306  18.360  1.00  0.00     0.224 A 
ATOM     35  H8  UNL     1      31.230  -6.770  18.974  1.00  0.00     0.190 HD
HETATM   36  C9  UNL     1      29.941  -4.422  17.306  1.00  0.00     0.202 A 
HETATM   37  N10 UNL     1      28.647  -5.080  18.958  1.00  0.00    -0.079 N 
HETATM   38  N9  UNL     1      28.826  -3.705  17.312  1.00  0.00    -0.218 N 
HETATM   39  O3  UNL     1      28.090  -4.113  18.291  1.00  0.00    -0.125 OA
ATOM     40  H9  UNL     1      28.590  -2.959  16.657  1.00  0.00     0.199 HD
BRANCH  37  41
HETATM   41  O4  UNL     1      28.163  -5.763  20.061  1.00  0.00    -0.260 OA
ATOM     42  H4  UNL     1      28.343  -5.544  20.967  1.00  0.00     0.247 HD
ENDBRANCH  37  41
ENDBRANCH   4  30
BRANCH   1  43
HETATM   43  S1  UNL     1      33.506  -0.554  14.716  1.00  0.00     0.276 S 
HETATM   44  O1  UNL     1      33.081   0.127  16.001  1.00  0.00    -0.199 OA
HETATM   45  O2  UNL     1      33.062   0.357  13.594  1.00  0.00    -0.199 OA
BRANCH  43  46
HETATM   46  N4  UNL     1      35.213  -0.608  14.711  1.00  0.00    -0.314 N 
ATOM     47  H4  UNL     1      35.757  -1.300  15.225  1.00  0.00     0.172 HD
BRANCH  46  48
HETATM   48  C5  UNL     1      35.805   0.435  13.898  1.00  0.00     0.132 C 
BRANCH  48  49
HETATM   49  C4  UNL     1      36.848  -0.221  13.003  1.00  0.00     0.022 C 
BRANCH  49  50
HETATM   50  C3  UNL     1      36.470  -1.680  12.840  1.00  0.00     0.021 C 
BRANCH  50  51
HETATM   51  C2  UNL     1      36.749  -2.088  11.391  1.00  0.00     0.122 C 
BRANCH  51  52
HETATM   52  N3  UNL     1      36.424  -0.980  10.529  1.00  0.00    -0.365 N 
HETATM   53  C1  UNL     1      35.301  -1.052   9.664  1.00  0.00     0.181 C 
HETATM   54  N1  UNL     1      35.068  -2.101   8.983  1.00  0.00    -0.374 N 
HETATM   55  N2  UNL     1      34.470   0.101   9.608  1.00  0.00    -0.064 NA
ATOM     56  H12 UNL     1      34.261  -2.153   8.362  1.00  0.00     0.158 HD
ATOM     57  H11 UNL     1      35.664  -2.927   9.023  1.00  0.00     0.158 HD
ATOM     58  H3  UNL     1      37.003  -0.140  10.540  1.00  0.00     0.162 HD
ENDBRANCH  51  52
ENDBRANCH  50  51
ENDBRANCH  49  50
ENDBRANCH  48  49
ENDBRANCH  46  48
ENDBRANCH  43  46
ENDBRANCH   1  43
TORSDOF 13
ENDMDL
