MODEL 1
REMARK VINA RESULT: -4.837440162      0.000      0.000
REMARK  4 active torsions:
REMARK  status: ('A' for Active; 'I' for Inactive)
REMARK    1  A    between atoms: C2_2  and  C3_3 
REMARK    2  A    between atoms: C3_3  and  O1_4 
REMARK    3  A    between atoms: C8_10  and  C9_11 
REMARK    4  A    between atoms: C9_11  and  O3_13 
ROOT
HETATM    1  C3  UNL     1      16.841  11.160   1.815  1.00  0.00     0.111 C 
HETATM    2  C5  UNL     1      18.287  11.022   2.004  1.00  0.00     0.046 C 
HETATM    3  C6  UNL     1      18.953   9.716   1.982  1.00  0.00     0.015 C 
HETATM    4  C7  UNL     1      18.841  11.892   0.885  1.00  0.00     0.176 C 
HETATM    5  O2  UNL     1      17.776  12.487   0.255  1.00  0.00    -0.379 OA
HETATM    6  C8  UNL     1      16.691  11.571   0.367  1.00  0.00     0.188 C 
ENDROOT
BRANCH   1   7
HETATM    7  C2  UNL     1      15.957  10.032   2.065  1.00  0.00     0.004 C 
HETATM    8  C1  UNL     1      14.655  10.023   2.191  1.00  0.00     0.010 C 
ENDBRANCH   1   7
BRANCH   1   9
HETATM    9  O1  UNL     1      16.292  12.194   2.585  1.00  0.00    -0.378 OA
HETATM   10  C4  UNL     1      16.688  12.378   3.840  1.00  0.00     0.203 C 
ENDBRANCH   1   9
BRANCH   6  11
HETATM   11  C9  UNL     1      17.010  10.519  -0.642  1.00  0.00     0.146 C 
HETATM   12  C10 UNL     1      15.811   9.809  -1.238  1.00  0.00     0.042 C 
BRANCH  11  13
HETATM   13  O3  UNL     1      17.601  11.148  -1.785  1.00  0.00    -0.393 OA
ATOM     14  H3  UNL     1      18.546  11.083  -1.711  1.00  0.00     0.210 HD
ENDBRANCH  11  13
ENDBRANCH   6  11
TORSDOF 4
ENDMDL
MODEL 2
REMARK VINA RESULT: -4.786819167      2.421      4.877
REMARK  4 active torsions:
REMARK  status: ('A' for Active; 'I' for Inactive)
REMARK    1  A    between atoms: C2_2  and  C3_3 
REMARK    2  A    between atoms: C3_3  and  O1_4 
REMARK    3  A    between atoms: C8_10  and  C9_11 
REMARK    4  A    between atoms: C9_11  and  O3_13 
ROOT
HETATM    1  C3  UNL     1      14.439  10.031  -1.638  1.00  0.00     0.111 C 
HETATM    2  C5  UNL     1      13.987   8.938  -0.774  1.00  0.00     0.046 C 
HETATM    3  C6  UNL     1      14.784   7.723  -0.575  1.00  0.00     0.015 C 
HETATM    4  C7  UNL     1      13.797   9.643   0.561  1.00  0.00     0.176 C 
HETATM    5  O2  UNL     1      14.037  10.980   0.363  1.00  0.00    -0.379 OA
HETATM    6  C8  UNL     1      15.004  11.055  -0.680  1.00  0.00     0.188 C 
ENDROOT
BRANCH   1   7
HETATM    7  C2  UNL     1      15.426   9.784  -2.678  1.00  0.00     0.004 C 
HETATM    8  C1  UNL     1      15.424  10.186  -3.923  1.00  0.00     0.010 C 
ENDBRANCH   1   7
BRANCH   1   9
HETATM    9  O1  UNL     1      13.384  10.654  -2.317  1.00  0.00    -0.378 OA
HETATM   10  C4  UNL     1      12.355   9.938  -2.758  1.00  0.00     0.203 C 
ENDBRANCH   1   9
BRANCH   6  11
HETATM   11  C9  UNL     1      16.281  10.679  -0.006  1.00  0.00     0.146 C 
HETATM   12  C10 UNL     1      17.544  11.129  -0.714  1.00  0.00     0.042 C 
BRANCH  11  13
HETATM   13  O3  UNL     1      16.359  11.375   1.245  1.00  0.00    -0.393 OA
ATOM     14  H3  UNL     1      16.023  10.807   1.928  1.00  0.00     0.210 HD
ENDBRANCH  11  13
ENDBRANCH   6  11
TORSDOF 4
ENDMDL
MODEL 3
REMARK VINA RESULT: -4.660134693      2.445      3.553
REMARK  4 active torsions:
REMARK  status: ('A' for Active; 'I' for Inactive)
REMARK    1  A    between atoms: C2_2  and  C3_3 
REMARK    2  A    between atoms: C3_3  and  O1_4 
REMARK    3  A    between atoms: C8_10  and  C9_11 
REMARK    4  A    between atoms: C9_11  and  O3_13 
ROOT
HETATM    1  C3  UNL     1      14.971  10.750   3.462  1.00  0.00     0.111 C 
HETATM    2  C5  UNL     1      16.162  10.029   3.004  1.00  0.00     0.046 C 
HETATM    3  C6  UNL     1      16.437   8.647   3.409  1.00  0.00     0.015 C 
HETATM    4  C7  UNL     1      16.014  10.095   1.492  1.00  0.00     0.176 C 
HETATM    5  O2  UNL     1      14.907  10.858   1.214  1.00  0.00    -0.379 OA
HETATM    6  C8  UNL     1      14.008  10.655   2.299  1.00  0.00     0.188 C 
ENDROOT
BRANCH   1   7
HETATM    7  C2  UNL     1      14.276  10.328   4.668  1.00  0.00     0.004 C 
HETATM    8  C1  UNL     1      14.685  10.377   5.910  1.00  0.00     0.010 C 
ENDBRANCH   1   7
BRANCH   1   9
HETATM    9  O1  UNL     1      15.213  12.113   3.672  1.00  0.00    -0.378 OA
HETATM   10  C4  UNL     1      16.459  12.567   3.760  1.00  0.00     0.203 C 
ENDBRANCH   1   9
BRANCH   6  11
HETATM   11  C9  UNL     1      13.437   9.301   2.039  1.00  0.00     0.146 C 
HETATM   12  C10 UNL     1      12.078   9.042   2.655  1.00  0.00     0.042 C 
BRANCH  11  13
HETATM   13  O3  UNL     1      13.172   9.181   0.635  1.00  0.00    -0.393 OA
ATOM     14  H3  UNL     1      12.452   8.573   0.515  1.00  0.00     0.210 HD
ENDBRANCH  11  13
ENDBRANCH   6  11
TORSDOF 4
ENDMDL
MODEL 4
REMARK VINA RESULT: -4.637337223      2.504      5.076
REMARK  4 active torsions:
REMARK  status: ('A' for Active; 'I' for Inactive)
REMARK    1  A    between atoms: C2_2  and  C3_3 
REMARK    2  A    between atoms: C3_3  and  O1_4 
REMARK    3  A    between atoms: C8_10  and  C9_11 
REMARK    4  A    between atoms: C9_11  and  O3_13 
ROOT
HETATM    1  C3  UNL     1      14.342  10.082   1.153  1.00  0.00     0.111 C 
HETATM    2  C5  UNL     1      13.541   8.855   1.125  1.00  0.00     0.046 C 
HETATM    3  C6  UNL     1      14.129   7.536   1.381  1.00  0.00     0.015 C 
HETATM    4  C7  UNL     1      12.473   9.146   2.169  1.00  0.00     0.176 C 
HETATM    5  O2  UNL     1      12.662  10.432   2.610  1.00  0.00    -0.379 OA
HETATM    6  C8  UNL     1      14.061  10.680   2.514  1.00  0.00     0.188 C 
ENDROOT
BRANCH   1   7
HETATM    7  C2  UNL     1      15.783  10.021   0.968  1.00  0.00     0.004 C 
HETATM    8  C1  UNL     1      16.614  10.990   0.682  1.00  0.00     0.010 C 
ENDBRANCH   1   7
BRANCH   1   9
HETATM    9  O1  UNL     1      13.920  11.024   0.206  1.00  0.00    -0.378 OA
HETATM   10  C4  UNL     1      13.503  10.629  -0.992  1.00  0.00     0.203 C 
ENDBRANCH   1   9
BRANCH   6  11
HETATM   11  C9  UNL     1      14.632   9.940   3.678  1.00  0.00     0.146 C 
HETATM   12  C10 UNL     1      15.868  10.562   4.296  1.00  0.00     0.042 C 
BRANCH  11  13
HETATM   13  O3  UNL     1      13.688   9.985   4.755  1.00  0.00    -0.393 OA
ATOM     14  H3  UNL     1      13.854   9.250   5.333  1.00  0.00     0.210 HD
ENDBRANCH  11  13
ENDBRANCH   6  11
TORSDOF 4
ENDMDL
MODEL 5
REMARK VINA RESULT: -4.610059408      6.620      8.323
REMARK  4 active torsions:
REMARK  status: ('A' for Active; 'I' for Inactive)
REMARK    1  A    between atoms: C2_2  and  C3_3 
REMARK    2  A    between atoms: C3_3  and  O1_4 
REMARK    3  A    between atoms: C8_10  and  C9_11 
REMARK    4  A    between atoms: C9_11  and  O3_13 
ROOT
HETATM    1  C3  UNL     1      22.575   5.439   4.255  1.00  0.00     0.111 C 
HETATM    2  C5  UNL     1      23.790   5.939   3.606  1.00  0.00     0.046 C 
HETATM    3  C6  UNL     1      23.870   6.139   2.156  1.00  0.00     0.015 C 
HETATM    4  C7  UNL     1      24.010   7.267   4.315  1.00  0.00     0.176 C 
HETATM    5  O2  UNL     1      23.053   7.379   5.293  1.00  0.00    -0.379 OA
HETATM    6  C8  UNL     1      21.911   6.680   4.808  1.00  0.00     0.188 C 
ENDROOT
BRANCH   1   7
HETATM    7  C2  UNL     1      21.588   4.693   3.491  1.00  0.00     0.004 C 
HETATM    8  C1  UNL     1      20.672   3.865   3.923  1.00  0.00     0.010 C 
ENDBRANCH   1   7
BRANCH   1   9
HETATM    9  O1  UNL     1      22.850   4.610   5.350  1.00  0.00    -0.378 OA
HETATM   10  C4  UNL     1      23.990   3.929   5.406  1.00  0.00     0.203 C 
ENDBRANCH   1   9
BRANCH   6  11
HETATM   11  C9  UNL     1      21.330   7.611   3.795  1.00  0.00     0.146 C 
HETATM   12  C10 UNL     1      19.822   7.553   3.653  1.00  0.00     0.042 C 
BRANCH  11  13
HETATM   13  O3  UNL     1      21.551   8.957   4.233  1.00  0.00    -0.393 OA
ATOM     14  H3  UNL     1      21.756   9.492   3.475  1.00  0.00     0.210 HD
ENDBRANCH  11  13
ENDBRANCH   6  11
TORSDOF 4
ENDMDL
