MODEL 1
REMARK VINA RESULT: -5.198722033      0.000      0.000
REMARK  3 active torsions:
REMARK  status: ('A' for Active; 'I' for Inactive)
REMARK    1  A    between atoms: C2_2  and  C3_3 
REMARK    2  A    between atoms: C3_3  and  C5_5 
REMARK    3  A    between atoms: N2_11  and  O1_13 
ROOT
HETATM    1  C5  UNL     1      15.164   9.359  -1.290  1.00  0.00     0.120 C 
HETATM    2  C6  UNL     1      16.235  10.304  -1.150  1.00  0.00     0.090 C 
HETATM    3  S1  UNL     1      17.193  11.212  -0.184  1.00  0.00    -0.064 SA
HETATM    4  N1  UNL     1      16.344  10.289  -2.602  1.00  0.00    -0.338 N 
ATOM      5  H1  UNL     1      17.077  10.429  -3.297  1.00  0.00     0.168 HD
HETATM    6  C7  UNL     1      14.962   9.990  -2.601  1.00  0.00     0.113 C 
HETATM    7  N2  UNL     1      14.028  10.194  -3.426  1.00  0.00    -0.254 N 
ATOM      8  H2  UNL     1      14.285  10.695  -4.276  1.00  0.00     0.195 HD
ENDROOT
BRANCH   1   9
HETATM    9  C3  UNL     1      14.056   9.149  -0.381  1.00  0.00    -0.001 C 
HETATM   10  C4  UNL     1      13.491  10.306   0.375  1.00  0.00     0.011 C 
BRANCH   9  11
HETATM   11  C2  UNL     1      14.237   7.964   0.514  1.00  0.00     0.001 C 
HETATM   12  C1  UNL     1      13.544   7.986   1.823  1.00  0.00     0.005 C 
ENDBRANCH   9  11
ENDBRANCH   1   9
BRANCH   7  13
HETATM   13  O1  UNL     1      12.721   9.831  -3.324  1.00  0.00    -0.284 OA
HETATM   14  C8  UNL     1      11.913   9.365  -4.356  1.00  0.00     0.237 C 
ENDBRANCH   7  13
TORSDOF 3
ENDMDL
MODEL 2
REMARK VINA RESULT: -5.127846939      2.337      2.734
REMARK  3 active torsions:
REMARK  status: ('A' for Active; 'I' for Inactive)
REMARK    1  A    between atoms: C2_2  and  C3_3 
REMARK    2  A    between atoms: C3_3  and  C5_5 
REMARK    3  A    between atoms: N2_11  and  O1_13 
ROOT
HETATM    1  C5  UNL     1      15.208   9.970   1.352  1.00  0.00     0.120 C 
HETATM    2  C6  UNL     1      16.482  10.396   1.854  1.00  0.00     0.090 C 
HETATM    3  S1  UNL     1      17.407  10.886   3.111  1.00  0.00    -0.064 SA
HETATM    4  N1  UNL     1      16.988  10.246   0.497  1.00  0.00    -0.338 N 
ATOM      5  H1  UNL     1      17.880  10.027   0.053  1.00  0.00     0.168 HD
HETATM    6  C7  UNL     1      15.671  10.545   0.081  1.00  0.00     0.113 C 
HETATM    7  N2  UNL     1      15.185  11.064  -0.962  1.00  0.00    -0.254 N 
ATOM      8  H2  UNL     1      15.858  11.360  -1.668  1.00  0.00     0.195 HD
ENDROOT
BRANCH   1   9
HETATM    9  C3  UNL     1      13.901  10.294   1.888  1.00  0.00    -0.001 C 
HETATM   10  C4  UNL     1      13.795  11.057   3.168  1.00  0.00     0.011 C 
BRANCH   9  11
HETATM   11  C2  UNL     1      12.950   9.138   1.876  1.00  0.00     0.001 C 
HETATM   12  C1  UNL     1      13.526   7.784   1.704  1.00  0.00     0.005 C 
ENDBRANCH   9  11
ENDBRANCH   1   9
BRANCH   7  13
HETATM   13  O1  UNL     1      13.877  11.279  -1.264  1.00  0.00    -0.284 OA
HETATM   14  C8  UNL     1      13.003  10.364  -1.842  1.00  0.00     0.237 C 
ENDBRANCH   7  13
TORSDOF 3
ENDMDL
MODEL 3
REMARK VINA RESULT: -5.046779968      3.109      4.259
REMARK  3 active torsions:
REMARK  status: ('A' for Active; 'I' for Inactive)
REMARK    1  A    between atoms: C2_2  and  C3_3 
REMARK    2  A    between atoms: C3_3  and  C5_5 
REMARK    3  A    between atoms: N2_11  and  O1_13 
ROOT
HETATM    1  C5  UNL     1      15.186  10.510   0.633  1.00  0.00     0.120 C 
HETATM    2  C6  UNL     1      16.566  10.883   0.524  1.00  0.00     0.090 C 
HETATM    3  S1  UNL     1      17.842  11.296  -0.413  1.00  0.00    -0.064 SA
HETATM    4  N1  UNL     1      16.635  10.786   1.975  1.00  0.00    -0.338 N 
ATOM      5  H1  UNL     1      17.173  11.217   2.727  1.00  0.00     0.168 HD
HETATM    6  C7  UNL     1      15.612   9.818   1.857  1.00  0.00     0.113 C 
HETATM    7  N2  UNL     1      15.268   8.826   2.560  1.00  0.00    -0.254 N 
ATOM      8  H2  UNL     1      15.839   8.645   3.385  1.00  0.00     0.195 HD
ENDROOT
BRANCH   1   9
HETATM    9  C3  UNL     1      14.377   9.839  -0.363  1.00  0.00    -0.001 C 
HETATM   10  C4  UNL     1      14.959   8.712  -1.151  1.00  0.00     0.011 C 
BRANCH   9  11
HETATM   11  C2  UNL     1      13.626  10.780  -1.253  1.00  0.00     0.001 C 
HETATM   12  C1  UNL     1      12.818  10.188  -2.344  1.00  0.00     0.005 C 
ENDBRANCH   9  11
ENDBRANCH   1   9
BRANCH   7  13
HETATM   13  O1  UNL     1      14.233   7.969   2.355  1.00  0.00    -0.284 OA
HETATM   14  C8  UNL     1      12.879   8.278   2.439  1.00  0.00     0.237 C 
ENDBRANCH   7  13
TORSDOF 3
ENDMDL
MODEL 4
REMARK VINA RESULT: -4.968370305      3.621      4.947
REMARK  3 active torsions:
REMARK  status: ('A' for Active; 'I' for Inactive)
REMARK    1  A    between atoms: C2_2  and  C3_3 
REMARK    2  A    between atoms: C3_3  and  C5_5 
REMARK    3  A    between atoms: N2_11  and  O1_13 
ROOT
HETATM    1  C5  UNL     1      15.172   9.714   0.551  1.00  0.00     0.120 C 
HETATM    2  C6  UNL     1      14.267   9.276   1.574  1.00  0.00     0.090 C 
HETATM    3  S1  UNL     1      12.745   8.900   2.040  1.00  0.00    -0.064 SA
HETATM    4  N1  UNL     1      15.419   9.202   2.463  1.00  0.00    -0.338 N 
ATOM      5  H1  UNL     1      15.698   8.658   3.279  1.00  0.00     0.168 HD
HETATM    6  C7  UNL     1      15.968  10.236   1.670  1.00  0.00     0.113 C 
HETATM    7  N2  UNL     1      16.800  11.158   1.898  1.00  0.00    -0.254 N 
ATOM      8  H2  UNL     1      17.157  11.210   2.852  1.00  0.00     0.195 HD
ENDROOT
BRANCH   1   9
HETATM    9  C3  UNL     1      14.863  10.541  -0.597  1.00  0.00    -0.001 C 
HETATM   10  C4  UNL     1      13.442  10.715  -1.023  1.00  0.00     0.011 C 
BRANCH   9  11
HETATM   11  C2  UNL     1      15.744  10.273  -1.777  1.00  0.00     0.001 C 
HETATM   12  C1  UNL     1      15.088  10.125  -3.097  1.00  0.00     0.005 C 
ENDBRANCH   9  11
ENDBRANCH   1   9
BRANCH   7  13
HETATM   13  O1  UNL     1      17.279  12.092   1.034  1.00  0.00    -0.284 OA
HETATM   14  C8  UNL     1      18.413  11.972   0.237  1.00  0.00     0.237 C 
ENDBRANCH   7  13
TORSDOF 3
ENDMDL
MODEL 5
REMARK VINA RESULT: -4.894705030      3.040      3.620
REMARK  3 active torsions:
REMARK  status: ('A' for Active; 'I' for Inactive)
REMARK    1  A    between atoms: C2_2  and  C3_3 
REMARK    2  A    between atoms: C3_3  and  C5_5 
REMARK    3  A    between atoms: N2_11  and  O1_13 
ROOT
HETATM    1  C5  UNL     1      15.749   9.868   1.954  1.00  0.00     0.120 C 
HETATM    2  C6  UNL     1      16.864  10.107   2.824  1.00  0.00     0.090 C 
HETATM    3  S1  UNL     1      17.445  10.337   4.336  1.00  0.00    -0.064 SA
HETATM    4  N1  UNL     1      17.703  10.101   1.635  1.00  0.00    -0.338 N 
ATOM      5  H1  UNL     1      18.669   9.867   1.404  1.00  0.00     0.168 HD
HETATM    6  C7  UNL     1      16.559  10.568   0.948  1.00  0.00     0.113 C 
HETATM    7  N2  UNL     1      16.393  11.267  -0.091  1.00  0.00    -0.254 N 
ATOM      8  H2  UNL     1      17.244  11.596  -0.547  1.00  0.00     0.195 HD
ENDROOT
BRANCH   1   9
HETATM    9  C3  UNL     1      14.364  10.229   2.183  1.00  0.00    -0.001 C 
HETATM   10  C4  UNL     1      14.020  11.176   3.286  1.00  0.00     0.011 C 
BRANCH   9  11
HETATM   11  C2  UNL     1      13.435   9.056   2.177  1.00  0.00     0.001 C 
HETATM   12  C1  UNL     1      13.879   7.838   1.459  1.00  0.00     0.005 C 
ENDBRANCH   9  11
ENDBRANCH   1   9
BRANCH   7  13
HETATM   13  O1  UNL     1      15.224  11.636  -0.678  1.00  0.00    -0.284 OA
HETATM   14  C8  UNL     1      14.404  10.828  -1.459  1.00  0.00     0.237 C 
ENDBRANCH   7  13
TORSDOF 3
ENDMDL
