MODEL 1
REMARK VINA RESULT: -5.488906797      0.000      0.000
REMARK  2 active torsions:
REMARK  status: ('A' for Active; 'I' for Inactive)
REMARK    1  A    between atoms: C2_2  and  C3_3 
REMARK    2  A    between atoms: C7_8  and  C8_9 
ROOT
HETATM    1  C3  UNL     1      14.396  10.626   8.021  1.00  0.00     0.051 C 
HETATM    2  C4  UNL     1      15.444  10.198   9.043  1.00  0.00     0.282 C 
HETATM    3  N1  UNL     1      15.674   8.780   8.803  1.00  0.00     0.090 N 
HETATM    4  C5  UNL     1      14.437   8.039   9.058  1.00  0.00     0.273 C 
HETATM    5  C6  UNL     1      13.505   8.367   7.904  1.00  0.00     0.047 C 
HETATM    6  C7  UNL     1      14.278   9.402   7.171  1.00  0.00     0.046 C 
HETATM    7  C11 UNL     1      15.691   8.808   7.326  1.00  0.00     0.287 C 
ENDROOT
BRANCH   6   8
HETATM    8  C8  UNL     1      13.956   9.611   5.761  1.00  0.00     0.270 C 
HETATM    9  O1  UNL     1      14.616   8.720   4.966  1.00  0.00    -0.358 OA
HETATM   10  C9  UNL     1      15.329   9.395   4.008  1.00  0.00     0.197 C 
HETATM   11  C10 UNL     1      15.294  10.836   4.447  1.00  0.00     0.197 C 
HETATM   12  O2  UNL     1      14.299  10.897   5.379  1.00  0.00    -0.358 OA
ENDBRANCH   6   8
BRANCH   1  13
HETATM   13  C2  UNL     1      13.155  10.934   8.789  1.00  0.00    -0.030 C 
HETATM   14  C1  UNL     1      13.240  11.499   9.985  1.00  0.00     0.007 C 
ENDBRANCH   1  13
TORSDOF 2
ENDMDL
MODEL 2
REMARK VINA RESULT: -5.403373647      0.857      1.273
REMARK  2 active torsions:
REMARK  status: ('A' for Active; 'I' for Inactive)
REMARK    1  A    between atoms: C2_2  and  C3_3 
REMARK    2  A    between atoms: C7_8  and  C8_9 
ROOT
HETATM    1  C3  UNL     1      14.770  10.333   7.961  1.00  0.00     0.051 C 
HETATM    2  C4  UNL     1      15.402  10.082   9.327  1.00  0.00     0.282 C 
HETATM    3  N1  UNL     1      15.782   8.676   9.334  1.00  0.00     0.090 N 
HETATM    4  C5  UNL     1      14.580   7.848   9.213  1.00  0.00     0.273 C 
HETATM    5  C6  UNL     1      14.110   8.000   7.775  1.00  0.00     0.047 C 
HETATM    6  C7  UNL     1      15.035   9.040   7.259  1.00  0.00     0.046 C 
HETATM    7  C11 UNL     1      16.328   8.590   7.964  1.00  0.00     0.287 C 
ENDROOT
BRANCH   6   8
HETATM    8  C8  UNL     1      15.232   9.109   5.812  1.00  0.00     0.270 C 
HETATM    9  O1  UNL     1      15.357  10.400   5.391  1.00  0.00    -0.358 OA
HETATM   10  C9  UNL     1      14.438  10.654   4.404  1.00  0.00     0.197 C 
HETATM   11  C10 UNL     1      13.506   9.471   4.432  1.00  0.00     0.197 C 
HETATM   12  O2  UNL     1      14.165   8.520   5.156  1.00  0.00    -0.358 OA
ENDBRANCH   6   8
BRANCH   1  13
HETATM   13  C2  UNL     1      13.320  10.586   8.204  1.00  0.00    -0.030 C 
HETATM   14  C1  UNL     1      12.932  11.198   9.314  1.00  0.00     0.007 C 
ENDBRANCH   1  13
TORSDOF 2
ENDMDL
MODEL 3
REMARK VINA RESULT: -5.377763351      2.207      3.977
REMARK  2 active torsions:
REMARK  status: ('A' for Active; 'I' for Inactive)
REMARK    1  A    between atoms: C2_2  and  C3_3 
REMARK    2  A    between atoms: C7_8  and  C8_9 
ROOT
HETATM    1  C3  UNL     1      16.081   9.376   8.520  1.00  0.00     0.051 C 
HETATM    2  C4  UNL     1      16.180   8.490   7.282  1.00  0.00     0.282 C 
HETATM    3  N1  UNL     1      14.828   8.406   6.747  1.00  0.00     0.090 N 
HETATM    4  C5  UNL     1      13.959   7.750   7.726  1.00  0.00     0.273 C 
HETATM    5  C6  UNL     1      13.751   8.759   8.844  1.00  0.00     0.047 C 
HETATM    6  C7  UNL     1      14.667   9.856   8.441  1.00  0.00     0.046 C 
HETATM    7  C11 UNL     1      14.437   9.820   6.918  1.00  0.00     0.287 C 
ENDROOT
BRANCH   6   8
HETATM    8  C8  UNL     1      14.397  11.190   8.973  1.00  0.00     0.270 C 
HETATM    9  O1  UNL     1      14.634  11.244  10.316  1.00  0.00    -0.358 OA
HETATM   10  C9  UNL     1      13.516  11.707  10.963  1.00  0.00     0.197 C 
HETATM   11  C10 UNL     1      12.427  11.673   9.922  1.00  0.00     0.197 C 
HETATM   12  O2  UNL     1      13.081  11.544   8.732  1.00  0.00    -0.358 OA
ENDBRANCH   6   8
BRANCH   1  13
HETATM   13  C2  UNL     1      16.340   8.495   9.695  1.00  0.00    -0.030 C 
HETATM   14  C1  UNL     1      17.227   8.858  10.611  1.00  0.00     0.007 C 
ENDBRANCH   1  13
TORSDOF 2
ENDMDL
MODEL 4
REMARK VINA RESULT: -5.253754202      2.374      4.288
REMARK  2 active torsions:
REMARK  status: ('A' for Active; 'I' for Inactive)
REMARK    1  A    between atoms: C2_2  and  C3_3 
REMARK    2  A    between atoms: C7_8  and  C8_9 
ROOT
HETATM    1  C3  UNL     1      15.757   9.410   7.409  1.00  0.00     0.051 C 
HETATM    2  C4  UNL     1      14.968   8.782   6.265  1.00  0.00     0.282 C 
HETATM    3  N1  UNL     1      13.578   8.777   6.699  1.00  0.00     0.090 N 
HETATM    4  C5  UNL     1      13.443   7.929   7.885  1.00  0.00     0.273 C 
HETATM    5  C6  UNL     1      14.086   8.699   9.027  1.00  0.00     0.047 C 
HETATM    6  C7  UNL     1      14.663   9.870   8.319  1.00  0.00     0.046 C 
HETATM    7  C11 UNL     1      13.533  10.125   7.304  1.00  0.00     0.287 C 
ENDROOT
BRANCH   6   8
HETATM    8  C8  UNL     1      14.929  11.071   9.109  1.00  0.00     0.270 C 
HETATM    9  O1  UNL     1      15.609  10.770  10.253  1.00  0.00    -0.358 OA
HETATM   10  C9  UNL     1      14.927  11.260  11.338  1.00  0.00     0.197 C 
HETATM   11  C10 UNL     1      13.579  11.660  10.796  1.00  0.00     0.197 C 
HETATM   12  O2  UNL     1      13.740  11.697   9.442  1.00  0.00    -0.358 OA
ENDBRANCH   6   8
BRANCH   1  13
HETATM   13  C2  UNL     1      16.594   8.324   7.995  1.00  0.00    -0.030 C 
HETATM   14  C1  UNL     1      17.886   8.256   7.706  1.00  0.00     0.007 C 
ENDBRANCH   1  13
TORSDOF 2
ENDMDL
MODEL 5
REMARK VINA RESULT: -5.208933242      2.563      3.852
REMARK  2 active torsions:
REMARK  status: ('A' for Active; 'I' for Inactive)
REMARK    1  A    between atoms: C2_2  and  C3_3 
REMARK    2  A    between atoms: C7_8  and  C8_9 
ROOT
HETATM    1  C3  UNL     1      13.546  10.059   9.762  1.00  0.00     0.051 C 
HETATM    2  C4  UNL     1      12.513   8.984   9.438  1.00  0.00     0.282 C 
HETATM    3  N1  UNL     1      13.007   8.309   8.247  1.00  0.00     0.090 N 
HETATM    4  C5  UNL     1      13.059   9.261   7.135  1.00  0.00     0.273 C 
HETATM    5  C6  UNL     1      14.227  10.187   7.432  1.00  0.00     0.047 C 
HETATM    6  C7  UNL     1      14.635   9.742   8.788  1.00  0.00     0.046 C 
HETATM    7  C11 UNL     1      14.434   8.224   8.619  1.00  0.00     0.287 C 
ENDROOT
BRANCH   6   8
HETATM    8  C8  UNL     1      16.001  10.039   9.213  1.00  0.00     0.270 C 
HETATM    9  O1  UNL     1      16.735   8.897   9.351  1.00  0.00    -0.358 OA
HETATM   10  C9  UNL     1      17.279   8.847  10.610  1.00  0.00     0.197 C 
HETATM   11  C10 UNL     1      16.580   9.942  11.375  1.00  0.00     0.197 C 
HETATM   12  O2  UNL     1      15.990  10.717  10.420  1.00  0.00    -0.358 OA
ENDBRANCH   6   8
BRANCH   1  13
HETATM   13  C2  UNL     1      12.887  11.372   9.504  1.00  0.00    -0.030 C 
HETATM   14  C1  UNL     1      12.889  12.309  10.442  1.00  0.00     0.007 C 
ENDBRANCH   1  13
TORSDOF 2
ENDMDL
