MODEL 1
REMARK VINA RESULT: -5.409911218      0.000      0.000
REMARK  2 active torsions:
REMARK  status: ('A' for Active; 'I' for Inactive)
REMARK    1  A    between atoms: N1_4  and  C4_5 
REMARK    2  A    between atoms: C4_5  and  C5_6 
ROOT
HETATM    1  C4  UNL     1      15.138   9.399   5.718  1.00  0.00     0.161 C 
ENDROOT
BRANCH   1   2
HETATM    2  N1  UNL     1      14.375   9.284   6.912  1.00  0.00    -0.371 N 
HETATM    3  C3  UNL     1      14.669   8.168   7.715  1.00  0.00     0.063 C 
HETATM    4  C2  UNL     1      14.150   8.115   9.086  1.00  0.00     0.045 C 
HETATM    5  C1  UNL     1      13.025   9.116   9.363  1.00  0.00     0.010 C 
HETATM    6  C10 UNL     1      13.610  10.449   8.939  1.00  0.00     0.045 C 
HETATM    7  C9  UNL     1      13.702  10.377   7.423  1.00  0.00     0.063 C 
ENDBRANCH   1   2
BRANCH   1   8
HETATM    8  C5  UNL     1      14.292   9.768   4.522  1.00  0.00     0.163 C 
HETATM    9  C6  UNL     1      14.885  11.091   3.991  1.00  0.00     0.201 C 
HETATM   10  O1  UNL     1      14.020  11.591   3.054  1.00  0.00    -0.386 OA
HETATM   11  C7  UNL     1      13.258  10.626   2.424  1.00  0.00     0.193 C 
HETATM   12  C8  UNL     1      14.096   9.361   2.282  1.00  0.00     0.194 C 
HETATM   13  O2  UNL     1      14.458   8.850   3.495  1.00  0.00    -0.380 OA
ENDBRANCH   1   8
TORSDOF 2
ENDMDL
MODEL 2
REMARK VINA RESULT: -5.393260473      0.571      1.390
REMARK  2 active torsions:
REMARK  status: ('A' for Active; 'I' for Inactive)
REMARK    1  A    between atoms: N1_4  and  C4_5 
REMARK    2  A    between atoms: C4_5  and  C5_6 
ROOT
HETATM    1  C4  UNL     1      15.245   9.396   5.799  1.00  0.00     0.161 C 
ENDROOT
BRANCH   1   2
HETATM    2  N1  UNL     1      14.574   9.409   7.053  1.00  0.00    -0.371 N 
HETATM    3  C3  UNL     1      14.182  10.676   7.519  1.00  0.00     0.063 C 
HETATM    4  C2  UNL     1      13.244  10.768   8.642  1.00  0.00     0.045 C 
HETATM    5  C1  UNL     1      13.088   9.464   9.428  1.00  0.00     0.010 C 
HETATM    6  C10 UNL     1      12.736   8.439   8.369  1.00  0.00     0.045 C 
HETATM    7  C9  UNL     1      14.009   8.254   7.559  1.00  0.00     0.063 C 
ENDBRANCH   1   2
BRANCH   1   8
HETATM    8  C5  UNL     1      14.357   9.848   4.663  1.00  0.00     0.163 C 
HETATM    9  C6  UNL     1      15.152  10.955   3.936  1.00  0.00     0.201 C 
HETATM   10  O1  UNL     1      14.306  11.559   3.044  1.00  0.00    -0.386 OA
HETATM   11  C7  UNL     1      13.283  10.744   2.601  1.00  0.00     0.193 C 
HETATM   12  C8  UNL     1      13.804   9.314   2.511  1.00  0.00     0.194 C 
HETATM   13  O2  UNL     1      14.194   8.836   3.729  1.00  0.00    -0.380 OA
ENDBRANCH   1   8
TORSDOF 2
ENDMDL
MODEL 3
REMARK VINA RESULT: -5.279177619      0.853      1.255
REMARK  2 active torsions:
REMARK  status: ('A' for Active; 'I' for Inactive)
REMARK    1  A    between atoms: N1_4  and  C4_5 
REMARK    2  A    between atoms: C4_5  and  C5_6 
ROOT
HETATM    1  C4  UNL     1      15.607   9.281   5.440  1.00  0.00     0.161 C 
ENDROOT
BRANCH   1   2
HETATM    2  N1  UNL     1      15.001   9.241   6.726  1.00  0.00    -0.371 N 
HETATM    3  C3  UNL     1      13.622   8.970   6.739  1.00  0.00     0.063 C 
HETATM    4  C2  UNL     1      12.971   8.625   8.008  1.00  0.00     0.045 C 
HETATM    5  C1  UNL     1      13.804   8.971   9.245  1.00  0.00     0.010 C 
HETATM    6  C10 UNL     1      15.134   8.291   8.991  1.00  0.00     0.045 C 
HETATM    7  C9  UNL     1      15.773   9.083   7.861  1.00  0.00     0.063 C 
ENDBRANCH   1   2
BRANCH   1   8
HETATM    8  C5  UNL     1      14.631   9.661   4.351  1.00  0.00     0.163 C 
HETATM    9  C6  UNL     1      15.043  11.082   3.908  1.00  0.00     0.201 C 
HETATM   10  O1  UNL     1      14.057  11.568   3.090  1.00  0.00    -0.386 OA
HETATM   11  C7  UNL     1      13.344  10.587   2.429  1.00  0.00     0.193 C 
HETATM   12  C8  UNL     1      14.287   9.435   2.103  1.00  0.00     0.194 C 
HETATM   13  O2  UNL     1      14.799   8.861   3.232  1.00  0.00    -0.380 OA
ENDBRANCH   1   8
TORSDOF 2
ENDMDL
MODEL 4
REMARK VINA RESULT: -5.232993025      0.956      1.128
REMARK  2 active torsions:
REMARK  status: ('A' for Active; 'I' for Inactive)
REMARK    1  A    between atoms: N1_4  and  C4_5 
REMARK    2  A    between atoms: C4_5  and  C5_6 
ROOT
HETATM    1  C4  UNL     1      15.799   9.279   5.288  1.00  0.00     0.161 C 
ENDROOT
BRANCH   1   2
HETATM    2  N1  UNL     1      15.253   8.809   6.514  1.00  0.00    -0.371 N 
HETATM    3  C3  UNL     1      16.103   8.897   7.630  1.00  0.00     0.063 C 
HETATM    4  C2  UNL     1      15.544   8.711   8.973  1.00  0.00     0.045 C 
HETATM    5  C1  UNL     1      14.156   8.066   8.984  1.00  0.00     0.010 C 
HETATM    6  C10 UNL     1      13.340   8.941   8.054  1.00  0.00     0.045 C 
HETATM    7  C9  UNL     1      13.887   8.661   6.664  1.00  0.00     0.063 C 
ENDBRANCH   1   2
BRANCH   1   8
HETATM    8  C5  UNL     1      14.732   9.666   4.289  1.00  0.00     0.163 C 
HETATM    9  C6  UNL     1      15.103  11.091   3.823  1.00  0.00     0.201 C 
HETATM   10  O1  UNL     1      14.051  11.580   3.096  1.00  0.00    -0.386 OA
HETATM   11  C7  UNL     1      13.285  10.603   2.490  1.00  0.00     0.193 C 
HETATM   12  C8  UNL     1      14.199   9.455   2.077  1.00  0.00     0.194 C 
HETATM   13  O2  UNL     1      14.806   8.874   3.153  1.00  0.00    -0.380 OA
ENDBRANCH   1   8
TORSDOF 2
ENDMDL
MODEL 5
REMARK VINA RESULT: -5.209457251      1.487      2.463
REMARK  2 active torsions:
REMARK  status: ('A' for Active; 'I' for Inactive)
REMARK    1  A    between atoms: N1_4  and  C4_5 
REMARK    2  A    between atoms: C4_5  and  C5_6 
ROOT
HETATM    1  C4  UNL     1      13.518   9.534   6.786  1.00  0.00     0.161 C 
ENDROOT
BRANCH   1   2
HETATM    2  N1  UNL     1      14.127  10.065   7.956  1.00  0.00    -0.371 N 
HETATM    3  C3  UNL     1      13.252  10.673   8.873  1.00  0.00     0.063 C 
HETATM    4  C2  UNL     1      13.734  10.988  10.223  1.00  0.00     0.045 C 
HETATM    5  C1  UNL     1      15.259  10.960  10.359  1.00  0.00     0.010 C 
HETATM    6  C10 UNL     1      15.647   9.593   9.832  1.00  0.00     0.045 C 
HETATM    7  C9  UNL     1      15.393   9.659   8.335  1.00  0.00     0.063 C 
ENDBRANCH   1   2
BRANCH   1   8
HETATM    8  C5  UNL     1      14.387   9.686   5.560  1.00  0.00     0.163 C 
HETATM    9  C6  UNL     1      13.587   9.041   4.407  1.00  0.00     0.201 C 
HETATM   10  O1  UNL     1      14.420   8.943   3.324  1.00  0.00    -0.386 OA
HETATM   11  C7  UNL     1      15.429   9.886   3.306  1.00  0.00     0.193 C 
HETATM   12  C8  UNL     1      14.897  11.180   3.908  1.00  0.00     0.194 C 
HETATM   13  O2  UNL     1      14.526  11.021   5.213  1.00  0.00    -0.380 OA
ENDBRANCH   1   8
TORSDOF 2
ENDMDL
