MODEL 1
REMARK VINA RESULT: -5.372898620      0.000      0.000
REMARK  2 active torsions:
REMARK  status: ('A' for Active; 'I' for Inactive)
REMARK    1  A    between atoms: C4_4  and  C5_5 
REMARK    2  A    between atoms: C5_5  and  N1_6 
ROOT
HETATM    1  C5  UNL     1      14.262   9.095   6.207  1.00  0.00     0.095 C 
ENDROOT
BRANCH   1   2
HETATM    2  C4  UNL     1      13.310   9.644   7.223  1.00  0.00     0.159 C 
HETATM    3  C3  UNL     1      13.118   8.616   8.311  1.00  0.00     0.037 C 
HETATM    4  C2  UNL     1      12.628   9.194   9.599  1.00  0.00     0.005 C 
HETATM    5  C1  UNL     1      13.346  10.491   9.954  1.00  0.00     0.026 C 
HETATM    6  C10 UNL     1      14.435  10.658   8.890  1.00  0.00     0.168 C 
HETATM    7  O2  UNL     1      13.781  10.848   7.687  1.00  0.00    -0.381 OA
ENDBRANCH   1   2
BRANCH   1   8
HETATM    8  N1  UNL     1      14.108   9.645   4.929  1.00  0.00    -0.367 N 
HETATM    9  C6  UNL     1      13.274   9.008   3.993  1.00  0.00     0.089 C 
HETATM   10  C7  UNL     1      13.774   9.219   2.579  1.00  0.00     0.212 C 
HETATM   11  O1  UNL     1      14.007  10.527   2.259  1.00  0.00    -0.385 OA
HETATM   12  C8  UNL     1      14.215  11.373   3.316  1.00  0.00     0.188 C 
HETATM   13  C9  UNL     1      14.938  10.693   4.491  1.00  0.00     0.153 C 
ENDBRANCH   1   8
TORSDOF 2
ENDMDL
MODEL 2
REMARK VINA RESULT: -5.359590207      0.151      1.320
REMARK  2 active torsions:
REMARK  status: ('A' for Active; 'I' for Inactive)
REMARK    1  A    between atoms: C4_4  and  C5_5 
REMARK    2  A    between atoms: C5_5  and  N1_6 
ROOT
HETATM    1  C5  UNL     1      14.418   9.041   6.217  1.00  0.00     0.095 C 
ENDROOT
BRANCH   1   2
HETATM    2  C4  UNL     1      13.407   9.589   7.173  1.00  0.00     0.159 C 
HETATM    3  C3  UNL     1      13.195   8.586   8.281  1.00  0.00     0.037 C 
HETATM    4  C2  UNL     1      12.631   9.184   9.529  1.00  0.00     0.005 C 
HETATM    5  C1  UNL     1      13.295  10.511   9.878  1.00  0.00     0.026 C 
HETATM    6  C10 UNL     1      14.425  10.681   8.859  1.00  0.00     0.168 C 
HETATM    7  O2  UNL     1      13.821  10.819   7.622  1.00  0.00    -0.381 OA
ENDBRANCH   1   2
BRANCH   1   8
HETATM    8  N1  UNL     1      14.267   9.502   4.904  1.00  0.00    -0.367 N 
HETATM    9  C6  UNL     1      15.030  10.596   4.457  1.00  0.00     0.089 C 
HETATM   10  C7  UNL     1      14.278  11.405   3.423  1.00  0.00     0.212 C 
HETATM   11  O1  UNL     1      13.781  10.664   2.387  1.00  0.00    -0.385 OA
HETATM   12  C8  UNL     1      13.611   9.328   2.637  1.00  0.00     0.188 C 
HETATM   13  C9  UNL     1      13.214   9.039   4.095  1.00  0.00     0.153 C 
ENDBRANCH   1   8
TORSDOF 2
ENDMDL
MODEL 3
REMARK VINA RESULT: -5.153565466      1.669      2.398
REMARK  2 active torsions:
REMARK  status: ('A' for Active; 'I' for Inactive)
REMARK    1  A    between atoms: C4_4  and  C5_5 
REMARK    2  A    between atoms: C5_5  and  N1_6 
ROOT
HETATM    1  C5  UNL     1      13.598   9.939   7.390  1.00  0.00     0.095 C 
ENDROOT
BRANCH   1   2
HETATM    2  C4  UNL     1      13.944  11.037   8.345  1.00  0.00     0.159 C 
HETATM    3  C3  UNL     1      12.929  11.046   9.461  1.00  0.00     0.037 C 
HETATM    4  C2  UNL     1      13.415  11.714  10.706  1.00  0.00     0.005 C 
HETATM    5  C1  UNL     1      14.850  11.324  11.042  1.00  0.00     0.026 C 
HETATM    6  C10 UNL     1      15.230  10.251  10.018  1.00  0.00     0.168 C 
HETATM    7  O2  UNL     1      15.236  10.872   8.783  1.00  0.00    -0.381 OA
ENDBRANCH   1   2
BRANCH   1   8
HETATM    8  N1  UNL     1      14.529   9.769   6.358  1.00  0.00    -0.367 N 
HETATM    9  C6  UNL     1      14.384  10.497   5.163  1.00  0.00     0.089 C 
HETATM   10  C7  UNL     1      14.910   9.716   3.977  1.00  0.00     0.212 C 
HETATM   11  O1  UNL     1      16.181   9.239   4.142  1.00  0.00    -0.385 OA
HETATM   12  C8  UNL     1      16.608   9.112   5.438  1.00  0.00     0.188 C 
HETATM   13  C9  UNL     1      15.474   8.729   6.405  1.00  0.00     0.153 C 
ENDBRANCH   1   8
TORSDOF 2
ENDMDL
MODEL 4
REMARK VINA RESULT: -5.146585922      1.322      1.484
REMARK  2 active torsions:
REMARK  status: ('A' for Active; 'I' for Inactive)
REMARK    1  A    between atoms: C4_4  and  C5_5 
REMARK    2  A    between atoms: C5_5  and  N1_6 
ROOT
HETATM    1  C5  UNL     1      15.312   9.342   5.547  1.00  0.00     0.095 C 
ENDROOT
BRANCH   1   2
HETATM    2  C4  UNL     1      14.059   9.580   6.329  1.00  0.00     0.159 C 
HETATM    3  C3  UNL     1      13.743   8.339   7.127  1.00  0.00     0.037 C 
HETATM    4  C2  UNL     1      12.856   8.594   8.302  1.00  0.00     0.005 C 
HETATM    5  C1  UNL     1      13.257   9.853   9.061  1.00  0.00     0.026 C 
HETATM    6  C10 UNL     1      14.549  10.336   8.393  1.00  0.00     0.168 C 
HETATM    7  O2  UNL     1      14.210  10.704   7.104  1.00  0.00    -0.381 OA
ENDBRANCH   1   2
BRANCH   1   8
HETATM    8  N1  UNL     1      15.391  10.082   4.362  1.00  0.00    -0.367 N 
HETATM    9  C6  UNL     1      14.210  10.481   3.709  1.00  0.00     0.089 C 
HETATM   10  C7  UNL     1      14.408  10.551   2.210  1.00  0.00     0.212 C 
HETATM   11  O1  UNL     1      15.489  11.295   1.824  1.00  0.00    -0.385 OA
HETATM   12  C8  UNL     1      16.465  11.465   2.770  1.00  0.00     0.188 C 
HETATM   13  C9  UNL     1      16.618  10.245   3.695  1.00  0.00     0.153 C 
ENDBRANCH   1   8
TORSDOF 2
ENDMDL
MODEL 5
REMARK VINA RESULT: -5.120227106      1.330      1.811
REMARK  2 active torsions:
REMARK  status: ('A' for Active; 'I' for Inactive)
REMARK    1  A    between atoms: C4_4  and  C5_5 
REMARK    2  A    between atoms: C5_5  and  N1_6 
ROOT
HETATM    1  C5  UNL     1      15.373   9.366   5.611  1.00  0.00     0.095 C 
ENDROOT
BRANCH   1   2
HETATM    2  C4  UNL     1      14.096   9.589   6.355  1.00  0.00     0.159 C 
HETATM    3  C3  UNL     1      13.762   8.337   7.130  1.00  0.00     0.037 C 
HETATM    4  C2  UNL     1      12.836   8.575   8.279  1.00  0.00     0.005 C 
HETATM    5  C1  UNL     1      13.207   9.828   9.063  1.00  0.00     0.026 C 
HETATM    6  C10 UNL     1      14.516  10.324   8.442  1.00  0.00     0.168 C 
HETATM    7  O2  UNL     1      14.216  10.705   7.147  1.00  0.00    -0.381 OA
ENDBRANCH   1   2
BRANCH   1   8
HETATM    8  N1  UNL     1      15.394   9.937   4.333  1.00  0.00    -0.367 N 
HETATM    9  C6  UNL     1      16.626  10.211   3.713  1.00  0.00     0.089 C 
HETATM   10  C7  UNL     1      16.529  11.421   2.808  1.00  0.00     0.212 C 
HETATM   11  O1  UNL     1      15.499  11.365   1.910  1.00  0.00    -0.385 OA
HETATM   12  C8  UNL     1      14.468  10.523   2.236  1.00  0.00     0.188 C 
HETATM   13  C9  UNL     1      14.218  10.444   3.752  1.00  0.00     0.153 C 
ENDBRANCH   1   8
TORSDOF 2
ENDMDL
