MODEL 1
REMARK VINA RESULT: -5.741894253      0.000      0.000
REMARK  2 active torsions:
REMARK  status: ('A' for Active; 'I' for Inactive)
REMARK    1  A    between atoms: C2_2  and  O1_3 
REMARK    2  A    between atoms: O1_3  and  C3_4 
ROOT
HETATM    1  C3  UNL     1      15.819   9.082   8.896  1.00  0.00     0.141 C 
HETATM    2  C4  UNL     1      15.449   8.045   7.877  1.00  0.00     0.036 C 
HETATM    3  C5  UNL     1      14.007   7.704   7.822  1.00  0.00     0.037 C 
HETATM    4  C6  UNL     1      13.091   8.918   7.972  1.00  0.00     0.151 C 
HETATM    5  O2  UNL     1      13.528   9.899   7.123  1.00  0.00    -0.382 OA
HETATM    6  C7  UNL     1      14.412  10.715   7.778  1.00  0.00     0.183 C 
HETATM    7  C8  UNL     1      14.730  10.068   9.092  1.00  0.00     0.038 C 
HETATM    8  C9  UNL     1      14.861  10.987  10.233  1.00  0.00     0.043 C 
HETATM    9  C10 UNL     1      13.411  11.319  10.543  1.00  0.00     0.169 C 
HETATM   10  O3  UNL     1      12.628  10.472   9.769  1.00  0.00    -0.382 OA
HETATM   11  C11 UNL     1      13.380   9.404   9.395  1.00  0.00     0.163 C 
ENDROOT
BRANCH   1  12
HETATM   12  O1  UNL     1      16.265   8.499  10.124  1.00  0.00    -0.358 OA
BRANCH  12  13
HETATM   13  C2  UNL     1      17.530   8.857  10.606  1.00  0.00     0.125 C 
HETATM   14  C1  UNL     1      18.620   8.766   9.909  1.00  0.00     0.037 C 
ENDBRANCH  12  13
ENDBRANCH   1  12
TORSDOF 2
ENDMDL
MODEL 2
REMARK VINA RESULT: -5.487413442      1.777      3.664
REMARK  2 active torsions:
REMARK  status: ('A' for Active; 'I' for Inactive)
REMARK    1  A    between atoms: C2_2  and  O1_3 
REMARK    2  A    between atoms: O1_3  and  C3_4 
ROOT
HETATM    1  C3  UNL     1      14.192   9.476   7.009  1.00  0.00     0.141 C 
HETATM    2  C4  UNL     1      15.358   8.556   6.797  1.00  0.00     0.036 C 
HETATM    3  C5  UNL     1      16.494   8.757   7.728  1.00  0.00     0.037 C 
HETATM    4  C6  UNL     1      16.058   9.040   9.166  1.00  0.00     0.151 C 
HETATM    5  O2  UNL     1      15.121   8.110   9.526  1.00  0.00    -0.382 OA
HETATM    6  C7  UNL     1      13.867   8.587   9.246  1.00  0.00     0.183 C 
HETATM    7  C8  UNL     1      14.035   9.838   8.437  1.00  0.00     0.038 C 
HETATM    8  C9  UNL     1      13.090  10.922   8.750  1.00  0.00     0.043 C 
HETATM    9  C10 UNL     1      13.653  11.472  10.049  1.00  0.00     0.169 C 
HETATM   10  O3  UNL     1      14.885  10.861  10.246  1.00  0.00    -0.382 OA
HETATM   11  C11 UNL     1      15.329  10.383   9.054  1.00  0.00     0.163 C 
ENDROOT
BRANCH   1  12
HETATM   12  O1  UNL     1      14.242  10.619   6.150  1.00  0.00    -0.358 OA
BRANCH  12  13
HETATM   13  C2  UNL     1      14.610  10.427   4.812  1.00  0.00     0.125 C 
HETATM   14  C1  UNL     1      14.665  11.381   3.936  1.00  0.00     0.037 C 
ENDBRANCH  12  13
ENDBRANCH   1  12
TORSDOF 2
ENDMDL
MODEL 3
REMARK VINA RESULT: -5.379437997      1.780      3.299
REMARK  2 active torsions:
REMARK  status: ('A' for Active; 'I' for Inactive)
REMARK    1  A    between atoms: C2_2  and  O1_3 
REMARK    2  A    between atoms: O1_3  and  C3_4 
ROOT
HETATM    1  C3  UNL     1      14.586   9.776   9.443  1.00  0.00     0.141 C 
HETATM    2  C4  UNL     1      13.308  10.121   8.737  1.00  0.00     0.036 C 
HETATM    3  C5  UNL     1      13.406  10.192   7.259  1.00  0.00     0.037 C 
HETATM    4  C6  UNL     1      14.282   9.094   6.656  1.00  0.00     0.151 C 
HETATM    5  O2  UNL     1      13.905   7.893   7.194  1.00  0.00    -0.382 OA
HETATM    6  C7  UNL     1      14.660   7.630   8.307  1.00  0.00     0.183 C 
HETATM    7  C8  UNL     1      15.433   8.874   8.628  1.00  0.00     0.038 C 
HETATM    8  C9  UNL     1      16.812   8.657   9.091  1.00  0.00     0.043 C 
HETATM    9  C10 UNL     1      17.536   8.325   7.797  1.00  0.00     0.169 C 
HETATM   10  O3  UNL     1      16.643   8.571   6.761  1.00  0.00    -0.382 OA
HETATM   11  C11 UNL     1      15.674   9.410   7.211  1.00  0.00     0.163 C 
ENDROOT
BRANCH   1  12
HETATM   12  O1  UNL     1      15.287  10.939   9.892  1.00  0.00    -0.358 OA
BRANCH  12  13
HETATM   13  C2  UNL     1      15.375  11.168  11.270  1.00  0.00     0.125 C 
HETATM   14  C1  UNL     1      16.465  11.022  11.957  1.00  0.00     0.037 C 
ENDBRANCH  12  13
ENDBRANCH   1  12
TORSDOF 2
ENDMDL
MODEL 4
REMARK VINA RESULT: -5.283733602      1.734      3.210
REMARK  2 active torsions:
REMARK  status: ('A' for Active; 'I' for Inactive)
REMARK    1  A    between atoms: C2_2  and  O1_3 
REMARK    2  A    between atoms: O1_3  and  C3_4 
ROOT
HETATM    1  C3  UNL     1      15.011   9.186   9.495  1.00  0.00     0.141 C 
HETATM    2  C4  UNL     1      13.637   9.763   9.659  1.00  0.00     0.036 C 
HETATM    3  C5  UNL     1      13.124  10.509   8.484  1.00  0.00     0.037 C 
HETATM    4  C6  UNL     1      13.467   9.848   7.149  1.00  0.00     0.151 C 
HETATM    5  O2  UNL     1      13.146   8.520   7.227  1.00  0.00    -0.382 OA
HETATM    6  C7  UNL     1      14.236   7.807   7.652  1.00  0.00     0.183 C 
HETATM    7  C8  UNL     1      15.275   8.795   8.090  1.00  0.00     0.038 C 
HETATM    8  C9  UNL     1      16.662   8.447   7.745  1.00  0.00     0.043 C 
HETATM    9  C10 UNL     1      16.715   8.777   6.263  1.00  0.00     0.169 C 
HETATM   10  O3  UNL     1      15.530   9.434   5.953  1.00  0.00    -0.382 OA
HETATM   11  C11 UNL     1      14.996   9.932   7.098  1.00  0.00     0.163 C 
ENDROOT
BRANCH   1  12
HETATM   12  O1  UNL     1      16.025  10.041  10.032  1.00  0.00    -0.358 OA
BRANCH  12  13
HETATM   13  C2  UNL     1      15.672  10.918  11.065  1.00  0.00     0.125 C 
HETATM   14  C1  UNL     1      16.398  11.116  12.122  1.00  0.00     0.037 C 
ENDBRANCH  12  13
ENDBRANCH   1  12
TORSDOF 2
ENDMDL
MODEL 5
REMARK VINA RESULT: -5.228050517      1.691      3.559
REMARK  2 active torsions:
REMARK  status: ('A' for Active; 'I' for Inactive)
REMARK    1  A    between atoms: C2_2  and  O1_3 
REMARK    2  A    between atoms: O1_3  and  C3_4 
ROOT
HETATM    1  C3  UNL     1      13.641  10.253   7.193  1.00  0.00     0.141 C 
HETATM    2  C4  UNL     1      13.173   8.903   6.737  1.00  0.00     0.036 C 
HETATM    3  C5  UNL     1      13.884   7.752   7.346  1.00  0.00     0.037 C 
HETATM    4  C6  UNL     1      14.179   7.941   8.833  1.00  0.00     0.151 C 
HETATM    5  O2  UNL     1      13.034   8.359   9.454  1.00  0.00    -0.382 OA
HETATM    6  C7  UNL     1      12.995   9.729   9.476  1.00  0.00     0.183 C 
HETATM    7  C8  UNL     1      14.108  10.222   8.599  1.00  0.00     0.038 C 
HETATM    8  C9  UNL     1      14.818  11.412   9.092  1.00  0.00     0.043 C 
HETATM    9  C10 UNL     1      15.697  10.830  10.186  1.00  0.00     0.169 C 
HETATM   10  O3  UNL     1      15.592   9.447  10.096  1.00  0.00    -0.382 OA
HETATM   11  C11 UNL     1      15.151   9.126   8.852  1.00  0.00     0.163 C 
ENDROOT
BRANCH   1  12
HETATM   12  O1  UNL     1      14.605  10.822   6.303  1.00  0.00    -0.358 OA
BRANCH  12  13
HETATM   13  C2  UNL     1      14.585  10.420   4.961  1.00  0.00     0.125 C 
HETATM   14  C1  UNL     1      14.668  11.242   3.961  1.00  0.00     0.037 C 
ENDBRANCH  12  13
ENDBRANCH   1  12
TORSDOF 2
ENDMDL
