MODEL 1
REMARK VINA RESULT: -6.748659724      0.000      0.000
REMARK  9 active torsions:
REMARK  status: ('A' for Active; 'I' for Inactive)
REMARK    1  A    between atoms: C2_2  and  C3_3 
REMARK    2  A    between atoms: C3_3  and  C4_4 
REMARK    3  A    between atoms: C4_4  and  C5_5 
REMARK    4  A    between atoms: C6_6  and  C7_7 
REMARK    5  A    between atoms: C8_8  and  C9_9 
REMARK       I    between atoms: N1_12  and  C10_13 
REMARK       I    between atoms: C10_13  and  N2_15 
REMARK    6  A    between atoms: N2_15  and  C11_17 
REMARK    7  A    between atoms: C11_17  and  C12_18 
REMARK    8  A    between atoms: C12_18  and  C13_19 
REMARK    9  A    between atoms: C20_27  and  O5_29 
ROOT
HETATM    1  C7  UNL     1     -10.786 -26.754  -0.887  1.00  0.00     0.052 C 
HETATM    2  C8  UNL     1     -10.099 -25.770   0.085  1.00  0.00     0.198 C 
HETATM    3  N1  UNL     1      -9.639 -26.653   1.144  1.00  0.00    -0.313 N 
HETATM    4  C10 UNL     1      -9.520 -26.245   2.527  1.00  0.00     0.319 C 
HETATM    5  O3  UNL     1      -9.782 -25.069   2.866  1.00  0.00    -0.247 OA
HETATM    6  N2  UNL     1      -9.107 -27.179   3.520  1.00  0.00    -0.343 N 
ATOM      7  H2  UNL     1      -8.885 -28.147   3.285  1.00  0.00     0.164 HD
HETATM    8  C16 UNL     1      -9.361 -27.905   0.597  1.00  0.00     0.102 C 
HETATM    9  C17 UNL     1      -7.942 -28.380   0.477  1.00  0.00     0.057 C 
HETATM   10  C18 UNL     1      -8.050 -29.714  -0.267  1.00  0.00     0.123 C 
HETATM   11  C19 UNL     1      -7.058 -29.779  -1.416  1.00  0.00     0.040 C 
HETATM   12  O4  UNL     1      -9.300 -30.117  -0.580  1.00  0.00    -0.350 OA
HETATM   13  C20 UNL     1     -10.147 -29.220  -1.225  1.00  0.00     0.164 C 
HETATM   14  C21 UNL     1     -10.098 -29.365  -2.732  1.00  0.00     0.079 C 
HETATM   15  C22 UNL     1      -9.806 -27.844  -0.851  1.00  0.00     0.081 C 
ENDROOT
BRANCH   2  16
HETATM   16  C9  UNL     1      -9.095 -24.935  -0.527  1.00  0.00     0.197 C 
HETATM   17  O1  UNL     1      -8.564 -25.129  -1.625  1.00  0.00    -0.646 OA
HETATM   18  O2  UNL     1      -8.683 -23.797   0.187  1.00  0.00    -0.646 OA
ENDBRANCH   2  16
BRANCH   1  19
HETATM   19  C6  UNL     1     -12.155 -27.068  -0.492  1.00  0.00    -0.023 C 
HETATM   20  C5  UNL     1     -13.209 -26.794  -1.236  1.00  0.00    -0.030 C 
BRANCH  20  21
HETATM   21  C4  UNL     1     -14.562 -27.153  -0.744  1.00  0.00     0.027 C 
BRANCH  21  22
HETATM   22  C3  UNL     1     -15.415 -27.759  -1.839  1.00  0.00     0.003 C 
BRANCH  22  23
HETATM   23  C2  UNL     1     -14.607 -28.810  -2.551  1.00  0.00    -0.004 C 
HETATM   24  C1  UNL     1     -14.684 -30.158  -1.899  1.00  0.00     0.005 C 
ENDBRANCH  22  23
ENDBRANCH  21  22
ENDBRANCH  20  21
ENDBRANCH   1  19
BRANCH   6  25
HETATM   25  C11 UNL     1      -9.017 -26.690   4.871  1.00  0.00     0.125 C 
BRANCH  25  26
HETATM   26  C12 UNL     1      -7.658 -26.528   5.419  1.00  0.00     0.023 C 
BRANCH  26  27
HETATM   27  C13 UNL     1      -7.132 -25.142   5.467  1.00  0.00    -0.021 C 
HETATM   28  C14 UNL     1      -8.131 -24.048   5.431  1.00  0.00     0.009 C 
HETATM   29  C15 UNL     1      -6.142 -24.953   4.290  1.00  0.00     0.009 C 
ENDBRANCH  26  27
ENDBRANCH  25  26
ENDBRANCH   6  25
BRANCH  13  30
HETATM   30  O5  UNL     1     -11.440 -29.615  -0.824  1.00  0.00    -0.365 OA
ATOM     31  H5  UNL     1     -11.574 -29.166   0.003  1.00  0.00     0.213 HD
ENDBRANCH  13  30
TORSDOF 9
ENDMDL
MODEL 2
REMARK VINA RESULT: -6.292173116      3.175      4.574
REMARK  9 active torsions:
REMARK  status: ('A' for Active; 'I' for Inactive)
REMARK    1  A    between atoms: C2_2  and  C3_3 
REMARK    2  A    between atoms: C3_3  and  C4_4 
REMARK    3  A    between atoms: C4_4  and  C5_5 
REMARK    4  A    between atoms: C6_6  and  C7_7 
REMARK    5  A    between atoms: C8_8  and  C9_9 
REMARK       I    between atoms: N1_12  and  C10_13 
REMARK       I    between atoms: C10_13  and  N2_15 
REMARK    6  A    between atoms: N2_15  and  C11_17 
REMARK    7  A    between atoms: C11_17  and  C12_18 
REMARK    8  A    between atoms: C12_18  and  C13_19 
REMARK    9  A    between atoms: C20_27  and  O5_29 
ROOT
HETATM    1  C7  UNL     1     -11.287 -26.624  -4.006  1.00  0.00     0.052 C 
HETATM    2  C8  UNL     1      -9.911 -26.512  -3.313  1.00  0.00     0.198 C 
HETATM    3  N1  UNL     1     -10.281 -26.314  -1.922  1.00  0.00    -0.313 N 
HETATM    4  C10 UNL     1      -9.485 -25.549  -0.986  1.00  0.00     0.319 C 
HETATM    5  O3  UNL     1      -8.395 -25.047  -1.343  1.00  0.00    -0.247 OA
HETATM    6  N2  UNL     1      -9.934 -25.357   0.352  1.00  0.00    -0.343 N 
ATOM      7  H2  UNL     1     -10.816 -25.750   0.682  1.00  0.00     0.164 HD
HETATM    8  C16 UNL     1     -11.493 -26.960  -1.682  1.00  0.00     0.102 C 
HETATM    9  C17 UNL     1     -11.535 -28.201  -0.836  1.00  0.00     0.057 C 
HETATM   10  C18 UNL     1     -12.991 -28.663  -0.914  1.00  0.00     0.123 C 
HETATM   11  C19 UNL     1     -13.077 -30.147  -1.230  1.00  0.00     0.040 C 
HETATM   12  O4  UNL     1     -13.822 -27.885  -1.641  1.00  0.00    -0.350 OA
HETATM   13  C20 UNL     1     -13.439 -27.527  -2.930  1.00  0.00     0.164 C 
HETATM   14  C21 UNL     1     -13.979 -28.479  -3.977  1.00  0.00     0.079 C 
HETATM   15  C22 UNL     1     -11.976 -27.468  -3.025  1.00  0.00     0.081 C 
ENDROOT
BRANCH   2  16
HETATM   16  C9  UNL     1      -9.020 -27.615  -3.583  1.00  0.00     0.197 C 
HETATM   17  O1  UNL     1      -8.505 -28.352  -2.736  1.00  0.00    -0.646 OA
HETATM   18  O2  UNL     1      -8.710 -27.876  -4.928  1.00  0.00    -0.646 OA
ENDBRANCH   2  16
BRANCH   1  19
HETATM   19  C6  UNL     1     -11.872 -25.320  -4.300  1.00  0.00    -0.023 C 
HETATM   20  C5  UNL     1     -11.933 -24.806  -5.513  1.00  0.00    -0.030 C 
BRANCH  20  21
HETATM   21  C4  UNL     1     -12.548 -23.470  -5.709  1.00  0.00     0.027 C 
BRANCH  21  22
HETATM   22  C3  UNL     1     -13.993 -23.576  -6.150  1.00  0.00     0.003 C 
BRANCH  22  23
HETATM   23  C2  UNL     1     -14.878 -23.323  -4.958  1.00  0.00    -0.004 C 
HETATM   24  C1  UNL     1     -14.413 -22.178  -4.109  1.00  0.00     0.005 C 
ENDBRANCH  22  23
ENDBRANCH  21  22
ENDBRANCH  20  21
ENDBRANCH   1  19
BRANCH   6  25
HETATM   25  C11 UNL     1      -9.082 -24.582   1.215  1.00  0.00     0.125 C 
BRANCH  25  26
HETATM   26  C12 UNL     1      -8.253 -25.342   2.170  1.00  0.00     0.023 C 
BRANCH  26  27
HETATM   27  C13 UNL     1      -8.036 -24.711   3.495  1.00  0.00    -0.021 C 
HETATM   28  C14 UNL     1      -6.985 -25.308   4.352  1.00  0.00     0.009 C 
HETATM   29  C15 UNL     1      -9.378 -24.722   4.268  1.00  0.00     0.009 C 
ENDBRANCH  26  27
ENDBRANCH  25  26
ENDBRANCH   6  25
BRANCH  13  30
HETATM   30  O5  UNL     1     -14.073 -26.286  -3.148  1.00  0.00    -0.365 OA
ATOM     31  H5  UNL     1     -14.709 -26.224  -2.445  1.00  0.00     0.213 HD
ENDBRANCH  13  30
TORSDOF 9
ENDMDL
MODEL 3
REMARK VINA RESULT: -6.253632110      1.390      1.992
REMARK  9 active torsions:
REMARK  status: ('A' for Active; 'I' for Inactive)
REMARK    1  A    between atoms: C2_2  and  C3_3 
REMARK    2  A    between atoms: C3_3  and  C4_4 
REMARK    3  A    between atoms: C4_4  and  C5_5 
REMARK    4  A    between atoms: C6_6  and  C7_7 
REMARK    5  A    between atoms: C8_8  and  C9_9 
REMARK       I    between atoms: N1_12  and  C10_13 
REMARK       I    between atoms: C10_13  and  N2_15 
REMARK    6  A    between atoms: N2_15  and  C11_17 
REMARK    7  A    between atoms: C11_17  and  C12_18 
REMARK    8  A    between atoms: C12_18  and  C13_19 
REMARK    9  A    between atoms: C20_27  and  O5_29 
ROOT
HETATM    1  C7  UNL     1     -10.579 -26.924  -0.607  1.00  0.00     0.052 C 
HETATM    2  C8  UNL     1      -9.950 -26.147   0.571  1.00  0.00     0.198 C 
HETATM    3  N1  UNL     1      -9.601 -27.215   1.493  1.00  0.00    -0.313 N 
HETATM    4  C10 UNL     1      -9.585 -27.054   2.931  1.00  0.00     0.319 C 
HETATM    5  O3  UNL     1      -9.844 -25.942   3.447  1.00  0.00    -0.247 OA
HETATM    6  N2  UNL     1      -9.279 -28.158   3.775  1.00  0.00    -0.343 N 
ATOM      7  H2  UNL     1      -9.063 -29.080   3.395  1.00  0.00     0.164 HD
HETATM    8  C16 UNL     1      -9.311 -28.365   0.761  1.00  0.00     0.102 C 
HETATM    9  C17 UNL     1      -7.899 -28.868   0.669  1.00  0.00     0.057 C 
HETATM   10  C18 UNL     1      -7.979 -30.050  -0.300  1.00  0.00     0.123 C 
HETATM   11  C19 UNL     1      -6.899 -29.958  -1.364  1.00  0.00     0.040 C 
HETATM   12  O4  UNL     1      -9.210 -30.345  -0.773  1.00  0.00    -0.350 OA
HETATM   13  C20 UNL     1      -9.977 -29.319  -1.317  1.00  0.00     0.164 C 
HETATM   14  C21 UNL     1      -9.809 -29.206  -2.818  1.00  0.00     0.079 C 
HETATM   15  C22 UNL     1      -9.633 -28.041  -0.685  1.00  0.00     0.081 C 
ENDROOT
BRANCH   2  16
HETATM   16  C9  UNL     1      -8.877 -25.259   0.190  1.00  0.00     0.197 C 
HETATM   17  O1  UNL     1      -8.881 -24.496  -0.780  1.00  0.00    -0.646 OA
HETATM   18  O2  UNL     1      -7.726 -25.262   0.995  1.00  0.00    -0.646 OA
ENDBRANCH   2  16
BRANCH   1  19
HETATM   19  C6  UNL     1     -11.984 -27.246  -0.378  1.00  0.00    -0.023 C 
HETATM   20  C5  UNL     1     -12.968 -26.790  -1.128  1.00  0.00    -0.030 C 
BRANCH  20  21
HETATM   21  C4  UNL     1     -14.365 -27.176  -0.812  1.00  0.00     0.027 C 
BRANCH  21  22
HETATM   22  C3  UNL     1     -14.913 -28.171  -1.814  1.00  0.00     0.003 C 
BRANCH  22  23
HETATM   23  C2  UNL     1     -16.405 -28.259  -1.634  1.00  0.00    -0.004 C 
HETATM   24  C1  UNL     1     -17.037 -29.339  -2.461  1.00  0.00     0.005 C 
ENDBRANCH  22  23
ENDBRANCH  21  22
ENDBRANCH  20  21
ENDBRANCH   1  19
BRANCH   6  25
HETATM   25  C11 UNL     1      -9.288 -27.910   5.194  1.00  0.00     0.125 C 
BRANCH  25  26
HETATM   26  C12 UNL     1      -7.970 -27.773   5.842  1.00  0.00     0.023 C 
BRANCH  26  27
HETATM   27  C13 UNL     1      -7.531 -28.914   6.681  1.00  0.00    -0.021 C 
HETATM   28  C14 UNL     1      -7.613 -30.261   6.068  1.00  0.00     0.009 C 
HETATM   29  C15 UNL     1      -8.360 -28.909   7.989  1.00  0.00     0.009 C 
ENDBRANCH  26  27
ENDBRANCH  25  26
ENDBRANCH   6  25
BRANCH  13  30
HETATM   30  O5  UNL     1     -11.308 -29.725  -1.089  1.00  0.00    -0.365 OA
ATOM     31  H5  UNL     1     -11.521 -29.360  -0.238  1.00  0.00     0.213 HD
ENDBRANCH  13  30
TORSDOF 9
ENDMDL
MODEL 4
REMARK VINA RESULT: -6.238243324      1.137      1.474
REMARK  9 active torsions:
REMARK  status: ('A' for Active; 'I' for Inactive)
REMARK    1  A    between atoms: C2_2  and  C3_3 
REMARK    2  A    between atoms: C3_3  and  C4_4 
REMARK    3  A    between atoms: C4_4  and  C5_5 
REMARK    4  A    between atoms: C6_6  and  C7_7 
REMARK    5  A    between atoms: C8_8  and  C9_9 
REMARK       I    between atoms: N1_12  and  C10_13 
REMARK       I    between atoms: C10_13  and  N2_15 
REMARK    6  A    between atoms: N2_15  and  C11_17 
REMARK    7  A    between atoms: C11_17  and  C12_18 
REMARK    8  A    between atoms: C12_18  and  C13_19 
REMARK    9  A    between atoms: C20_27  and  O5_29 
ROOT
HETATM    1  C7  UNL     1     -10.999 -27.097  -1.560  1.00  0.00     0.052 C 
HETATM    2  C8  UNL     1     -10.046 -25.917  -1.267  1.00  0.00     0.198 C 
HETATM    3  N1  UNL     1      -9.419 -26.328  -0.023  1.00  0.00    -0.313 N 
HETATM    4  C10 UNL     1      -8.963 -25.396   0.987  1.00  0.00     0.319 C 
HETATM    5  O3  UNL     1      -9.061 -24.162   0.801  1.00  0.00    -0.247 OA
HETATM    6  N2  UNL     1      -8.399 -25.873   2.204  1.00  0.00    -0.343 N 
ATOM      7  H2  UNL     1      -8.301 -26.871   2.394  1.00  0.00     0.164 HD
HETATM    8  C16 UNL     1      -9.356 -27.720   0.011  1.00  0.00     0.102 C 
HETATM    9  C17 UNL     1      -8.035 -28.422  -0.127  1.00  0.00     0.057 C 
HETATM   10  C18 UNL     1      -8.398 -29.909  -0.162  1.00  0.00     0.123 C 
HETATM   11  C19 UNL     1      -7.699 -30.614  -1.312  1.00  0.00     0.040 C 
HETATM   12  O4  UNL     1      -9.710 -30.201  -0.038  1.00  0.00    -0.350 OA
HETATM   13  C20 UNL     1     -10.620 -29.540  -0.860  1.00  0.00     0.164 C 
HETATM   14  C21 UNL     1     -10.923 -30.316  -2.125  1.00  0.00     0.079 C 
HETATM   15  C22 UNL     1     -10.111 -28.209  -1.209  1.00  0.00     0.081 C 
ENDROOT
BRANCH   2  16
HETATM   16  C9  UNL     1      -9.153 -25.593  -2.353  1.00  0.00     0.197 C 
HETATM   17  O1  UNL     1      -8.145 -24.884  -2.273  1.00  0.00    -0.646 OA
HETATM   18  O2  UNL     1      -9.455 -26.131  -3.615  1.00  0.00    -0.646 OA
ENDBRANCH   2  16
BRANCH   1  19
HETATM   19  C6  UNL     1     -12.261 -26.989  -0.835  1.00  0.00    -0.023 C 
HETATM   20  C5  UNL     1     -13.441 -26.974  -1.424  1.00  0.00    -0.030 C 
BRANCH  20  21
HETATM   21  C4  UNL     1     -14.668 -26.861  -0.598  1.00  0.00     0.027 C 
BRANCH  21  22
HETATM   22  C3  UNL     1     -15.859 -27.512  -1.268  1.00  0.00     0.003 C 
BRANCH  22  23
HETATM   23  C2  UNL     1     -15.356 -28.503  -2.283  1.00  0.00    -0.004 C 
HETATM   24  C1  UNL     1     -15.829 -29.903  -2.029  1.00  0.00     0.005 C 
ENDBRANCH  22  23
ENDBRANCH  21  22
ENDBRANCH  20  21
ENDBRANCH   1  19
BRANCH   6  25
HETATM   25  C11 UNL     1      -7.973 -24.878   3.154  1.00  0.00     0.125 C 
BRANCH  25  26
HETATM   26  C12 UNL     1      -8.100 -25.238   4.578  1.00  0.00     0.023 C 
BRANCH  26  27
HETATM   27  C13 UNL     1      -7.075 -24.673   5.490  1.00  0.00    -0.021 C 
HETATM   28  C14 UNL     1      -7.373 -23.351   6.088  1.00  0.00     0.009 C 
HETATM   29  C15 UNL     1      -5.732 -24.585   4.723  1.00  0.00     0.009 C 
ENDBRANCH  26  27
ENDBRANCH  25  26
ENDBRANCH   6  25
BRANCH  13  30
HETATM   30  O5  UNL     1     -11.811 -29.514  -0.107  1.00  0.00    -0.365 OA
ATOM     31  H5  UNL     1     -12.452 -29.138  -0.698  1.00  0.00     0.213 HD
ENDBRANCH  13  30
TORSDOF 9
ENDMDL
MODEL 5
REMARK VINA RESULT: -6.237932409      2.952      4.784
REMARK  9 active torsions:
REMARK  status: ('A' for Active; 'I' for Inactive)
REMARK    1  A    between atoms: C2_2  and  C3_3 
REMARK    2  A    between atoms: C3_3  and  C4_4 
REMARK    3  A    between atoms: C4_4  and  C5_5 
REMARK    4  A    between atoms: C6_6  and  C7_7 
REMARK    5  A    between atoms: C8_8  and  C9_9 
REMARK       I    between atoms: N1_12  and  C10_13 
REMARK       I    between atoms: C10_13  and  N2_15 
REMARK    6  A    between atoms: N2_15  and  C11_17 
REMARK    7  A    between atoms: C11_17  and  C12_18 
REMARK    8  A    between atoms: C12_18  and  C13_19 
REMARK    9  A    between atoms: C20_27  and  O5_29 
ROOT
HETATM    1  C7  UNL     1     -10.055 -26.250  -2.985  1.00  0.00     0.052 C 
HETATM    2  C8  UNL     1      -9.097 -26.687  -1.855  1.00  0.00     0.198 C 
HETATM    3  N1  UNL     1      -9.792 -26.226  -0.665  1.00  0.00    -0.313 N 
HETATM    4  C10 UNL     1      -9.115 -25.803   0.542  1.00  0.00     0.319 C 
HETATM    5  O3  UNL     1      -7.866 -25.857   0.620  1.00  0.00    -0.247 OA
HETATM    6  N2  UNL     1      -9.860 -25.319   1.654  1.00  0.00    -0.343 N 
ATOM      7  H2  UNL     1     -10.879 -25.259   1.630  1.00  0.00     0.164 HD
HETATM    8  C16 UNL     1     -11.165 -26.258  -0.905  1.00  0.00     0.102 C 
HETATM    9  C17 UNL     1     -12.029 -27.278  -0.221  1.00  0.00     0.057 C 
HETATM   10  C18 UNL     1     -13.418 -27.068  -0.829  1.00  0.00     0.123 C 
HETATM   11  C19 UNL     1     -14.029 -28.388  -1.265  1.00  0.00     0.040 C 
HETATM   12  O4  UNL     1     -13.522 -26.073  -1.737  1.00  0.00    -0.350 OA
HETATM   13  C20 UNL     1     -12.608 -26.032  -2.786  1.00  0.00     0.164 C 
HETATM   14  C21 UNL     1     -13.116 -26.743  -4.022  1.00  0.00     0.079 C 
HETATM   15  C22 UNL     1     -11.332 -26.622  -2.367  1.00  0.00     0.081 C 
ENDROOT
BRANCH   2  16
HETATM   16  C9  UNL     1      -8.744 -28.086  -1.883  1.00  0.00     0.197 C 
HETATM   17  O1  UNL     1      -8.649 -28.827  -0.901  1.00  0.00    -0.646 OA
HETATM   18  O2  UNL     1      -8.486 -28.657  -3.141  1.00  0.00    -0.646 OA
ENDBRANCH   2  16
BRANCH   1  19
HETATM   19  C6  UNL     1      -9.873 -24.853  -3.364  1.00  0.00    -0.023 C 
HETATM   20  C5  UNL     1      -9.306 -24.473  -4.493  1.00  0.00    -0.030 C 
BRANCH  20  21
HETATM   21  C4  UNL     1      -9.167 -23.025  -4.787  1.00  0.00     0.027 C 
BRANCH  21  22
HETATM   22  C3  UNL     1      -9.963 -22.621  -6.010  1.00  0.00     0.003 C 
BRANCH  22  23
HETATM   23  C2  UNL     1     -11.136 -23.555  -6.149  1.00  0.00    -0.004 C 
HETATM   24  C1  UNL     1     -12.458 -22.848  -6.150  1.00  0.00     0.005 C 
ENDBRANCH  22  23
ENDBRANCH  21  22
ENDBRANCH  20  21
ENDBRANCH   1  19
BRANCH   6  25
HETATM   25  C11 UNL     1      -9.106 -24.917   2.813  1.00  0.00     0.125 C 
BRANCH  25  26
HETATM   26  C12 UNL     1      -9.317 -25.712   4.037  1.00  0.00     0.023 C 
BRANCH  26  27
HETATM   27  C13 UNL     1      -8.109 -26.334   4.630  1.00  0.00    -0.021 C 
HETATM   28  C14 UNL     1      -8.326 -27.509   5.506  1.00  0.00     0.009 C 
HETATM   29  C15 UNL     1      -7.341 -25.251   5.428  1.00  0.00     0.009 C 
ENDBRANCH  26  27
ENDBRANCH  25  26
ENDBRANCH   6  25
BRANCH  13  30
HETATM   30  O5  UNL     1     -12.521 -24.663  -3.114  1.00  0.00    -0.365 OA
ATOM     31  H5  UNL     1     -11.621 -24.549  -3.399  1.00  0.00     0.213 HD
ENDBRANCH  13  30
TORSDOF 9
ENDMDL
