MODEL 1
REMARK VINA RESULT: -7.036661001      0.000      0.000
REMARK  9 active torsions:
REMARK  status: ('A' for Active; 'I' for Inactive)
REMARK    1  A    between atoms: O1_2  and  C2_3 
REMARK    2  A    between atoms: C2_3  and  C3_4 
REMARK    3  A    between atoms: C3_4  and  N1_5 
REMARK       I    between atoms: N1_5  and  C4_6 
REMARK    4  A    between atoms: N1_5  and  C17_28 
REMARK       I    between atoms: C4_6  and  N2_8 
REMARK    5  A    between atoms: N2_8  and  C5_10 
REMARK    6  A    between atoms: N4_15  and  C8_17 
REMARK    7  A    between atoms: C8_17  and  C10_19 
REMARK    8  A    between atoms: C10_19  and  O3_20 
REMARK    9  A    between atoms: C11_22  and  C12_23 
ROOT
HETATM    1  C5  UNL     1      -9.248 -24.821   0.094  1.00  0.00     0.058 A 
HETATM    2  C6  UNL     1      -9.902 -23.792  -0.538  1.00  0.00     0.119 A 
HETATM    3  N3  UNL     1     -10.457 -23.898  -1.767  1.00  0.00    -0.350 N 
ATOM      4  H3  UNL     1     -10.933 -23.108  -2.203  1.00  0.00     0.166 HD
HETATM    5  C7  UNL     1     -10.358 -25.068  -2.384  1.00  0.00     0.108 A 
HETATM    6  N4  UNL     1     -10.878 -25.207  -3.571  1.00  0.00    -0.369 N 
ATOM      7  H4  UNL     1     -10.782 -26.121  -4.015  1.00  0.00     0.161 HD
HETATM    8  C11 UNL     1      -9.701 -26.180  -1.803  1.00  0.00    -0.002 A 
HETATM    9  C15 UNL     1      -9.144 -26.060  -0.570  1.00  0.00    -0.023 A 
HETATM   10  C16 UNL     1      -8.389 -27.193  -0.018  1.00  0.00     0.051 C 
ENDROOT
BRANCH   1  11
HETATM   11  N2  UNL     1      -8.727 -24.709   1.399  1.00  0.00    -0.307 N 
HETATM   12  C4  UNL     1      -9.083 -25.383   2.565  1.00  0.00     0.323 C 
HETATM   13  N1  UNL     1      -8.479 -25.195   3.865  1.00  0.00    -0.327 N 
HETATM   14  O2  UNL     1     -10.001 -26.239   2.547  1.00  0.00    -0.247 OA
ATOM     15  H2  UNL     1      -7.974 -24.030   1.506  1.00  0.00     0.170 HD
BRANCH  13  16
HETATM   16  C3  UNL     1      -9.048 -26.033   4.934  1.00  0.00     0.154 C 
BRANCH  16  17
HETATM   17  C2  UNL     1      -8.330 -27.337   4.985  1.00  0.00     0.187 C 
BRANCH  17  18
HETATM   18  O1  UNL     1      -7.649 -27.538   6.200  1.00  0.00    -0.394 OA
HETATM   19  C1  UNL     1      -8.059 -28.656   6.880  1.00  0.00     0.201 C 
ENDBRANCH  17  18
ENDBRANCH  16  17
ENDBRANCH  13  16
BRANCH  13  20
HETATM   20  C17 UNL     1      -7.376 -24.332   4.089  1.00  0.00     0.089 C 
HETATM   21  C18 UNL     1      -6.152 -25.043   4.661  1.00  0.00     0.025 C 
HETATM   22  C19 UNL     1      -5.163 -23.943   5.069  1.00  0.00     0.002 C 
HETATM   23  C20 UNL     1      -5.609 -23.277   6.362  1.00  0.00     0.000 C 
HETATM   24  C21 UNL     1      -7.120 -23.312   6.380  1.00  0.00     0.002 C 
HETATM   25  C22 UNL     1      -7.607 -23.133   4.961  1.00  0.00     0.025 C 
ENDBRANCH  13  20
ENDBRANCH   1  11
BRANCH   8  26
HETATM   26  C12 UNL     1      -9.720 -27.372  -2.630  1.00  0.00     0.023 A 
HETATM   27  C13 UNL     1      -9.428 -28.747  -2.322  1.00  0.00     0.010 A 
HETATM   28  C14 UNL     1     -10.877 -28.341  -2.367  1.00  0.00     0.010 A 
ENDBRANCH   8  26
BRANCH   6  29
HETATM   29  C8  UNL     1     -11.567 -24.203  -4.304  1.00  0.00     0.102 C 
HETATM   30  C9  UNL     1     -12.541 -24.904  -5.260  1.00  0.00     0.034 C 
BRANCH  29  31
HETATM   31  C10 UNL     1     -10.530 -23.549  -5.226  1.00  0.00     0.188 C 
BRANCH  31  32
HETATM   32  O3  UNL     1      -9.873 -22.508  -4.596  1.00  0.00    -0.399 OA
ATOM     33  H3  UNL     1     -10.413 -21.728  -4.554  1.00  0.00     0.209 HD
ENDBRANCH  31  32
ENDBRANCH  29  31
ENDBRANCH   6  29
TORSDOF 9
ENDMDL
MODEL 2
REMARK VINA RESULT: -7.019417582      2.379      8.750
REMARK  9 active torsions:
REMARK  status: ('A' for Active; 'I' for Inactive)
REMARK    1  A    between atoms: O1_2  and  C2_3 
REMARK    2  A    between atoms: C2_3  and  C3_4 
REMARK    3  A    between atoms: C3_4  and  N1_5 
REMARK       I    between atoms: N1_5  and  C4_6 
REMARK    4  A    between atoms: N1_5  and  C17_28 
REMARK       I    between atoms: C4_6  and  N2_8 
REMARK    5  A    between atoms: N2_8  and  C5_10 
REMARK    6  A    between atoms: N4_15  and  C8_17 
REMARK    7  A    between atoms: C8_17  and  C10_19 
REMARK    8  A    between atoms: C10_19  and  O3_20 
REMARK    9  A    between atoms: C11_22  and  C12_23 
ROOT
HETATM    1  C5  UNL     1      -9.643 -26.185   2.168  1.00  0.00     0.058 A 
HETATM    2  C6  UNL     1      -8.966 -24.992   2.105  1.00  0.00     0.119 A 
HETATM    3  N3  UNL     1      -8.132 -24.551   3.074  1.00  0.00    -0.350 N 
ATOM      4  H3  UNL     1      -7.648 -23.657   2.990  1.00  0.00     0.166 HD
HETATM    5  C7  UNL     1      -7.967 -25.325   4.139  1.00  0.00     0.108 A 
HETATM    6  N4  UNL     1      -7.172 -24.932   5.095  1.00  0.00    -0.369 N 
ATOM      7  H4  UNL     1      -7.070 -25.553   5.897  1.00  0.00     0.161 HD
HETATM    8  C11 UNL     1      -8.627 -26.570   4.282  1.00  0.00    -0.002 A 
HETATM    9  C15 UNL     1      -9.466 -27.000   3.304  1.00  0.00    -0.023 A 
HETATM   10  C16 UNL     1     -10.212 -28.250   3.507  1.00  0.00     0.051 C 
ENDROOT
BRANCH   1  11
HETATM   11  N2  UNL     1     -10.463 -26.655   1.123  1.00  0.00    -0.307 N 
HETATM   12  C4  UNL     1     -10.283 -26.584  -0.257  1.00  0.00     0.323 C 
HETATM   13  N1  UNL     1     -11.192 -27.105  -1.254  1.00  0.00    -0.327 N 
HETATM   14  O2  UNL     1      -9.263 -26.030  -0.735  1.00  0.00    -0.247 OA
ATOM     15  H2  UNL     1     -11.320 -27.119   1.423  1.00  0.00     0.170 HD
BRANCH  13  16
HETATM   16  C3  UNL     1     -10.765 -26.890  -2.647  1.00  0.00     0.154 C 
BRANCH  16  17
HETATM   17  C2  UNL     1     -11.404 -25.657  -3.183  1.00  0.00     0.187 C 
BRANCH  17  18
HETATM   18  O1  UNL     1     -10.469 -24.668  -3.539  1.00  0.00    -0.394 OA
HETATM   19  C1  UNL     1     -10.615 -23.498  -2.838  1.00  0.00     0.201 C 
ENDBRANCH  17  18
ENDBRANCH  16  17
ENDBRANCH  13  16
BRANCH  13  20
HETATM   20  C17 UNL     1     -12.366 -27.832  -0.927  1.00  0.00     0.089 C 
HETATM   21  C18 UNL     1     -12.696 -28.937  -1.929  1.00  0.00     0.025 C 
HETATM   22  C19 UNL     1     -14.099 -29.442  -1.568  1.00  0.00     0.002 C 
HETATM   23  C20 UNL     1     -15.158 -28.453  -2.031  1.00  0.00     0.000 C 
HETATM   24  C21 UNL     1     -14.545 -27.074  -1.942  1.00  0.00     0.002 C 
HETATM   25  C22 UNL     1     -13.631 -27.047  -0.740  1.00  0.00     0.025 C 
ENDBRANCH  13  20
ENDBRANCH   1  11
BRANCH   8  26
HETATM   26  C12 UNL     1      -8.296 -27.272   5.508  1.00  0.00     0.023 A 
HETATM   27  C13 UNL     1      -8.668 -28.579   5.984  1.00  0.00     0.010 A 
HETATM   28  C14 UNL     1      -7.307 -28.432   5.360  1.00  0.00     0.010 A 
ENDBRANCH   8  26
BRANCH   6  29
HETATM   29  C8  UNL     1      -6.435 -23.717   5.121  1.00  0.00     0.102 C 
HETATM   30  C9  UNL     1      -4.943 -24.073   5.127  1.00  0.00     0.034 C 
BRANCH  29  31
HETATM   31  C10 UNL     1      -6.683 -23.087   6.497  1.00  0.00     0.188 C 
BRANCH  31  32
HETATM   32  O3  UNL     1      -5.682 -22.197   6.838  1.00  0.00    -0.399 OA
ATOM     33  H3  UNL     1      -5.999 -21.522   7.426  1.00  0.00     0.209 HD
ENDBRANCH  31  32
ENDBRANCH  29  31
ENDBRANCH   6  29
TORSDOF 9
ENDMDL
MODEL 3
REMARK VINA RESULT: -6.940203402      2.164      8.734
REMARK  9 active torsions:
REMARK  status: ('A' for Active; 'I' for Inactive)
REMARK    1  A    between atoms: O1_2  and  C2_3 
REMARK    2  A    between atoms: C2_3  and  C3_4 
REMARK    3  A    between atoms: C3_4  and  N1_5 
REMARK       I    between atoms: N1_5  and  C4_6 
REMARK    4  A    between atoms: N1_5  and  C17_28 
REMARK       I    between atoms: C4_6  and  N2_8 
REMARK    5  A    between atoms: N2_8  and  C5_10 
REMARK    6  A    between atoms: N4_15  and  C8_17 
REMARK    7  A    between atoms: C8_17  and  C10_19 
REMARK    8  A    between atoms: C10_19  and  O3_20 
REMARK    9  A    between atoms: C11_22  and  C12_23 
ROOT
HETATM    1  C5  UNL     1     -10.525 -25.663  -0.293  1.00  0.00     0.058 A 
HETATM    2  C6  UNL     1      -9.744 -24.613   0.121  1.00  0.00     0.119 A 
HETATM    3  N3  UNL     1      -9.090 -24.585   1.305  1.00  0.00    -0.350 N 
ATOM      4  H3  UNL     1      -8.520 -23.784   1.576  1.00  0.00     0.166 HD
HETATM    5  C7  UNL     1      -9.218 -25.640   2.099  1.00  0.00     0.108 A 
HETATM    6  N4  UNL     1      -8.605 -25.649   3.249  1.00  0.00    -0.369 N 
ATOM      7  H4  UNL     1      -8.727 -26.476   3.834  1.00  0.00     0.161 HD
HETATM    8  C11 UNL     1     -10.004 -26.765   1.747  1.00  0.00    -0.002 A 
HETATM    9  C15 UNL     1     -10.660 -26.779   0.558  1.00  0.00    -0.023 A 
HETATM   10  C16 UNL     1     -11.542 -27.912   0.246  1.00  0.00     0.051 C 
ENDROOT
BRANCH   1  11
HETATM   11  N2  UNL     1     -11.152 -25.700  -1.555  1.00  0.00    -0.307 N 
HETATM   12  C4  UNL     1     -11.109 -24.782  -2.602  1.00  0.00     0.323 C 
HETATM   13  N1  UNL     1     -11.793 -24.916  -3.870  1.00  0.00    -0.327 N 
HETATM   14  O2  UNL     1     -10.434 -23.729  -2.495  1.00  0.00    -0.247 OA
ATOM     15  H2  UNL     1     -11.726 -26.525  -1.728  1.00  0.00     0.170 HD
BRANCH  13  16
HETATM   16  C3  UNL     1     -11.583 -23.796  -4.802  1.00  0.00     0.154 C 
BRANCH  16  17
HETATM   17  C2  UNL     1     -12.893 -23.340  -5.343  1.00  0.00     0.187 C 
BRANCH  17  18
HETATM   18  O1  UNL     1     -13.710 -22.744  -4.365  1.00  0.00    -0.394 OA
HETATM   19  C1  UNL     1     -15.009 -23.181  -4.395  1.00  0.00     0.201 C 
ENDBRANCH  17  18
ENDBRANCH  16  17
ENDBRANCH  13  16
BRANCH  13  20
HETATM   20  C17 UNL     1     -12.548 -26.064  -4.224  1.00  0.00     0.089 C 
HETATM   21  C18 UNL     1     -13.519 -26.515  -3.135  1.00  0.00     0.025 C 
HETATM   22  C19 UNL     1     -14.055 -27.883  -3.574  1.00  0.00     0.002 C 
HETATM   23  C20 UNL     1     -13.010 -28.965  -3.346  1.00  0.00     0.000 C 
HETATM   24  C21 UNL     1     -11.656 -28.320  -3.538  1.00  0.00     0.002 C 
HETATM   25  C22 UNL     1     -11.784 -27.288  -4.635  1.00  0.00     0.025 C 
ENDBRANCH  13  20
ENDBRANCH   1  11
BRANCH   8  26
HETATM   26  C12 UNL     1      -9.998 -27.820   2.744  1.00  0.00     0.023 A 
HETATM   27  C13 UNL     1     -10.400 -29.200   2.668  1.00  0.00     0.010 A 
HETATM   28  C14 UNL     1      -8.929 -28.901   2.554  1.00  0.00     0.010 A 
ENDBRANCH   8  26
BRANCH   6  29
HETATM   29  C8  UNL     1      -7.781 -24.611   3.764  1.00  0.00     0.102 C 
HETATM   30  C9  UNL     1      -6.621 -25.265   4.526  1.00  0.00     0.034 C 
BRANCH  29  31
HETATM   31  C10 UNL     1      -8.601 -23.904   4.851  1.00  0.00     0.188 C 
BRANCH  31  32
HETATM   32  O3  UNL     1      -9.887 -23.632   4.422  1.00  0.00    -0.399 OA
ATOM     33  H3  UNL     1     -10.513 -23.688   5.135  1.00  0.00     0.209 HD
ENDBRANCH  31  32
ENDBRANCH  29  31
ENDBRANCH   6  29
TORSDOF 9
ENDMDL
MODEL 4
REMARK VINA RESULT: -6.902052745      2.279      3.035
REMARK  9 active torsions:
REMARK  status: ('A' for Active; 'I' for Inactive)
REMARK    1  A    between atoms: O1_2  and  C2_3 
REMARK    2  A    between atoms: C2_3  and  C3_4 
REMARK    3  A    between atoms: C3_4  and  N1_5 
REMARK       I    between atoms: N1_5  and  C4_6 
REMARK    4  A    between atoms: N1_5  and  C17_28 
REMARK       I    between atoms: C4_6  and  N2_8 
REMARK    5  A    between atoms: N2_8  and  C5_10 
REMARK    6  A    between atoms: N4_15  and  C8_17 
REMARK    7  A    between atoms: C8_17  and  C10_19 
REMARK    8  A    between atoms: C10_19  and  O3_20 
REMARK    9  A    between atoms: C11_22  and  C12_23 
ROOT
HETATM    1  C5  UNL     1     -10.510 -26.099   0.785  1.00  0.00     0.058 A 
HETATM    2  C6  UNL     1     -11.384 -27.154   0.709  1.00  0.00     0.119 A 
HETATM    3  N3  UNL     1     -12.127 -27.437  -0.385  1.00  0.00    -0.350 N 
ATOM      4  H3  UNL     1     -12.768 -28.230  -0.400  1.00  0.00     0.166 HD
HETATM    5  C7  UNL     1     -11.991 -26.642  -1.439  1.00  0.00     0.108 A 
HETATM    6  N4  UNL     1     -12.692 -26.880  -2.511  1.00  0.00    -0.369 N 
ATOM      7  H4  UNL     1     -12.561 -26.248  -3.301  1.00  0.00     0.161 HD
HETATM    8  C11 UNL     1     -11.110 -25.532  -1.444  1.00  0.00    -0.002 A 
HETATM    9  C15 UNL     1     -10.373 -25.256  -0.337  1.00  0.00    -0.023 A 
HETATM   10  C16 UNL     1      -9.532 -24.051  -0.325  1.00  0.00     0.051 C 
ENDROOT
BRANCH   1  11
HETATM   11  N2  UNL     1      -9.701 -25.854   1.913  1.00  0.00    -0.307 N 
HETATM   12  C4  UNL     1      -9.571 -26.580   3.095  1.00  0.00     0.323 C 
HETATM   13  N1  UNL     1      -8.702 -26.242   4.201  1.00  0.00    -0.327 N 
HETATM   14  O2  UNL     1     -10.240 -27.627   3.273  1.00  0.00    -0.247 OA
ATOM     15  H2  UNL     1      -9.122 -25.017   1.855  1.00  0.00     0.170 HD
BRANCH  13  16
HETATM   16  C3  UNL     1      -8.761 -27.179   5.336  1.00  0.00     0.154 C 
BRANCH  16  17
HETATM   17  C2  UNL     1      -7.777 -28.278   5.131  1.00  0.00     0.187 C 
BRANCH  17  18
HETATM   18  O1  UNL     1      -7.153 -28.681   6.326  1.00  0.00    -0.394 OA
HETATM   19  C1  UNL     1      -8.003 -28.723   7.401  1.00  0.00     0.201 C 
ENDBRANCH  17  18
ENDBRANCH  16  17
ENDBRANCH  13  16
BRANCH  13  20
HETATM   20  C17 UNL     1      -7.807 -25.142   4.174  1.00  0.00     0.089 C 
HETATM   21  C18 UNL     1      -6.449 -25.447   4.801  1.00  0.00     0.025 C 
HETATM   22  C19 UNL     1      -5.713 -24.105   4.913  1.00  0.00     0.002 C 
HETATM   23  C20 UNL     1      -6.268 -23.288   6.070  1.00  0.00     0.000 C 
HETATM   24  C21 UNL     1      -7.735 -23.629   6.190  1.00  0.00     0.002 C 
HETATM   25  C22 UNL     1      -8.275 -23.859   4.798  1.00  0.00     0.025 C 
ENDBRANCH  13  20
ENDBRANCH   1  11
BRANCH   8  26
HETATM   26  C12 UNL     1     -11.093 -24.803  -2.698  1.00  0.00     0.023 A 
HETATM   27  C13 UNL     1     -10.182 -23.811  -3.207  1.00  0.00     0.010 A 
HETATM   28  C14 UNL     1     -10.008 -25.225  -3.693  1.00  0.00     0.010 A 
ENDBRANCH   8  26
BRANCH   6  29
HETATM   29  C8  UNL     1     -13.622 -27.942  -2.681  1.00  0.00     0.102 C 
HETATM   30  C9  UNL     1     -13.615 -28.340  -4.163  1.00  0.00     0.034 C 
BRANCH  29  31
HETATM   31  C10 UNL     1     -15.015 -27.339  -2.454  1.00  0.00     0.188 C 
BRANCH  31  32
HETATM   32  O3  UNL     1     -15.247 -27.083  -1.115  1.00  0.00    -0.399 OA
ATOM     33  H3  UNL     1     -14.454 -27.174  -0.599  1.00  0.00     0.209 HD
ENDBRANCH  31  32
ENDBRANCH  29  31
ENDBRANCH   6  29
TORSDOF 9
ENDMDL
MODEL 5
REMARK VINA RESULT: -6.809882909      2.048      8.666
REMARK  9 active torsions:
REMARK  status: ('A' for Active; 'I' for Inactive)
REMARK    1  A    between atoms: O1_2  and  C2_3 
REMARK    2  A    between atoms: C2_3  and  C3_4 
REMARK    3  A    between atoms: C3_4  and  N1_5 
REMARK       I    between atoms: N1_5  and  C4_6 
REMARK    4  A    between atoms: N1_5  and  C17_28 
REMARK       I    between atoms: C4_6  and  N2_8 
REMARK    5  A    between atoms: N2_8  and  C5_10 
REMARK    6  A    between atoms: N4_15  and  C8_17 
REMARK    7  A    between atoms: C8_17  and  C10_19 
REMARK    8  A    between atoms: C10_19  and  O3_20 
REMARK    9  A    between atoms: C11_22  and  C12_23 
ROOT
HETATM    1  C5  UNL     1     -10.097 -25.561  -0.200  1.00  0.00     0.058 A 
HETATM    2  C6  UNL     1      -9.351 -24.526   0.308  1.00  0.00     0.119 A 
HETATM    3  N3  UNL     1      -8.829 -24.520   1.556  1.00  0.00    -0.350 N 
ATOM      4  H3  UNL     1      -8.281 -23.730   1.897  1.00  0.00     0.166 HD
HETATM    5  C7  UNL     1      -9.057 -25.580   2.320  1.00  0.00     0.108 A 
HETATM    6  N4  UNL     1      -8.573 -25.610   3.529  1.00  0.00    -0.369 N 
ATOM      7  H4  UNL     1      -8.769 -26.441   4.088  1.00  0.00     0.161 HD
HETATM    8  C11 UNL     1      -9.816 -26.690   1.872  1.00  0.00    -0.002 A 
HETATM    9  C15 UNL     1     -10.339 -26.682   0.618  1.00  0.00    -0.023 A 
HETATM   10  C16 UNL     1     -11.198 -27.799   0.200  1.00  0.00     0.051 C 
ENDROOT
BRANCH   1  11
HETATM   11  N2  UNL     1     -10.584 -25.575  -1.523  1.00  0.00    -0.307 N 
HETATM   12  C4  UNL     1      -9.932 -25.282  -2.719  1.00  0.00     0.323 C 
HETATM   13  N1  UNL     1     -10.527 -25.329  -4.037  1.00  0.00    -0.327 N 
HETATM   14  O2  UNL     1      -8.725 -24.940  -2.716  1.00  0.00    -0.247 OA
ATOM     15  H2  UNL     1     -11.563 -25.841  -1.619  1.00  0.00     0.170 HD
BRANCH  13  16
HETATM   16  C3  UNL     1      -9.616 -24.965  -5.135  1.00  0.00     0.154 C 
BRANCH  16  17
HETATM   17  C2  UNL     1     -10.349 -24.155  -6.148  1.00  0.00     0.187 C 
BRANCH  17  18
HETATM   18  O1  UNL     1     -10.314 -22.776  -5.872  1.00  0.00    -0.394 OA
HETATM   19  C1  UNL     1      -9.081 -22.329  -5.469  1.00  0.00     0.201 C 
ENDBRANCH  17  18
ENDBRANCH  16  17
ENDBRANCH  13  16
BRANCH  13  20
HETATM   20  C17 UNL     1     -11.857 -25.763  -4.270  1.00  0.00     0.089 C 
HETATM   21  C18 UNL     1     -12.847 -25.292  -3.207  1.00  0.00     0.025 C 
HETATM   22  C19 UNL     1     -14.157 -26.045  -3.471  1.00  0.00     0.002 C 
HETATM   23  C20 UNL     1     -14.050 -27.486  -2.996  1.00  0.00     0.000 C 
HETATM   24  C21 UNL     1     -12.609 -27.906  -3.175  1.00  0.00     0.002 C 
HETATM   25  C22 UNL     1     -12.082 -27.239  -4.424  1.00  0.00     0.025 C 
ENDBRANCH  13  20
ENDBRANCH   1  11
BRANCH   8  26
HETATM   26  C12 UNL     1      -9.933 -27.755   2.851  1.00  0.00     0.023 A 
HETATM   27  C13 UNL     1     -10.327 -29.132   2.713  1.00  0.00     0.010 A 
HETATM   28  C14 UNL     1      -8.853 -28.838   2.781  1.00  0.00     0.010 A 
ENDBRANCH   8  26
BRANCH   6  29
HETATM   29  C8  UNL     1      -7.796 -24.589   4.142  1.00  0.00     0.102 C 
HETATM   30  C9  UNL     1      -6.793 -25.266   5.086  1.00  0.00     0.034 C 
BRANCH  29  31
HETATM   31  C10 UNL     1      -8.742 -23.824   5.076  1.00  0.00     0.188 C 
BRANCH  31  32
HETATM   32  O3  UNL     1      -9.915 -23.471   4.434  1.00  0.00    -0.399 OA
ATOM     33  H3  UNL     1     -10.507 -24.210   4.355  1.00  0.00     0.209 HD
ENDBRANCH  31  32
ENDBRANCH  29  31
ENDBRANCH   6  29
TORSDOF 9
ENDMDL
