MODEL 1
REMARK VINA RESULT: -7.630018842      0.000      0.000
REMARK  9 active torsions:
REMARK  status: ('A' for Active; 'I' for Inactive)
REMARK    1  A    between atoms: C2_2  and  C3_3 
REMARK    2  A    between atoms: C3_3  and  S1_4 
REMARK    3  A    between atoms: S1_4  and  C4_5 
REMARK    4  A    between atoms: C4_5  and  C5_6 
REMARK       I    between atoms: C5_6  and  N1_8 
REMARK    5  A    between atoms: N1_8  and  C6_10 
REMARK    6  A    between atoms: C6_10  and  C7_11 
REMARK    7  A    between atoms: C13_17  and  O2_18 
REMARK    8  A    between atoms: C16_22  and  N2_23 
REMARK    9  A    between atoms: N2_23  and  C17_25 
ROOT
HETATM    1  C7  UNL     1      -9.456 -27.621   2.861  1.00  0.00     0.031 C 
HETATM    2  C8  UNL     1      -8.515 -28.480   2.164  1.00  0.00     0.025 C 
HETATM    3  C9  UNL     1      -8.351 -28.084   0.691  1.00  0.00    -0.012 C 
HETATM    4  C10 UNL     1      -9.697 -28.338   0.021  1.00  0.00     0.012 C 
HETATM    5  C11 UNL     1     -10.706 -27.418   0.686  1.00  0.00     0.017 C 
HETATM    6  C12 UNL     1     -10.813 -27.856   2.118  1.00  0.00     0.028 C 
HETATM    7  C13 UNL     1     -10.339 -25.960   0.563  1.00  0.00     0.132 C 
HETATM    8  C14 UNL     1      -8.985 -25.762   1.299  1.00  0.00     0.061 C 
HETATM    9  C15 UNL     1      -8.051 -26.644   0.528  1.00  0.00     0.017 C 
HETATM   10  C16 UNL     1      -9.236 -26.102   2.713  1.00  0.00     0.003 C 
ENDROOT
BRANCH   1  11
HETATM   11  C6  UNL     1      -9.782 -27.876   4.281  1.00  0.00     0.079 C 
BRANCH  11  12
HETATM   12  N1  UNL     1      -9.009 -28.764   5.046  1.00  0.00    -0.339 N 
HETATM   13  C5  UNL     1      -7.946 -28.487   5.923  1.00  0.00     0.230 C 
HETATM   14  O1  UNL     1      -7.498 -27.354   6.204  1.00  0.00    -0.272 OA
ATOM     15  H1  UNL     1      -9.253 -29.750   4.952  1.00  0.00     0.167 HD
BRANCH  13  16
HETATM   16  C4  UNL     1      -7.236 -29.623   6.628  1.00  0.00     0.176 C 
BRANCH  16  17
HETATM   17  S1  UNL     1      -8.391 -30.482   7.698  1.00  0.00    -0.160 SA
BRANCH  17  18
HETATM   18  C3  UNL     1      -9.079 -29.370   8.928  1.00  0.00     0.074 C 
BRANCH  18  19
HETATM   19  C2  UNL     1      -7.925 -28.694   9.677  1.00  0.00     0.006 C 
HETATM   20  C1  UNL     1      -8.414 -28.155  11.004  1.00  0.00     0.006 C 
ENDBRANCH  18  19
ENDBRANCH  17  18
ENDBRANCH  16  17
ENDBRANCH  13  16
ENDBRANCH  11  12
ENDBRANCH   1  11
BRANCH  10  21
HETATM   21  N2  UNL     1      -8.575 -25.501   3.754  1.00  0.00    -0.390 N 
ATOM     22  H2  UNL     1      -8.836 -25.867   4.670  1.00  0.00     0.159 HD
BRANCH  21  23
HETATM   23  C17 UNL     1      -7.634 -24.509   3.806  1.00  0.00     0.081 C 
HETATM   24  C18 UNL     1      -7.848 -23.333   4.724  1.00  0.00     0.025 C 
HETATM   25  C19 UNL     1      -7.526 -23.772   6.149  1.00  0.00     0.006 C 
HETATM   26  C20 UNL     1      -6.012 -23.707   6.268  1.00  0.00    -0.019 C 
HETATM   27  C21 UNL     1      -5.644 -22.268   6.548  1.00  0.00     0.010 C 
HETATM   28  C22 UNL     1      -5.426 -24.140   4.940  1.00  0.00     0.006 C 
HETATM   29  C23 UNL     1      -6.288 -25.137   4.235  1.00  0.00     0.025 C 
ENDBRANCH  21  23
ENDBRANCH  10  21
BRANCH   7  30
HETATM   30  O2  UNL     1     -10.280 -25.566  -0.742  1.00  0.00    -0.394 OA
ATOM     31  H2  UNL     1     -10.645 -24.697  -0.861  1.00  0.00     0.210 HD
ENDBRANCH   7  30
TORSDOF 9
ENDMDL
MODEL 2
REMARK VINA RESULT: -7.525001419      3.672      7.136
REMARK  9 active torsions:
REMARK  status: ('A' for Active; 'I' for Inactive)
REMARK    1  A    between atoms: C2_2  and  C3_3 
REMARK    2  A    between atoms: C3_3  and  S1_4 
REMARK    3  A    between atoms: S1_4  and  C4_5 
REMARK    4  A    between atoms: C4_5  and  C5_6 
REMARK       I    between atoms: C5_6  and  N1_8 
REMARK    5  A    between atoms: N1_8  and  C6_10 
REMARK    6  A    between atoms: C6_10  and  C7_11 
REMARK    7  A    between atoms: C13_17  and  O2_18 
REMARK    8  A    between atoms: C16_22  and  N2_23 
REMARK    9  A    between atoms: N2_23  and  C17_25 
ROOT
HETATM    1  C7  UNL     1      -9.580 -26.890   1.293  1.00  0.00     0.031 C 
HETATM    2  C8  UNL     1     -10.777 -27.489   0.729  1.00  0.00     0.025 C 
HETATM    3  C9  UNL     1     -10.829 -29.005   0.957  1.00  0.00    -0.012 C 
HETATM    4  C10 UNL     1      -9.672 -29.603   0.166  1.00  0.00     0.012 C 
HETATM    5  C11 UNL     1      -8.391 -29.043   0.759  1.00  0.00     0.017 C 
HETATM    6  C12 UNL     1      -8.407 -27.564   0.507  1.00  0.00     0.028 C 
HETATM    7  C13 UNL     1      -8.233 -29.368   2.224  1.00  0.00     0.132 C 
HETATM    8  C14 UNL     1      -9.416 -28.697   2.975  1.00  0.00     0.061 C 
HETATM    9  C15 UNL     1     -10.616 -29.365   2.377  1.00  0.00     0.017 C 
HETATM   10  C16 UNL     1      -9.264 -27.245   2.761  1.00  0.00     0.003 C 
ENDROOT
BRANCH   1  11
HETATM   11  C6  UNL     1      -9.328 -25.443   1.133  1.00  0.00     0.079 C 
BRANCH  11  12
HETATM   12  N1  UNL     1      -9.976 -24.709   0.126  1.00  0.00    -0.339 N 
HETATM   13  C5  UNL     1      -9.547 -24.423  -1.181  1.00  0.00     0.230 C 
HETATM   14  O1  UNL     1      -8.478 -24.805  -1.707  1.00  0.00    -0.272 OA
ATOM     15  H1  UNL     1     -10.889 -24.329   0.380  1.00  0.00     0.167 HD
BRANCH  13  16
HETATM   16  C4  UNL     1     -10.415 -23.580  -2.091  1.00  0.00     0.176 C 
BRANCH  16  17
HETATM   17  S1  UNL     1     -11.406 -24.649  -3.136  1.00  0.00    -0.160 SA
BRANCH  17  18
HETATM   18  C3  UNL     1     -12.219 -23.709  -4.432  1.00  0.00     0.074 C 
BRANCH  18  19
HETATM   19  C2  UNL     1     -13.732 -23.914  -4.310  1.00  0.00     0.006 C 
HETATM   20  C1  UNL     1     -14.441 -22.576  -4.347  1.00  0.00     0.006 C 
ENDBRANCH  18  19
ENDBRANCH  17  18
ENDBRANCH  16  17
ENDBRANCH  13  16
ENDBRANCH  11  12
ENDBRANCH   1  11
BRANCH  10  21
HETATM   21  N2  UNL     1      -9.650 -26.309   3.686  1.00  0.00    -0.390 N 
ATOM     22  H2  UNL     1     -10.584 -25.933   3.523  1.00  0.00     0.159 HD
BRANCH  21  23
HETATM   23  C17 UNL     1      -9.029 -25.780   4.785  1.00  0.00     0.081 C 
HETATM   24  C18 UNL     1      -7.554 -26.017   4.987  1.00  0.00     0.025 C 
HETATM   25  C19 UNL     1      -6.787 -25.087   4.051  1.00  0.00     0.006 C 
HETATM   26  C20 UNL     1      -6.760 -23.734   4.746  1.00  0.00    -0.019 C 
HETATM   27  C21 UNL     1      -5.635 -23.770   5.755  1.00  0.00     0.010 C 
HETATM   28  C22 UNL     1      -8.085 -23.555   5.457  1.00  0.00     0.006 C 
HETATM   29  C23 UNL     1      -9.208 -24.245   4.753  1.00  0.00     0.025 C 
ENDBRANCH  21  23
ENDBRANCH  10  21
BRANCH   7  30
HETATM   30  O2  UNL     1      -8.184 -30.715   2.437  1.00  0.00    -0.394 OA
ATOM     31  H2  UNL     1      -8.487 -30.942   3.308  1.00  0.00     0.210 HD
ENDBRANCH   7  30
TORSDOF 9
ENDMDL
MODEL 3
REMARK VINA RESULT: -7.438410225      3.501      6.443
REMARK  9 active torsions:
REMARK  status: ('A' for Active; 'I' for Inactive)
REMARK    1  A    between atoms: C2_2  and  C3_3 
REMARK    2  A    between atoms: C3_3  and  S1_4 
REMARK    3  A    between atoms: S1_4  and  C4_5 
REMARK    4  A    between atoms: C4_5  and  C5_6 
REMARK       I    between atoms: C5_6  and  N1_8 
REMARK    5  A    between atoms: N1_8  and  C6_10 
REMARK    6  A    between atoms: C6_10  and  C7_11 
REMARK    7  A    between atoms: C13_17  and  O2_18 
REMARK    8  A    between atoms: C16_22  and  N2_23 
REMARK    9  A    between atoms: N2_23  and  C17_25 
ROOT
HETATM    1  C7  UNL     1      -9.518 -26.905   1.343  1.00  0.00     0.031 C 
HETATM    2  C8  UNL     1     -10.715 -27.491   0.762  1.00  0.00     0.025 C 
HETATM    3  C9  UNL     1     -10.783 -29.007   0.982  1.00  0.00    -0.012 C 
HETATM    4  C10 UNL     1      -9.622 -29.612   0.201  1.00  0.00     0.012 C 
HETATM    5  C11 UNL     1      -8.343 -29.066   0.813  1.00  0.00     0.017 C 
HETATM    6  C12 UNL     1      -8.343 -27.586   0.567  1.00  0.00     0.028 C 
HETATM    7  C13 UNL     1      -8.206 -29.400   2.277  1.00  0.00     0.132 C 
HETATM    8  C14 UNL     1      -9.392 -28.722   3.018  1.00  0.00     0.061 C 
HETATM    9  C15 UNL     1     -10.590 -29.376   2.402  1.00  0.00     0.017 C 
HETATM   10  C16 UNL     1      -9.224 -27.270   2.813  1.00  0.00     0.003 C 
ENDROOT
BRANCH   1  11
HETATM   11  C6  UNL     1      -9.251 -25.459   1.193  1.00  0.00     0.079 C 
BRANCH  11  12
HETATM   12  N1  UNL     1      -9.917 -24.705   0.213  1.00  0.00    -0.339 N 
HETATM   13  C5  UNL     1      -9.535 -24.438  -1.113  1.00  0.00     0.230 C 
HETATM   14  O1  UNL     1      -8.505 -24.858  -1.683  1.00  0.00    -0.272 OA
ATOM     15  H1  UNL     1     -10.804 -24.293   0.505  1.00  0.00     0.167 HD
BRANCH  13  16
HETATM   16  C4  UNL     1     -10.412 -23.566  -1.988  1.00  0.00     0.176 C 
BRANCH  16  17
HETATM   17  S1  UNL     1     -11.190 -24.572  -3.251  1.00  0.00    -0.160 SA
BRANCH  17  18
HETATM   18  C3  UNL     1     -11.688 -26.165  -2.589  1.00  0.00     0.074 C 
BRANCH  18  19
HETATM   19  C2  UNL     1     -13.219 -26.225  -2.559  1.00  0.00     0.006 C 
HETATM   20  C1  UNL     1     -13.687 -26.875  -1.274  1.00  0.00     0.006 C 
ENDBRANCH  18  19
ENDBRANCH  17  18
ENDBRANCH  16  17
ENDBRANCH  13  16
ENDBRANCH  11  12
ENDBRANCH   1  11
BRANCH  10  21
HETATM   21  N2  UNL     1      -9.613 -26.335   3.738  1.00  0.00    -0.390 N 
ATOM     22  H2  UNL     1     -10.556 -25.979   3.587  1.00  0.00     0.159 HD
BRANCH  21  23
HETATM   23  C17 UNL     1      -8.983 -25.787   4.822  1.00  0.00     0.081 C 
HETATM   24  C18 UNL     1      -7.510 -26.030   5.024  1.00  0.00     0.025 C 
HETATM   25  C19 UNL     1      -6.739 -25.127   4.066  1.00  0.00     0.006 C 
HETATM   26  C20 UNL     1      -6.699 -23.760   4.731  1.00  0.00    -0.019 C 
HETATM   27  C21 UNL     1      -5.571 -23.782   5.736  1.00  0.00     0.010 C 
HETATM   28  C22 UNL     1      -8.020 -23.554   5.442  1.00  0.00     0.006 C 
HETATM   29  C23 UNL     1      -9.151 -24.251   4.757  1.00  0.00     0.025 C 
ENDBRANCH  21  23
ENDBRANCH  10  21
BRANCH   7  30
HETATM   30  O2  UNL     1      -8.170 -30.748   2.484  1.00  0.00    -0.394 OA
ATOM     31  H2  UNL     1      -7.537 -30.983   3.152  1.00  0.00     0.210 HD
ENDBRANCH   7  30
TORSDOF 9
ENDMDL
MODEL 4
REMARK VINA RESULT: -7.393440066      3.804      6.619
REMARK  9 active torsions:
REMARK  status: ('A' for Active; 'I' for Inactive)
REMARK    1  A    between atoms: C2_2  and  C3_3 
REMARK    2  A    between atoms: C3_3  and  S1_4 
REMARK    3  A    between atoms: S1_4  and  C4_5 
REMARK    4  A    between atoms: C4_5  and  C5_6 
REMARK       I    between atoms: C5_6  and  N1_8 
REMARK    5  A    between atoms: N1_8  and  C6_10 
REMARK    6  A    between atoms: C6_10  and  C7_11 
REMARK    7  A    between atoms: C13_17  and  O2_18 
REMARK    8  A    between atoms: C16_22  and  N2_23 
REMARK    9  A    between atoms: N2_23  and  C17_25 
ROOT
HETATM    1  C7  UNL     1      -9.505 -26.782   0.826  1.00  0.00     0.031 C 
HETATM    2  C8  UNL     1     -10.870 -27.035   1.255  1.00  0.00     0.025 C 
HETATM    3  C9  UNL     1     -11.088 -28.499   1.658  1.00  0.00    -0.012 C 
HETATM    4  C10 UNL     1     -10.905 -29.330   0.394  1.00  0.00     0.012 C 
HETATM    5  C11 UNL     1      -9.469 -29.136  -0.061  1.00  0.00     0.017 C 
HETATM    6  C12 UNL     1      -9.324 -27.690  -0.435  1.00  0.00     0.028 C 
HETATM    7  C13 UNL     1      -8.462 -29.558   0.980  1.00  0.00     0.132 C 
HETATM    8  C14 UNL     1      -8.675 -28.648   2.222  1.00  0.00     0.061 C 
HETATM    9  C15 UNL     1     -10.079 -28.966   2.635  1.00  0.00     0.017 C 
HETATM   10  C16 UNL     1      -8.389 -27.271   1.772  1.00  0.00     0.003 C 
ENDROOT
BRANCH   1  11
HETATM   11  C6  UNL     1      -9.114 -25.437   0.353  1.00  0.00     0.079 C 
BRANCH  11  12
HETATM   12  N1  UNL     1      -9.914 -24.740  -0.568  1.00  0.00    -0.339 N 
HETATM   13  C5  UNL     1      -9.643 -24.408  -1.906  1.00  0.00     0.230 C 
HETATM   14  O1  UNL     1      -8.610 -24.705  -2.546  1.00  0.00    -0.272 OA
ATOM     15  H1  UNL     1     -10.819 -24.430  -0.214  1.00  0.00     0.167 HD
BRANCH  13  16
HETATM   16  C4  UNL     1     -10.658 -23.618  -2.706  1.00  0.00     0.176 C 
BRANCH  16  17
HETATM   17  S1  UNL     1     -11.467 -24.700  -3.884  1.00  0.00    -0.160 SA
BRANCH  17  18
HETATM   18  C3  UNL     1     -12.914 -25.477  -3.158  1.00  0.00     0.074 C 
BRANCH  18  19
HETATM   19  C2  UNL     1     -12.457 -26.677  -2.322  1.00  0.00     0.006 C 
HETATM   20  C1  UNL     1     -13.515 -27.029  -1.298  1.00  0.00     0.006 C 
ENDBRANCH  18  19
ENDBRANCH  17  18
ENDBRANCH  16  17
ENDBRANCH  13  16
ENDBRANCH  11  12
ENDBRANCH   1  11
BRANCH  10  21
HETATM   21  N2  UNL     1      -7.856 -26.312   2.594  1.00  0.00    -0.390 N 
ATOM     22  H2  UNL     1      -7.103 -25.777   2.163  1.00  0.00     0.159 HD
BRANCH  21  23
HETATM   23  C17 UNL     1      -8.136 -25.932   3.879  1.00  0.00     0.081 C 
HETATM   24  C18 UNL     1      -7.002 -25.689   4.842  1.00  0.00     0.025 C 
HETATM   25  C19 UNL     1      -6.389 -24.327   4.527  1.00  0.00     0.006 C 
HETATM   26  C20 UNL     1      -7.297 -23.304   5.191  1.00  0.00    -0.019 C 
HETATM   27  C21 UNL     1      -6.900 -23.229   6.647  1.00  0.00     0.010 C 
HETATM   28  C22 UNL     1      -8.722 -23.803   5.069  1.00  0.00     0.006 C 
HETATM   29  C23 UNL     1      -8.938 -24.612   3.832  1.00  0.00     0.025 C 
ENDBRANCH  21  23
ENDBRANCH  10  21
BRANCH   7  30
HETATM   30  O2  UNL     1      -8.580 -30.883   1.285  1.00  0.00    -0.394 OA
ATOM     31  H2  UNL     1      -9.446 -31.090   1.615  1.00  0.00     0.210 HD
ENDBRANCH   7  30
TORSDOF 9
ENDMDL
MODEL 5
REMARK VINA RESULT: -7.334421930      3.686      7.133
REMARK  9 active torsions:
REMARK  status: ('A' for Active; 'I' for Inactive)
REMARK    1  A    between atoms: C2_2  and  C3_3 
REMARK    2  A    between atoms: C3_3  and  S1_4 
REMARK    3  A    between atoms: S1_4  and  C4_5 
REMARK    4  A    between atoms: C4_5  and  C5_6 
REMARK       I    between atoms: C5_6  and  N1_8 
REMARK    5  A    between atoms: N1_8  and  C6_10 
REMARK    6  A    between atoms: C6_10  and  C7_11 
REMARK    7  A    between atoms: C13_17  and  O2_18 
REMARK    8  A    between atoms: C16_22  and  N2_23 
REMARK    9  A    between atoms: N2_23  and  C17_25 
ROOT
HETATM    1  C7  UNL     1      -9.531 -26.829   1.314  1.00  0.00     0.031 C 
HETATM    2  C8  UNL     1     -10.723 -27.392   0.703  1.00  0.00     0.025 C 
HETATM    3  C9  UNL     1     -10.804 -28.913   0.885  1.00  0.00    -0.012 C 
HETATM    4  C10 UNL     1      -9.636 -29.507   0.106  1.00  0.00     0.012 C 
HETATM    5  C11 UNL     1      -8.362 -28.984   0.747  1.00  0.00     0.017 C 
HETATM    6  C12 UNL     1      -8.349 -27.499   0.538  1.00  0.00     0.028 C 
HETATM    7  C13 UNL     1      -8.246 -29.354   2.206  1.00  0.00     0.132 C 
HETATM    8  C14 UNL     1      -9.438 -28.686   2.946  1.00  0.00     0.061 C 
HETATM    9  C15 UNL     1     -10.632 -29.318   2.298  1.00  0.00     0.017 C 
HETATM   10  C16 UNL     1      -9.259 -27.230   2.778  1.00  0.00     0.003 C 
ENDROOT
BRANCH   1  11
HETATM   11  C6  UNL     1      -9.253 -25.382   1.202  1.00  0.00     0.079 C 
BRANCH  11  12
HETATM   12  N1  UNL     1      -9.893 -24.602   0.224  1.00  0.00    -0.339 N 
HETATM   13  C5  UNL     1      -9.520 -24.370  -1.110  1.00  0.00     0.230 C 
HETATM   14  O1  UNL     1      -8.524 -24.853  -1.693  1.00  0.00    -0.272 OA
ATOM     15  H1  UNL     1     -10.750 -24.138   0.526  1.00  0.00     0.167 HD
BRANCH  13  16
HETATM   16  C4  UNL     1     -10.362 -23.460  -1.980  1.00  0.00     0.176 C 
BRANCH  16  17
HETATM   17  S1  UNL     1     -11.133 -24.420  -3.283  1.00  0.00    -0.160 SA
BRANCH  17  18
HETATM   18  C3  UNL     1     -10.381 -24.067  -4.875  1.00  0.00     0.074 C 
BRANCH  18  19
HETATM   19  C2  UNL     1      -9.152 -23.181  -4.649  1.00  0.00     0.006 C 
HETATM   20  C1  UNL     1      -9.078 -22.114  -5.722  1.00  0.00     0.006 C 
ENDBRANCH  18  19
ENDBRANCH  17  18
ENDBRANCH  16  17
ENDBRANCH  13  16
ENDBRANCH  11  12
ENDBRANCH   1  11
BRANCH  10  21
HETATM   21  N2  UNL     1      -9.654 -26.315   3.720  1.00  0.00    -0.390 N 
ATOM     22  H2  UNL     1     -10.605 -25.974   3.584  1.00  0.00     0.159 HD
BRANCH  21  23
HETATM   23  C17 UNL     1      -9.024 -25.771   4.806  1.00  0.00     0.081 C 
HETATM   24  C18 UNL     1      -7.552 -26.026   5.012  1.00  0.00     0.025 C 
HETATM   25  C19 UNL     1      -6.772 -25.129   4.055  1.00  0.00     0.006 C 
HETATM   26  C20 UNL     1      -6.724 -23.762   4.719  1.00  0.00    -0.019 C 
HETATM   27  C21 UNL     1      -5.598 -23.792   5.727  1.00  0.00     0.010 C 
HETATM   28  C22 UNL     1      -8.045 -23.546   5.427  1.00  0.00     0.006 C 
HETATM   29  C23 UNL     1      -9.179 -24.235   4.739  1.00  0.00     0.025 C 
ENDBRANCH  21  23
ENDBRANCH  10  21
BRANCH   7  30
HETATM   30  O2  UNL     1      -8.223 -30.707   2.381  1.00  0.00    -0.394 OA
ATOM     31  H2  UNL     1      -9.083 -31.046   2.598  1.00  0.00     0.210 HD
ENDBRANCH   7  30
TORSDOF 9
ENDMDL
