MODEL 1
REMARK VINA RESULT: -6.677824110      0.000      0.000
REMARK  10 active torsions:
REMARK  status: ('A' for Active; 'I' for Inactive)
REMARK    1  A    between atoms: C6_6  and  O1_8 
REMARK    2  A    between atoms: C8_10  and  C9_11 
REMARK       I    between atoms: C9_11  and  N1_13 
REMARK    3  A    between atoms: N1_13  and  C10_15 
REMARK    4  A    between atoms: C10_15  and  C11_16 
REMARK    5  A    between atoms: C13_18  and  O3_19 
REMARK    6  A    between atoms: C17_24  and  C18_25 
REMARK    7  A    between atoms: C18_25  and  C19_26 
REMARK    8  A    between atoms: C19_26  and  C20_27 
REMARK    9  A    between atoms: C20_27  and  C21_29 
REMARK   10  A    between atoms: C21_29  and  C22_30 
ROOT
HETATM    1  C1  UNL     1     -13.492 -25.630  -2.901  1.00  0.00     0.014 C 
HETATM    2  C2  UNL     1     -12.784 -26.529  -2.266  1.00  0.00    -0.084 C 
HETATM    3  C3  UNL     1     -13.313 -27.009  -0.927  1.00  0.00     0.034 C 
HETATM    4  C4  UNL     1     -12.173 -26.606   0.032  1.00  0.00     0.013 C 
HETATM    5  C5  UNL     1     -10.894 -27.271  -0.331  1.00  0.00     0.030 C 
HETATM    6  C6  UNL     1      -9.894 -26.991   0.766  1.00  0.00     0.073 C 
HETATM    7  C7  UNL     1     -10.630 -27.335   2.074  1.00  0.00     0.047 C 
HETATM    8  C8  UNL     1      -9.596 -25.533   0.826  1.00  0.00     0.141 C 
HETATM    9  C13 UNL     1      -9.216 -24.926  -0.502  1.00  0.00     0.135 C 
HETATM   10  C14 UNL     1     -10.142 -25.287  -1.620  1.00  0.00     0.042 C 
HETATM   11  C15 UNL     1     -10.397 -26.752  -1.695  1.00  0.00    -0.028 C 
HETATM   12  C16 UNL     1      -9.151 -27.505  -1.988  1.00  0.00     0.016 C 
HETATM   13  C17 UNL     1     -11.495 -27.124  -2.657  1.00  0.00     0.023 C 
ENDROOT
BRANCH  13  14
HETATM   14  C18 UNL     1     -11.231 -27.001  -4.088  1.00  0.00     0.017 C 
BRANCH  14  15
HETATM   15  C19 UNL     1     -11.586 -28.283  -4.805  1.00  0.00     0.079 C 
BRANCH  15  16
HETATM   16  C20 UNL     1     -12.913 -28.230  -5.435  1.00  0.00     0.127 C 
HETATM   17  O4  UNL     1     -13.211 -27.307  -6.150  1.00  0.00    -0.298 OA
BRANCH  16  18
HETATM   18  C21 UNL     1     -13.889 -29.313  -5.195  1.00  0.00     0.082 C 
BRANCH  18  19
HETATM   19  C22 UNL     1     -14.086 -29.587  -3.716  1.00  0.00    -0.016 C 
HETATM   20  C23 UNL     1     -14.084 -31.099  -3.553  1.00  0.00     0.010 C 
HETATM   21  C24 UNL     1     -15.430 -29.063  -3.226  1.00  0.00     0.010 C 
ENDBRANCH  18  19
ENDBRANCH  16  18
ENDBRANCH  15  16
ENDBRANCH  14  15
ENDBRANCH  13  14
BRANCH   6  22
HETATM   22  O1  UNL     1      -8.807 -27.829   0.736  1.00  0.00    -0.389 OA
ATOM     23  H1  UNL     1      -8.250 -27.749   1.502  1.00  0.00     0.210 HD
ENDBRANCH   6  22
BRANCH   9  24
HETATM   24  O3  UNL     1      -9.321 -23.525  -0.330  1.00  0.00    -0.395 OA
ATOM     25  H3  UNL     1      -8.454 -23.230  -0.079  1.00  0.00     0.210 HD
ENDBRANCH   9  24
BRANCH   8  26
HETATM   26  C9  UNL     1      -8.532 -25.220   1.787  1.00  0.00     0.227 C 
HETATM   27  O2  UNL     1      -7.329 -25.411   1.462  1.00  0.00    -0.273 OA
HETATM   28  N1  UNL     1      -8.754 -24.707   3.086  1.00  0.00    -0.361 N 
ATOM     29  H1  UNL     1      -9.718 -24.547   3.375  1.00  0.00     0.162 HD
BRANCH  28  30
HETATM   30  C10 UNL     1      -7.710 -24.395   4.027  1.00  0.00     0.122 C 
BRANCH  30  31
HETATM   31  C11 UNL     1      -8.184 -23.712   5.277  1.00  0.00     0.015 C 
HETATM   32  C12 UNL     1      -6.919 -23.315   6.054  1.00  0.00     0.006 C 
ENDBRANCH  30  31
ENDBRANCH  28  30
ENDBRANCH   8  26
TORSDOF 10
ENDMDL
MODEL 2
REMARK VINA RESULT: -6.654352792      0.992      1.169
REMARK  10 active torsions:
REMARK  status: ('A' for Active; 'I' for Inactive)
REMARK    1  A    between atoms: C6_6  and  O1_8 
REMARK    2  A    between atoms: C8_10  and  C9_11 
REMARK       I    between atoms: C9_11  and  N1_13 
REMARK    3  A    between atoms: N1_13  and  C10_15 
REMARK    4  A    between atoms: C10_15  and  C11_16 
REMARK    5  A    between atoms: C13_18  and  O3_19 
REMARK    6  A    between atoms: C17_24  and  C18_25 
REMARK    7  A    between atoms: C18_25  and  C19_26 
REMARK    8  A    between atoms: C19_26  and  C20_27 
REMARK    9  A    between atoms: C20_27  and  C21_29 
REMARK   10  A    between atoms: C21_29  and  C22_30 
ROOT
HETATM    1  C1  UNL     1     -13.505 -25.924  -2.882  1.00  0.00     0.014 C 
HETATM    2  C2  UNL     1     -12.882 -26.787  -2.120  1.00  0.00    -0.084 C 
HETATM    3  C3  UNL     1     -13.442 -27.013  -0.728  1.00  0.00     0.034 C 
HETATM    4  C4  UNL     1     -12.259 -26.588   0.167  1.00  0.00     0.013 C 
HETATM    5  C5  UNL     1     -11.055 -27.421  -0.089  1.00  0.00     0.030 C 
HETATM    6  C6  UNL     1     -10.021 -27.083   0.960  1.00  0.00     0.073 C 
HETATM    7  C7  UNL     1     -10.774 -27.160   2.301  1.00  0.00     0.047 C 
HETATM    8  C8  UNL     1      -9.581 -25.669   0.809  1.00  0.00     0.141 C 
HETATM    9  C13 UNL     1      -9.157 -25.302  -0.593  1.00  0.00     0.135 C 
HETATM   10  C14 UNL     1     -10.125 -25.729  -1.650  1.00  0.00     0.042 C 
HETATM   11  C15 UNL     1     -10.522 -27.157  -1.511  1.00  0.00    -0.028 C 
HETATM   12  C16 UNL     1      -9.359 -28.064  -1.686  1.00  0.00     0.016 C 
HETATM   13  C17 UNL     1     -11.661 -27.556  -2.414  1.00  0.00     0.023 C 
ENDROOT
BRANCH  13  14
HETATM   14  C18 UNL     1     -11.401 -27.669  -3.847  1.00  0.00     0.017 C 
BRANCH  14  15
HETATM   15  C19 UNL     1     -11.528 -29.106  -4.297  1.00  0.00     0.079 C 
BRANCH  15  16
HETATM   16  C20 UNL     1     -12.896 -29.625  -4.152  1.00  0.00     0.127 C 
HETATM   17  O4  UNL     1     -13.812 -29.096  -4.730  1.00  0.00    -0.298 OA
BRANCH  16  18
HETATM   18  C21 UNL     1     -13.154 -30.802  -3.297  1.00  0.00     0.082 C 
BRANCH  18  19
HETATM   19  C22 UNL     1     -13.805 -30.420  -1.982  1.00  0.00    -0.016 C 
HETATM   20  C23 UNL     1     -12.782 -30.706  -0.894  1.00  0.00     0.010 C 
HETATM   21  C24 UNL     1     -15.039 -31.270  -1.703  1.00  0.00     0.010 C 
ENDBRANCH  18  19
ENDBRANCH  16  18
ENDBRANCH  15  16
ENDBRANCH  14  15
ENDBRANCH  13  14
BRANCH   6  22
HETATM   22  O1  UNL     1      -9.021 -28.020   1.058  1.00  0.00    -0.389 OA
ATOM     23  H1  UNL     1      -8.472 -27.903   1.824  1.00  0.00     0.210 HD
ENDBRANCH   6  22
BRANCH   9  24
HETATM   24  O3  UNL     1      -9.123 -23.887  -0.627  1.00  0.00    -0.395 OA
ATOM     25  H3  UNL     1      -8.558 -23.625   0.090  1.00  0.00     0.210 HD
ENDBRANCH   9  24
BRANCH   8  26
HETATM   26  C9  UNL     1      -8.482 -25.325   1.718  1.00  0.00     0.227 C 
HETATM   27  O2  UNL     1      -7.294 -25.561   1.370  1.00  0.00    -0.273 OA
HETATM   28  N1  UNL     1      -8.654 -24.734   2.991  1.00  0.00    -0.361 N 
ATOM     29  H1  UNL     1      -9.605 -24.537   3.299  1.00  0.00     0.162 HD
BRANCH  28  30
HETATM   30  C10 UNL     1      -7.576 -24.392   3.881  1.00  0.00     0.122 C 
BRANCH  30  31
HETATM   31  C11 UNL     1      -8.015 -23.915   5.235  1.00  0.00     0.015 C 
HETATM   32  C12 UNL     1      -6.734 -23.528   5.990  1.00  0.00     0.006 C 
ENDBRANCH  30  31
ENDBRANCH  28  30
ENDBRANCH   8  26
TORSDOF 10
ENDMDL
MODEL 3
REMARK VINA RESULT: -6.462803263      2.220      4.210
REMARK  10 active torsions:
REMARK  status: ('A' for Active; 'I' for Inactive)
REMARK    1  A    between atoms: C6_6  and  O1_8 
REMARK    2  A    between atoms: C8_10  and  C9_11 
REMARK       I    between atoms: C9_11  and  N1_13 
REMARK    3  A    between atoms: N1_13  and  C10_15 
REMARK    4  A    between atoms: C10_15  and  C11_16 
REMARK    5  A    between atoms: C13_18  and  O3_19 
REMARK    6  A    between atoms: C17_24  and  C18_25 
REMARK    7  A    between atoms: C18_25  and  C19_26 
REMARK    8  A    between atoms: C19_26  and  C20_27 
REMARK    9  A    between atoms: C20_27  and  C21_29 
REMARK   10  A    between atoms: C21_29  and  C22_30 
ROOT
HETATM    1  C1  UNL     1      -9.398 -31.072   0.475  1.00  0.00     0.014 C 
HETATM    2  C2  UNL     1      -9.373 -29.805   0.150  1.00  0.00    -0.084 C 
HETATM    3  C3  UNL     1      -8.010 -29.170  -0.060  1.00  0.00     0.034 C 
HETATM    4  C4  UNL     1      -8.002 -28.064   1.017  1.00  0.00     0.013 C 
HETATM    5  C5  UNL     1      -9.107 -27.091   0.808  1.00  0.00     0.030 C 
HETATM    6  C6  UNL     1      -8.904 -25.941   1.767  1.00  0.00     0.073 C 
HETATM    7  C7  UNL     1      -7.431 -25.527   1.588  1.00  0.00     0.047 C 
HETATM    8  C8  UNL     1      -9.035 -26.417   3.172  1.00  0.00     0.141 C 
HETATM    9  C13 UNL     1     -10.293 -27.207   3.439  1.00  0.00     0.135 C 
HETATM   10  C14 UNL     1     -10.560 -28.280   2.432  1.00  0.00     0.042 C 
HETATM   11  C15 UNL     1     -10.467 -27.780   1.033  1.00  0.00    -0.028 C 
HETATM   12  C16 UNL     1     -11.498 -26.747   0.756  1.00  0.00     0.016 C 
HETATM   13  C17 UNL     1     -10.505 -28.875  -0.002  1.00  0.00     0.023 C 
ENDROOT
BRANCH  13  14
HETATM   14  C18 UNL     1     -11.771 -29.566  -0.232  1.00  0.00     0.017 C 
BRANCH  14  15
HETATM   15  C19 UNL     1     -12.053 -29.677  -1.712  1.00  0.00     0.079 C 
BRANCH  15  16
HETATM   16  C20 UNL     1     -12.574 -28.428  -2.285  1.00  0.00     0.127 C 
HETATM   17  O4  UNL     1     -13.634 -27.986  -1.918  1.00  0.00    -0.298 OA
BRANCH  16  18
HETATM   18  C21 UNL     1     -11.799 -27.706  -3.315  1.00  0.00     0.082 C 
BRANCH  18  19
HETATM   19  C22 UNL     1     -10.967 -26.585  -2.722  1.00  0.00    -0.016 C 
HETATM   20  C23 UNL     1     -11.356 -25.317  -3.466  1.00  0.00     0.010 C 
HETATM   21  C24 UNL     1      -9.478 -26.820  -2.940  1.00  0.00     0.010 C 
ENDBRANCH  18  19
ENDBRANCH  16  18
ENDBRANCH  15  16
ENDBRANCH  14  15
ENDBRANCH  13  14
BRANCH   6  22
HETATM   22  O1  UNL     1      -9.632 -24.824   1.436  1.00  0.00    -0.389 OA
ATOM     23  H1  UNL     1      -9.546 -24.120   2.068  1.00  0.00     0.210 HD
ENDBRANCH   6  22
BRANCH   9  24
HETATM   24  O3  UNL     1     -10.081 -27.861   4.677  1.00  0.00    -0.395 OA
ATOM     25  H3  UNL     1      -9.190 -27.651   4.931  1.00  0.00     0.210 HD
ENDBRANCH   9  24
BRANCH   8  26
HETATM   26  C9  UNL     1      -8.978 -25.316   4.141  1.00  0.00     0.227 C 
HETATM   27  O2  UNL     1     -10.007 -24.618   4.347  1.00  0.00    -0.273 OA
HETATM   28  N1  UNL     1      -7.828 -24.967   4.885  1.00  0.00    -0.361 N 
ATOM     29  H1  UNL     1      -6.980 -25.513   4.735  1.00  0.00     0.162 HD
BRANCH  28  30
HETATM   30  C10 UNL     1      -7.772 -23.891   5.840  1.00  0.00     0.122 C 
BRANCH  30  31
HETATM   31  C11 UNL     1      -6.422 -23.249   5.976  1.00  0.00     0.015 C 
HETATM   32  C12 UNL     1      -5.462 -24.081   5.112  1.00  0.00     0.006 C 
ENDBRANCH  30  31
ENDBRANCH  28  30
ENDBRANCH   8  26
TORSDOF 10
ENDMDL
MODEL 4
REMARK VINA RESULT: -6.430335351      2.165      3.420
REMARK  10 active torsions:
REMARK  status: ('A' for Active; 'I' for Inactive)
REMARK    1  A    between atoms: C6_6  and  O1_8 
REMARK    2  A    between atoms: C8_10  and  C9_11 
REMARK       I    between atoms: C9_11  and  N1_13 
REMARK    3  A    between atoms: N1_13  and  C10_15 
REMARK    4  A    between atoms: C10_15  and  C11_16 
REMARK    5  A    between atoms: C13_18  and  O3_19 
REMARK    6  A    between atoms: C17_24  and  C18_25 
REMARK    7  A    between atoms: C18_25  and  C19_26 
REMARK    8  A    between atoms: C19_26  and  C20_27 
REMARK    9  A    between atoms: C20_27  and  C21_29 
REMARK   10  A    between atoms: C21_29  and  C22_30 
ROOT
HETATM    1  C1  UNL     1     -13.303 -28.188  -1.049  1.00  0.00     0.014 C 
HETATM    2  C2  UNL     1     -11.995 -28.225  -1.088  1.00  0.00    -0.084 C 
HETATM    3  C3  UNL     1     -11.328 -29.535  -0.712  1.00  0.00     0.034 C 
HETATM    4  C4  UNL     1     -10.475 -29.123   0.506  1.00  0.00     0.013 C 
HETATM    5  C5  UNL     1      -9.482 -28.076   0.147  1.00  0.00     0.030 C 
HETATM    6  C6  UNL     1      -8.560 -27.883   1.329  1.00  0.00     0.073 C 
HETATM    7  C7  UNL     1      -8.115 -29.303   1.725  1.00  0.00     0.047 C 
HETATM    8  C8  UNL     1      -9.322 -27.345   2.490  1.00  0.00     0.141 C 
HETATM    9  C13 UNL     1     -10.153 -26.127   2.170  1.00  0.00     0.135 C 
HETATM   10  C14 UNL     1     -10.990 -26.270   0.939  1.00  0.00     0.042 C 
HETATM   11  C15 UNL     1     -10.205 -26.767  -0.225  1.00  0.00    -0.028 C 
HETATM   12  C16 UNL     1      -9.139 -25.808  -0.610  1.00  0.00     0.016 C 
HETATM   13  C17 UNL     1     -11.057 -27.138  -1.412  1.00  0.00     0.023 C 
ENDROOT
BRANCH  13  14
HETATM   14  C18 UNL     1     -11.685 -26.062  -2.174  1.00  0.00     0.017 C 
BRANCH  14  15
HETATM   15  C19 UNL     1     -11.479 -26.272  -3.656  1.00  0.00     0.079 C 
BRANCH  15  16
HETATM   16  C20 UNL     1     -12.535 -25.651  -4.469  1.00  0.00     0.127 C 
HETATM   17  O4  UNL     1     -13.166 -26.313  -5.254  1.00  0.00    -0.298 OA
BRANCH  16  18
HETATM   18  C21 UNL     1     -12.828 -24.210  -4.325  1.00  0.00     0.082 C 
BRANCH  18  19
HETATM   19  C22 UNL     1     -13.995 -23.776  -5.192  1.00  0.00    -0.016 C 
HETATM   20  C23 UNL     1     -13.457 -22.715  -6.140  1.00  0.00     0.010 C 
HETATM   21  C24 UNL     1     -15.104 -23.145  -4.359  1.00  0.00     0.010 C 
ENDBRANCH  18  19
ENDBRANCH  16  18
ENDBRANCH  15  16
ENDBRANCH  14  15
ENDBRANCH  13  14
BRANCH   6  22
HETATM   22  O1  UNL     1      -7.400 -27.221   1.009  1.00  0.00    -0.389 OA
ATOM     23  H1  UNL     1      -7.376 -26.327   1.330  1.00  0.00     0.210 HD
ENDBRANCH   6  22
BRANCH   9  24
HETATM   24  O3  UNL     1     -11.054 -25.980   3.253  1.00  0.00    -0.395 OA
ATOM     25  H3  UNL     1     -11.888 -26.308   2.941  1.00  0.00     0.210 HD
ENDBRANCH   9  24
BRANCH   8  26
HETATM   26  C9  UNL     1      -8.451 -27.014   3.624  1.00  0.00     0.227 C 
HETATM   27  O2  UNL     1      -8.572 -27.653   4.704  1.00  0.00    -0.273 OA
HETATM   28  N1  UNL     1      -7.460 -26.006   3.603  1.00  0.00    -0.361 N 
ATOM     29  H1  UNL     1      -7.345 -25.471   2.743  1.00  0.00     0.162 HD
BRANCH  28  30
HETATM   30  C10 UNL     1      -6.603 -25.684   4.713  1.00  0.00     0.122 C 
BRANCH  30  31
HETATM   31  C11 UNL     1      -7.022 -24.471   5.491  1.00  0.00     0.015 C 
HETATM   32  C12 UNL     1      -5.765 -23.600   5.638  1.00  0.00     0.006 C 
ENDBRANCH  30  31
ENDBRANCH  28  30
ENDBRANCH   8  26
TORSDOF 10
ENDMDL
MODEL 5
REMARK VINA RESULT: -6.387264862      2.501      4.122
REMARK  10 active torsions:
REMARK  status: ('A' for Active; 'I' for Inactive)
REMARK    1  A    between atoms: C6_6  and  O1_8 
REMARK    2  A    between atoms: C8_10  and  C9_11 
REMARK       I    between atoms: C9_11  and  N1_13 
REMARK    3  A    between atoms: N1_13  and  C10_15 
REMARK    4  A    between atoms: C10_15  and  C11_16 
REMARK    5  A    between atoms: C13_18  and  O3_19 
REMARK    6  A    between atoms: C17_24  and  C18_25 
REMARK    7  A    between atoms: C18_25  and  C19_26 
REMARK    8  A    between atoms: C19_26  and  C20_27 
REMARK    9  A    between atoms: C20_27  and  C21_29 
REMARK   10  A    between atoms: C21_29  and  C22_30 
ROOT
HETATM    1  C1  UNL     1      -9.187 -31.369   0.570  1.00  0.00     0.014 C 
HETATM    2  C2  UNL     1      -9.248 -30.117   0.194  1.00  0.00    -0.084 C 
HETATM    3  C3  UNL     1      -7.932 -29.406  -0.065  1.00  0.00     0.034 C 
HETATM    4  C4  UNL     1      -7.978 -28.258   0.966  1.00  0.00     0.013 C 
HETATM    5  C5  UNL     1      -9.146 -27.367   0.737  1.00  0.00     0.030 C 
HETATM    6  C6  UNL     1      -9.002 -26.168   1.644  1.00  0.00     0.073 C 
HETATM    7  C7  UNL     1      -7.562 -25.669   1.423  1.00  0.00     0.047 C 
HETATM    8  C8  UNL     1      -9.083 -26.591   3.069  1.00  0.00     0.141 C 
HETATM    9  C13 UNL     1     -10.283 -27.448   3.391  1.00  0.00     0.135 C 
HETATM   10  C14 UNL     1     -10.496 -28.576   2.433  1.00  0.00     0.042 C 
HETATM   11  C15 UNL     1     -10.456 -28.130   1.013  1.00  0.00    -0.028 C 
HETATM   12  C16 UNL     1     -11.555 -27.177   0.713  1.00  0.00     0.016 C 
HETATM   13  C17 UNL     1     -10.439 -29.268   0.024  1.00  0.00     0.023 C 
ENDROOT
BRANCH  13  14
HETATM   14  C18 UNL     1     -11.662 -30.046  -0.155  1.00  0.00     0.017 C 
BRANCH  14  15
HETATM   15  C19 UNL     1     -12.142 -29.956  -1.585  1.00  0.00     0.079 C 
BRANCH  15  16
HETATM   16  C20 UNL     1     -13.608 -29.982  -1.693  1.00  0.00     0.127 C 
HETATM   17  O4  UNL     1     -14.239 -30.873  -1.183  1.00  0.00    -0.298 OA
BRANCH  16  18
HETATM   18  C21 UNL     1     -14.315 -28.912  -2.426  1.00  0.00     0.082 C 
BRANCH  18  19
HETATM   19  C22 UNL     1     -14.363 -27.616  -1.640  1.00  0.00    -0.016 C 
HETATM   20  C23 UNL     1     -15.812 -27.414  -1.226  1.00  0.00     0.010 C 
HETATM   21  C24 UNL     1     -13.949 -26.427  -2.498  1.00  0.00     0.010 C 
ENDBRANCH  18  19
ENDBRANCH  16  18
ENDBRANCH  15  16
ENDBRANCH  14  15
ENDBRANCH  13  14
BRANCH   6  22
HETATM   22  O1  UNL     1      -9.805 -25.113   1.281  1.00  0.00    -0.389 OA
ATOM     23  H1  UNL     1     -10.239 -25.242   0.446  1.00  0.00     0.210 HD
ENDBRANCH   6  22
BRANCH   9  24
HETATM   24  O3  UNL     1     -10.011 -28.035   4.650  1.00  0.00    -0.395 OA
ATOM     25  H3  UNL     1     -10.780 -28.548   4.867  1.00  0.00     0.210 HD
ENDBRANCH   9  24
BRANCH   8  26
HETATM   26  C9  UNL     1      -9.081 -25.450   3.992  1.00  0.00     0.227 C 
HETATM   27  O2  UNL     1     -10.170 -24.882   4.276  1.00  0.00    -0.273 OA
HETATM   28  N1  UNL     1      -7.923 -24.922   4.607  1.00  0.00    -0.361 N 
ATOM     29  H1  UNL     1      -7.028 -25.360   4.392  1.00  0.00     0.162 HD
BRANCH  28  30
HETATM   30  C10 UNL     1      -7.921 -23.806   5.516  1.00  0.00     0.122 C 
BRANCH  30  31
HETATM   31  C11 UNL     1      -6.561 -23.242   5.807  1.00  0.00     0.015 C 
HETATM   32  C12 UNL     1      -5.556 -24.148   5.079  1.00  0.00     0.006 C 
ENDBRANCH  30  31
ENDBRANCH  28  30
ENDBRANCH   8  26
TORSDOF 10
ENDMDL
