MODEL 1
REMARK VINA RESULT: -10.816475774      0.000      0.000
REMARK  9 active torsions:
REMARK  status: ('A' for Active; 'I' for Inactive)
REMARK    1  A    between atoms: C2_2  and  C3_3 
REMARK    2  A    between atoms: C7_7  and  C8_8 
REMARK    3  A    between atoms: C8_8  and  C9_9 
REMARK    4  A    between atoms: C9_9  and  C10_10 
REMARK    5  A    between atoms: C10_10  and  C11_12 
REMARK    6  A    between atoms: C11_12  and  C12_13 
REMARK    7  A    between atoms: C12_13  and  O2_14 
REMARK    8  A    between atoms: C12_13  and  C13_16 
REMARK    9  A    between atoms: C13_16  and  C14_17 
ROOT
HETATM    1  C12 UNL     1      -7.565 -23.363   4.896  1.00  0.00     0.126 C 
ENDROOT
BRANCH   1   2
HETATM    2  C11 UNL     1      -6.776 -23.316   6.131  1.00  0.00     0.110 C 
BRANCH   2   3
HETATM    3  C10 UNL     1      -5.294 -23.187   5.970  1.00  0.00     0.129 C 
HETATM    4  O1  UNL     1      -4.669 -23.831   5.152  1.00  0.00    -0.298 OA
BRANCH   3   5
HETATM    5  C9  UNL     1      -4.532 -22.257   6.817  1.00  0.00     0.081 C 
BRANCH   5   6
HETATM    6  C8  UNL     1      -3.367 -22.781   7.526  1.00  0.00     0.039 C 
BRANCH   6   7
HETATM    7  C7  UNL     1      -2.036 -22.235   7.270  1.00  0.00     0.122 C 
HETATM    8  C6  UNL     1      -1.726 -20.956   7.954  1.00  0.00     0.032 C 
HETATM    9  C5  UNL     1      -0.322 -21.076   8.632  1.00  0.00     0.005 C 
HETATM   10  C4  UNL     1       0.666 -21.602   7.646  1.00  0.00     0.032 C 
HETATM   11  C3  UNL     1       0.112 -22.817   6.958  1.00  0.00     0.121 C 
HETATM   12  O4  UNL     1      -1.045 -23.217   7.603  1.00  0.00    -0.381 OA
BRANCH  11  13
HETATM   13  C2  UNL     1       1.126 -23.960   7.031  1.00  0.00     0.027 C 
HETATM   14  C1  UNL     1       0.488 -25.152   6.361  1.00  0.00     0.007 C 
ENDBRANCH  11  13
ENDBRANCH   6   7
ENDBRANCH   5   6
ENDBRANCH   3   5
ENDBRANCH   2   3
ENDBRANCH   1   2
BRANCH   1  15
HETATM   15  O2  UNL     1      -7.956 -22.022   4.619  1.00  0.00    -0.395 OA
ATOM     16  H2  UNL     1      -8.435 -22.047   3.798  1.00  0.00     0.210 HD
ENDBRANCH   1  15
BRANCH   1  17
HETATM   17  C13 UNL     1      -8.691 -24.285   4.731  1.00  0.00     0.043 C 
BRANCH  17  18
HETATM   18  C14 UNL     1      -8.474 -25.660   4.252  1.00  0.00    -0.021 C 
HETATM   19  C15 UNL     1      -7.185 -26.332   4.603  1.00  0.00     0.017 C 
HETATM   20  C16 UNL     1      -9.564 -26.622   4.795  1.00  0.00     0.012 C 
HETATM   21  C17 UNL     1      -9.778 -27.614   3.639  1.00  0.00     0.010 C 
HETATM   22  C18 UNL     1      -9.888 -26.621   2.515  1.00  0.00     0.036 C 
HETATM   23  C19 UNL     1      -8.656 -25.766   2.773  1.00  0.00     0.101 C 
HETATM   24  C21 UNL     1      -9.774 -27.175   1.144  1.00  0.00     0.033 C 
HETATM   25  N1  UNL     1      -8.882 -24.553   2.060  1.00  0.00    -0.337 N 
HETATM   26  C20 UNL     1      -9.128 -24.767   0.647  1.00  0.00     0.317 C 
ATOM     27  H1  UNL     1      -8.872 -23.631   2.498  1.00  0.00     0.164 HD
HETATM   28  O3  UNL     1      -9.213 -23.837  -0.168  1.00  0.00    -0.247 OA
HETATM   29  N2  UNL     1      -9.266 -26.136   0.268  1.00  0.00    -0.334 N 
ATOM     30  H2  UNL     1      -8.989 -26.400  -0.677  1.00  0.00     0.165 HD
HETATM   31  C22 UNL     1     -11.184 -27.588   0.693  1.00  0.00     0.038 C 
HETATM   32  C23 UNL     1      -8.940 -28.432   1.084  1.00  0.00     0.038 C 
ENDBRANCH  17  18
ENDBRANCH   1  17
TORSDOF 9
ENDMDL
MODEL 2
REMARK VINA RESULT: -10.315988113      0.707      1.447
REMARK  9 active torsions:
REMARK  status: ('A' for Active; 'I' for Inactive)
REMARK    1  A    between atoms: C2_2  and  C3_3 
REMARK    2  A    between atoms: C7_7  and  C8_8 
REMARK    3  A    between atoms: C8_8  and  C9_9 
REMARK    4  A    between atoms: C9_9  and  C10_10 
REMARK    5  A    between atoms: C10_10  and  C11_12 
REMARK    6  A    between atoms: C11_12  and  C12_13 
REMARK    7  A    between atoms: C12_13  and  O2_14 
REMARK    8  A    between atoms: C12_13  and  C13_16 
REMARK    9  A    between atoms: C13_16  and  C14_17 
ROOT
HETATM    1  C12 UNL     1      -7.643 -23.352   4.864  1.00  0.00     0.126 C 
ENDROOT
BRANCH   1   2
HETATM    2  C11 UNL     1      -6.888 -23.266   6.118  1.00  0.00     0.110 C 
BRANCH   2   3
HETATM    3  C10 UNL     1      -5.402 -23.149   5.996  1.00  0.00     0.129 C 
HETATM    4  O1  UNL     1      -4.771 -23.732   5.137  1.00  0.00    -0.298 OA
BRANCH   3   5
HETATM    5  C9  UNL     1      -4.641 -22.307   6.932  1.00  0.00     0.081 C 
BRANCH   5   6
HETATM    6  C8  UNL     1      -3.303 -21.881   6.531  1.00  0.00     0.039 C 
BRANCH   6   7
HETATM    7  C7  UNL     1      -2.120 -22.532   7.090  1.00  0.00     0.122 C 
HETATM    8  C6  UNL     1      -1.741 -23.820   6.460  1.00  0.00     0.032 C 
HETATM    9  C5  UNL     1      -0.208 -23.799   6.155  1.00  0.00     0.005 C 
HETATM   10  C4  UNL     1       0.539 -23.366   7.373  1.00  0.00     0.032 C 
HETATM   11  C3  UNL     1      -0.082 -22.123   7.944  1.00  0.00     0.121 C 
HETATM   12  O4  UNL     1      -1.010 -21.625   7.046  1.00  0.00    -0.381 OA
BRANCH  11  13
HETATM   13  C2  UNL     1       0.997 -21.060   8.164  1.00  0.00     0.027 C 
HETATM   14  C1  UNL     1       2.196 -21.482   7.352  1.00  0.00     0.007 C 
ENDBRANCH  11  13
ENDBRANCH   6   7
ENDBRANCH   5   6
ENDBRANCH   3   5
ENDBRANCH   2   3
ENDBRANCH   1   2
BRANCH   1  15
HETATM   15  O2  UNL     1      -8.032 -22.020   4.539  1.00  0.00    -0.395 OA
ATOM     16  H2  UNL     1      -8.121 -21.991   3.593  1.00  0.00     0.210 HD
ENDBRANCH   1  15
BRANCH   1  17
HETATM   17  C13 UNL     1      -8.759 -24.284   4.694  1.00  0.00     0.043 C 
BRANCH  17  18
HETATM   18  C14 UNL     1      -8.526 -25.658   4.220  1.00  0.00    -0.021 C 
HETATM   19  C15 UNL     1      -7.237 -26.320   4.586  1.00  0.00     0.017 C 
HETATM   20  C16 UNL     1      -9.615 -26.627   4.752  1.00  0.00     0.012 C 
HETATM   21  C17 UNL     1      -9.809 -27.623   3.596  1.00  0.00     0.010 C 
HETATM   22  C18 UNL     1      -9.913 -26.633   2.468  1.00  0.00     0.036 C 
HETATM   23  C19 UNL     1      -8.690 -25.768   2.739  1.00  0.00     0.101 C 
HETATM   24  C21 UNL     1      -9.779 -27.188   1.100  1.00  0.00     0.033 C 
HETATM   25  N1  UNL     1      -8.917 -24.558   2.021  1.00  0.00    -0.337 N 
HETATM   26  C20 UNL     1      -9.145 -24.776   0.605  1.00  0.00     0.317 C 
ATOM     27  H1  UNL     1      -8.919 -23.635   2.457  1.00  0.00     0.164 HD
HETATM   28  O3  UNL     1      -9.228 -23.849  -0.212  1.00  0.00    -0.247 OA
HETATM   29  N2  UNL     1      -9.269 -26.147   0.228  1.00  0.00    -0.334 N 
ATOM     30  H2  UNL     1      -8.979 -26.411  -0.714  1.00  0.00     0.165 HD
HETATM   31  C22 UNL     1     -11.181 -27.613   0.633  1.00  0.00     0.038 C 
HETATM   32  C23 UNL     1      -8.935 -28.440   1.051  1.00  0.00     0.038 C 
ENDBRANCH  17  18
ENDBRANCH   1  17
TORSDOF 9
ENDMDL
MODEL 3
REMARK VINA RESULT: -9.699548534      2.685      3.847
REMARK  9 active torsions:
REMARK  status: ('A' for Active; 'I' for Inactive)
REMARK    1  A    between atoms: C2_2  and  C3_3 
REMARK    2  A    between atoms: C7_7  and  C8_8 
REMARK    3  A    between atoms: C8_8  and  C9_9 
REMARK    4  A    between atoms: C9_9  and  C10_10 
REMARK    5  A    between atoms: C10_10  and  C11_12 
REMARK    6  A    between atoms: C11_12  and  C12_13 
REMARK    7  A    between atoms: C12_13  and  O2_14 
REMARK    8  A    between atoms: C12_13  and  C13_16 
REMARK    9  A    between atoms: C13_16  and  C14_17 
ROOT
HETATM    1  C12 UNL     1      -9.179 -25.311   3.925  1.00  0.00     0.126 C 
ENDROOT
BRANCH   1   2
HETATM    2  C11 UNL     1      -8.173 -25.168   4.983  1.00  0.00     0.110 C 
BRANCH   2   3
HETATM    3  C10 UNL     1      -6.812 -24.723   4.551  1.00  0.00     0.129 C 
HETATM    4  O1  UNL     1      -6.297 -25.106   3.519  1.00  0.00    -0.298 OA
BRANCH   3   5
HETATM    5  C9  UNL     1      -6.035 -23.789   5.381  1.00  0.00     0.081 C 
BRANCH   5   6
HETATM    6  C8  UNL     1      -4.578 -23.868   5.315  1.00  0.00     0.039 C 
BRANCH   6   7
HETATM    7  C7  UNL     1      -3.751 -22.847   5.955  1.00  0.00     0.122 C 
HETATM    8  C6  UNL     1      -4.441 -22.000   6.956  1.00  0.00     0.032 C 
HETATM    9  C5  UNL     1      -3.560 -21.926   8.246  1.00  0.00     0.005 C 
HETATM   10  C4  UNL     1      -2.158 -21.574   7.874  1.00  0.00     0.032 C 
HETATM   11  C3  UNL     1      -1.687 -22.452   6.750  1.00  0.00     0.121 C 
HETATM   12  O4  UNL     1      -2.604 -23.469   6.552  1.00  0.00    -0.381 OA
BRANCH  11  13
HETATM   13  C2  UNL     1      -0.340 -23.080   7.113  1.00  0.00     0.027 C 
HETATM   14  C1  UNL     1       0.474 -22.005   7.791  1.00  0.00     0.007 C 
ENDBRANCH  11  13
ENDBRANCH   6   7
ENDBRANCH   5   6
ENDBRANCH   3   5
ENDBRANCH   2   3
ENDBRANCH   1   2
BRANCH   1  15
HETATM   15  O2  UNL     1     -10.038 -24.180   4.034  1.00  0.00    -0.395 OA
ATOM     16  H2  UNL     1     -10.074 -23.959   4.958  1.00  0.00     0.210 HD
ENDBRANCH   1  15
BRANCH   1  17
HETATM   17  C13 UNL     1      -9.950 -26.544   3.752  1.00  0.00     0.043 C 
BRANCH  17  18
HETATM   18  C14 UNL     1      -9.918 -27.279   2.477  1.00  0.00    -0.021 C 
HETATM   19  C15 UNL     1     -11.061 -27.096   1.531  1.00  0.00     0.017 C 
HETATM   20  C16 UNL     1      -8.668 -26.899   1.641  1.00  0.00     0.012 C 
HETATM   21  C17 UNL     1      -8.287 -28.214   0.941  1.00  0.00     0.010 C 
HETATM   22  C18 UNL     1      -8.368 -29.128   2.133  1.00  0.00     0.036 C 
HETATM   23  C19 UNL     1      -9.732 -28.746   2.689  1.00  0.00     0.101 C 
HETATM   24  C21 UNL     1      -8.391 -30.582   1.839  1.00  0.00     0.033 C 
HETATM   25  N1  UNL     1      -9.735 -29.211   4.036  1.00  0.00    -0.337 N 
HETATM   26  C20 UNL     1      -9.466 -30.633   4.142  1.00  0.00     0.317 C 
ATOM     27  H1  UNL     1      -9.908 -28.608   4.840  1.00  0.00     0.164 HD
HETATM   28  O3  UNL     1      -9.557 -31.255   5.209  1.00  0.00    -0.247 OA
HETATM   29  N2  UNL     1      -9.086 -31.259   2.917  1.00  0.00    -0.334 N 
ATOM     30  H2  UNL     1      -9.318 -32.244   2.792  1.00  0.00     0.165 HD
HETATM   31  C22 UNL     1      -6.933 -31.065   1.778  1.00  0.00     0.038 C 
HETATM   32  C23 UNL     1      -8.984 -30.900   0.487  1.00  0.00     0.038 C 
ENDBRANCH  17  18
ENDBRANCH   1  17
TORSDOF 9
ENDMDL
MODEL 4
REMARK VINA RESULT: -9.651826926      2.423      3.266
REMARK  9 active torsions:
REMARK  status: ('A' for Active; 'I' for Inactive)
REMARK    1  A    between atoms: C2_2  and  C3_3 
REMARK    2  A    between atoms: C7_7  and  C8_8 
REMARK    3  A    between atoms: C8_8  and  C9_9 
REMARK    4  A    between atoms: C9_9  and  C10_10 
REMARK    5  A    between atoms: C10_10  and  C11_12 
REMARK    6  A    between atoms: C11_12  and  C12_13 
REMARK    7  A    between atoms: C12_13  and  O2_14 
REMARK    8  A    between atoms: C12_13  and  C13_16 
REMARK    9  A    between atoms: C13_16  and  C14_17 
ROOT
HETATM    1  C12 UNL     1      -6.699 -24.147   4.782  1.00  0.00     0.126 C 
ENDROOT
BRANCH   1   2
HETATM    2  C11 UNL     1      -5.423 -23.773   5.400  1.00  0.00     0.110 C 
BRANCH   2   3
HETATM    3  C10 UNL     1      -5.489 -22.789   6.524  1.00  0.00     0.129 C 
HETATM    4  O1  UNL     1      -6.505 -22.593   7.160  1.00  0.00    -0.298 OA
BRANCH   3   5
HETATM    5  C9  UNL     1      -4.300 -22.010   6.902  1.00  0.00     0.081 C 
BRANCH   5   6
HETATM    6  C8  UNL     1      -3.136 -22.740   7.398  1.00  0.00     0.039 C 
BRANCH   6   7
HETATM    7  C7  UNL     1      -1.790 -22.200   7.217  1.00  0.00     0.122 C 
HETATM    8  C6  UNL     1      -1.477 -20.986   8.007  1.00  0.00     0.032 C 
HETATM    9  C5  UNL     1      -0.092 -21.185   8.706  1.00  0.00     0.005 C 
HETATM   10  C4  UNL     1       0.912 -21.649   7.704  1.00  0.00     0.032 C 
HETATM   11  C3  UNL     1       0.355 -22.796   6.910  1.00  0.00     0.121 C 
HETATM   12  O4  UNL     1      -0.825 -23.224   7.494  1.00  0.00    -0.381 OA
BRANCH  11  13
HETATM   13  C2  UNL     1       1.347 -23.961   6.915  1.00  0.00     0.027 C 
HETATM   14  C1  UNL     1       0.595 -25.177   6.434  1.00  0.00     0.007 C 
ENDBRANCH  11  13
ENDBRANCH   6   7
ENDBRANCH   5   6
ENDBRANCH   3   5
ENDBRANCH   2   3
ENDBRANCH   1   2
BRANCH   1  15
HETATM   15  O2  UNL     1      -7.451 -22.943   4.656  1.00  0.00    -0.395 OA
ATOM     16  H2  UNL     1      -7.336 -22.649   3.760  1.00  0.00     0.210 HD
ENDBRANCH   1  15
BRANCH   1  17
HETATM   17  C13 UNL     1      -7.527 -25.233   5.310  1.00  0.00     0.043 C 
BRANCH  17  18
HETATM   18  C14 UNL     1      -8.508 -25.918   4.453  1.00  0.00    -0.021 C 
HETATM   19  C15 UNL     1      -9.851 -25.284   4.276  1.00  0.00     0.017 C 
HETATM   20  C16 UNL     1      -7.972 -26.082   3.006  1.00  0.00     0.012 C 
HETATM   21  C17 UNL     1      -8.542 -27.439   2.561  1.00  0.00     0.010 C 
HETATM   22  C18 UNL     1      -8.185 -28.240   3.783  1.00  0.00     0.036 C 
HETATM   23  C19 UNL     1      -8.725 -27.333   4.881  1.00  0.00     0.101 C 
HETATM   24  C21 UNL     1      -8.853 -29.557   3.917  1.00  0.00     0.033 C 
HETATM   25  N1  UNL     1      -8.071 -27.755   6.074  1.00  0.00    -0.337 N 
HETATM   26  C20 UNL     1      -8.275 -29.163   6.361  1.00  0.00     0.317 C 
ATOM     27  H1  UNL     1      -7.518 -27.134   6.665  1.00  0.00     0.164 HD
HETATM   28  O3  UNL     1      -7.905 -29.693   7.418  1.00  0.00    -0.247 OA
HETATM   29  N2  UNL     1      -8.936 -29.890   5.327  1.00  0.00    -0.334 N 
ATOM     30  H2  UNL     1      -9.502 -30.695   5.595  1.00  0.00     0.165 HD
HETATM   31  C22 UNL     1      -7.983 -30.593   3.190  1.00  0.00     0.038 C 
HETATM   32  C23 UNL     1     -10.202 -29.605   3.238  1.00  0.00     0.038 C 
ENDBRANCH  17  18
ENDBRANCH   1  17
TORSDOF 9
ENDMDL
MODEL 5
REMARK VINA RESULT: -9.639659917      1.443      2.377
REMARK  9 active torsions:
REMARK  status: ('A' for Active; 'I' for Inactive)
REMARK    1  A    between atoms: C2_2  and  C3_3 
REMARK    2  A    between atoms: C7_7  and  C8_8 
REMARK    3  A    between atoms: C8_8  and  C9_9 
REMARK    4  A    between atoms: C9_9  and  C10_10 
REMARK    5  A    between atoms: C10_10  and  C11_12 
REMARK    6  A    between atoms: C11_12  and  C12_13 
REMARK    7  A    between atoms: C12_13  and  O2_14 
REMARK    8  A    between atoms: C12_13  and  C13_16 
REMARK    9  A    between atoms: C13_16  and  C14_17 
ROOT
HETATM    1  C12 UNL     1      -9.157 -24.924   3.963  1.00  0.00     0.126 C 
ENDROOT
BRANCH   1   2
HETATM    2  C11 UNL     1      -8.162 -24.968   5.039  1.00  0.00     0.110 C 
BRANCH   2   3
HETATM    3  C10 UNL     1      -6.752 -24.646   4.658  1.00  0.00     0.129 C 
HETATM    4  O1  UNL     1      -6.226 -25.102   3.663  1.00  0.00    -0.298 OA
BRANCH   3   5
HETATM    5  C9  UNL     1      -5.941 -23.748   5.494  1.00  0.00     0.081 C 
BRANCH   5   6
HETATM    6  C8  UNL     1      -4.488 -23.811   5.351  1.00  0.00     0.039 C 
BRANCH   6   7
HETATM    7  C7  UNL     1      -3.637 -22.802   5.979  1.00  0.00     0.122 C 
HETATM    8  C6  UNL     1      -4.310 -21.920   6.962  1.00  0.00     0.032 C 
HETATM    9  C5  UNL     1      -3.434 -21.849   8.255  1.00  0.00     0.005 C 
HETATM   10  C4  UNL     1      -2.021 -21.540   7.886  1.00  0.00     0.032 C 
HETATM   11  C3  UNL     1      -1.568 -22.448   6.779  1.00  0.00     0.121 C 
HETATM   12  O4  UNL     1      -2.511 -23.444   6.592  1.00  0.00    -0.381 OA
BRANCH  11  13
HETATM   13  C2  UNL     1      -0.239 -23.106   7.160  1.00  0.00     0.027 C 
HETATM   14  C1  UNL     1       0.600 -22.041   7.820  1.00  0.00     0.007 C 
ENDBRANCH  11  13
ENDBRANCH   6   7
ENDBRANCH   5   6
ENDBRANCH   3   5
ENDBRANCH   2   3
ENDBRANCH   1   2
BRANCH   1  15
HETATM   15  O2  UNL     1      -9.916 -23.736   4.167  1.00  0.00    -0.395 OA
ATOM     16  H2  UNL     1     -10.343 -23.833   5.011  1.00  0.00     0.210 HD
ENDBRANCH   1  15
BRANCH   1  17
HETATM   17  C13 UNL     1     -10.028 -26.062   3.666  1.00  0.00     0.043 C 
BRANCH  17  18
HETATM   18  C14 UNL     1      -9.630 -27.080   2.680  1.00  0.00    -0.021 C 
HETATM   19  C15 UNL     1      -8.337 -27.799   2.895  1.00  0.00     0.017 C 
HETATM   20  C16 UNL     1     -10.685 -28.213   2.585  1.00  0.00     0.012 C 
HETATM   21  C17 UNL     1     -10.665 -28.602   1.097  1.00  0.00     0.010 C 
HETATM   22  C18 UNL     1     -10.727 -27.219   0.508  1.00  0.00     0.036 C 
HETATM   23  C19 UNL     1      -9.619 -26.529   1.291  1.00  0.00     0.101 C 
HETATM   24  C21 UNL     1     -10.397 -27.111  -0.933  1.00  0.00     0.033 C 
HETATM   25  N1  UNL     1      -9.867 -25.133   1.146  1.00  0.00    -0.337 N 
HETATM   26  C20 UNL     1      -9.919 -24.711  -0.241  1.00  0.00     0.317 C 
ATOM     27  H1  UNL     1      -9.995 -24.498   1.934  1.00  0.00     0.164 HD
HETATM   28  O3  UNL     1      -9.989 -23.521  -0.578  1.00  0.00    -0.247 OA
HETATM   29  N2  UNL     1      -9.883 -25.778  -1.188  1.00  0.00    -0.334 N 
ATOM     30  H2  UNL     1      -9.470 -25.591  -2.102  1.00  0.00     0.165 HD
HETATM   31  C22 UNL     1     -11.697 -27.324  -1.724  1.00  0.00     0.038 C 
HETATM   32  C23 UNL     1      -9.450 -28.188  -1.404  1.00  0.00     0.038 C 
ENDBRANCH  17  18
ENDBRANCH   1  17
TORSDOF 9
ENDMDL
