MODEL 1
REMARK VINA RESULT: -8.021502134      0.000      0.000
REMARK  1 active torsions:
REMARK  status: ('A' for Active; 'I' for Inactive)
REMARK    1  A    between atoms: C5_5  and  O1_6 
ROOT
HETATM    1  C1  UNL     1       9.217  -4.505  13.245  1.00  0.00     0.051 C 
HETATM    2  C2  UNL     1      10.148  -5.681  13.286  1.00  0.00     0.109 C 
HETATM    3  C3  UNL     1       9.442  -6.893  12.847  1.00  0.00     0.045 C 
HETATM    4  C4  UNL     1      10.117  -8.192  13.160  1.00  0.00     0.035 C 
HETATM    5  C5  UNL     1       9.835  -8.714  14.549  1.00  0.00     0.118 C 
HETATM    6  C6  UNL     1      10.997  -9.542  15.073  1.00  0.00     0.032 C 
HETATM    7  C7  UNL     1      10.884  -9.826  16.533  1.00  0.00     0.002 C 
HETATM    8  C8  UNL     1      11.188  -8.589  17.358  1.00  0.00     0.000 C 
HETATM    9  C9  UNL     1      12.557  -8.532  17.908  1.00  0.00     0.004 C 
HETATM   10  C10 UNL     1      13.550  -7.687  17.193  1.00  0.00     0.048 C 
HETATM   11  C11 UNL     1      13.353  -6.207  17.328  1.00  0.00     0.221 C 
HETATM   12 CL1  UNL     1      13.291  -5.866  19.096  1.00  0.00    -0.095 Cl
HETATM   13  O2  UNL     1      12.226  -5.693  16.780  1.00  0.00    -0.329 OA
HETATM   14  C12 UNL     1      12.317  -4.966  15.645  1.00  0.00     0.237 C 
HETATM   15  C13 UNL     1      12.982  -3.644  15.730  1.00  0.00     0.252 C 
HETATM   16  O3  UNL     1      13.305  -3.088  14.496  1.00  0.00    -0.317 OA
HETATM   17  C14 UNL     1      12.905  -3.667  13.252  1.00  0.00     0.215 C 
HETATM   18  N1  UNL     1      12.974  -3.063  12.153  1.00  0.00    -0.365 N 
ATOM     19  H11 UNL     1      12.688  -3.476  11.266  1.00  0.00     0.159 HD
ATOM     20  H12 UNL     1      13.327  -2.108  12.088  1.00  0.00     0.159 HD
HETATM   21  N2  UNL     1      12.417  -4.984  13.342  1.00  0.00    -0.339 N 
HETATM   22  C15 UNL     1      11.387  -5.347  12.419  1.00  0.00     0.167 C 
HETATM   23  C16 UNL     1      12.988  -5.730  14.477  1.00  0.00     0.200 C 
HETATM   24  O4  UNL     1      10.987  -4.747  15.191  1.00  0.00    -0.196 OA
HETATM   25  O5  UNL     1      10.568  -5.828  14.627  1.00  0.00    -0.225 OA
ENDROOT
BRANCH   5  26
HETATM   26  O1  UNL     1       8.758  -9.621  14.411  1.00  0.00    -0.396 OA
ATOM     27  H1  UNL     1       8.307  -9.619  15.247  1.00  0.00     0.210 HD
ENDBRANCH   5  26
TORSDOF 1
ENDMDL
MODEL 2
REMARK VINA RESULT: -7.842632058      1.178      1.256
REMARK  1 active torsions:
REMARK  status: ('A' for Active; 'I' for Inactive)
REMARK    1  A    between atoms: C5_5  and  O1_6 
ROOT
HETATM    1  C1  UNL     1       9.686  -4.593  13.849  1.00  0.00     0.051 C 
HETATM    2  C2  UNL     1      10.590  -5.791  13.821  1.00  0.00     0.109 C 
HETATM    3  C3  UNL     1      10.007  -6.836  12.968  1.00  0.00     0.045 C 
HETATM    4  C4  UNL     1      10.600  -8.203  13.112  1.00  0.00     0.035 C 
HETATM    5  C5  UNL     1      10.013  -9.013  14.245  1.00  0.00     0.118 C 
HETATM    6  C6  UNL     1      11.031  -9.994  14.806  1.00  0.00     0.032 C 
HETATM    7  C7  UNL     1      10.592 -10.596  16.098  1.00  0.00     0.002 C 
HETATM    8  C8  UNL     1      10.695  -9.594  17.234  1.00  0.00     0.000 C 
HETATM    9  C9  UNL     1      11.904  -9.730  18.071  1.00  0.00     0.004 C 
HETATM   10  C10 UNL     1      13.029  -8.792  17.809  1.00  0.00     0.048 C 
HETATM   11  C11 UNL     1      12.799  -7.374  18.237  1.00  0.00     0.221 C 
HETATM   12 CL1  UNL     1      12.337  -7.441  19.977  1.00  0.00    -0.095 Cl
HETATM   13  O2  UNL     1      11.823  -6.696  17.587  1.00  0.00    -0.329 OA
HETATM   14  C12 UNL     1      12.165  -5.735  16.702  1.00  0.00     0.237 C 
HETATM   15  C13 UNL     1      12.786  -4.501  17.236  1.00  0.00     0.252 C 
HETATM   16  O3  UNL     1      13.378  -3.695  16.267  1.00  0.00    -0.317 OA
HETATM   17  C14 UNL     1      13.272  -3.956  14.866  1.00  0.00     0.215 C 
HETATM   18  N1  UNL     1      13.585  -3.122  13.981  1.00  0.00    -0.365 N 
ATOM     19  H11 UNL     1      13.509  -3.309  12.981  1.00  0.00     0.159 HD
ATOM     20  H12 UNL     1      13.939  -2.195  14.219  1.00  0.00     0.159 HD
HETATM   21  N2  UNL     1      12.783  -5.234  14.538  1.00  0.00    -0.339 N 
HETATM   22  C15 UNL     1      11.990  -5.328  13.351  1.00  0.00     0.167 C 
HETATM   23  C16 UNL     1      13.086  -6.245  15.567  1.00  0.00     0.200 C 
HETATM   24  O4  UNL     1      10.970  -5.356  16.028  1.00  0.00    -0.196 OA
HETATM   25  O5  UNL     1      10.696  -6.259  15.151  1.00  0.00    -0.225 OA
ENDROOT
BRANCH   5  26
HETATM   26  O1  UNL     1       9.000  -9.813  13.665  1.00  0.00    -0.396 OA
ATOM     27  H1  UNL     1       8.180  -9.492  14.020  1.00  0.00     0.210 HD
ENDBRANCH   5  26
TORSDOF 1
ENDMDL
MODEL 3
REMARK VINA RESULT: -7.509174129      2.585      4.687
REMARK  1 active torsions:
REMARK  status: ('A' for Active; 'I' for Inactive)
REMARK    1  A    between atoms: C5_5  and  O1_6 
ROOT
HETATM    1  C1  UNL     1      14.579  -8.189  17.584  1.00  0.00     0.051 C 
HETATM    2  C2  UNL     1      13.088  -8.173  17.417  1.00  0.00     0.109 C 
HETATM    3  C3  UNL     1      12.572  -9.549  17.409  1.00  0.00     0.045 C 
HETATM    4  C4  UNL     1      11.172  -9.718  16.906  1.00  0.00     0.035 C 
HETATM    5  C5  UNL     1      11.066  -9.831  15.404  1.00  0.00     0.118 C 
HETATM    6  C6  UNL     1       9.734  -9.294  14.903  1.00  0.00     0.032 C 
HETATM    7  C7  UNL     1       9.709  -9.119  13.422  1.00  0.00     0.002 C 
HETATM    8  C8  UNL     1      10.533  -7.916  12.998  1.00  0.00     0.000 C 
HETATM    9  C9  UNL     1       9.751  -6.694  12.729  1.00  0.00     0.004 C 
HETATM   10  C10 UNL     1       9.709  -5.658  13.796  1.00  0.00     0.048 C 
HETATM   11  C11 UNL     1      10.980  -4.891  14.000  1.00  0.00     0.221 C 
HETATM   12 CL1  UNL     1      11.427  -4.217  12.391  1.00  0.00    -0.095 Cl
HETATM   13  O2  UNL     1      12.046  -5.594  14.452  1.00  0.00    -0.329 OA
HETATM   14  C12 UNL     1      12.452  -5.428  15.729  1.00  0.00     0.237 C 
HETATM   15  C13 UNL     1      13.050  -4.123  16.094  1.00  0.00     0.252 C 
HETATM   16  O3  UNL     1      13.169  -3.913  17.466  1.00  0.00    -0.317 OA
HETATM   17  C14 UNL     1      12.876  -4.921  18.435  1.00  0.00     0.215 C 
HETATM   18  N1  UNL     1      13.206  -4.835  19.645  1.00  0.00    -0.365 N 
ATOM     19  H11 UNL     1      12.997  -5.554  20.336  1.00  0.00     0.159 HD
ATOM     20  H12 UNL     1      13.707  -4.024  20.007  1.00  0.00     0.159 HD
HETATM   21  N2  UNL     1      12.184  -6.040  17.936  1.00  0.00    -0.339 N 
HETATM   22  C15 UNL     1      12.485  -7.300  18.544  1.00  0.00     0.167 C 
HETATM   23  C16 UNL     1      11.343  -5.719  16.770  1.00  0.00     0.200 C 
HETATM   24  O4  UNL     1      13.429  -6.432  15.982  1.00  0.00    -0.196 OA
HETATM   25  O5  UNL     1      12.819  -7.551  16.176  1.00  0.00    -0.225 OA
ENDROOT
BRANCH   5  26
HETATM   26  O1  UNL     1      11.043 -11.217  15.119  1.00  0.00    -0.396 OA
ATOM     27  H1  UNL     1      10.221 -11.541  15.467  1.00  0.00     0.210 HD
ENDBRANCH   5  26
TORSDOF 1
ENDMDL
MODEL 4
REMARK VINA RESULT: -7.498735750      2.818      6.060
REMARK  1 active torsions:
REMARK  status: ('A' for Active; 'I' for Inactive)
REMARK    1  A    between atoms: C5_5  and  O1_6 
ROOT
HETATM    1  C1  UNL     1      11.078  -8.942  18.608  1.00  0.00     0.051 C 
HETATM    2  C2  UNL     1      12.111  -8.511  17.609  1.00  0.00     0.109 C 
HETATM    3  C3  UNL     1      13.248  -7.890  18.302  1.00  0.00     0.045 C 
HETATM    4  C4  UNL     1      14.187  -7.102  17.442  1.00  0.00     0.035 C 
HETATM    5  C5  UNL     1      13.752  -5.677  17.199  1.00  0.00     0.118 C 
HETATM    6  C6  UNL     1      14.252  -5.169  15.855  1.00  0.00     0.032 C 
HETATM    7  C7  UNL     1      13.606  -3.886  15.453  1.00  0.00     0.002 C 
HETATM    8  C8  UNL     1      12.171  -4.109  15.012  1.00  0.00     0.000 C 
HETATM    9  C9  UNL     1      11.975  -4.174  13.550  1.00  0.00     0.004 C 
HETATM   10  C10 UNL     1      11.845  -5.522  12.934  1.00  0.00     0.048 C 
HETATM   11  C11 UNL     1      10.559  -6.237  13.215  1.00  0.00     0.221 C 
HETATM   12 CL1  UNL     1       9.239  -5.115  12.721  1.00  0.00    -0.095 Cl
HETATM   13  O2  UNL     1      10.328  -6.588  14.503  1.00  0.00    -0.329 OA
HETATM   14  C12 UNL     1      10.425  -7.886  14.860  1.00  0.00     0.237 C 
HETATM   15  C13 UNL     1       9.404  -8.821  14.334  1.00  0.00     0.252 C 
HETATM   16  O3  UNL     1       9.726 -10.166  14.490  1.00  0.00    -0.317 OA
HETATM   17  C14 UNL     1      10.870 -10.612  15.222  1.00  0.00     0.215 C 
HETATM   18  N1  UNL     1      11.041 -11.805  15.578  1.00  0.00    -0.365 N 
ATOM     19  H11 UNL     1      11.857 -12.123  16.100  1.00  0.00     0.159 HD
ATOM     20  H12 UNL     1      10.362 -12.533  15.358  1.00  0.00     0.159 HD
HETATM   21  N2  UNL     1      11.807  -9.608  15.526  1.00  0.00    -0.339 N 
HETATM   22  C15 UNL     1      12.510  -9.745  16.764  1.00  0.00     0.167 C 
HETATM   23  C16 UNL     1      11.807  -8.509  14.544  1.00  0.00     0.200 C 
HETATM   24  O4  UNL     1      10.350  -7.926  16.281  1.00  0.00    -0.196 OA
HETATM   25  O5  UNL     1      11.493  -7.567  16.757  1.00  0.00    -0.225 OA
ENDROOT
BRANCH   5  26
HETATM   26  O1  UNL     1      14.422  -4.895  18.169  1.00  0.00    -0.396 OA
ATOM     27  H1  UNL     1      13.761  -4.331  18.552  1.00  0.00     0.210 HD
ENDBRANCH   5  26
TORSDOF 1
ENDMDL
MODEL 5
REMARK VINA RESULT: -7.474311254      1.031      1.264
REMARK  1 active torsions:
REMARK  status: ('A' for Active; 'I' for Inactive)
REMARK    1  A    between atoms: C5_5  and  O1_6 
ROOT
HETATM    1  C1  UNL     1       9.463  -5.485  13.802  1.00  0.00     0.051 C 
HETATM    2  C2  UNL     1      10.575  -6.459  14.062  1.00  0.00     0.109 C 
HETATM    3  C3  UNL     1      10.073  -7.835  13.932  1.00  0.00     0.045 C 
HETATM    4  C4  UNL     1      10.954  -8.907  14.496  1.00  0.00     0.035 C 
HETATM    5  C5  UNL     1      10.770  -9.140  15.977  1.00  0.00     0.118 C 
HETATM    6  C6  UNL     1      12.056  -9.636  16.621  1.00  0.00     0.032 C 
HETATM    7  C7  UNL     1      12.000  -9.598  18.110  1.00  0.00     0.002 C 
HETATM    8  C8  UNL     1      12.103  -8.174  18.628  1.00  0.00     0.000 C 
HETATM    9  C9  UNL     1      13.447  -7.780  19.092  1.00  0.00     0.004 C 
HETATM   10  C10 UNL     1      14.283  -6.971  18.166  1.00  0.00     0.048 C 
HETATM   11  C11 UNL     1      13.848  -5.549  17.979  1.00  0.00     0.221 C 
HETATM   12 CL1  UNL     1      13.742  -4.833  19.629  1.00  0.00    -0.095 Cl
HETATM   13  O2  UNL     1      12.649  -5.356  17.379  1.00  0.00    -0.329 OA
HETATM   14  C12 UNL     1      12.612  -4.898  16.110  1.00  0.00     0.237 C 
HETATM   15  C13 UNL     1      13.052  -3.503  15.872  1.00  0.00     0.252 C 
HETATM   16  O3  UNL     1      13.272  -3.195  14.532  1.00  0.00    -0.317 OA
HETATM   17  C14 UNL     1      12.964  -4.095  13.465  1.00  0.00     0.215 C 
HETATM   18  N1  UNL     1      12.926  -3.750  12.258  1.00  0.00    -0.365 N 
ATOM     19  H11 UNL     1      12.706  -4.393  11.497  1.00  0.00     0.159 HD
ATOM     20  H12 UNL     1      13.118  -2.792  11.968  1.00  0.00     0.159 HD
HETATM   21  N2  UNL     1      12.699  -5.418  13.865  1.00  0.00    -0.339 N 
HETATM   22  C15 UNL     1      11.736  -6.138  13.090  1.00  0.00     0.167 C 
HETATM   23  C16 UNL     1      13.392  -5.789  15.112  1.00  0.00     0.200 C 
HETATM   24  O4  UNL     1      11.261  -5.000  15.676  1.00  0.00    -0.196 OA
HETATM   25  O5  UNL     1      11.022  -6.233  15.384  1.00  0.00    -0.225 OA
ENDROOT
BRANCH   5  26
HETATM   26  O1  UNL     1       9.855 -10.214  16.089  1.00  0.00    -0.396 OA
ATOM     27  H1  UNL     1       9.260  -9.977  16.790  1.00  0.00     0.210 HD
ENDBRANCH   5  26
TORSDOF 1
ENDMDL
