MODEL 1
REMARK VINA RESULT: -6.990846630      0.000      0.000
REMARK  1 active torsions:
REMARK  status: ('A' for Active; 'I' for Inactive)
REMARK       I    between atoms: C2_2  and  N1_4 
REMARK    1  A    between atoms: N1_4  and  C3_6 
ROOT
HETATM    1  C3  UNL     1       8.804  -7.344  13.749  1.00  0.00     0.221 C 
HETATM    2  N2  UNL     1       9.552  -6.582  13.050  1.00  0.00    -0.355 N 
ATOM      3  H2  UNL     1       9.049  -5.926  12.453  1.00  0.00     0.163 HD
HETATM    4  C4  UNL     1      10.963  -6.495  12.963  1.00  0.00     0.150 C 
HETATM    5  C5  UNL     1      11.279  -5.049  12.538  1.00  0.00     0.252 C 
HETATM    6  N3  UNL     1      12.339  -4.550  13.399  1.00  0.00    -0.071 N 
ATOM      7  H31 UNL     1      12.765  -5.298  13.947  1.00  0.00     0.277 HD
ATOM      8  H32 UNL     1      11.970  -3.990  14.167  1.00  0.00     0.277 HD
HETATM    9  C6  UNL     1      13.324  -3.821  12.627  1.00  0.00     0.270 C 
HETATM   10  C7  UNL     1      14.670  -4.480  12.917  1.00  0.00     0.205 C 
HETATM   11  F1  UNL     1      14.540  -5.814  12.656  1.00  0.00    -0.247 F 
HETATM   12  C8  UNL     1      15.047  -4.265  14.352  1.00  0.00     0.124 C 
HETATM   13  S1  UNL     1      13.984  -5.272  15.408  1.00  0.00    -0.095 SA
HETATM   14  S2  UNL     1      15.115  -6.078  17.037  1.00  0.00    -0.098 SA
HETATM   15  C9  UNL     1      14.569  -7.778  17.300  1.00  0.00     0.086 C 
HETATM   16  C10 UNL     1      13.182  -7.788  17.939  1.00  0.00     0.011 C 
HETATM   17  C11 UNL     1      12.689  -9.212  17.879  1.00  0.00     0.001 C 
HETATM   18  C12 UNL     1      11.203  -9.297  18.087  1.00  0.00     0.000 C 
HETATM   19  C13 UNL     1      10.418  -9.340  16.811  1.00  0.00     0.002 C 
HETATM   20  C14 UNL     1      11.295  -9.363  15.583  1.00  0.00     0.027 C 
HETATM   21  C15 UNL     1      10.374  -9.193  14.369  1.00  0.00     0.178 C 
HETATM   22  O2  UNL     1       9.354  -8.274  14.593  1.00  0.00    -0.322 OA
ENDROOT
BRANCH   1  23
HETATM   23  N1  UNL     1       7.398  -7.196  13.623  1.00  0.00    -0.293 N 
HETATM   24  C2  UNL     1       6.812  -5.917  13.682  1.00  0.00     0.220 C 
HETATM   25  C1  UNL     1       5.351  -5.780  13.549  1.00  0.00     0.117 C 
HETATM   26  O1  UNL     1       7.527  -4.900  13.847  1.00  0.00    -0.274 OA
ATOM     27  H1  UNL     1       6.810  -8.019  13.489  1.00  0.00     0.172 HD
ENDBRANCH   1  23
TORSDOF 1
ENDMDL
MODEL 2
REMARK VINA RESULT: -6.770412177      3.207      5.967
REMARK  1 active torsions:
REMARK  status: ('A' for Active; 'I' for Inactive)
REMARK       I    between atoms: C2_2  and  N1_4 
REMARK    1  A    between atoms: N1_4  and  C3_6 
ROOT
HETATM    1  C3  UNL     1      13.898  -4.408  14.210  1.00  0.00     0.221 C 
HETATM    2  N2  UNL     1      12.810  -4.560  13.558  1.00  0.00    -0.355 N 
ATOM      3  H2  UNL     1      12.819  -4.160  12.620  1.00  0.00     0.163 HD
HETATM    4  C4  UNL     1      11.595  -5.190  13.919  1.00  0.00     0.150 C 
HETATM    5  C5  UNL     1      10.943  -5.654  12.602  1.00  0.00     0.252 C 
HETATM    6  N3  UNL     1      10.505  -7.029  12.779  1.00  0.00    -0.071 N 
ATOM      7  H31 UNL     1      10.542  -7.315  13.758  1.00  0.00     0.277 HD
ATOM      8  H32 UNL     1      11.180  -7.693  12.400  1.00  0.00     0.277 HD
HETATM    9  C6  UNL     1       9.186  -7.221  12.212  1.00  0.00     0.270 C 
HETATM   10  C7  UNL     1       8.313  -7.779  13.334  1.00  0.00     0.205 C 
HETATM   11  F1  UNL     1       8.415  -6.927  14.396  1.00  0.00    -0.247 F 
HETATM   12  C8  UNL     1       8.788  -9.148  13.718  1.00  0.00     0.124 C 
HETATM   13  S1  UNL     1      10.360  -9.014  14.597  1.00  0.00    -0.095 SA
HETATM   14  S2  UNL     1      10.432 -10.430  16.199  1.00  0.00    -0.098 SA
HETATM   15  C9  UNL     1      11.207  -9.623  17.615  1.00  0.00     0.086 C 
HETATM   16  C10 UNL     1      12.705  -9.460  17.367  1.00  0.00     0.011 C 
HETATM   17  C11 UNL     1      13.227  -8.553  18.453  1.00  0.00     0.001 C 
HETATM   18  C12 UNL     1      14.572  -7.981  18.103  1.00  0.00     0.000 C 
HETATM   19  C13 UNL     1      14.503  -6.619  17.482  1.00  0.00     0.002 C 
HETATM   20  C14 UNL     1      13.096  -6.078  17.405  1.00  0.00     0.027 C 
HETATM   21  C15 UNL     1      13.153  -4.795  16.568  1.00  0.00     0.178 C 
HETATM   22  O2  UNL     1      14.019  -4.898  15.484  1.00  0.00    -0.322 OA
ENDROOT
BRANCH   1  23
HETATM   23  N1  UNL     1      14.965  -3.720  13.574  1.00  0.00    -0.293 N 
HETATM   24  C2  UNL     1      15.787  -4.391  12.648  1.00  0.00     0.220 C 
HETATM   25  C1  UNL     1      16.891  -3.663  11.997  1.00  0.00     0.117 C 
HETATM   26  O1  UNL     1      15.584  -5.598  12.378  1.00  0.00    -0.274 OA
ATOM     27  H1  UNL     1      15.137  -2.738  13.790  1.00  0.00     0.172 HD
ENDBRANCH   1  23
TORSDOF 1
ENDMDL
MODEL 3
REMARK VINA RESULT: -6.714640168      1.281      1.535
REMARK  1 active torsions:
REMARK  status: ('A' for Active; 'I' for Inactive)
REMARK       I    between atoms: C2_2  and  N1_4 
REMARK    1  A    between atoms: N1_4  and  C3_6 
ROOT
HETATM    1  C3  UNL     1       9.296  -6.922  13.056  1.00  0.00     0.221 C 
HETATM    2  N2  UNL     1      10.248  -6.085  12.897  1.00  0.00    -0.355 N 
ATOM      3  H2  UNL     1       9.965  -5.196  12.486  1.00  0.00     0.163 HD
HETATM    4  C4  UNL     1      11.628  -6.183  13.197  1.00  0.00     0.150 C 
HETATM    5  C5  UNL     1      12.121  -4.744  13.433  1.00  0.00     0.252 C 
HETATM    6  N3  UNL     1      12.918  -4.737  14.649  1.00  0.00    -0.071 N 
ATOM      7  H31 UNL     1      13.136  -5.683  14.965  1.00  0.00     0.277 HD
ATOM      8  H32 UNL     1      12.376  -4.428  15.456  1.00  0.00     0.277 HD
HETATM    9  C6  UNL     1      14.115  -3.941  14.471  1.00  0.00     0.270 C 
HETATM   10  C7  UNL     1      15.291  -4.852  14.814  1.00  0.00     0.205 C 
HETATM   11  F1  UNL     1      15.175  -5.978  14.051  1.00  0.00    -0.247 F 
HETATM   12  C8  UNL     1      15.258  -5.204  16.271  1.00  0.00     0.124 C 
HETATM   13  S1  UNL     1      13.893  -6.345  16.580  1.00  0.00    -0.095 SA
HETATM   14  S2  UNL     1      14.478  -7.823  18.013  1.00  0.00    -0.098 SA
HETATM   15  C9  UNL     1      13.799  -9.407  17.481  1.00  0.00     0.086 C 
HETATM   16  C10 UNL     1      12.289  -9.431  17.711  1.00  0.00     0.011 C 
HETATM   17  C11 UNL     1      11.764 -10.657  17.005  1.00  0.00     0.001 C 
HETATM   18  C12 UNL     1      10.278 -10.586  16.797  1.00  0.00     0.000 C 
HETATM   19  C13 UNL     1       9.884 -10.069  15.446  1.00  0.00     0.002 C 
HETATM   20  C14 UNL     1      11.069  -9.796  14.553  1.00  0.00     0.027 C 
HETATM   21  C15 UNL     1      10.536  -9.082  13.305  1.00  0.00     0.178 C 
HETATM   22  O2  UNL     1       9.540  -8.156  13.599  1.00  0.00    -0.322 OA
ENDROOT
BRANCH   1  23
HETATM   23  N1  UNL     1       7.992  -6.532  12.654  1.00  0.00    -0.293 N 
HETATM   24  C2  UNL     1       7.451  -5.309  13.096  1.00  0.00     0.220 C 
HETATM   25  C1  UNL     1       6.095  -4.918  12.670  1.00  0.00     0.117 C 
HETATM   26  O1  UNL     1       8.115  -4.556  13.847  1.00  0.00    -0.274 OA
ATOM     27  H1  UNL     1       7.445  -7.139  12.044  1.00  0.00     0.172 HD
ENDBRANCH   1  23
TORSDOF 1
ENDMDL
MODEL 4
REMARK VINA RESULT: -6.537937243      2.920      5.412
REMARK  1 active torsions:
REMARK  status: ('A' for Active; 'I' for Inactive)
REMARK       I    between atoms: C2_2  and  N1_4 
REMARK    1  A    between atoms: N1_4  and  C3_6 
ROOT
HETATM    1  C3  UNL     1      10.978  -4.924  14.443  1.00  0.00     0.221 C 
HETATM    2  N2  UNL     1      10.865  -5.045  15.710  1.00  0.00    -0.355 N 
ATOM      3  H2  UNL     1       9.943  -5.346  16.026  1.00  0.00     0.163 HD
HETATM    4  C4  UNL     1      11.804  -4.832  16.748  1.00  0.00     0.150 C 
HETATM    5  C5  UNL     1      11.368  -5.738  17.915  1.00  0.00     0.252 C 
HETATM    6  N3  UNL     1      12.545  -6.438  18.403  1.00  0.00    -0.071 N 
ATOM      7  H31 UNL     1      13.404  -6.048  18.016  1.00  0.00     0.277 HD
ATOM      8  H32 UNL     1      12.614  -7.378  18.015  1.00  0.00     0.277 HD
HETATM    9  C6  UNL     1      12.565  -6.452  19.852  1.00  0.00     0.270 C 
HETATM   10  C7  UNL     1      13.901  -5.841  20.268  1.00  0.00     0.205 C 
HETATM   11  F1  UNL     1      14.005  -4.624  19.657  1.00  0.00    -0.247 F 
HETATM   12  C8  UNL     1      15.028  -6.735  19.842  1.00  0.00     0.124 C 
HETATM   13  S1  UNL     1      15.207  -6.659  18.046  1.00  0.00    -0.095 SA
HETATM   14  S2  UNL     1      17.279  -6.690  17.511  1.00  0.00    -0.098 SA
HETATM   15  C9  UNL     1      17.516  -5.527  16.152  1.00  0.00     0.086 C 
HETATM   16  C10 UNL     1      16.924  -6.099  14.866  1.00  0.00     0.011 C 
HETATM   17  C11 UNL     1      16.918  -4.978  13.857  1.00  0.00     0.001 C 
HETATM   18  C12 UNL     1      16.001  -5.271  12.703  1.00  0.00     0.000 C 
HETATM   19  C13 UNL     1      14.635  -4.674  12.854  1.00  0.00     0.002 C 
HETATM   20  C14 UNL     1      14.492  -3.841  14.104  1.00  0.00     0.027 C 
HETATM   21  C15 UNL     1      13.009  -3.476  14.235  1.00  0.00     0.178 C 
HETATM   22  O2  UNL     1      12.164  -4.525  13.886  1.00  0.00    -0.322 OA
ENDROOT
BRANCH   1  23
HETATM   23  N1  UNL     1       9.842  -5.213  13.642  1.00  0.00    -0.293 N 
HETATM   24  C2  UNL     1       9.199  -6.462  13.751  1.00  0.00     0.220 C 
HETATM   25  C1  UNL     1       8.020  -6.747  12.912  1.00  0.00     0.117 C 
HETATM   26  O1  UNL     1       9.623  -7.326  14.553  1.00  0.00    -0.274 OA
ATOM     27  H1  UNL     1       9.491  -4.515  12.987  1.00  0.00     0.172 HD
ENDBRANCH   1  23
TORSDOF 1
ENDMDL
MODEL 5
REMARK VINA RESULT: -6.469986768      1.906      1.995
REMARK  1 active torsions:
REMARK  status: ('A' for Active; 'I' for Inactive)
REMARK       I    between atoms: C2_2  and  N1_4 
REMARK    1  A    between atoms: N1_4  and  C3_6 
ROOT
HETATM    1  C3  UNL     1       9.783  -8.844  13.363  1.00  0.00     0.221 C 
HETATM    2  N2  UNL     1      10.413  -7.818  12.939  1.00  0.00    -0.355 N 
ATOM      3  H2  UNL     1      10.021  -7.399  12.096  1.00  0.00     0.163 HD
HETATM    4  C4  UNL     1      11.564  -7.164  13.442  1.00  0.00     0.150 C 
HETATM    5  C5  UNL     1      11.463  -5.698  12.980  1.00  0.00     0.252 C 
HETATM    6  N3  UNL     1      11.751  -4.847  14.123  1.00  0.00    -0.071 N 
ATOM      7  H31 UNL     1      12.136  -5.379  14.903  1.00  0.00     0.277 HD
ATOM      8  H32 UNL     1      10.898  -4.514  14.571  1.00  0.00     0.277 HD
HETATM    9  C6  UNL     1      12.618  -3.752  13.738  1.00  0.00     0.270 C 
HETATM   10  C7  UNL     1      13.831  -3.821  14.662  1.00  0.00     0.205 C 
HETATM   11  F1  UNL     1      14.346  -5.082  14.573  1.00  0.00    -0.247 F 
HETATM   12  C8  UNL     1      13.417  -3.527  16.073  1.00  0.00     0.124 C 
HETATM   13  S1  UNL     1      12.465  -4.918  16.720  1.00  0.00    -0.095 SA
HETATM   14  S2  UNL     1      12.963  -5.260  18.773  1.00  0.00    -0.098 SA
HETATM   15  C9  UNL     1      13.046  -7.044  19.032  1.00  0.00     0.086 C 
HETATM   16  C10 UNL     1      11.640  -7.639  19.021  1.00  0.00     0.011 C 
HETATM   17  C11 UNL     1      11.805  -9.137  18.972  1.00  0.00     0.001 C 
HETATM   18  C12 UNL     1      10.538  -9.824  18.545  1.00  0.00     0.000 C 
HETATM   19  C13 UNL     1      10.486 -10.132  17.079  1.00  0.00     0.002 C 
HETATM   20  C14 UNL     1      11.753  -9.751  16.353  1.00  0.00     0.027 C 
HETATM   21  C15 UNL     1      11.481  -9.921  14.854  1.00  0.00     0.178 C 
HETATM   22  O2  UNL     1      10.205  -9.503  14.488  1.00  0.00    -0.322 OA
ENDROOT
BRANCH   1  23
HETATM   23  N1  UNL     1       8.641  -9.273  12.636  1.00  0.00    -0.293 N 
HETATM   24  C2  UNL     1       7.620  -8.358  12.317  1.00  0.00     0.220 C 
HETATM   25  C1  UNL     1       6.441  -8.819  11.561  1.00  0.00     0.117 C 
HETATM   26  O1  UNL     1       7.709  -7.159  12.673  1.00  0.00    -0.274 OA
ATOM     27  H1  UNL     1       8.562 -10.247  12.343  1.00  0.00     0.172 HD
ENDBRANCH   1  23
TORSDOF 1
ENDMDL
