MODEL 1
REMARK VINA RESULT: -6.744214265      0.000      0.000
REMARK  5 active torsions:
REMARK  status: ('A' for Active; 'I' for Inactive)
REMARK    1  A    between atoms: C2_2  and  N1_5 
REMARK    2  A    between atoms: N1_5  and  C5_7 
REMARK    3  A    between atoms: C5_7  and  O1_8 
REMARK    4  A    between atoms: C5_7  and  N2_10 
REMARK    5  A    between atoms: N4_21  and  O2_22 
ROOT
HETATM    1  N2  UNL     1      10.512  -6.903  14.832  1.00  0.00    -0.257 N 
HETATM    2  C6  UNL     1       9.459  -7.211  13.972  1.00  0.00     0.080 A 
HETATM    3  C7  UNL     1       8.475  -6.581  13.274  1.00  0.00     0.046 A 
HETATM    4 BR1  UNL     1       8.060  -4.664  13.210  1.00  0.00    -0.048 Br
HETATM    5  C8  UNL     1       7.619  -7.382  12.528  1.00  0.00     0.072 A 
HETATM    6  S1  UNL     1       8.195  -8.943  12.819  1.00  0.00    -0.097 SA
HETATM    7  C9  UNL     1       9.482  -8.572  13.856  1.00  0.00     0.049 A 
HETATM    8  C10 UNL     1      10.501  -9.129  14.606  1.00  0.00     0.049 A 
HETATM    9  C11 UNL     1      11.089 -10.318  14.940  1.00  0.00     0.126 A 
HETATM   10  N3  UNL     1      12.084  -9.995  15.745  1.00  0.00    -0.283 N 
ATOM     11  H3  UNL     1      12.728 -10.657  16.177  1.00  0.00     0.188 HD
HETATM   12  N4  UNL     1      12.121  -8.649  15.912  1.00  0.00    -0.145 N 
HETATM   13  C12 UNL     1      11.135  -8.068  15.210  1.00  0.00     0.175 A 
ENDROOT
BRANCH   1  14
HETATM   14  C5  UNL     1      10.962  -5.634  15.191  1.00  0.00     0.226 C 
BRANCH  14  15
HETATM   15  N1  UNL     1      11.289  -4.500  14.457  1.00  0.00    -0.348 N 
ATOM     16  H1  UNL     1      10.580  -3.782  14.304  1.00  0.00     0.163 HD
BRANCH  15  17
HETATM   17  C2  UNL     1      12.652  -4.311  13.889  1.00  0.00     0.022 C 
HETATM   18  C1  UNL     1      12.538  -3.748  12.496  1.00  0.00     0.037 C 
HETATM   19  C3  UNL     1      13.357  -5.646  13.772  1.00  0.00     0.037 C 
HETATM   20  C4  UNL     1      13.437  -3.349  14.747  1.00  0.00     0.037 C 
ENDBRANCH  15  17
ENDBRANCH  14  15
BRANCH  14  21
HETATM   21  O1  UNL     1      11.125  -5.435  16.468  1.00  0.00    -0.332 OA
ATOM     22  H1  UNL     1      10.582  -6.021  16.982  1.00  0.00     0.221 HD
ENDBRANCH  14  21
ENDBRANCH   1  14
BRANCH  12  23
HETATM   23  O2  UNL     1      13.076  -8.046  16.685  1.00  0.00    -0.266 OA
ATOM     24  H2  UNL     1      12.885  -7.729  17.560  1.00  0.00     0.247 HD
ENDBRANCH  12  23
TORSDOF 5
ENDMDL
MODEL 2
REMARK VINA RESULT: -6.318443598      2.263      3.955
REMARK  5 active torsions:
REMARK  status: ('A' for Active; 'I' for Inactive)
REMARK    1  A    between atoms: C2_2  and  N1_5 
REMARK    2  A    between atoms: N1_5  and  C5_7 
REMARK    3  A    between atoms: C5_7  and  O1_8 
REMARK    4  A    between atoms: C5_7  and  N2_10 
REMARK    5  A    between atoms: N4_21  and  O2_22 
ROOT
HETATM    1  N2  UNL     1      10.107  -5.891  14.522  1.00  0.00    -0.257 N 
HETATM    2  C6  UNL     1      10.038  -7.282  14.569  1.00  0.00     0.080 A 
HETATM    3  C7  UNL     1      10.729  -8.336  15.084  1.00  0.00     0.046 A 
HETATM    4 BR1  UNL     1      12.395  -8.314  16.118  1.00  0.00    -0.048 Br
HETATM    5  C8  UNL     1      10.225  -9.605  14.828  1.00  0.00     0.072 A 
HETATM    6  S1  UNL     1       8.846  -9.298  13.901  1.00  0.00    -0.097 SA
HETATM    7  C9  UNL     1       8.921  -7.606  13.851  1.00  0.00     0.049 A 
HETATM    8  C10 UNL     1       8.291  -6.480  13.356  1.00  0.00     0.049 A 
HETATM    9  C11 UNL     1       7.213  -6.062  12.625  1.00  0.00     0.126 A 
HETATM   10  N3  UNL     1       7.301  -4.745  12.605  1.00  0.00    -0.283 N 
ATOM     11  H3  UNL     1       6.645  -4.120  12.137  1.00  0.00     0.188 HD
HETATM   12  N4  UNL     1       8.397  -4.347  13.299  1.00  0.00    -0.145 N 
HETATM   13  C12 UNL     1       9.048  -5.415  13.787  1.00  0.00     0.175 A 
ENDROOT
BRANCH   1  14
HETATM   14  C5  UNL     1      11.019  -5.071  15.185  1.00  0.00     0.226 C 
BRANCH  14  15
HETATM   15  N1  UNL     1      11.968  -4.156  14.743  1.00  0.00    -0.348 N 
ATOM     16  H1  UNL     1      12.063  -3.263  15.226  1.00  0.00     0.163 HD
BRANCH  15  17
HETATM   17  C2  UNL     1      12.849  -4.452  13.580  1.00  0.00     0.022 C 
HETATM   18  C1  UNL     1      14.104  -3.624  13.681  1.00  0.00     0.037 C 
HETATM   19  C3  UNL     1      12.160  -4.058  12.290  1.00  0.00     0.037 C 
HETATM   20  C4  UNL     1      13.222  -5.915  13.578  1.00  0.00     0.037 C 
ENDBRANCH  15  17
ENDBRANCH  14  15
BRANCH  14  21
HETATM   21  O1  UNL     1      11.013  -5.157  16.484  1.00  0.00    -0.332 OA
ATOM     22  H1  UNL     1      11.774  -4.733  16.862  1.00  0.00     0.221 HD
ENDBRANCH  14  21
ENDBRANCH   1  14
BRANCH  12  23
HETATM   23  O2  UNL     1       8.709  -3.023  13.455  1.00  0.00    -0.266 OA
ATOM     24  H2  UNL     1       9.046  -2.502  12.736  1.00  0.00     0.247 HD
ENDBRANCH  12  23
TORSDOF 5
ENDMDL
MODEL 3
REMARK VINA RESULT: -6.293334599      3.141      5.354
REMARK  5 active torsions:
REMARK  status: ('A' for Active; 'I' for Inactive)
REMARK    1  A    between atoms: C2_2  and  N1_5 
REMARK    2  A    between atoms: N1_5  and  C5_7 
REMARK    3  A    between atoms: C5_7  and  O1_8 
REMARK    4  A    between atoms: C5_7  and  N2_10 
REMARK    5  A    between atoms: N4_21  and  O2_22 
ROOT
HETATM    1  N2  UNL     1      10.754  -7.382  15.300  1.00  0.00    -0.257 N 
HETATM    2  C6  UNL     1      11.159  -8.087  16.432  1.00  0.00     0.080 A 
HETATM    3  C7  UNL     1      11.169  -9.362  16.909  1.00  0.00     0.046 A 
HETATM    4 BR1  UNL     1      10.475 -10.988  16.059  1.00  0.00    -0.048 Br
HETATM    5  C8  UNL     1      11.706  -9.557  18.176  1.00  0.00     0.072 A 
HETATM    6  S1  UNL     1      12.162  -8.000  18.649  1.00  0.00    -0.097 SA
HETATM    7  C9  UNL     1      11.681  -7.142  17.270  1.00  0.00     0.049 A 
HETATM    8  C10 UNL     1      11.619  -5.879  16.713  1.00  0.00     0.049 A 
HETATM    9  C11 UNL     1      11.931  -4.566  16.941  1.00  0.00     0.126 A 
HETATM   10  N3  UNL     1      11.545  -3.928  15.852  1.00  0.00    -0.283 N 
ATOM     11  H3  UNL     1      11.636  -2.924  15.697  1.00  0.00     0.188 HD
HETATM   12  N4  UNL     1      11.008  -4.807  14.970  1.00  0.00    -0.145 N 
HETATM   13  C12 UNL     1      11.036  -6.049  15.479  1.00  0.00     0.175 A 
ENDROOT
BRANCH   1  14
HETATM   14  C5  UNL     1      10.244  -7.913  14.116  1.00  0.00     0.226 C 
BRANCH  14  15
HETATM   15  N1  UNL     1       9.054  -8.560  13.802  1.00  0.00    -0.348 N 
ATOM     16  H1  UNL     1       8.913  -9.522  14.107  1.00  0.00     0.163 HD
BRANCH  15  17
HETATM   17  C2  UNL     1       7.982  -7.877  13.028  1.00  0.00     0.022 C 
HETATM   18  C1  UNL     1       6.640  -8.231  13.615  1.00  0.00     0.037 C 
HETATM   19  C3  UNL     1       7.981  -8.365  11.594  1.00  0.00     0.037 C 
HETATM   20  C4  UNL     1       8.171  -6.381  13.097  1.00  0.00     0.037 C 
ENDBRANCH  15  17
ENDBRANCH  14  15
BRANCH  14  21
HETATM   21  O1  UNL     1      11.014  -7.802  13.072  1.00  0.00    -0.332 OA
ATOM     22  H1  UNL     1      11.517  -8.595  12.928  1.00  0.00     0.221 HD
ENDBRANCH  14  21
ENDBRANCH   1  14
BRANCH  12  23
HETATM   23  O2  UNL     1      10.549  -4.407  13.743  1.00  0.00    -0.266 OA
ATOM     24  H2  UNL     1      10.201  -3.535  13.600  1.00  0.00     0.247 HD
ENDBRANCH  12  23
TORSDOF 5
ENDMDL
MODEL 4
REMARK VINA RESULT: -6.281643132      2.467      4.578
REMARK  5 active torsions:
REMARK  status: ('A' for Active; 'I' for Inactive)
REMARK    1  A    between atoms: C2_2  and  N1_5 
REMARK    2  A    between atoms: N1_5  and  C5_7 
REMARK    3  A    between atoms: C5_7  and  O1_8 
REMARK    4  A    between atoms: C5_7  and  N2_10 
REMARK    5  A    between atoms: N4_21  and  O2_22 
ROOT
HETATM    1  N2  UNL     1      11.142  -6.826  13.304  1.00  0.00    -0.257 N 
HETATM    2  C6  UNL     1       9.893  -6.212  13.238  1.00  0.00     0.080 A 
HETATM    3  C7  UNL     1       8.573  -6.542  13.294  1.00  0.00     0.046 A 
HETATM    4 BR1  UNL     1       7.768  -8.319  13.499  1.00  0.00    -0.048 Br
HETATM    5  C8  UNL     1       7.658  -5.506  13.157  1.00  0.00     0.072 A 
HETATM    6  S1  UNL     1       8.638  -4.144  12.957  1.00  0.00    -0.097 SA
HETATM    7  C9  UNL     1      10.159  -4.885  13.047  1.00  0.00     0.049 A 
HETATM    8  C10 UNL     1      11.518  -4.643  12.990  1.00  0.00     0.049 A 
HETATM    9  C11 UNL     1      12.446  -3.648  12.845  1.00  0.00     0.126 A 
HETATM   10  N3  UNL     1      13.615  -4.257  12.920  1.00  0.00    -0.283 N 
ATOM     11  H3  UNL     1      14.523  -3.796  12.848  1.00  0.00     0.188 HD
HETATM   12  N4  UNL     1      13.430  -5.588  13.105  1.00  0.00    -0.145 N 
HETATM   13  C12 UNL     1      12.118  -5.870  13.153  1.00  0.00     0.175 A 
ENDROOT
BRANCH   1  14
HETATM   14  C5  UNL     1      11.409  -8.165  13.583  1.00  0.00     0.226 C 
BRANCH  14  15
HETATM   15  N1  UNL     1      12.076  -8.804  14.621  1.00  0.00    -0.348 N 
ATOM     16  H1  UNL     1      13.017  -9.164  14.464  1.00  0.00     0.163 HD
BRANCH  15  17
HETATM   17  C2  UNL     1      11.445  -8.974  15.959  1.00  0.00     0.022 C 
HETATM   18  C1  UNL     1      12.416  -9.661  16.885  1.00  0.00     0.037 C 
HETATM   19  C3  UNL     1      10.228  -9.869  15.852  1.00  0.00     0.037 C 
HETATM   20  C4  UNL     1      11.085  -7.625  16.534  1.00  0.00     0.037 C 
ENDBRANCH  15  17
ENDBRANCH  14  15
BRANCH  14  21
HETATM   21  O1  UNL     1      10.960  -9.022  12.711  1.00  0.00    -0.332 OA
ATOM     22  H1  UNL     1      11.428  -9.846  12.762  1.00  0.00     0.221 HD
ENDBRANCH  14  21
ENDBRANCH   1  14
BRANCH  12  23
HETATM   23  O2  UNL     1      14.485  -6.450  13.241  1.00  0.00    -0.266 OA
ATOM     24  H2  UNL     1      14.488  -7.304  12.826  1.00  0.00     0.247 HD
ENDBRANCH  12  23
TORSDOF 5
ENDMDL
MODEL 5
REMARK VINA RESULT: -6.264393657      3.081      5.247
REMARK  5 active torsions:
REMARK  status: ('A' for Active; 'I' for Inactive)
REMARK    1  A    between atoms: C2_2  and  N1_5 
REMARK    2  A    between atoms: N1_5  and  C5_7 
REMARK    3  A    between atoms: C5_7  and  O1_8 
REMARK    4  A    between atoms: C5_7  and  N2_10 
REMARK    5  A    between atoms: N4_21  and  O2_22 
ROOT
HETATM    1  N2  UNL     1      10.996  -7.444  15.052  1.00  0.00    -0.257 N 
HETATM    2  C6  UNL     1      11.187  -8.172  16.224  1.00  0.00     0.080 A 
HETATM    3  C7  UNL     1      11.166  -9.463  16.656  1.00  0.00     0.046 A 
HETATM    4 BR1  UNL     1      10.763 -11.086  15.631  1.00  0.00    -0.048 Br
HETATM    5  C8  UNL     1      11.429  -9.681  18.003  1.00  0.00     0.072 A 
HETATM    6  S1  UNL     1      11.686  -8.124  18.607  1.00  0.00    -0.097 SA
HETATM    7  C9  UNL     1      11.464  -7.236  17.181  1.00  0.00     0.049 A 
HETATM    8  C10 UNL     1      11.452  -5.957  16.660  1.00  0.00     0.049 A 
HETATM    9  C11 UNL     1      11.634  -4.641  16.987  1.00  0.00     0.126 A 
HETATM   10  N3  UNL     1      11.455  -3.980  15.858  1.00  0.00    -0.283 N 
ATOM     11  H3  UNL     1      11.521  -2.967  15.755  1.00  0.00     0.188 HD
HETATM   12  N4  UNL     1      11.170  -4.848  14.856  1.00  0.00    -0.145 N 
HETATM   13  C12 UNL     1      11.157  -6.107  15.324  1.00  0.00     0.175 A 
ENDROOT
BRANCH   1  14
HETATM   14  C5  UNL     1      10.781  -7.951  13.771  1.00  0.00     0.226 C 
BRANCH  14  15
HETATM   15  N1  UNL     1       9.901  -7.611  12.751  1.00  0.00    -0.348 N 
ATOM     16  H1  UNL     1      10.265  -7.186  11.898  1.00  0.00     0.163 HD
BRANCH  15  17
HETATM   17  C2  UNL     1       8.438  -7.854  12.876  1.00  0.00     0.022 C 
HETATM   18  C1  UNL     1       7.878  -8.234  11.529  1.00  0.00     0.037 C 
HETATM   19  C3  UNL     1       7.733  -6.584  13.306  1.00  0.00     0.037 C 
HETATM   20  C4  UNL     1       8.185  -8.978  13.851  1.00  0.00     0.037 C 
ENDBRANCH  15  17
ENDBRANCH  14  15
BRANCH  14  21
HETATM   21  O1  UNL     1      11.539  -8.954  13.429  1.00  0.00    -0.332 OA
ATOM     22  H1  UNL     1      11.325  -9.734  13.926  1.00  0.00     0.221 HD
ENDBRANCH  14  21
ENDBRANCH   1  14
BRANCH  12  23
HETATM   23  O2  UNL     1      10.963  -4.423  13.572  1.00  0.00    -0.266 OA
ATOM     24  H2  UNL     1      11.356  -4.866  12.829  1.00  0.00     0.247 HD
ENDBRANCH  12  23
TORSDOF 5
ENDMDL
