MODEL 1
REMARK VINA RESULT: -6.626771608      0.000      0.000
REMARK  3 active torsions:
REMARK  status: ('A' for Active; 'I' for Inactive)
REMARK    1  A    between atoms: C4_6  and  N2_7 
REMARK       I    between atoms: N2_7  and  C5_9 
REMARK    2  A    between atoms: C5_9  and  C6_11 
REMARK    3  A    between atoms: C10_16  and  C11_17 
ROOT
HETATM    1  C1  UNL     1       7.891  58.809  -1.200  1.00  0.00     0.019 C 
HETATM    2  C2  UNL     1       6.887  58.535  -0.566  1.00  0.00    -0.058 C 
HETATM    3  C3  UNL     1       5.674  58.222   0.200  1.00  0.00     0.110 A 
HETATM    4  N1  UNL     1       5.438  57.031   0.669  1.00  0.00    -0.328 N 
ATOM      5  H1  UNL     1       6.097  56.267   0.517  1.00  0.00     0.168 HD
HETATM    6  C4  UNL     1       4.308  56.838   1.354  1.00  0.00     0.153 A 
HETATM    7  S1  UNL     1       3.568  58.376   1.329  1.00  0.00    -0.046 SA
HETATM    8  C10 UNL     1       4.758  59.203   0.433  1.00  0.00     0.108 A 
ENDROOT
BRANCH   8   9
HETATM    9  C11 UNL     1       4.767  60.619   0.026  1.00  0.00     0.274 C 
HETATM   10  N3  UNL     1       5.751  61.491   0.559  1.00  0.00    -0.057 NA
HETATM   11  O2  UNL     1       3.935  61.076  -0.774  1.00  0.00    -0.270 OA
ENDBRANCH   8   9
BRANCH   6  12
HETATM   12  N2  UNL     1       3.891  55.714   1.905  1.00  0.00    -0.306 N 
HETATM   13  C5  UNL     1       4.789  54.880   2.595  1.00  0.00     0.231 C 
HETATM   14  O1  UNL     1       5.320  55.295   3.657  1.00  0.00    -0.272 OA
ATOM     15  H2  UNL     1       2.909  55.448   1.831  1.00  0.00     0.171 HD
BRANCH  13  16
HETATM   16  C6  UNL     1       5.161  53.516   2.146  1.00  0.00     0.030 C 
HETATM   17  C7  UNL     1       4.852  53.297   0.682  1.00  0.00     0.025 C 
HETATM   18  C8  UNL     1       4.421  52.450   2.922  1.00  0.00     0.025 C 
HETATM   19  C9  UNL     1       6.652  53.365   2.398  1.00  0.00     0.025 C 
ENDBRANCH  13  16
ENDBRANCH   6  12
TORSDOF 3
ENDMDL
MODEL 2
REMARK VINA RESULT: -6.432871074      1.898      2.741
REMARK  3 active torsions:
REMARK  status: ('A' for Active; 'I' for Inactive)
REMARK    1  A    between atoms: C4_6  and  N2_7 
REMARK       I    between atoms: N2_7  and  C5_9 
REMARK    2  A    between atoms: C5_9  and  C6_11 
REMARK    3  A    between atoms: C10_16  and  C11_17 
ROOT
HETATM    1  C1  UNL     1       2.504  59.247   1.853  1.00  0.00     0.019 C 
HETATM    2  C2  UNL     1       3.527  58.828   1.339  1.00  0.00    -0.058 C 
HETATM    3  C3  UNL     1       4.761  58.338   0.713  1.00  0.00     0.110 A 
HETATM    4  N1  UNL     1       5.096  57.080   0.732  1.00  0.00    -0.328 N 
ATOM      5  H1  UNL     1       4.505  56.385   1.188  1.00  0.00     0.168 HD
HETATM    6  C4  UNL     1       6.238  56.725   0.135  1.00  0.00     0.153 A 
HETATM    7  S1  UNL     1       6.844  58.206  -0.461  1.00  0.00    -0.046 SA
HETATM    8  C10 UNL     1       5.590  59.220   0.088  1.00  0.00     0.108 A 
ENDROOT
BRANCH   8   9
HETATM    9  C11 UNL     1       5.461  60.678  -0.083  1.00  0.00     0.274 C 
HETATM   10  N3  UNL     1       6.352  61.540   0.606  1.00  0.00    -0.057 NA
HETATM   11  O2  UNL     1       4.594  61.178  -0.815  1.00  0.00    -0.270 OA
ENDBRANCH   8   9
BRANCH   6  12
HETATM   12  N2  UNL     1       6.748  55.512   0.046  1.00  0.00    -0.306 N 
HETATM   13  C5  UNL     1       5.990  54.388   0.422  1.00  0.00     0.231 C 
HETATM   14  O1  UNL     1       4.963  54.090  -0.241  1.00  0.00    -0.272 OA
ATOM     15  H2  UNL     1       7.700  55.387  -0.299  1.00  0.00     0.171 HD
BRANCH  13  16
HETATM   16  C6  UNL     1       6.324  53.513   1.572  1.00  0.00     0.030 C 
HETATM   17  C7  UNL     1       7.813  53.274   1.689  1.00  0.00     0.025 C 
HETATM   18  C8  UNL     1       5.663  52.158   1.455  1.00  0.00     0.025 C 
HETATM   19  C9  UNL     1       5.803  54.211   2.818  1.00  0.00     0.025 C 
ENDBRANCH  13  16
ENDBRANCH   6  12
TORSDOF 3
ENDMDL
MODEL 3
REMARK VINA RESULT: -6.382609330      5.174      8.854
REMARK  3 active torsions:
REMARK  status: ('A' for Active; 'I' for Inactive)
REMARK    1  A    between atoms: C4_6  and  N2_7 
REMARK       I    between atoms: N2_7  and  C5_9 
REMARK    2  A    between atoms: C5_9  and  C6_11 
REMARK    3  A    between atoms: C10_16  and  C11_17 
ROOT
HETATM    1  C1  UNL     1       3.414  47.749   4.830  1.00  0.00     0.019 C 
HETATM    2  C2  UNL     1       3.139  48.484   3.898  1.00  0.00    -0.058 C 
HETATM    3  C3  UNL     1       2.793  49.360   2.772  1.00  0.00     0.110 A 
HETATM    4  N1  UNL     1       3.633  50.228   2.285  1.00  0.00    -0.328 N 
ATOM      5  H1  UNL     1       4.570  50.328   2.675  1.00  0.00     0.168 HD
HETATM    6  C4  UNL     1       3.231  50.984   1.259  1.00  0.00     0.153 A 
HETATM    7  S1  UNL     1       1.632  50.452   0.985  1.00  0.00    -0.046 SA
HETATM    8  C10 UNL     1       1.555  49.272   2.211  1.00  0.00     0.108 A 
ENDROOT
BRANCH   8   9
HETATM    9  C11 UNL     1       0.423  48.395   2.556  1.00  0.00     0.274 C 
HETATM   10  N3  UNL     1      -0.468  48.781   3.591  1.00  0.00    -0.057 NA
HETATM   11  O2  UNL     1       0.221  47.322   1.965  1.00  0.00    -0.270 OA
ENDBRANCH   8   9
BRANCH   6  12
HETATM   12  N2  UNL     1       3.927  51.911   0.630  1.00  0.00    -0.306 N 
HETATM   13  C5  UNL     1       5.205  52.279   1.089  1.00  0.00     0.231 C 
HETATM   14  O1  UNL     1       6.139  51.438   1.045  1.00  0.00    -0.272 OA
ATOM     15  H2  UNL     1       3.536  52.365  -0.195  1.00  0.00     0.171 HD
BRANCH  13  16
HETATM   16  C6  UNL     1       5.534  53.620   1.633  1.00  0.00     0.030 C 
HETATM   17  C7  UNL     1       4.612  54.014   2.765  1.00  0.00     0.025 C 
HETATM   18  C8  UNL     1       5.426  54.695   0.575  1.00  0.00     0.025 C 
HETATM   19  C9  UNL     1       6.971  53.551   2.123  1.00  0.00     0.025 C 
ENDBRANCH  13  16
ENDBRANCH   6  12
TORSDOF 3
ENDMDL
MODEL 4
REMARK VINA RESULT: -6.368752280      1.811      2.123
REMARK  3 active torsions:
REMARK  status: ('A' for Active; 'I' for Inactive)
REMARK    1  A    between atoms: C4_6  and  N2_7 
REMARK       I    between atoms: N2_7  and  C5_9 
REMARK    2  A    between atoms: C5_9  and  C6_11 
REMARK    3  A    between atoms: C10_16  and  C11_17 
ROOT
HETATM    1  C1  UNL     1       8.595  60.451  -2.257  1.00  0.00     0.019 C 
HETATM    2  C2  UNL     1       7.955  59.646  -1.603  1.00  0.00    -0.058 C 
HETATM    3  C3  UNL     1       7.176  58.689  -0.809  1.00  0.00     0.110 A 
HETATM    4  N1  UNL     1       7.538  57.447  -0.667  1.00  0.00    -0.328 N 
ATOM      5  H1  UNL     1       8.387  57.093  -1.110  1.00  0.00     0.168 HD
HETATM    6  C4  UNL     1       6.767  56.647   0.075  1.00  0.00     0.153 A 
HETATM    7  S1  UNL     1       5.504  57.680   0.578  1.00  0.00    -0.046 SA
HETATM    8  C10 UNL     1       6.033  59.104  -0.195  1.00  0.00     0.108 A 
ENDROOT
BRANCH   8   9
HETATM    9  C11 UNL     1       5.395  60.432  -0.185  1.00  0.00     0.274 C 
HETATM   10  N3  UNL     1       5.989  61.484   0.558  1.00  0.00    -0.057 NA
HETATM   11  O2  UNL     1       4.348  60.661  -0.811  1.00  0.00    -0.270 OA
ENDBRANCH   8   9
BRANCH   6  12
HETATM   12  N2  UNL     1       6.961  55.369   0.337  1.00  0.00    -0.306 N 
HETATM   13  C5  UNL     1       5.872  54.521   0.610  1.00  0.00     0.231 C 
HETATM   14  O1  UNL     1       5.034  54.288  -0.298  1.00  0.00    -0.272 OA
ATOM     15  H2  UNL     1       7.909  54.992   0.341  1.00  0.00     0.171 HD
BRANCH  13  16
HETATM   16  C6  UNL     1       5.639  53.871   1.922  1.00  0.00     0.030 C 
HETATM   17  C7  UNL     1       4.379  53.036   1.925  1.00  0.00     0.025 C 
HETATM   18  C8  UNL     1       5.503  54.887   3.034  1.00  0.00     0.025 C 
HETATM   19  C9  UNL     1       6.851  52.997   2.197  1.00  0.00     0.025 C 
ENDBRANCH  13  16
ENDBRANCH   6  12
TORSDOF 3
ENDMDL
MODEL 5
REMARK VINA RESULT: -6.339234936      3.026      6.942
REMARK  3 active torsions:
REMARK  status: ('A' for Active; 'I' for Inactive)
REMARK    1  A    between atoms: C4_6  and  N2_7 
REMARK       I    between atoms: N2_7  and  C5_9 
REMARK    2  A    between atoms: C5_9  and  C6_11 
REMARK    3  A    between atoms: C10_16  and  C11_17 
ROOT
HETATM    1  C1  UNL     1       2.297  50.524   1.201  1.00  0.00     0.019 C 
HETATM    2  C2  UNL     1       3.098  51.387   1.514  1.00  0.00    -0.058 C 
HETATM    3  C3  UNL     1       4.074  52.415   1.895  1.00  0.00     0.110 A 
HETATM    4  N1  UNL     1       3.730  53.651   2.114  1.00  0.00    -0.328 N 
ATOM      5  H1  UNL     1       2.759  53.949   2.028  1.00  0.00     0.168 HD
HETATM    6  C4  UNL     1       4.687  54.518   2.457  1.00  0.00     0.153 A 
HETATM    7  S1  UNL     1       6.099  53.559   2.465  1.00  0.00    -0.046 SA
HETATM    8  C10 UNL     1       5.387  52.075   2.026  1.00  0.00     0.108 A 
ENDROOT
BRANCH   8   9
HETATM    9  C11 UNL     1       6.047  50.771   1.841  1.00  0.00     0.274 C 
HETATM   10  N3  UNL     1       5.937  49.784   2.854  1.00  0.00    -0.057 NA
HETATM   11  O2  UNL     1       6.701  50.507   0.819  1.00  0.00    -0.270 OA
ENDBRANCH   8   9
BRANCH   6  12
HETATM   12  N2  UNL     1       4.543  55.803   2.718  1.00  0.00    -0.306 N 
HETATM   13  C5  UNL     1       3.848  56.641   1.827  1.00  0.00     0.231 C 
HETATM   14  O1  UNL     1       2.617  56.460   1.648  1.00  0.00    -0.272 OA
ATOM     15  H2  UNL     1       4.939  56.193   3.574  1.00  0.00     0.171 HD
BRANCH  13  16
HETATM   16  C6  UNL     1       4.482  57.746   1.067  1.00  0.00     0.030 C 
HETATM   17  C7  UNL     1       3.851  59.085   1.381  1.00  0.00     0.025 C 
HETATM   18  C8  UNL     1       4.366  57.538  -0.426  1.00  0.00     0.025 C 
HETATM   19  C9  UNL     1       5.952  57.754   1.452  1.00  0.00     0.025 C 
ENDBRANCH  13  16
ENDBRANCH   6  12
TORSDOF 3
ENDMDL
