MODEL 1
REMARK VINA RESULT: -7.245753656      0.000      0.000
REMARK  3 active torsions:
REMARK  status: ('A' for Active; 'I' for Inactive)
REMARK       I    between atoms: N2_5  and  C4_6 
REMARK       I    between atoms: C4_6  and  N4_11 
REMARK    1  A    between atoms: N3_7  and  O1_9 
REMARK    2  A    between atoms: N4_11  and  C5_13 
REMARK    3  A    between atoms: C5_13  and  C6_14 
ROOT
HETATM    1  C1  UNL     1       0.643  49.012   1.949  1.00  0.00     0.310 C 
HETATM    2  N1  UNL     1       1.526  50.162   2.097  1.00  0.00     0.088 N 
HETATM    3  C2  UNL     1       2.273  50.278   0.884  1.00  0.00     0.292 C 
HETATM    4  C3  UNL     1       3.452  51.192   0.947  1.00  0.00     0.172 C 
HETATM    5  N2  UNL     1       4.008  51.376   2.264  1.00  0.00    -0.204 N 
HETATM    6  C4  UNL     1       4.777  52.513   2.585  1.00  0.00     0.696 C 
HETATM    7  N3  UNL     1       6.030  52.331   2.927  1.00  0.00    -0.099 N 
ATOM      8  H3  UNL     1       6.407  51.384   2.953  1.00  0.00     0.213 HD
HETATM    9  N4  UNL     1       4.322  53.850   2.580  1.00  0.00    -0.224 N 
ATOM     10  H4  UNL     1       3.795  54.205   3.378  1.00  0.00     0.177 HD
HETATM   11  C10 UNL     1       3.730  50.306   3.200  1.00  0.00     0.069 C 
HETATM   12  C11 UNL     1       4.212  50.723   4.575  1.00  0.00     0.041 C 
HETATM   13  C12 UNL     1       4.464  49.031   2.866  1.00  0.00     0.041 C 
HETATM   14  C13 UNL     1       2.254  50.117   3.297  1.00  0.00     0.302 C 
ENDROOT
BRANCH   7  15
HETATM   15  O1  UNL     1       6.851  53.391   3.252  1.00  0.00    -0.276 OA
ATOM     16  H1  UNL     1       6.681  54.269   2.930  1.00  0.00     0.245 HD
ENDBRANCH   7  15
BRANCH   9  17
HETATM   17  C5  UNL     1       4.591  54.714   1.467  1.00  0.00     0.146 C 
BRANCH  17  18
HETATM   18  C6  UNL     1       4.836  56.152   1.846  1.00  0.00    -0.035 C 
HETATM   19  C7  UNL     1       5.257  56.372   3.258  1.00  0.00     0.016 C 
HETATM   20  C8  UNL     1       5.806  56.808   0.892  1.00  0.00     0.016 C 
HETATM   21  C9  UNL     1       3.491  56.866   1.643  1.00  0.00     0.016 C 
ENDBRANCH  17  18
ENDBRANCH   9  17
TORSDOF 3
ENDMDL
MODEL 2
REMARK VINA RESULT: -6.609814154      1.658      6.039
REMARK  3 active torsions:
REMARK  status: ('A' for Active; 'I' for Inactive)
REMARK       I    between atoms: N2_5  and  C4_6 
REMARK       I    between atoms: C4_6  and  N4_11 
REMARK    1  A    between atoms: N3_7  and  O1_9 
REMARK    2  A    between atoms: N4_11  and  C5_13 
REMARK    3  A    between atoms: C5_13  and  C6_14 
ROOT
HETATM    1  C1  UNL     1       4.619  58.165  -0.193  1.00  0.00     0.310 C 
HETATM    2  N1  UNL     1       4.701  56.805   0.324  1.00  0.00     0.088 N 
HETATM    3  C2  UNL     1       4.215  56.835   1.668  1.00  0.00     0.292 C 
HETATM    4  C3  UNL     1       4.508  55.616   2.479  1.00  0.00     0.172 C 
HETATM    5  N2  UNL     1       5.659  54.864   2.049  1.00  0.00    -0.204 N 
HETATM    6  C4  UNL     1       5.806  53.499   2.369  1.00  0.00     0.696 C 
HETATM    7  N3  UNL     1       6.824  53.148   3.118  1.00  0.00    -0.099 N 
ATOM      8  H3  UNL     1       7.474  53.865   3.441  1.00  0.00     0.213 HD
HETATM    9  N4  UNL     1       4.954  52.452   1.950  1.00  0.00    -0.224 N 
ATOM     10  H4  UNL     1       5.062  52.059   1.016  1.00  0.00     0.177 HD
HETATM   11  C10 UNL     1       6.637  55.619   1.294  1.00  0.00     0.069 C 
HETATM   12  C11 UNL     1       7.685  54.665   0.758  1.00  0.00     0.041 C 
HETATM   13  C12 UNL     1       7.380  56.625   2.139  1.00  0.00     0.041 C 
HETATM   14  C13 UNL     1       5.968  56.237   0.113  1.00  0.00     0.302 C 
ENDROOT
BRANCH   7  15
HETATM   15  O1  UNL     1       7.037  51.835   3.478  1.00  0.00    -0.276 OA
ATOM     16  H1  UNL     1       7.449  51.605   4.303  1.00  0.00     0.245 HD
ENDBRANCH   7  15
BRANCH   9  17
HETATM   17  C5  UNL     1       3.938  51.939   2.823  1.00  0.00     0.146 C 
BRANCH  17  18
HETATM   18  C6  UNL     1       3.311  50.651   2.351  1.00  0.00    -0.035 C 
HETATM   19  C7  UNL     1       2.192  50.146   3.194  1.00  0.00     0.016 C 
HETATM   20  C8  UNL     1       2.886  50.753   0.905  1.00  0.00     0.016 C 
HETATM   21  C9  UNL     1       4.436  49.607   2.392  1.00  0.00     0.016 C 
ENDBRANCH  17  18
ENDBRANCH   9  17
TORSDOF 3
ENDMDL
MODEL 3
REMARK VINA RESULT: -6.439549928      1.964      2.806
REMARK  3 active torsions:
REMARK  status: ('A' for Active; 'I' for Inactive)
REMARK       I    between atoms: N2_5  and  C4_6 
REMARK       I    between atoms: C4_6  and  N4_11 
REMARK    1  A    between atoms: N3_7  and  O1_9 
REMARK    2  A    between atoms: N4_11  and  C5_13 
REMARK    3  A    between atoms: C5_13  and  C6_14 
ROOT
HETATM    1  C1  UNL     1       3.563  49.719   3.446  1.00  0.00     0.310 C 
HETATM    2  N1  UNL     1       3.976  51.038   2.982  1.00  0.00     0.088 N 
HETATM    3  C2  UNL     1       3.565  51.152   1.618  1.00  0.00     0.292 C 
HETATM    4  C3  UNL     1       4.168  52.293   0.864  1.00  0.00     0.172 C 
HETATM    5  N2  UNL     1       5.435  52.753   1.372  1.00  0.00    -0.204 N 
HETATM    6  C4  UNL     1       5.903  54.056   1.108  1.00  0.00     0.696 C 
HETATM    7  N3  UNL     1       7.011  54.185   0.418  1.00  0.00    -0.099 N 
ATOM      8  H3  UNL     1       7.498  53.347   0.098  1.00  0.00     0.213 HD
HETATM    9  N4  UNL     1       5.288  55.258   1.526  1.00  0.00    -0.224 N 
ATOM     10  H4  UNL     1       5.435  55.594   2.478  1.00  0.00     0.177 HD
HETATM   11  C10 UNL     1       6.178  51.776   2.142  1.00  0.00     0.069 C 
HETATM   12  C11 UNL     1       7.384  52.454   2.757  1.00  0.00     0.041 C 
HETATM   13  C12 UNL     1       6.716  50.649   1.295  1.00  0.00     0.041 C 
HETATM   14  C13 UNL     1       5.326  51.298   3.269  1.00  0.00     0.302 C 
ENDROOT
BRANCH   7  15
HETATM   15  O1  UNL     1       7.533  55.424   0.114  1.00  0.00    -0.276 OA
ATOM     16  H1  UNL     1       8.051  55.568  -0.669  1.00  0.00     0.245 HD
ENDBRANCH   7  15
BRANCH   9  17
HETATM   17  C5  UNL     1       4.461  56.011   0.628  1.00  0.00     0.146 C 
BRANCH  17  18
HETATM   18  C6  UNL     1       4.388  57.483   0.943  1.00  0.00    -0.035 C 
HETATM   19  C7  UNL     1       5.229  58.358   0.078  1.00  0.00     0.016 C 
HETATM   20  C8  UNL     1       2.956  57.965   0.957  1.00  0.00     0.016 C 
HETATM   21  C9  UNL     1       4.898  57.621   2.385  1.00  0.00     0.016 C 
ENDBRANCH  17  18
ENDBRANCH   9  17
TORSDOF 3
ENDMDL
MODEL 4
REMARK VINA RESULT: -6.117168288      3.707      6.078
REMARK  3 active torsions:
REMARK  status: ('A' for Active; 'I' for Inactive)
REMARK       I    between atoms: N2_5  and  C4_6 
REMARK       I    between atoms: C4_6  and  N4_11 
REMARK    1  A    between atoms: N3_7  and  O1_9 
REMARK    2  A    between atoms: N4_11  and  C5_13 
REMARK    3  A    between atoms: C5_13  and  C6_14 
ROOT
HETATM    1  C1  UNL     1       4.854  58.497   0.041  1.00  0.00     0.310 C 
HETATM    2  N1  UNL     1       5.550  57.293   0.479  1.00  0.00     0.088 N 
HETATM    3  C2  UNL     1       5.086  56.216  -0.339  1.00  0.00     0.292 C 
HETATM    4  C3  UNL     1       5.434  54.849   0.150  1.00  0.00     0.172 C 
HETATM    5  N2  UNL     1       5.657  54.752   1.570  1.00  0.00    -0.204 N 
HETATM    6  C4  UNL     1       6.425  53.706   2.123  1.00  0.00     0.696 C 
HETATM    7  N3  UNL     1       5.830  52.874   2.944  1.00  0.00    -0.099 N 
ATOM      8  H3  UNL     1       4.841  53.006   3.158  1.00  0.00     0.213 HD
HETATM    9  N4  UNL     1       7.796  53.467   1.881  1.00  0.00    -0.224 N 
ATOM     10  H4  UNL     1       8.498  54.006   2.387  1.00  0.00     0.177 HD
HETATM   11  C10 UNL     1       5.024  55.786   2.363  1.00  0.00     0.069 C 
HETATM   12  C11 UNL     1       5.497  55.661   3.796  1.00  0.00     0.041 C 
HETATM   13  C12 UNL     1       3.521  55.654   2.403  1.00  0.00     0.041 C 
HETATM   14  C13 UNL     1       5.476  57.119   1.871  1.00  0.00     0.302 C 
ENDROOT
BRANCH   7  15
HETATM   15  O1  UNL     1       6.509  51.823   3.524  1.00  0.00    -0.276 OA
ATOM     16  H1  UNL     1       6.614  51.759   4.467  1.00  0.00     0.245 HD
ENDBRANCH   7  15
BRANCH   9  17
HETATM   17  C5  UNL     1       8.212  52.475   0.932  1.00  0.00     0.146 C 
BRANCH  17  18
HETATM   18  C6  UNL     1       9.692  52.477   0.644  1.00  0.00    -0.035 C 
HETATM   19  C7  UNL     1      10.055  52.550  -0.799  1.00  0.00     0.016 C 
HETATM   20  C8  UNL     1      10.396  53.560   1.427  1.00  0.00     0.016 C 
HETATM   21  C9  UNL     1      10.219  51.143   1.193  1.00  0.00     0.016 C 
ENDBRANCH  17  18
ENDBRANCH   9  17
TORSDOF 3
ENDMDL
MODEL 5
REMARK VINA RESULT: -6.018306986      2.578      3.964
REMARK  3 active torsions:
REMARK  status: ('A' for Active; 'I' for Inactive)
REMARK       I    between atoms: N2_5  and  C4_6 
REMARK       I    between atoms: C4_6  and  N4_11 
REMARK    1  A    between atoms: N3_7  and  O1_9 
REMARK    2  A    between atoms: N4_11  and  C5_13 
REMARK    3  A    between atoms: C5_13  and  C6_14 
ROOT
HETATM    1  C1  UNL     1       7.824  50.492   1.337  1.00  0.00     0.310 C 
HETATM    2  N1  UNL     1       7.093  51.750   1.256  1.00  0.00     0.088 N 
HETATM    3  C2  UNL     1       7.537  52.567   2.342  1.00  0.00     0.292 C 
HETATM    4  C3  UNL     1       6.691  53.764   2.627  1.00  0.00     0.172 C 
HETATM    5  N2  UNL     1       5.318  53.651   2.205  1.00  0.00    -0.204 N 
HETATM    6  C4  UNL     1       4.528  54.793   1.963  1.00  0.00     0.696 C 
HETATM    7  N3  UNL     1       3.470  54.980   2.716  1.00  0.00    -0.099 N 
ATOM      8  H3  UNL     1       3.251  54.301   3.445  1.00  0.00     0.213 HD
HETATM    9  N4  UNL     1       4.763  55.768   0.968  1.00  0.00    -0.224 N 
ATOM     10  H4  UNL     1       4.474  55.587   0.007  1.00  0.00     0.177 HD
HETATM   11  C10 UNL     1       4.828  52.294   2.074  1.00  0.00     0.069 C 
HETATM   12  C11 UNL     1       3.447  52.332   1.452  1.00  0.00     0.041 C 
HETATM   13  C12 UNL     1       4.670  51.598   3.404  1.00  0.00     0.041 C 
HETATM   14  C13 UNL     1       5.709  51.548   1.130  1.00  0.00     0.302 C 
ENDROOT
BRANCH   7  15
HETATM   15  O1  UNL     1       2.647  56.073   2.545  1.00  0.00    -0.276 OA
ATOM     16  H1  UNL     1       2.244  56.267   1.706  1.00  0.00     0.245 HD
ENDBRANCH   7  15
BRANCH   9  17
HETATM   17  C5  UNL     1       5.404  57.009   1.293  1.00  0.00     0.146 C 
BRANCH  17  18
HETATM   18  C6  UNL     1       4.874  58.197   0.531  1.00  0.00    -0.035 C 
HETATM   19  C7  UNL     1       3.972  59.095   1.306  1.00  0.00     0.016 C 
HETATM   20  C8  UNL     1       5.999  58.984  -0.099  1.00  0.00     0.016 C 
HETATM   21  C9  UNL     1       4.062  57.609  -0.633  1.00  0.00     0.016 C 
ENDBRANCH  17  18
ENDBRANCH   9  17
TORSDOF 3
ENDMDL
