MODEL 1
REMARK VINA RESULT: -7.078779037      0.000      0.000
REMARK  4 active torsions:
REMARK  status: ('A' for Active; 'I' for Inactive)
REMARK    1  A    between atoms: C1_4  and  C2_6 
REMARK    2  A    between atoms: C2_6  and  C3_7 
REMARK    3  A    between atoms: C4_8  and  C5_9 
REMARK    4  A    between atoms: C5_9  and  N3_10 
ROOT
HETATM    1  C2  UNL     1       5.085  56.022   1.551  1.00  0.00     0.079 C 
HETATM    2  C10 UNL     1       5.805  56.533   0.337  1.00  0.00     0.030 C 
HETATM    3  C11 UNL     1       5.034  57.578  -0.419  1.00  0.00     0.002 C 
HETATM    4  C12 UNL     1       4.454  58.653   0.466  1.00  0.00     0.000 C 
HETATM    5  C13 UNL     1       3.697  58.130   1.640  1.00  0.00     0.002 C 
HETATM    6  C14 UNL     1       3.817  56.668   1.879  1.00  0.00     0.030 C 
ENDROOT
BRANCH   1   7
HETATM    7  C1  UNL     1       6.050  56.055   2.668  1.00  0.00     0.107 C 
HETATM    8  N1  UNL     1       7.282  56.205   2.518  1.00  0.00    -0.390 N 
ATOM      9  H12 UNL     1       7.948  56.228   3.290  1.00  0.00     0.157 HD
ATOM     10  H11 UNL     1       7.621  56.311   1.562  1.00  0.00     0.157 HD
HETATM   11  N2  UNL     1       5.572  55.904   4.016  1.00  0.00    -0.086 NA
ENDBRANCH   1   7
BRANCH   1  12
HETATM   12  C3  UNL     1       4.795  54.569   1.356  1.00  0.00    -0.087 C 
HETATM   13  C4  UNL     1       4.571  53.391   1.219  1.00  0.00    -0.075 C 
BRANCH  13  14
HETATM   14  C5  UNL     1       4.281  51.966   1.060  1.00  0.00     0.366 C 
BRANCH  14  15
HETATM   15  N3  UNL     1       3.759  51.392   2.275  1.00  0.00     0.103 N 
HETATM   16  C6  UNL     1       3.347  50.033   2.079  1.00  0.00     0.299 C 
HETATM   17  C7  UNL     1       4.262  49.093   2.836  1.00  0.00     0.198 C 
HETATM   18  O1  UNL     1       4.312  49.349   4.185  1.00  0.00    -0.388 OA
HETATM   19  C8  UNL     1       4.150  50.670   4.531  1.00  0.00     0.198 C 
HETATM   20  C9  UNL     1       4.649  51.540   3.387  1.00  0.00     0.299 C 
ENDBRANCH  14  15
ENDBRANCH  13  14
ENDBRANCH   1  12
TORSDOF 4
ENDMDL
MODEL 2
REMARK VINA RESULT: -7.001716226      1.123      1.342
REMARK  4 active torsions:
REMARK  status: ('A' for Active; 'I' for Inactive)
REMARK    1  A    between atoms: C1_4  and  C2_6 
REMARK    2  A    between atoms: C2_6  and  C3_7 
REMARK    3  A    between atoms: C4_8  and  C5_9 
REMARK    4  A    between atoms: C5_9  and  N3_10 
ROOT
HETATM    1  C2  UNL     1       5.087  55.956   1.553  1.00  0.00     0.079 C 
HETATM    2  C10 UNL     1       5.804  56.433   0.325  1.00  0.00     0.030 C 
HETATM    3  C11 UNL     1       5.039  57.468  -0.451  1.00  0.00     0.002 C 
HETATM    4  C12 UNL     1       4.473  58.568   0.413  1.00  0.00     0.000 C 
HETATM    5  C13 UNL     1       3.718  58.078   1.602  1.00  0.00     0.002 C 
HETATM    6  C14 UNL     1       3.826  56.621   1.872  1.00  0.00     0.030 C 
ENDROOT
BRANCH   1   7
HETATM    7  C1  UNL     1       6.057  56.005   2.664  1.00  0.00     0.107 C 
HETATM    8  N1  UNL     1       7.291  56.122   2.504  1.00  0.00    -0.390 N 
ATOM      9  H12 UNL     1       7.962  56.156   3.272  1.00  0.00     0.157 HD
ATOM     10  H11 UNL     1       7.628  56.188   1.544  1.00  0.00     0.157 HD
HETATM   11  N2  UNL     1       5.582  55.911   4.019  1.00  0.00    -0.086 NA
ENDBRANCH   1   7
BRANCH   1  12
HETATM   12  C3  UNL     1       4.782  54.502   1.392  1.00  0.00    -0.087 C 
HETATM   13  C4  UNL     1       4.544  53.324   1.284  1.00  0.00    -0.075 C 
BRANCH  13  14
HETATM   14  C5  UNL     1       4.235  51.900   1.156  1.00  0.00     0.366 C 
BRANCH  14  15
HETATM   15  N3  UNL     1       3.189  51.500   2.066  1.00  0.00     0.103 N 
HETATM   16  C6  UNL     1       1.947  51.296   1.380  1.00  0.00     0.299 C 
HETATM   17  C7  UNL     1       1.578  49.827   1.391  1.00  0.00     0.198 C 
HETATM   18  O1  UNL     1       1.475  49.300   2.656  1.00  0.00    -0.388 OA
HETATM   19  C8  UNL     1       2.314  49.864   3.588  1.00  0.00     0.198 C 
HETATM   20  C9  UNL     1       3.556  50.381   2.880  1.00  0.00     0.299 C 
ENDBRANCH  14  15
ENDBRANCH  13  14
ENDBRANCH   1  12
TORSDOF 4
ENDMDL
MODEL 3
REMARK VINA RESULT: -6.839969208      1.356      1.852
REMARK  4 active torsions:
REMARK  status: ('A' for Active; 'I' for Inactive)
REMARK    1  A    between atoms: C1_4  and  C2_6 
REMARK    2  A    between atoms: C2_6  and  C3_7 
REMARK    3  A    between atoms: C4_8  and  C5_9 
REMARK    4  A    between atoms: C5_9  and  N3_10 
ROOT
HETATM    1  C2  UNL     1       5.261  55.675   1.930  1.00  0.00     0.079 C 
HETATM    2  C10 UNL     1       5.983  55.619   0.616  1.00  0.00     0.030 C 
HETATM    3  C11 UNL     1       5.236  56.284  -0.505  1.00  0.00     0.002 C 
HETATM    4  C12 UNL     1       4.697  57.645  -0.144  1.00  0.00     0.000 C 
HETATM    5  C13 UNL     1       3.937  57.676   1.139  1.00  0.00     0.002 C 
HETATM    6  C14 UNL     1       4.015  56.438   1.959  1.00  0.00     0.030 C 
ENDROOT
BRANCH   1   7
HETATM    7  C1  UNL     1       6.236  56.134   2.937  1.00  0.00     0.107 C 
HETATM    8  N1  UNL     1       7.446  56.333   2.693  1.00  0.00    -0.390 N 
ATOM      9  H12 UNL     1       8.121  56.650   3.390  1.00  0.00     0.157 HD
ATOM     10  H11 UNL     1       7.758  56.164   1.737  1.00  0.00     0.157 HD
HETATM   11  N2  UNL     1       5.797  56.372   4.287  1.00  0.00    -0.086 NA
ENDBRANCH   1   7
BRANCH   1  12
HETATM   12  C3  UNL     1       4.925  54.281   2.350  1.00  0.00    -0.087 C 
HETATM   13  C4  UNL     1       4.675  53.153   2.699  1.00  0.00    -0.075 C 
BRANCH  13  14
HETATM   14  C5  UNL     1       4.359  51.794   3.137  1.00  0.00     0.366 C 
BRANCH  14  15
HETATM   15  N3  UNL     1       3.827  50.998   2.059  1.00  0.00     0.103 N 
HETATM   16  C6  UNL     1       3.684  49.624   2.441  1.00  0.00     0.299 C 
HETATM   17  C7  UNL     1       2.218  49.253   2.527  1.00  0.00     0.198 C 
HETATM   18  O1  UNL     1       1.534  49.458   1.352  1.00  0.00    -0.388 OA
HETATM   19  C8  UNL     1       1.994  50.505   0.589  1.00  0.00     0.198 C 
HETATM   20  C9  UNL     1       2.622  51.542   1.508  1.00  0.00     0.299 C 
ENDBRANCH  14  15
ENDBRANCH  13  14
ENDBRANCH   1  12
TORSDOF 4
ENDMDL
MODEL 4
REMARK VINA RESULT: -6.717345004      1.958      2.431
REMARK  4 active torsions:
REMARK  status: ('A' for Active; 'I' for Inactive)
REMARK    1  A    between atoms: C1_4  and  C2_6 
REMARK    2  A    between atoms: C2_6  and  C3_7 
REMARK    3  A    between atoms: C4_8  and  C5_9 
REMARK    4  A    between atoms: C5_9  and  N3_10 
ROOT
HETATM    1  C2  UNL     1       5.398  54.281   1.530  1.00  0.00     0.079 C 
HETATM    2  C10 UNL     1       5.628  54.927   0.195  1.00  0.00     0.030 C 
HETATM    3  C11 UNL     1       4.984  56.278   0.065  1.00  0.00     0.002 C 
HETATM    4  C12 UNL     1       5.235  57.179   1.249  1.00  0.00     0.000 C 
HETATM    5  C13 UNL     1       4.952  56.541   2.567  1.00  0.00     0.002 C 
HETATM    6  C14 UNL     1       4.688  55.079   2.527  1.00  0.00     0.030 C 
ENDROOT
BRANCH   1   7
HETATM    7  C1  UNL     1       6.710  53.803   2.008  1.00  0.00     0.107 C 
HETATM    8  N1  UNL     1       6.879  53.205   3.093  1.00  0.00    -0.390 N 
ATOM      9  H12 UNL     1       7.786  52.875   3.423  1.00  0.00     0.157 HD
ATOM     10  H11 UNL     1       6.050  53.045   3.665  1.00  0.00     0.157 HD
HETATM   11  N2  UNL     1       7.879  54.030   1.201  1.00  0.00    -0.086 NA
ENDBRANCH   1   7
BRANCH   1  12
HETATM   12  C3  UNL     1       4.602  53.034   1.326  1.00  0.00    -0.087 C 
HETATM   13  C4  UNL     1       3.956  52.032   1.138  1.00  0.00    -0.075 C 
BRANCH  13  14
HETATM   14  C5  UNL     1       3.191  50.806   0.909  1.00  0.00     0.366 C 
BRANCH  14  15
HETATM   15  N3  UNL     1       2.199  50.601   1.935  1.00  0.00     0.103 N 
HETATM   16  C6  UNL     1       1.062  49.887   1.432  1.00  0.00     0.299 C 
HETATM   17  C7  UNL     1       0.996  48.506   2.049  1.00  0.00     0.198 C 
HETATM   18  O1  UNL     1       0.932  48.524   3.422  1.00  0.00    -0.388 OA
HETATM   19  C8  UNL     1       1.587  49.575   4.018  1.00  0.00     0.198 C 
HETATM   20  C9  UNL     1       2.738  50.006   3.121  1.00  0.00     0.299 C 
ENDBRANCH  14  15
ENDBRANCH  13  14
ENDBRANCH   1  12
TORSDOF 4
ENDMDL
MODEL 5
REMARK VINA RESULT: -6.631729884      1.241      1.799
REMARK  4 active torsions:
REMARK  status: ('A' for Active; 'I' for Inactive)
REMARK    1  A    between atoms: C1_4  and  C2_6 
REMARK    2  A    between atoms: C2_6  and  C3_7 
REMARK    3  A    between atoms: C4_8  and  C5_9 
REMARK    4  A    between atoms: C5_9  and  N3_10 
ROOT
HETATM    1  C2  UNL     1       5.818  56.166   1.255  1.00  0.00     0.079 C 
HETATM    2  C10 UNL     1       7.298  56.085   1.492  1.00  0.00     0.030 C 
HETATM    3  C11 UNL     1       8.114  56.684   0.381  1.00  0.00     0.002 C 
HETATM    4  C12 UNL     1       7.623  58.039  -0.061  1.00  0.00     0.000 C 
HETATM    5  C13 UNL     1       6.159  58.092  -0.342  1.00  0.00     0.002 C 
HETATM    6  C14 UNL     1       5.386  56.889   0.062  1.00  0.00     0.030 C 
ENDROOT
BRANCH   1   7
HETATM    7  C1  UNL     1       5.214  56.693   2.494  1.00  0.00     0.107 C 
HETATM    8  N1  UNL     1       4.226  57.459   2.515  1.00  0.00    -0.390 N 
ATOM      9  H12 UNL     1       3.809  57.824   3.371  1.00  0.00     0.157 HD
ATOM     10  H11 UNL     1       3.828  57.722   1.614  1.00  0.00     0.157 HD
HETATM   11  N2  UNL     1       5.777  56.323   3.765  1.00  0.00    -0.086 NA
ENDBRANCH   1   7
BRANCH   1  12
HETATM   12  C3  UNL     1       5.277  54.778   1.142  1.00  0.00    -0.087 C 
HETATM   13  C4  UNL     1       4.855  53.650   1.067  1.00  0.00    -0.075 C 
BRANCH  13  14
HETATM   14  C5  UNL     1       4.325  52.289   0.987  1.00  0.00     0.366 C 
BRANCH  14  15
HETATM   15  N3  UNL     1       3.802  51.847   2.257  1.00  0.00     0.103 N 
HETATM   16  C6  UNL     1       2.749  50.890   2.088  1.00  0.00     0.299 C 
HETATM   17  C7  UNL     1       3.197  49.527   2.572  1.00  0.00     0.198 C 
HETATM   18  O1  UNL     1       3.593  49.519   3.888  1.00  0.00    -0.388 OA
HETATM   19  C8  UNL     1       4.162  50.690   4.329  1.00  0.00     0.198 C 
HETATM   20  C9  UNL     1       4.823  51.387   3.150  1.00  0.00     0.299 C 
ENDBRANCH  14  15
ENDBRANCH  13  14
ENDBRANCH   1  12
TORSDOF 4
ENDMDL
