MODEL 1
REMARK VINA RESULT: -7.481609201      0.000      0.000
REMARK  2 active torsions:
REMARK  status: ('A' for Active; 'I' for Inactive)
REMARK       I    between atoms: N1_2  and  C2_4 
REMARK    1  A    between atoms: C2_4  and  C3_6 
REMARK    2  A    between atoms: C13_17  and  N2_18 
ROOT
HETATM    1  C3  UNL     1       5.677  56.245   0.697  1.00  0.00     0.067 C 
HETATM    2  C4  UNL     1       4.814  57.127  -0.257  1.00  0.00     0.024 C 
HETATM    3  C5  UNL     1       4.984  58.555   0.187  1.00  0.00     0.028 C 
HETATM    4  C6  UNL     1       4.274  58.695   1.533  1.00  0.00     0.168 C 
HETATM    5  O2  UNL     1       4.052  57.421   2.072  1.00  0.00    -0.385 OA
HETATM    6  C7  UNL     1       5.262  56.661   2.008  1.00  0.00     0.139 C 
HETATM    7  C8  UNL     1       5.294  55.668   3.196  1.00  0.00     0.040 C 
HETATM    8  C9  UNL     1       5.556  54.455   2.573  1.00  0.00     0.019 C 
HETATM    9  C10 UNL     1       4.314  54.248   1.705  1.00  0.00     0.011 C 
HETATM   10  C11 UNL     1       5.063  53.727   0.548  1.00  0.00    -0.011 C 
HETATM   11  C12 UNL     1       5.911  52.678   1.295  1.00  0.00     0.037 C 
HETATM   12  C13 UNL     1       5.775  53.062   2.810  1.00  0.00     0.188 C 
HETATM   13  C14 UNL     1       5.801  54.936   0.066  1.00  0.00     0.026 C 
ENDROOT
BRANCH   1  14
HETATM   14  C2  UNL     1       7.043  56.880   0.413  1.00  0.00     0.228 C 
HETATM   15  N1  UNL     1       7.431  57.055  -0.924  1.00  0.00    -0.365 N 
HETATM   16  C1  UNL     1       8.735  57.664  -1.206  1.00  0.00     0.149 C 
ATOM     17  H1  UNL     1       6.818  56.763  -1.685  1.00  0.00     0.161 HD
HETATM   18  O1  UNL     1       7.792  57.235   1.373  1.00  0.00    -0.273 OA
ENDBRANCH   1  14
BRANCH  12  19
HETATM   19  N2  UNL     1       7.072  52.806   3.408  1.00  0.00    -0.075 N 
ATOM     20  H23 UNL     1       7.041  52.925   4.421  1.00  0.00     0.274 HD
ATOM     21  H22 UNL     1       7.307  51.814   3.369  1.00  0.00     0.274 HD
ATOM     22  H21 UNL     1       7.807  53.376   2.992  1.00  0.00     0.274 HD
ENDBRANCH  12  19
TORSDOF 2
ENDMDL
MODEL 2
REMARK VINA RESULT: -6.910792171      2.012      5.099
REMARK  2 active torsions:
REMARK  status: ('A' for Active; 'I' for Inactive)
REMARK       I    between atoms: N1_2  and  C2_4 
REMARK    1  A    between atoms: C2_4  and  C3_6 
REMARK    2  A    between atoms: C13_17  and  N2_18 
ROOT
HETATM    1  C3  UNL     1       5.011  56.977   1.289  1.00  0.00     0.067 C 
HETATM    2  C4  UNL     1       3.958  55.840   1.472  1.00  0.00     0.024 C 
HETATM    3  C5  UNL     1       4.712  54.538   1.500  1.00  0.00     0.028 C 
HETATM    4  C6  UNL     1       5.246  54.299   0.087  1.00  0.00     0.168 C 
HETATM    5  O2  UNL     1       5.199  55.499  -0.633  1.00  0.00    -0.385 OA
HETATM    6  C7  UNL     1       5.776  56.546   0.152  1.00  0.00     0.139 C 
HETATM    7  C8  UNL     1       6.426  57.583  -0.797  1.00  0.00     0.040 C 
HETATM    8  C9  UNL     1       5.876  58.782  -0.363  1.00  0.00     0.019 C 
HETATM    9  C10 UNL     1       4.389  58.599  -0.670  1.00  0.00     0.011 C 
HETATM   10  C11 UNL     1       3.931  59.228   0.581  1.00  0.00    -0.011 C 
HETATM   11  C12 UNL     1       4.787  60.508   0.506  1.00  0.00     0.037 C 
HETATM   12  C13 UNL     1       5.875  60.195  -0.581  1.00  0.00     0.188 C 
HETATM   13  C14 UNL     1       4.343  58.230   1.617  1.00  0.00     0.026 C 
ENDROOT
BRANCH   1  14
HETATM   14  C2  UNL     1       5.848  56.709   2.546  1.00  0.00     0.228 C 
HETATM   15  N1  UNL     1       5.215  56.782   3.796  1.00  0.00    -0.365 N 
HETATM   16  C1  UNL     1       6.006  56.525   5.003  1.00  0.00     0.149 C 
ATOM     17  H1  UNL     1       4.223  57.010   3.863  1.00  0.00     0.161 HD
HETATM   18  O1  UNL     1       7.080  56.428   2.442  1.00  0.00    -0.273 OA
ENDBRANCH   1  14
BRANCH  12  19
HETATM   19  N2  UNL     1       7.099  60.821  -0.118  1.00  0.00    -0.075 N 
ATOM     20  H23 UNL     1       6.963  61.818   0.051  1.00  0.00     0.274 HD
ATOM     21  H22 UNL     1       7.329  60.526   0.831  1.00  0.00     0.274 HD
ATOM     22  H21 UNL     1       7.880  60.658  -0.754  1.00  0.00     0.274 HD
ENDBRANCH  12  19
TORSDOF 2
ENDMDL
MODEL 3
REMARK VINA RESULT: -6.131638749      1.740      4.318
REMARK  2 active torsions:
REMARK  status: ('A' for Active; 'I' for Inactive)
REMARK       I    between atoms: N1_2  and  C2_4 
REMARK    1  A    between atoms: C2_4  and  C3_6 
REMARK    2  A    between atoms: C13_17  and  N2_18 
ROOT
HETATM    1  C3  UNL     1       5.709  56.107   1.127  1.00  0.00     0.067 C 
HETATM    2  C4  UNL     1       4.879  56.116   2.448  1.00  0.00     0.024 C 
HETATM    3  C5  UNL     1       3.426  56.137   2.058  1.00  0.00     0.028 C 
HETATM    4  C6  UNL     1       3.144  57.514   1.455  1.00  0.00     0.168 C 
HETATM    5  O2  UNL     1       4.357  58.128   1.118  1.00  0.00    -0.385 OA
HETATM    6  C7  UNL     1       5.166  57.207   0.380  1.00  0.00     0.139 C 
HETATM    7  C8  UNL     1       6.053  58.001  -0.610  1.00  0.00     0.040 C 
HETATM    8  C9  UNL     1       7.325  57.513  -0.339  1.00  0.00     0.019 C 
HETATM    9  C10 UNL     1       7.557  57.963   1.104  1.00  0.00     0.011 C 
HETATM   10  C11 UNL     1       8.204  56.706   1.517  1.00  0.00    -0.011 C 
HETATM   11  C12 UNL     1       9.218  56.594   0.360  1.00  0.00     0.037 C 
HETATM   12  C13 UNL     1       8.699  57.606  -0.722  1.00  0.00     0.188 C 
HETATM   13  C14 UNL     1       7.071  55.729   1.485  1.00  0.00     0.026 C 
ENDROOT
BRANCH   1  14
HETATM   14  C2  UNL     1       5.154  54.811   0.524  1.00  0.00     0.228 C 
HETATM   15  N1  UNL     1       4.969  53.708   1.372  1.00  0.00    -0.365 N 
HETATM   16  C1  UNL     1       4.436  52.465   0.806  1.00  0.00     0.149 C 
ATOM     17  H1  UNL     1       5.201  53.770   2.363  1.00  0.00     0.161 HD
HETATM   18  O1  UNL     1       4.873  54.752  -0.710  1.00  0.00    -0.273 OA
ENDBRANCH   1  14
BRANCH  12  19
HETATM   19  N2  UNL     1       8.953  56.985  -2.008  1.00  0.00    -0.075 N 
ATOM     20  H23 UNL     1       8.905  55.969  -1.944  1.00  0.00     0.274 HD
ATOM     21  H22 UNL     1       8.178  57.143  -2.654  1.00  0.00     0.274 HD
ATOM     22  H21 UNL     1       9.838  57.288  -2.414  1.00  0.00     0.274 HD
ENDBRANCH  12  19
TORSDOF 2
ENDMDL
MODEL 4
REMARK VINA RESULT: -5.975732137      2.436      4.965
REMARK  2 active torsions:
REMARK  status: ('A' for Active; 'I' for Inactive)
REMARK       I    between atoms: N1_2  and  C2_4 
REMARK    1  A    between atoms: C2_4  and  C3_6 
REMARK    2  A    between atoms: C13_17  and  N2_18 
ROOT
HETATM    1  C3  UNL     1       5.549  53.903   1.187  1.00  0.00     0.067 C 
HETATM    2  C4  UNL     1       6.613  52.907   0.630  1.00  0.00     0.024 C 
HETATM    3  C5  UNL     1       6.831  51.856   1.684  1.00  0.00     0.028 C 
HETATM    4  C6  UNL     1       7.557  52.532   2.848  1.00  0.00     0.168 C 
HETATM    5  O2  UNL     1       7.433  53.922   2.724  1.00  0.00    -0.385 OA
HETATM    6  C7  UNL     1       6.064  54.256   2.480  1.00  0.00     0.139 C 
HETATM    7  C8  UNL     1       5.773  55.650   3.090  1.00  0.00     0.040 C 
HETATM    8  C9  UNL     1       5.195  56.333   2.027  1.00  0.00     0.019 C 
HETATM    9  C10 UNL     1       6.335  56.395   1.009  1.00  0.00     0.011 C 
HETATM   10  C11 UNL     1       5.470  56.124  -0.153  1.00  0.00    -0.011 C 
HETATM   11  C12 UNL     1       4.375  57.170   0.144  1.00  0.00     0.037 C 
HETATM   12  C13 UNL     1       4.614  57.580   1.640  1.00  0.00     0.188 C 
HETATM   13  C14 UNL     1       5.079  54.696   0.057  1.00  0.00     0.026 C 
ENDROOT
BRANCH   1  14
HETATM   14  C2  UNL     1       4.401  52.909   1.395  1.00  0.00     0.228 C 
HETATM   15  N1  UNL     1       3.937  52.186   0.285  1.00  0.00    -0.365 N 
HETATM   16  C1  UNL     1       2.840  51.230   0.474  1.00  0.00     0.149 C 
ATOM     17  H1  UNL     1       4.354  52.323  -0.635  1.00  0.00     0.161 HD
HETATM   18  O1  UNL     1       3.894  52.753   2.546  1.00  0.00    -0.273 OA
ENDBRANCH   1  14
BRANCH  12  19
HETATM   19  N2  UNL     1       3.298  57.775   2.219  1.00  0.00    -0.075 N 
ATOM     20  H23 UNL     1       3.202  57.265   3.097  1.00  0.00     0.274 HD
ATOM     21  H22 UNL     1       3.186  58.726   2.571  1.00  0.00     0.274 HD
ATOM     22  H21 UNL     1       2.551  57.532   1.568  1.00  0.00     0.274 HD
ENDBRANCH  12  19
TORSDOF 2
ENDMDL
MODEL 5
REMARK VINA RESULT: -5.944862767      1.671      1.838
REMARK  2 active torsions:
REMARK  status: ('A' for Active; 'I' for Inactive)
REMARK       I    between atoms: N1_2  and  C2_4 
REMARK    1  A    between atoms: C2_4  and  C3_6 
REMARK    2  A    between atoms: C13_17  and  N2_18 
ROOT
HETATM    1  C3  UNL     1       5.711  54.745   0.987  1.00  0.00     0.067 C 
HETATM    2  C4  UNL     1       5.399  55.709  -0.199  1.00  0.00     0.024 C 
HETATM    3  C5  UNL     1       5.748  57.100   0.258  1.00  0.00     0.028 C 
HETATM    4  C6  UNL     1       4.717  57.497   1.315  1.00  0.00     0.168 C 
HETATM    5  O2  UNL     1       4.060  56.348   1.773  1.00  0.00    -0.385 OA
HETATM    6  C7  UNL     1       5.028  55.346   2.098  1.00  0.00     0.139 C 
HETATM    7  C8  UNL     1       4.475  54.471   3.249  1.00  0.00     0.040 C 
HETATM    8  C9  UNL     1       4.629  53.182   2.754  1.00  0.00     0.019 C 
HETATM    9  C10 UNL     1       3.692  53.174   1.545  1.00  0.00     0.011 C 
HETATM   10  C11 UNL     1       4.615  52.412   0.686  1.00  0.00    -0.011 C 
HETATM   11  C12 UNL     1       4.938  51.271   1.672  1.00  0.00     0.037 C 
HETATM   12  C13 UNL     1       4.444  51.799   3.065  1.00  0.00     0.188 C 
HETATM   13  C14 UNL     1       5.718  53.393   0.443  1.00  0.00     0.026 C 
ENDROOT
BRANCH   1  14
HETATM   14  C2  UNL     1       7.206  55.051   1.135  1.00  0.00     0.228 C 
HETATM   15  N1  UNL     1       8.096  54.485   0.209  1.00  0.00    -0.365 N 
HETATM   16  C1  UNL     1       9.528  54.773   0.340  1.00  0.00     0.149 C 
ATOM     17  H1  UNL     1       7.754  53.884  -0.540  1.00  0.00     0.161 HD
HETATM   18  O1  UNL     1       7.614  55.798   2.074  1.00  0.00    -0.273 OA
ENDBRANCH   1  14
BRANCH  12  19
HETATM   19  N2  UNL     1       5.407  51.323   4.040  1.00  0.00    -0.075 N 
ATOM     20  H23 UNL     1       6.211  51.948   4.100  1.00  0.00     0.274 HD
ATOM     21  H22 UNL     1       5.051  51.426   4.991  1.00  0.00     0.274 HD
ATOM     22  H21 UNL     1       5.699  50.364   3.857  1.00  0.00     0.274 HD
ENDBRANCH  12  19
TORSDOF 2
ENDMDL
