MODEL 1
REMARK VINA RESULT: -6.458355093      0.000      0.000
REMARK  2 active torsions:
REMARK  status: ('A' for Active; 'I' for Inactive)
REMARK    1  A    between atoms: C3_5  and  N1_6 
REMARK       I    between atoms: N1_6  and  C4_8 
REMARK    2  A    between atoms: C4_8  and  C5_10 
ROOT
HETATM    1  C1  UNL     1       4.292  49.158   3.069  1.00  0.00     0.026 C 
HETATM    2  C2  UNL     1       4.194  50.081   1.910  1.00  0.00     0.114 C 
HETATM    3  S1  UNL     1       5.408  51.383   1.950  1.00  0.00     0.072 S 
HETATM    4  O1  UNL     1       6.620  51.144   0.833  1.00  0.00    -0.254 OA
HETATM    5  C3  UNL     1       4.277  52.681   1.420  1.00  0.00     0.382 C 
HETATM    6  N2  UNL     1       3.075  52.191   2.034  1.00  0.00    -0.033 N 
ATOM      7  H21 UNL     1       2.256  52.727   1.745  1.00  0.00     0.281 HD
ATOM      8  H22 UNL     1       3.048  52.399   3.032  1.00  0.00     0.281 HD
HETATM    9  C9  UNL     1       2.914  50.816   1.781  1.00  0.00     0.136 C 
HETATM   10  C10 UNL     1       1.857  50.289   2.759  1.00  0.00     0.047 C 
HETATM   11  C11 UNL     1       2.286  50.650   0.392  1.00  0.00     0.047 C 
ENDROOT
BRANCH   5  12
HETATM   12  N1  UNL     1       4.627  53.942   1.966  1.00  0.00    -0.323 N 
HETATM   13  C4  UNL     1       5.082  54.984   1.125  1.00  0.00     0.227 C 
HETATM   14  O2  UNL     1       5.193  54.833  -0.119  1.00  0.00    -0.273 OA
ATOM     15  H1  UNL     1       4.549  54.098   2.971  1.00  0.00     0.165 HD
BRANCH  13  16
HETATM   16  C5  UNL     1       5.455  56.314   1.666  1.00  0.00     0.030 C 
HETATM   17  C6  UNL     1       6.664  56.888   1.004  1.00  0.00     0.024 C 
HETATM   18  C7  UNL     1       5.659  56.304   3.151  1.00  0.00     0.024 C 
HETATM   19  C8  UNL     1       4.284  57.249   1.351  1.00  0.00     0.024 C 
ENDBRANCH  13  16
ENDBRANCH   5  12
TORSDOF 2
ENDMDL
MODEL 2
REMARK VINA RESULT: -6.454373689      0.177      1.099
REMARK  2 active torsions:
REMARK  status: ('A' for Active; 'I' for Inactive)
REMARK    1  A    between atoms: C3_5  and  N1_6 
REMARK       I    between atoms: N1_6  and  C4_8 
REMARK    2  A    between atoms: C4_8  and  C5_10 
ROOT
HETATM    1  C1  UNL     1       4.291  49.084   3.017  1.00  0.00     0.026 C 
HETATM    2  C2  UNL     1       4.210  50.050   1.892  1.00  0.00     0.114 C 
HETATM    3  S1  UNL     1       5.449  51.325   1.974  1.00  0.00     0.072 S 
HETATM    4  O1  UNL     1       6.654  51.102   0.846  1.00  0.00    -0.254 OA
HETATM    5  C3  UNL     1       4.343  52.663   1.493  1.00  0.00     0.382 C 
HETATM    6  N2  UNL     1       3.132  52.176   2.092  1.00  0.00    -0.033 N 
ATOM      7  H21 UNL     1       2.324  52.738   1.825  1.00  0.00     0.281 HD
ATOM      8  H22 UNL     1       3.112  52.349   3.098  1.00  0.00     0.281 HD
HETATM    9  C9  UNL     1       2.944  50.814   1.792  1.00  0.00     0.136 C 
HETATM   10  C10 UNL     1       1.879  50.274   2.754  1.00  0.00     0.047 C 
HETATM   11  C11 UNL     1       2.310  50.709   0.400  1.00  0.00     0.047 C 
ENDROOT
BRANCH   5  12
HETATM   12  N1  UNL     1       4.719  53.897   2.081  1.00  0.00    -0.323 N 
HETATM   13  C4  UNL     1       5.100  54.990   1.269  1.00  0.00     0.227 C 
HETATM   14  O2  UNL     1       5.120  54.910   0.014  1.00  0.00    -0.273 OA
ATOM     15  H1  UNL     1       4.714  53.997   3.096  1.00  0.00     0.165 HD
BRANCH  13  16
HETATM   16  C5  UNL     1       5.498  56.294   1.856  1.00  0.00     0.030 C 
HETATM   17  C6  UNL     1       5.652  56.236   3.340  1.00  0.00     0.024 C 
HETATM   18  C7  UNL     1       4.560  57.406   1.496  1.00  0.00     0.024 C 
HETATM   19  C8  UNL     1       6.876  56.624   1.274  1.00  0.00     0.024 C 
ENDBRANCH  13  16
ENDBRANCH   5  12
TORSDOF 2
ENDMDL
MODEL 3
REMARK VINA RESULT: -6.349552779      1.617      5.806
REMARK  2 active torsions:
REMARK  status: ('A' for Active; 'I' for Inactive)
REMARK    1  A    between atoms: C3_5  and  N1_6 
REMARK       I    between atoms: N1_6  and  C4_8 
REMARK    2  A    between atoms: C4_8  and  C5_10 
ROOT
HETATM    1  C1  UNL     1       5.476  55.560  -0.167  1.00  0.00     0.026 C 
HETATM    2  C2  UNL     1       5.715  54.996   1.185  1.00  0.00     0.114 C 
HETATM    3  S1  UNL     1       5.626  53.218   1.227  1.00  0.00     0.072 S 
HETATM    4  O1  UNL     1       7.129  52.518   1.377  1.00  0.00    -0.254 OA
HETATM    5  C3  UNL     1       4.708  53.134   2.776  1.00  0.00     0.382 C 
HETATM    6  N2  UNL     1       3.934  54.336   2.640  1.00  0.00    -0.033 N 
ATOM      7  H21 UNL     1       3.421  54.554   3.494  1.00  0.00     0.281 HD
ATOM      8  H22 UNL     1       3.139  54.205   2.014  1.00  0.00     0.281 HD
HETATM    9  C9  UNL     1       4.750  55.407   2.232  1.00  0.00     0.136 C 
HETATM   10  C10 UNL     1       3.825  56.528   1.741  1.00  0.00     0.047 C 
HETATM   11  C11 UNL     1       5.447  55.983   3.471  1.00  0.00     0.047 C 
ENDROOT
BRANCH   5  12
HETATM   12  N1  UNL     1       3.854  52.004   2.823  1.00  0.00    -0.323 N 
HETATM   13  C4  UNL     1       4.288  50.804   3.433  1.00  0.00     0.227 C 
HETATM   14  O2  UNL     1       5.431  50.696   3.948  1.00  0.00    -0.273 OA
ATOM     15  H1  UNL     1       2.921  52.056   2.415  1.00  0.00     0.165 HD
BRANCH  13  16
HETATM   16  C5  UNL     1       3.417  49.604   3.499  1.00  0.00     0.030 C 
HETATM   17  C6  UNL     1       2.347  49.611   2.457  1.00  0.00     0.024 C 
HETATM   18  C7  UNL     1       2.796  49.408   4.848  1.00  0.00     0.024 C 
HETATM   19  C8  UNL     1       4.319  48.402   3.208  1.00  0.00     0.024 C 
ENDBRANCH  13  16
ENDBRANCH   5  12
TORSDOF 2
ENDMDL
MODEL 4
REMARK VINA RESULT: -6.341142952      1.592      5.783
REMARK  2 active torsions:
REMARK  status: ('A' for Active; 'I' for Inactive)
REMARK    1  A    between atoms: C3_5  and  N1_6 
REMARK       I    between atoms: N1_6  and  C4_8 
REMARK    2  A    between atoms: C4_8  and  C5_10 
ROOT
HETATM    1  C1  UNL     1       5.452  55.594  -0.216  1.00  0.00     0.026 C 
HETATM    2  C2  UNL     1       5.715  55.031   1.132  1.00  0.00     0.114 C 
HETATM    3  S1  UNL     1       5.669  53.251   1.167  1.00  0.00     0.072 S 
HETATM    4  O1  UNL     1       7.190  52.587   1.302  1.00  0.00    -0.254 OA
HETATM    5  C3  UNL     1       4.766  53.139   2.722  1.00  0.00     0.382 C 
HETATM    6  N2  UNL     1       3.962  54.322   2.598  1.00  0.00    -0.033 N 
ATOM      7  H21 UNL     1       3.451  54.525   3.457  1.00  0.00     0.281 HD
ATOM      8  H22 UNL     1       3.166  54.175   1.977  1.00  0.00     0.281 HD
HETATM    9  C9  UNL     1       4.749  55.415   2.188  1.00  0.00     0.136 C 
HETATM   10  C10 UNL     1       3.794  56.515   1.709  1.00  0.00     0.047 C 
HETATM   11  C11 UNL     1       5.442  56.002   3.424  1.00  0.00     0.047 C 
ENDROOT
BRANCH   5  12
HETATM   12  N1  UNL     1       3.940  51.988   2.772  1.00  0.00    -0.323 N 
HETATM   13  C4  UNL     1       4.406  50.798   3.378  1.00  0.00     0.227 C 
HETATM   14  O2  UNL     1       5.553  50.717   3.888  1.00  0.00    -0.273 OA
ATOM     15  H1  UNL     1       3.004  52.019   2.368  1.00  0.00     0.165 HD
BRANCH  13  16
HETATM   16  C5  UNL     1       3.564  49.578   3.446  1.00  0.00     0.030 C 
HETATM   17  C6  UNL     1       2.809  49.468   4.730  1.00  0.00     0.024 C 
HETATM   18  C7  UNL     1       4.343  48.318   3.217  1.00  0.00     0.024 C 
HETATM   19  C8  UNL     1       2.527  49.709   2.326  1.00  0.00     0.024 C 
ENDBRANCH  13  16
ENDBRANCH   5  12
TORSDOF 2
ENDMDL
MODEL 5
REMARK VINA RESULT: -6.332136093      1.610      5.797
REMARK  2 active torsions:
REMARK  status: ('A' for Active; 'I' for Inactive)
REMARK    1  A    between atoms: C3_5  and  N1_6 
REMARK       I    between atoms: N1_6  and  C4_8 
REMARK    2  A    between atoms: C4_8  and  C5_10 
ROOT
HETATM    1  C1  UNL     1       5.458  55.615  -0.205  1.00  0.00     0.026 C 
HETATM    2  C2  UNL     1       5.715  55.051   1.143  1.00  0.00     0.114 C 
HETATM    3  S1  UNL     1       5.672  53.271   1.176  1.00  0.00     0.072 S 
HETATM    4  O1  UNL     1       7.193  52.609   1.316  1.00  0.00    -0.254 OA
HETATM    5  C3  UNL     1       4.763  53.156   2.727  1.00  0.00     0.382 C 
HETATM    6  N2  UNL     1       3.958  54.338   2.600  1.00  0.00    -0.033 N 
ATOM      7  H21 UNL     1       3.443  54.538   3.458  1.00  0.00     0.281 HD
ATOM      8  H22 UNL     1       3.164  54.190   1.977  1.00  0.00     0.281 HD
HETATM    9  C9  UNL     1       4.745  55.432   2.195  1.00  0.00     0.136 C 
HETATM   10  C10 UNL     1       3.790  56.532   1.714  1.00  0.00     0.047 C 
HETATM   11  C11 UNL     1       5.431  56.019   3.435  1.00  0.00     0.047 C 
ENDROOT
BRANCH   5  12
HETATM   12  N1  UNL     1       3.938  52.004   2.771  1.00  0.00    -0.323 N 
HETATM   13  C4  UNL     1       4.416  50.803   3.346  1.00  0.00     0.227 C 
HETATM   14  O2  UNL     1       5.573  50.713   3.831  1.00  0.00    -0.273 OA
ATOM     15  H1  UNL     1       2.994  52.041   2.387  1.00  0.00     0.165 HD
BRANCH  13  16
HETATM   16  C5  UNL     1       3.576  49.581   3.408  1.00  0.00     0.030 C 
HETATM   17  C6  UNL     1       4.372  48.326   3.260  1.00  0.00     0.024 C 
HETATM   18  C7  UNL     1       2.464  49.586   2.403  1.00  0.00     0.024 C 
HETATM   19  C8  UNL     1       2.955  49.557   4.807  1.00  0.00     0.024 C 
ENDBRANCH  13  16
ENDBRANCH   5  12
TORSDOF 2
ENDMDL
