MODEL 1
REMARK VINA RESULT: -7.289451121      0.000      0.000
REMARK  3 active torsions:
REMARK  status: ('A' for Active; 'I' for Inactive)
REMARK    1  A    between atoms: C2_2  and  O1_3 
REMARK    2  A    between atoms: C4_6  and  C6_8 
REMARK    3  A    between atoms: C11_14  and  O3_16 
ROOT
HETATM    1  C1  UNL     1       5.744  54.943   3.304  1.00  0.00     0.078 C 
HETATM    2  C2  UNL     1       6.773  56.006   3.162  1.00  0.00     0.160 C 
HETATM    3  C3  UNL     1       6.280  57.318   2.630  1.00  0.00     0.084 C 
HETATM    4  C4  UNL     1       5.744  57.386   1.288  1.00  0.00     0.013 C 
HETATM    5  C5  UNL     1       4.209  57.219   1.407  1.00  0.00     0.023 C 
HETATM    6  C10 UNL     1       6.158  56.401   0.272  1.00  0.00     0.056 C 
HETATM    7  C11 UNL     1       7.527  55.895   0.219  1.00  0.00     0.086 C 
HETATM    8  C12 UNL     1       8.509  56.955  -0.294  1.00  0.00     0.049 C 
HETATM    9  C13 UNL     1       8.055  55.161   1.395  1.00  0.00     0.088 C 
HETATM   10  C14 UNL     1       7.633  53.684   1.309  1.00  0.00     0.049 C 
HETATM   11  C15 UNL     1       9.582  55.077   1.124  1.00  0.00     0.049 C 
HETATM   12  O4  UNL     1       7.945  55.691   2.606  1.00  0.00    -0.342 OA
ENDROOT
BRANCH   4  13
HETATM   13  C6  UNL     1       5.918  58.785   0.748  1.00  0.00     0.061 A 
HETATM   14  C7  UNL     1       5.037  59.834   0.757  1.00  0.00     0.035 A 
HETATM   15  C8  UNL     1       5.692  60.873   0.139  1.00  0.00     0.027 A 
HETATM   16  C9  UNL     1       6.948  60.430  -0.227  1.00  0.00     0.142 A 
HETATM   17  O2  UNL     1       7.052  59.181   0.150  1.00  0.00    -0.326 OA
ENDBRANCH   4  13
BRANCH   2  18
HETATM   18  O1  UNL     1       7.110  56.331   4.517  1.00  0.00    -0.366 OA
ATOM     19  H1  UNL     1       8.053  56.448   4.491  1.00  0.00     0.213 HD
ENDBRANCH   2  18
BRANCH   7  20
HETATM   20  O3  UNL     1       7.529  54.926  -0.832  1.00  0.00    -0.387 OA
ATOM     21  H3  UNL     1       8.203  55.214  -1.437  1.00  0.00     0.210 HD
ENDBRANCH   7  20
TORSDOF 3
ENDMDL
MODEL 2
REMARK VINA RESULT: -6.909862216      2.108      3.029
REMARK  3 active torsions:
REMARK  status: ('A' for Active; 'I' for Inactive)
REMARK    1  A    between atoms: C2_2  and  O1_3 
REMARK    2  A    between atoms: C4_6  and  C6_8 
REMARK    3  A    between atoms: C11_14  and  O3_16 
ROOT
HETATM    1  C1  UNL     1       5.246  55.038   2.752  1.00  0.00     0.078 C 
HETATM    2  C2  UNL     1       6.697  55.253   2.987  1.00  0.00     0.160 C 
HETATM    3  C3  UNL     1       7.360  56.246   2.080  1.00  0.00     0.084 C 
HETATM    4  C4  UNL     1       7.429  55.978   0.660  1.00  0.00     0.013 C 
HETATM    5  C5  UNL     1       6.210  56.673   0.009  1.00  0.00     0.023 C 
HETATM    6  C10 UNL     1       7.387  54.589   0.164  1.00  0.00     0.056 C 
HETATM    7  C11 UNL     1       8.036  53.502   0.893  1.00  0.00     0.086 C 
HETATM    8  C12 UNL     1       9.564  53.577   0.789  1.00  0.00     0.049 C 
HETATM    9  C13 UNL     1       7.580  53.206   2.273  1.00  0.00     0.088 C 
HETATM   10  C14 UNL     1       6.354  52.278   2.218  1.00  0.00     0.049 C 
HETATM   11  C15 UNL     1       8.677  52.260   2.831  1.00  0.00     0.049 C 
HETATM   12  O4  UNL     1       7.482  54.187   3.159  1.00  0.00    -0.342 OA
ENDROOT
BRANCH   4  13
HETATM   13  C6  UNL     1       8.618  56.697   0.071  1.00  0.00     0.061 A 
HETATM   14  C7  UNL     1       9.865  56.892   0.604  1.00  0.00     0.035 A 
HETATM   15  C8  UNL     1      10.564  57.607  -0.341  1.00  0.00     0.027 A 
HETATM   16  C9  UNL     1       9.727  57.827  -1.417  1.00  0.00     0.142 A 
HETATM   17  O2  UNL     1       8.574  57.272  -1.141  1.00  0.00    -0.326 OA
ENDBRANCH   4  13
BRANCH   2  18
HETATM   18  O1  UNL     1       6.738  55.921   4.256  1.00  0.00    -0.366 OA
ATOM     19  H1  UNL     1       6.294  55.317   4.840  1.00  0.00     0.213 HD
ENDBRANCH   2  18
BRANCH   7  20
HETATM   20  O3  UNL     1       7.726  52.318   0.155  1.00  0.00    -0.387 OA
ATOM     21  H3  UNL     1       7.875  51.601   0.760  1.00  0.00     0.210 HD
ENDBRANCH   7  20
TORSDOF 3
ENDMDL
MODEL 3
REMARK VINA RESULT: -6.729399099      1.162      1.379
REMARK  3 active torsions:
REMARK  status: ('A' for Active; 'I' for Inactive)
REMARK    1  A    between atoms: C2_2  and  O1_3 
REMARK    2  A    between atoms: C4_6  and  C6_8 
REMARK    3  A    between atoms: C11_14  and  O3_16 
ROOT
HETATM    1  C1  UNL     1       6.287  54.151   3.075  1.00  0.00     0.078 C 
HETATM    2  C2  UNL     1       6.904  55.498   3.184  1.00  0.00     0.160 C 
HETATM    3  C3  UNL     1       5.983  56.655   2.930  1.00  0.00     0.084 C 
HETATM    4  C4  UNL     1       5.388  56.817   1.621  1.00  0.00     0.013 C 
HETATM    5  C5  UNL     1       4.001  56.132   1.668  1.00  0.00     0.023 C 
HETATM    6  C10 UNL     1       6.051  56.256   0.429  1.00  0.00     0.056 C 
HETATM    7  C11 UNL     1       7.506  56.253   0.301  1.00  0.00     0.086 C 
HETATM    8  C12 UNL     1       8.061  57.660   0.045  1.00  0.00     0.049 C 
HETATM    9  C13 UNL     1       8.303  55.509   1.306  1.00  0.00     0.088 C 
HETATM   10  C14 UNL     1       8.383  54.027   0.901  1.00  0.00     0.049 C 
HETATM   11  C15 UNL     1       9.758  55.992   1.058  1.00  0.00     0.049 C 
HETATM   12  O4  UNL     1       8.085  55.710   2.599  1.00  0.00    -0.342 OA
ENDROOT
BRANCH   4  13
HETATM   13  C6  UNL     1       5.069  58.274   1.393  1.00  0.00     0.061 A 
HETATM   14  C7  UNL     1       5.743  59.203   0.644  1.00  0.00     0.035 A 
HETATM   15  C8  UNL     1       5.031  60.373   0.775  1.00  0.00     0.027 A 
HETATM   16  C9  UNL     1       3.948  60.125   1.596  1.00  0.00     0.142 A 
HETATM   17  O2  UNL     1       3.999  58.865   1.948  1.00  0.00    -0.326 OA
ENDBRANCH   4  13
BRANCH   2  18
HETATM   18  O1  UNL     1       7.183  55.629   4.584  1.00  0.00    -0.366 OA
ATOM     19  H1  UNL     1       6.417  56.079   4.923  1.00  0.00     0.213 HD
ENDBRANCH   2  18
BRANCH   7  20
HETATM   20  O3  UNL     1       7.773  55.579  -0.931  1.00  0.00    -0.387 OA
ATOM     21  H3  UNL     1       8.546  55.051  -0.765  1.00  0.00     0.210 HD
ENDBRANCH   7  20
TORSDOF 3
ENDMDL
MODEL 4
REMARK VINA RESULT: -6.675592410      1.941      3.924
REMARK  3 active torsions:
REMARK  status: ('A' for Active; 'I' for Inactive)
REMARK    1  A    between atoms: C2_2  and  O1_3 
REMARK    2  A    between atoms: C4_6  and  C6_8 
REMARK    3  A    between atoms: C11_14  and  O3_16 
ROOT
HETATM    1  C1  UNL     1      10.424  53.628   1.783  1.00  0.00     0.078 C 
HETATM    2  C2  UNL     1       9.394  53.760   0.719  1.00  0.00     0.160 C 
HETATM    3  C3  UNL     1       8.777  55.120   0.582  1.00  0.00     0.084 C 
HETATM    4  C4  UNL     1       8.000  55.664   1.674  1.00  0.00     0.013 C 
HETATM    5  C5  UNL     1       8.960  56.533   2.522  1.00  0.00     0.023 C 
HETATM    6  C10 UNL     1       7.348  54.762   2.642  1.00  0.00     0.056 C 
HETATM    7  C11 UNL     1       6.765  53.490   2.222  1.00  0.00     0.086 C 
HETATM    8  C12 UNL     1       5.474  53.691   1.418  1.00  0.00     0.049 C 
HETATM    9  C13 UNL     1       7.654  52.472   1.611  1.00  0.00     0.088 C 
HETATM   10  C14 UNL     1       8.336  51.656   2.723  1.00  0.00     0.049 C 
HETATM   11  C15 UNL     1       6.670  51.436   1.005  1.00  0.00     0.049 C 
HETATM   12  O4  UNL     1       8.459  52.814   0.614  1.00  0.00    -0.342 OA
ENDROOT
BRANCH   4  13
HETATM   13  C6  UNL     1       6.994  56.650   1.133  1.00  0.00     0.061 A 
HETATM   14  C7  UNL     1       6.902  57.196  -0.120  1.00  0.00     0.035 A 
HETATM   15  C8  UNL     1       5.810  58.031  -0.081  1.00  0.00     0.027 A 
HETATM   16  C9  UNL     1       5.270  57.971   1.188  1.00  0.00     0.142 A 
HETATM   17  O2  UNL     1       5.998  57.139   1.890  1.00  0.00    -0.326 OA
ENDBRANCH   4  13
BRANCH   2  18
HETATM   18  O1  UNL     1      10.147  53.640  -0.495  1.00  0.00    -0.366 OA
ATOM     19  H1  UNL     1       9.637  54.138  -1.124  1.00  0.00     0.213 HD
ENDBRANCH   2  18
BRANCH   7  20
HETATM   20  O3  UNL     1       6.296  52.876   3.424  1.00  0.00    -0.387 OA
ATOM     21  H3  UNL     1       6.209  51.953   3.215  1.00  0.00     0.210 HD
ENDBRANCH   7  20
TORSDOF 3
ENDMDL
MODEL 5
REMARK VINA RESULT: -6.554902076      2.415      5.805
REMARK  3 active torsions:
REMARK  status: ('A' for Active; 'I' for Inactive)
REMARK    1  A    between atoms: C2_2  and  O1_3 
REMARK    2  A    between atoms: C4_6  and  C6_8 
REMARK    3  A    between atoms: C11_14  and  O3_16 
ROOT
HETATM    1  C1  UNL     1       5.436  52.601   2.258  1.00  0.00     0.078 C 
HETATM    2  C2  UNL     1       6.100  52.801   0.944  1.00  0.00     0.160 C 
HETATM    3  C3  UNL     1       7.489  52.245   0.830  1.00  0.00     0.084 C 
HETATM    4  C4  UNL     1       8.541  52.782   1.664  1.00  0.00     0.013 C 
HETATM    5  C5  UNL     1       8.625  51.880   2.920  1.00  0.00     0.023 C 
HETATM    6  C10 UNL     1       8.446  54.157   2.188  1.00  0.00     0.056 C 
HETATM    7  C11 UNL     1       7.867  55.235   1.390  1.00  0.00     0.086 C 
HETATM    8  C12 UNL     1       8.789  55.653   0.238  1.00  0.00     0.049 C 
HETATM    9  C13 UNL     1       6.451  55.115   0.962  1.00  0.00     0.088 C 
HETATM   10  C14 UNL     1       5.532  55.617   2.089  1.00  0.00     0.049 C 
HETATM   11  C15 UNL     1       6.292  56.231  -0.106  1.00  0.00     0.049 C 
HETATM   12  O4  UNL     1       6.034  54.004   0.370  1.00  0.00    -0.342 OA
ENDROOT
BRANCH   4  13
HETATM   13  C6  UNL     1       9.873  52.584   0.982  1.00  0.00     0.061 A 
HETATM   14  C7  UNL     1      11.123  52.968   1.392  1.00  0.00     0.035 A 
HETATM   15  C8  UNL     1      11.982  52.545   0.405  1.00  0.00     0.027 A 
HETATM   16  C9  UNL     1      11.236  51.917  -0.573  1.00  0.00     0.142 A 
HETATM   17  O2  UNL     1       9.982  51.957  -0.200  1.00  0.00    -0.326 OA
ENDBRANCH   4  13
BRANCH   2  18
HETATM   18  O1  UNL     1       5.356  51.954   0.058  1.00  0.00    -0.366 OA
ATOM     19  H1  UNL     1       5.944  51.831  -0.678  1.00  0.00     0.213 HD
ENDBRANCH   2  18
BRANCH   7  20
HETATM   20  O3  UNL     1       7.883  56.383   2.241  1.00  0.00    -0.387 OA
ATOM     21  H3  UNL     1       8.744  56.384   2.643  1.00  0.00     0.210 HD
ENDBRANCH   7  20
TORSDOF 3
ENDMDL
