MODEL 1
REMARK VINA RESULT: -6.991350079      0.000      0.000
REMARK  2 active torsions:
REMARK  status: ('A' for Active; 'I' for Inactive)
REMARK    1  A    between atoms: C2_2  and  C3_3 
REMARK       I    between atoms: C3_3  and  N1_5 
REMARK    2  A    between atoms: N1_5  and  C4_7 
ROOT
HETATM    1  C4  UNL     1       6.523  55.055   0.638  1.00  0.00     0.161 C 
HETATM    2  N2  UNL     1       5.508  55.798   0.863  1.00  0.00    -0.260 N 
ATOM      3  H2  UNL     1       4.581  55.375   0.813  1.00  0.00     0.181 HD
HETATM    4  S1  UNL     1       5.620  57.473   1.245  1.00  0.00     0.266 S 
HETATM    5  O2  UNL     1       5.916  57.632   2.723  1.00  0.00    -0.200 OA
HETATM    6  O3  UNL     1       4.327  58.158   0.903  1.00  0.00    -0.200 OA
HETATM    7  C5  UNL     1       6.918  58.164   0.325  1.00  0.00     0.097 A 
HETATM    8  C6  UNL     1       6.770  59.474  -0.143  1.00  0.00     0.027 A 
HETATM    9  C7  UNL     1       7.790  60.017  -0.859  1.00  0.00     0.002 A 
HETATM   10  C8  UNL     1       8.944  59.299  -1.121  1.00  0.00     0.001 A 
HETATM   11  C9  UNL     1       9.058  58.008  -0.644  1.00  0.00     0.020 A 
HETATM   12  C10 UNL     1       8.051  57.415   0.086  1.00  0.00     0.031 A 
HETATM   13  S2  UNL     1       8.204  55.729   0.697  1.00  0.00    -0.052 SA
ENDROOT
BRANCH   1  14
HETATM   14  N1  UNL     1       6.316  53.686   0.331  1.00  0.00    -0.307 N 
HETATM   15  C3  UNL     1       5.783  52.757   1.253  1.00  0.00     0.223 C 
HETATM   16  O1  UNL     1       5.479  53.156   2.395  1.00  0.00    -0.273 OA
ATOM     17  H1  UNL     1       6.563  53.356  -0.601  1.00  0.00     0.171 HD
BRANCH  15  18
HETATM   18  C2  UNL     1       5.578  51.340   0.908  1.00  0.00     0.099 C 
HETATM   19  C1  UNL     1       4.139  51.082   0.533  1.00  0.00     0.014 C 
ENDBRANCH  15  18
ENDBRANCH   1  14
TORSDOF 2
ENDMDL
MODEL 2
REMARK VINA RESULT: -6.858607273      3.383      4.079
REMARK  2 active torsions:
REMARK  status: ('A' for Active; 'I' for Inactive)
REMARK    1  A    between atoms: C2_2  and  C3_3 
REMARK       I    between atoms: C3_3  and  N1_5 
REMARK    2  A    between atoms: N1_5  and  C4_7 
ROOT
HETATM    1  C4  UNL     1       8.813  54.765   0.875  1.00  0.00     0.161 C 
HETATM    2  N2  UNL     1       7.830  54.319   1.559  1.00  0.00    -0.260 N 
ATOM      3  H2  UNL     1       7.702  53.309   1.615  1.00  0.00     0.181 HD
HETATM    4  S1  UNL     1       6.712  55.330   2.390  1.00  0.00     0.266 S 
HETATM    5  O2  UNL     1       7.301  55.740   3.725  1.00  0.00    -0.200 OA
HETATM    6  O3  UNL     1       5.421  54.589   2.602  1.00  0.00    -0.200 OA
HETATM    7  C5  UNL     1       6.429  56.747   1.431  1.00  0.00     0.097 A 
HETATM    8  C6  UNL     1       5.144  57.300   1.433  1.00  0.00     0.027 A 
HETATM    9  C7  UNL     1       4.925  58.414   0.685  1.00  0.00     0.002 A 
HETATM   10  C8  UNL     1       5.941  58.990  -0.059  1.00  0.00     0.001 A 
HETATM   11  C9  UNL     1       7.198  58.418  -0.039  1.00  0.00     0.020 A 
HETATM   12  C10 UNL     1       7.468  57.289   0.704  1.00  0.00     0.031 A 
HETATM   13  S2  UNL     1       9.107  56.546   0.718  1.00  0.00    -0.052 SA
ENDROOT
BRANCH   1  14
HETATM   14  N1  UNL     1       9.675  53.842   0.230  1.00  0.00    -0.307 N 
HETATM   15  C3  UNL     1      10.983  53.557   0.680  1.00  0.00     0.223 C 
HETATM   16  O1  UNL     1      11.406  54.144   1.697  1.00  0.00    -0.273 OA
ATOM     17  H1  UNL     1       9.333  53.359  -0.601  1.00  0.00     0.171 HD
BRANCH  15  18
HETATM   18  C2  UNL     1      11.857  52.592  -0.009  1.00  0.00     0.099 C 
HETATM   19  C1  UNL     1      12.920  52.068   0.926  1.00  0.00     0.014 C 
ENDBRANCH  15  18
ENDBRANCH   1  14
TORSDOF 2
ENDMDL
MODEL 3
REMARK VINA RESULT: -6.657894165      2.885      3.433
REMARK  2 active torsions:
REMARK  status: ('A' for Active; 'I' for Inactive)
REMARK    1  A    between atoms: C2_2  and  C3_3 
REMARK       I    between atoms: C3_3  and  N1_5 
REMARK    2  A    between atoms: N1_5  and  C4_7 
ROOT
HETATM    1  C4  UNL     1       7.750  55.730   0.926  1.00  0.00     0.161 C 
HETATM    2  N2  UNL     1       8.914  56.236   0.785  1.00  0.00    -0.260 N 
ATOM      3  H2  UNL     1       9.692  55.801   1.282  1.00  0.00     0.181 HD
HETATM    4  S1  UNL     1       9.243  57.611  -0.198  1.00  0.00     0.266 S 
HETATM    5  O2  UNL     1       9.387  57.173  -1.642  1.00  0.00    -0.200 OA
HETATM    6  O3  UNL     1      10.508  58.275   0.267  1.00  0.00    -0.200 OA
HETATM    7  C5  UNL     1       7.911  58.715  -0.066  1.00  0.00     0.097 A 
HETATM    8  C6  UNL     1       8.187  60.086  -0.090  1.00  0.00     0.027 A 
HETATM    9  C7  UNL     1       7.142  60.951   0.008  1.00  0.00     0.002 A 
HETATM   10  C8  UNL     1       5.841  60.493   0.127  1.00  0.00     0.001 A 
HETATM   11  C9  UNL     1       5.604  59.133   0.146  1.00  0.00     0.020 A 
HETATM   12  C10 UNL     1       6.630  58.218   0.051  1.00  0.00     0.031 A 
HETATM   13  S2  UNL     1       6.313  56.447   0.085  1.00  0.00    -0.052 SA
ENDROOT
BRANCH   1  14
HETATM   14  N1  UNL     1       7.592  54.595   1.762  1.00  0.00    -0.307 N 
HETATM   15  C3  UNL     1       8.247  53.365   1.531  1.00  0.00     0.223 C 
HETATM   16  O1  UNL     1       9.004  53.267   0.544  1.00  0.00    -0.273 OA
ATOM     17  H1  UNL     1       6.975  54.671   2.570  1.00  0.00     0.171 HD
BRANCH  15  18
HETATM   18  C2  UNL     1       8.066  52.202   2.416  1.00  0.00     0.099 C 
HETATM   19  C1  UNL     1       8.996  51.079   2.024  1.00  0.00     0.014 C 
ENDBRANCH  15  18
ENDBRANCH   1  14
TORSDOF 2
ENDMDL
MODEL 4
REMARK VINA RESULT: -6.549738140      2.116      2.252
REMARK  2 active torsions:
REMARK  status: ('A' for Active; 'I' for Inactive)
REMARK    1  A    between atoms: C2_2  and  C3_3 
REMARK       I    between atoms: C3_3  and  N1_5 
REMARK    2  A    between atoms: N1_5  and  C4_7 
ROOT
HETATM    1  C4  UNL     1       8.262  54.948   0.623  1.00  0.00     0.161 C 
HETATM    2  N2  UNL     1       7.024  55.053   0.919  1.00  0.00    -0.260 N 
ATOM      3  H2  UNL     1       6.437  54.223   0.840  1.00  0.00     0.181 HD
HETATM    4  S1  UNL     1       6.292  56.521   1.443  1.00  0.00     0.266 S 
HETATM    5  O2  UNL     1       6.541  56.705   2.927  1.00  0.00    -0.200 OA
HETATM    6  O3  UNL     1       4.815  56.476   1.171  1.00  0.00    -0.200 OA
HETATM    7  C5  UNL     1       7.014  57.839   0.575  1.00  0.00     0.097 A 
HETATM    8  C6  UNL     1       6.200  58.920   0.223  1.00  0.00     0.027 A 
HETATM    9  C7  UNL     1       6.767  59.956  -0.452  1.00  0.00     0.002 A 
HETATM   10  C8  UNL     1       8.111  59.945  -0.784  1.00  0.00     0.001 A 
HETATM   11  C9  UNL     1       8.887  58.861  -0.420  1.00  0.00     0.020 A 
HETATM   12  C10 UNL     1       8.356  57.789   0.264  1.00  0.00     0.031 A 
HETATM   13  S2  UNL     1       9.371  56.377   0.727  1.00  0.00    -0.052 SA
ENDROOT
BRANCH   1  14
HETATM   14  N1  UNL     1       8.761  53.689   0.201  1.00  0.00    -0.307 N 
HETATM   15  C3  UNL     1       8.905  52.582   1.067  1.00  0.00     0.223 C 
HETATM   16  O1  UNL     1       8.578  52.714   2.264  1.00  0.00    -0.273 OA
ATOM     17  H1  UNL     1       9.029  53.577  -0.776  1.00  0.00     0.171 HD
BRANCH  15  18
HETATM   18  C2  UNL     1       9.426  51.285   0.603  1.00  0.00     0.099 C 
HETATM   19  C1  UNL     1       9.210  50.215   1.646  1.00  0.00     0.014 C 
ENDBRANCH  15  18
ENDBRANCH   1  14
TORSDOF 2
ENDMDL
MODEL 5
REMARK VINA RESULT: -6.516837655      4.420      4.938
REMARK  2 active torsions:
REMARK  status: ('A' for Active; 'I' for Inactive)
REMARK    1  A    between atoms: C2_2  and  C3_3 
REMARK       I    between atoms: C3_3  and  N1_5 
REMARK    2  A    between atoms: N1_5  and  C4_7 
ROOT
HETATM    1  C4  UNL     1      10.052  55.939   0.356  1.00  0.00     0.161 C 
HETATM    2  N2  UNL     1      10.880  56.713  -0.234  1.00  0.00    -0.260 N 
ATOM      3  H2  UNL     1      11.874  56.594  -0.038  1.00  0.00     0.181 HD
HETATM    4  S1  UNL     1      10.409  57.944  -1.341  1.00  0.00     0.266 S 
HETATM    5  O2  UNL     1      10.188  57.332  -2.710  1.00  0.00    -0.200 OA
HETATM    6  O3  UNL     1      11.481  58.996  -1.414  1.00  0.00    -0.200 OA
HETATM    7  C5  UNL     1       8.926  58.650  -0.784  1.00  0.00     0.097 A 
HETATM    8  C6  UNL     1       8.733  60.021  -0.981  1.00  0.00     0.027 A 
HETATM    9  C7  UNL     1       7.567  60.572  -0.550  1.00  0.00     0.002 A 
HETATM   10  C8  UNL     1       6.595  59.803   0.068  1.00  0.00     0.001 A 
HETATM   11  C9  UNL     1       6.818  58.452   0.247  1.00  0.00     0.020 A 
HETATM   12  C10 UNL     1       7.983  57.848  -0.174  1.00  0.00     0.031 A 
HETATM   13  S2  UNL     1       8.269  56.089   0.071  1.00  0.00    -0.052 SA
ENDROOT
BRANCH   1  14
HETATM   14  N1  UNL     1      10.550  54.957   1.250  1.00  0.00    -0.307 N 
HETATM   15  C3  UNL     1      11.195  53.775   0.823  1.00  0.00     0.223 C 
HETATM   16  O1  UNL     1      11.337  53.581  -0.401  1.00  0.00    -0.273 OA
ATOM     17  H1  UNL     1      10.436  55.111   2.252  1.00  0.00     0.171 HD
BRANCH  15  18
HETATM   18  C2  UNL     1      11.703  52.771   1.774  1.00  0.00     0.099 C 
HETATM   19  C1  UNL     1      12.846  51.991   1.171  1.00  0.00     0.014 C 
ENDBRANCH  15  18
ENDBRANCH   1  14
TORSDOF 2
ENDMDL
