MODEL 1
REMARK VINA RESULT: -3.977235420      0.000      0.000
REMARK  2 active torsions:
REMARK  status: ('A' for Active; 'I' for Inactive)
REMARK    1  A    between atoms: C2_2  and  N1_4 
REMARK    2  A    between atoms: C2_2  and  C4_8 
ROOT
HETATM    1  C4  UNL     1       9.858  22.788  20.756  1.00  0.00     0.029 C 
HETATM    2  C5  UNL     1       9.375  24.147  21.227  1.00  0.00     0.008 C 
HETATM    3  C6  UNL     1      10.798  24.317  21.788  1.00  0.00     0.010 C 
HETATM    4  C7  UNL     1      10.800  22.781  21.841  1.00  0.00    -0.034 C 
HETATM    5  C8  UNL     1      12.118  22.137  21.764  1.00  0.00     0.010 C 
HETATM    6  C9  UNL     1      12.114  22.163  23.302  1.00  0.00     0.002 C 
HETATM    7  C10 UNL     1      10.582  22.277  23.177  1.00  0.00     0.010 C 
ENDROOT
BRANCH   1   8
HETATM    8  C2  UNL     1       8.818  21.780  20.543  1.00  0.00     0.121 C 
HETATM    9  C1  UNL     1       8.294  21.899  19.108  1.00  0.00     0.046 C 
HETATM   10  C3  UNL     1       9.111  20.362  20.843  1.00  0.00     0.046 C 
BRANCH   8  11
HETATM   11  N1  UNL     1       7.678  22.170  21.398  1.00  0.00    -0.071 N 
ATOM     12  H13 UNL     1       6.825  22.378  20.879  1.00  0.00     0.275 HD
ATOM     13  H12 UNL     1       7.295  21.404  21.951  1.00  0.00     0.275 HD
ATOM     14  H11 UNL     1       8.022  22.951  21.956  1.00  0.00     0.275 HD
ENDBRANCH   8  11
ENDBRANCH   1   8
TORSDOF 2
ENDMDL
MODEL 2
REMARK VINA RESULT: -3.973682322      1.788      3.276
REMARK  2 active torsions:
REMARK  status: ('A' for Active; 'I' for Inactive)
REMARK    1  A    between atoms: C2_2  and  N1_4 
REMARK    2  A    between atoms: C2_2  and  C4_8 
ROOT
HETATM    1  C4  UNL     1       9.750  22.358  23.129  1.00  0.00     0.029 C 
HETATM    2  C5  UNL     1       9.038  22.122  21.809  1.00  0.00     0.008 C 
HETATM    3  C6  UNL     1      10.325  21.388  21.392  1.00  0.00     0.010 C 
HETATM    4  C7  UNL     1      11.003  22.298  22.429  1.00  0.00    -0.034 C 
HETATM    5  C8  UNL     1      12.240  21.780  23.028  1.00  0.00     0.010 C 
HETATM    6  C9  UNL     1      12.983  22.540  21.915  1.00  0.00     0.002 C 
HETATM    7  C10 UNL     1      11.708  23.399  21.815  1.00  0.00     0.010 C 
ENDROOT
BRANCH   1   8
HETATM    8  C2  UNL     1       9.280  23.502  23.911  1.00  0.00     0.121 C 
HETATM    9  C1  UNL     1       8.243  23.019  24.930  1.00  0.00     0.046 C 
HETATM   10  C3  UNL     1      10.267  24.369  24.589  1.00  0.00     0.046 C 
BRANCH   8  11
HETATM   11  N1  UNL     1       8.525  24.363  22.978  1.00  0.00    -0.071 N 
ATOM     12  H13 UNL     1       8.171  23.872  22.158  1.00  0.00     0.275 HD
ATOM     13  H12 UNL     1       7.618  24.664  23.335  1.00  0.00     0.275 HD
ATOM     14  H11 UNL     1       9.159  25.131  22.758  1.00  0.00     0.275 HD
ENDBRANCH   8  11
ENDBRANCH   1   8
TORSDOF 2
ENDMDL
MODEL 3
REMARK VINA RESULT: -3.971505504      1.056      1.399
REMARK  2 active torsions:
REMARK  status: ('A' for Active; 'I' for Inactive)
REMARK    1  A    between atoms: C2_2  and  N1_4 
REMARK    2  A    between atoms: C2_2  and  C4_8 
ROOT
HETATM    1  C4  UNL     1       9.578  22.566  20.522  1.00  0.00     0.029 C 
HETATM    2  C5  UNL     1       9.088  23.986  20.735  1.00  0.00     0.008 C 
HETATM    3  C6  UNL     1      10.444  24.216  21.425  1.00  0.00     0.010 C 
HETATM    4  C7  UNL     1      10.394  22.704  21.697  1.00  0.00    -0.034 C 
HETATM    5  C8  UNL     1      11.691  22.037  21.864  1.00  0.00     0.010 C 
HETATM    6  C9  UNL     1      11.517  22.288  23.372  1.00  0.00     0.002 C 
HETATM    7  C10 UNL     1      10.013  22.404  23.057  1.00  0.00     0.010 C 
ENDROOT
BRANCH   1   8
HETATM    8  C2  UNL     1       8.538  21.553  20.338  1.00  0.00     0.121 C 
HETATM    9  C1  UNL     1       9.074  20.196  20.803  1.00  0.00     0.046 C 
HETATM   10  C3  UNL     1       7.197  21.778  20.920  1.00  0.00     0.046 C 
BRANCH   8  11
HETATM   11  N1  UNL     1       8.350  21.408  18.879  1.00  0.00    -0.071 N 
ATOM     12  H13 UNL     1       8.814  20.592  18.482  1.00  0.00     0.275 HD
ATOM     13  H12 UNL     1       7.402  21.147  18.608  1.00  0.00     0.275 HD
ATOM     14  H11 UNL     1       8.664  22.295  18.484  1.00  0.00     0.275 HD
ENDBRANCH   8  11
ENDBRANCH   1   8
TORSDOF 2
ENDMDL
MODEL 4
REMARK VINA RESULT: -3.898222911      2.012      3.812
REMARK  2 active torsions:
REMARK  status: ('A' for Active; 'I' for Inactive)
REMARK    1  A    between atoms: C2_2  and  N1_4 
REMARK    2  A    between atoms: C2_2  and  C4_8 
ROOT
HETATM    1  C4  UNL     1      11.053  22.683  21.794  1.00  0.00     0.029 C 
HETATM    2  C5  UNL     1      10.474  21.375  21.286  1.00  0.00     0.008 C 
HETATM    3  C6  UNL     1       9.140  22.138  21.219  1.00  0.00     0.010 C 
HETATM    4  C7  UNL     1       9.757  23.016  22.319  1.00  0.00    -0.034 C 
HETATM    5  C8  UNL     1       9.249  24.391  22.405  1.00  0.00     0.010 C 
HETATM    6  C9  UNL     1       8.243  23.852  23.437  1.00  0.00     0.002 C 
HETATM    7  C10 UNL     1       9.244  22.696  23.630  1.00  0.00     0.010 C 
ENDROOT
BRANCH   1   8
HETATM    8  C2  UNL     1      12.277  22.573  22.590  1.00  0.00     0.121 C 
HETATM    9  C1  UNL     1      13.486  22.589  21.650  1.00  0.00     0.046 C 
HETATM   10  C3  UNL     1      12.505  23.521  23.701  1.00  0.00     0.046 C 
BRANCH   8  11
HETATM   11  N1  UNL     1      12.270  21.218  23.179  1.00  0.00    -0.071 N 
ATOM     12  H13 UNL     1      12.531  20.482  22.524  1.00  0.00     0.275 HD
ATOM     13  H12 UNL     1      13.025  21.054  23.845  1.00  0.00     0.275 HD
ATOM     14  H11 UNL     1      11.337  21.107  23.575  1.00  0.00     0.275 HD
ENDBRANCH   8  11
ENDBRANCH   1   8
TORSDOF 2
ENDMDL
MODEL 5
REMARK VINA RESULT: -3.848895935      1.098      1.525
REMARK  2 active torsions:
REMARK  status: ('A' for Active; 'I' for Inactive)
REMARK    1  A    between atoms: C2_2  and  N1_4 
REMARK    2  A    between atoms: C2_2  and  C4_8 
ROOT
HETATM    1  C4  UNL     1       8.847  22.556  21.746  1.00  0.00     0.029 C 
HETATM    2  C5  UNL     1       8.450  22.199  23.167  1.00  0.00     0.008 C 
HETATM    3  C6  UNL     1       9.636  23.086  23.586  1.00  0.00     0.010 C 
HETATM    4  C7  UNL     1      10.199  22.731  22.201  1.00  0.00    -0.034 C 
HETATM    5  C8  UNL     1      11.129  23.705  21.615  1.00  0.00     0.010 C 
HETATM    6  C9  UNL     1      12.253  22.872  22.256  1.00  0.00     0.002 C 
HETATM    7  C10 UNL     1      11.229  21.721  22.268  1.00  0.00     0.010 C 
ENDROOT
BRANCH   1   8
HETATM    8  C2  UNL     1       8.425  21.612  20.710  1.00  0.00     0.121 C 
HETATM    9  C1  UNL     1       8.723  22.216  19.334  1.00  0.00     0.046 C 
HETATM   10  C3  UNL     1       8.923  20.220  20.755  1.00  0.00     0.046 C 
BRANCH   8  11
HETATM   11  N1  UNL     1       6.952  21.542  20.785  1.00  0.00    -0.071 N 
ATOM     12  H13 UNL     1       6.573  21.780  21.701  1.00  0.00     0.275 HD
ATOM     13  H12 UNL     1       6.476  22.279  20.266  1.00  0.00     0.275 HD
ATOM     14  H11 UNL     1       6.717  20.599  20.473  1.00  0.00     0.275 HD
ENDBRANCH   8  11
ENDBRANCH   1   8
TORSDOF 2
ENDMDL
