MODEL 1
REMARK VINA RESULT: -4.162930405      0.000      0.000
REMARK  2 active torsions:
REMARK  status: ('A' for Active; 'I' for Inactive)
REMARK    1  A    between atoms: N1_1  and  C1_5 
REMARK    2  A    between atoms: C8_12  and  N2_13 
ROOT
HETATM    1  C1  UNL     1      10.050  24.040  21.229  1.00  0.00     0.191 C 
HETATM    2  C2  UNL     1       9.712  22.593  21.467  1.00  0.00     0.019 C 
HETATM    3  C3  UNL     1       9.361  22.283  22.886  1.00  0.00     0.011 C 
HETATM    4  C4  UNL     1      10.527  22.643  23.801  1.00  0.00    -0.011 C 
HETATM    5  C5  UNL     1      10.699  24.157  23.654  1.00  0.00     0.011 C 
HETATM    6  C6  UNL     1      11.065  24.481  22.239  1.00  0.00     0.019 C 
HETATM    7  C7  UNL     1      12.357  23.746  21.922  1.00  0.00     0.045 C 
HETATM    8  C8  UNL     1      12.123  22.272  21.975  1.00  0.00     0.125 C 
HETATM    9  C9  UNL     1      11.788  21.914  23.423  1.00  0.00     0.043 C 
HETATM   10  C10 UNL     1      10.981  21.799  21.131  1.00  0.00     0.045 C 
ENDROOT
BRANCH   1  11
HETATM   11  N1  UNL     1       8.908  24.895  21.126  1.00  0.00    -0.074 N 
ATOM     12  H13 UNL     1       8.146  24.544  21.705  1.00  0.00     0.274 HD
ATOM     13  H12 UNL     1       9.084  25.785  21.591  1.00  0.00     0.274 HD
ATOM     14  H11 UNL     1       8.589  25.047  20.169  1.00  0.00     0.274 HD
ENDBRANCH   1  11
BRANCH   8  15
HETATM   15  N2  UNL     1      13.324  21.578  21.538  1.00  0.00    -0.070 N 
ATOM     16  H23 UNL     1      13.745  21.025  22.286  1.00  0.00     0.275 HD
ATOM     17  H22 UNL     1      13.117  20.814  20.894  1.00  0.00     0.275 HD
ATOM     18  H21 UNL     1      13.979  22.252  21.141  1.00  0.00     0.275 HD
ENDBRANCH   8  15
TORSDOF 2
ENDMDL
MODEL 2
REMARK VINA RESULT: -4.126807891      1.408      2.639
REMARK  2 active torsions:
REMARK  status: ('A' for Active; 'I' for Inactive)
REMARK    1  A    between atoms: N1_1  and  C1_5 
REMARK    2  A    between atoms: C8_12  and  N2_13 
ROOT
HETATM    1  C1  UNL     1       8.335  22.128  22.217  1.00  0.00     0.191 C 
HETATM    2  C2  UNL     1       8.952  23.068  23.217  1.00  0.00     0.019 C 
HETATM    3  C3  UNL     1       9.291  24.410  22.654  1.00  0.00     0.011 C 
HETATM    4  C4  UNL     1      10.273  24.255  21.497  1.00  0.00    -0.011 C 
HETATM    5  C5  UNL     1       9.518  23.449  20.436  1.00  0.00     0.011 C 
HETATM    6  C6  UNL     1       9.184  22.096  20.983  1.00  0.00     0.019 C 
HETATM    7  C7  UNL     1      10.492  21.421  21.361  1.00  0.00     0.045 C 
HETATM    8  C8  UNL     1      11.148  22.178  22.469  1.00  0.00     0.125 C 
HETATM    9  C9  UNL     1      11.535  23.551  21.917  1.00  0.00     0.043 C 
HETATM   10  C10 UNL     1      10.269  22.416  23.657  1.00  0.00     0.045 C 
ENDROOT
BRANCH   1  11
HETATM   11  N1  UNL     1       6.947  22.369  21.973  1.00  0.00    -0.074 N 
ATOM     12  H13 UNL     1       6.629  23.188  22.491  1.00  0.00     0.274 HD
ATOM     13  H12 UNL     1       6.803  22.701  21.020  1.00  0.00     0.274 HD
ATOM     14  H11 UNL     1       6.346  21.568  22.168  1.00  0.00     0.274 HD
ENDBRANCH   1  11
BRANCH   8  15
HETATM   15  N2  UNL     1      12.327  21.454  22.917  1.00  0.00    -0.070 N 
ATOM     16  H23 UNL     1      12.595  20.714  22.268  1.00  0.00     0.275 HD
ATOM     17  H22 UNL     1      13.175  22.017  22.851  1.00  0.00     0.275 HD
ATOM     18  H21 UNL     1      12.169  21.102  23.861  1.00  0.00     0.275 HD
ENDBRANCH   8  15
TORSDOF 2
ENDMDL
MODEL 3
REMARK VINA RESULT: -4.090527667      0.982      2.246
REMARK  2 active torsions:
REMARK  status: ('A' for Active; 'I' for Inactive)
REMARK    1  A    between atoms: N1_1  and  C1_5 
REMARK    2  A    between atoms: C8_12  and  N2_13 
ROOT
HETATM    1  C1  UNL     1       9.462  22.250  22.770  1.00  0.00     0.191 C 
HETATM    2  C2  UNL     1      10.505  22.587  23.801  1.00  0.00     0.019 C 
HETATM    3  C3  UNL     1      10.811  24.047  23.894  1.00  0.00     0.011 C 
HETATM    4  C4  UNL     1      11.308  24.561  22.547  1.00  0.00    -0.011 C 
HETATM    5  C5  UNL     1      10.134  24.361  21.584  1.00  0.00     0.011 C 
HETATM    6  C6  UNL     1       9.826  22.900  21.471  1.00  0.00     0.019 C 
HETATM    7  C7  UNL     1      11.080  22.207  20.963  1.00  0.00     0.045 C 
HETATM    8  C8  UNL     1      12.172  22.336  21.975  1.00  0.00     0.125 C 
HETATM    9  C9  UNL     1      12.530  23.819  22.075  1.00  0.00     0.043 C 
HETATM   10  C10 UNL     1      11.792  21.884  23.351  1.00  0.00     0.045 C 
ENDROOT
BRANCH   1  11
HETATM   11  N1  UNL     1       8.120  22.496  23.199  1.00  0.00    -0.074 N 
ATOM     12  H13 UNL     1       7.994  23.481  23.432  1.00  0.00     0.274 HD
ATOM     13  H12 UNL     1       7.474  22.421  22.414  1.00  0.00     0.274 HD
ATOM     14  H11 UNL     1       7.816  21.904  23.972  1.00  0.00     0.274 HD
ENDBRANCH   1  11
BRANCH   8  15
HETATM   15  N2  UNL     1      13.322  21.558  21.545  1.00  0.00    -0.070 N 
ATOM     16  H23 UNL     1      13.325  20.619  21.945  1.00  0.00     0.275 HD
ATOM     17  H22 UNL     1      13.265  21.295  20.561  1.00  0.00     0.275 HD
ATOM     18  H21 UNL     1      14.177  22.071  21.759  1.00  0.00     0.275 HD
ENDBRANCH   8  15
TORSDOF 2
ENDMDL
MODEL 4
REMARK VINA RESULT: -4.050269111      1.140      2.476
REMARK  2 active torsions:
REMARK  status: ('A' for Active; 'I' for Inactive)
REMARK    1  A    between atoms: N1_1  and  C1_5 
REMARK    2  A    between atoms: C8_12  and  N2_13 
ROOT
HETATM    1  C1  UNL     1      11.084  24.030  23.900  1.00  0.00     0.191 C 
HETATM    2  C2  UNL     1      11.305  24.549  22.505  1.00  0.00     0.019 C 
HETATM    3  C3  UNL     1      10.148  24.322  21.587  1.00  0.00     0.011 C 
HETATM    4  C4  UNL     1       9.851  22.830  21.484  1.00  0.00    -0.011 C 
HETATM    5  C5  UNL     1       9.452  22.402  22.899  1.00  0.00     0.011 C 
HETATM    6  C6  UNL     1      10.607  22.612  23.827  1.00  0.00     0.019 C 
HETATM    7  C7  UNL     1      11.768  21.779  23.307  1.00  0.00     0.045 C 
HETATM    8  C8  UNL     1      12.196  22.292  21.970  1.00  0.00     0.125 C 
HETATM    9  C9  UNL     1      11.042  22.049  20.996  1.00  0.00     0.043 C 
HETATM   10  C10 UNL     1      12.493  23.759  21.940  1.00  0.00     0.045 C 
ENDROOT
BRANCH   1  11
HETATM   11  N1  UNL     1      10.278  24.883  24.716  1.00  0.00    -0.074 N 
ATOM     12  H13 UNL     1      10.165  24.485  25.648  1.00  0.00     0.274 HD
ATOM     13  H12 UNL     1      10.785  25.736  24.952  1.00  0.00     0.274 HD
ATOM     14  H11 UNL     1       9.369  25.108  24.311  1.00  0.00     0.274 HD
ENDBRANCH   1  11
BRANCH   8  15
HETATM   15  N2  UNL     1      13.389  21.581  21.541  1.00  0.00    -0.070 N 
ATOM     16  H23 UNL     1      13.459  20.654  21.961  1.00  0.00     0.275 HD
ATOM     17  H22 UNL     1      13.336  21.292  20.564  1.00  0.00     0.275 HD
ATOM     18  H21 UNL     1      14.211  22.154  21.730  1.00  0.00     0.275 HD
ENDBRANCH   8  15
TORSDOF 2
ENDMDL
MODEL 5
REMARK VINA RESULT: -4.006710874      1.755      2.711
REMARK  2 active torsions:
REMARK  status: ('A' for Active; 'I' for Inactive)
REMARK    1  A    between atoms: N1_1  and  C1_5 
REMARK    2  A    between atoms: C8_12  and  N2_13 
ROOT
HETATM    1  C1  UNL     1      11.457  23.812  21.846  1.00  0.00     0.191 C 
HETATM    2  C2  UNL     1      10.085  24.345  21.533  1.00  0.00     0.019 C 
HETATM    3  C3  UNL     1       9.151  24.328  22.699  1.00  0.00     0.011 C 
HETATM    4  C4  UNL     1       8.988  22.901  23.214  1.00  0.00    -0.011 C 
HETATM    5  C5  UNL     1      10.382  22.485  23.689  1.00  0.00     0.011 C 
HETATM    6  C6  UNL     1      11.325  22.484  22.527  1.00  0.00     0.019 C 
HETATM    7  C7  UNL     1      10.780  21.508  21.497  1.00  0.00     0.045 C 
HETATM    8  C8  UNL     1       9.467  22.002  20.981  1.00  0.00     0.125 C 
HETATM    9  C9  UNL     1       8.477  21.971  22.146  1.00  0.00     0.043 C 
HETATM   10  C10 UNL     1       9.497  23.409  20.469  1.00  0.00     0.045 C 
ENDROOT
BRANCH   1  11
HETATM   11  N1  UNL     1      12.301  24.745  22.526  1.00  0.00    -0.074 N 
ATOM     12  H13 UNL     1      12.384  24.498  23.512  1.00  0.00     0.274 HD
ATOM     13  H12 UNL     1      13.272  24.627  22.236  1.00  0.00     0.274 HD
ATOM     14  H11 UNL     1      12.012  25.717  22.423  1.00  0.00     0.274 HD
ENDBRANCH   1  11
BRANCH   8  15
HETATM   15  N2  UNL     1       9.018  21.138  19.902  1.00  0.00    -0.070 N 
ATOM     16  H23 UNL     1       8.039  21.296  19.662  1.00  0.00     0.275 HD
ATOM     17  H22 UNL     1       9.430  21.395  19.004  1.00  0.00     0.275 HD
ATOM     18  H21 UNL     1       9.204  20.165  20.147  1.00  0.00     0.275 HD
ENDBRANCH   8  15
TORSDOF 2
ENDMDL
