MODEL 1
REMARK VINA RESULT: -4.099659603      0.000      0.000
REMARK  1 active torsions:
REMARK  status: ('A' for Active; 'I' for Inactive)
REMARK    1  A    between atoms: N1_2  and  C2_5 
ROOT
HETATM    1  C2  UNL     1      11.836  22.613  21.530  1.00  0.00     0.193 C 
HETATM    2  C3  UNL     1      12.051  23.855  22.387  1.00  0.00     0.016 C 
HETATM    3  C4  UNL     1      11.040  24.927  22.052  1.00  0.00     0.007 C 
HETATM    4  C5  UNL     1       9.696  24.268  21.845  1.00  0.00     0.005 C 
HETATM    5  C6  UNL     1       9.691  22.981  22.650  1.00  0.00    -0.009 C 
HETATM    6  C7  UNL     1      10.267  23.336  24.017  1.00  0.00     0.005 C 
HETATM    7  C8  UNL     1      11.775  23.450  23.833  1.00  0.00     0.007 C 
HETATM    8  C9  UNL     1      10.601  21.935  22.060  1.00  0.00     0.016 C 
HETATM    9  C10 UNL     1       9.925  21.053  21.055  1.00  0.00     0.012 C 
ENDROOT
BRANCH   1  10
HETATM   10  N1  UNL     1      12.989  21.760  21.772  1.00  0.00    -0.074 N 
HETATM   11  C1  UNL     1      14.225  22.352  21.333  1.00  0.00     0.267 C 
ATOM     12  H12 UNL     1      12.857  20.839  21.353  1.00  0.00     0.277 HD
ATOM     13  H11 UNL     1      13.042  21.489  22.754  1.00  0.00     0.277 HD
ENDBRANCH   1  10
TORSDOF 1
ENDMDL
MODEL 2
REMARK VINA RESULT: -4.050447252      1.075      3.032
REMARK  1 active torsions:
REMARK  status: ('A' for Active; 'I' for Inactive)
REMARK    1  A    between atoms: N1_2  and  C2_5 
ROOT
HETATM    1  C2  UNL     1      10.707  21.787  21.977  1.00  0.00     0.193 C 
HETATM    2  C3  UNL     1       9.571  22.667  22.488  1.00  0.00     0.016 C 
HETATM    3  C4  UNL     1       9.858  23.166  23.885  1.00  0.00     0.007 C 
HETATM    4  C5  UNL     1      11.319  23.544  23.967  1.00  0.00     0.005 C 
HETATM    5  C6  UNL     1      11.773  23.911  22.565  1.00  0.00    -0.009 C 
HETATM    6  C7  UNL     1      10.688  24.816  21.992  1.00  0.00     0.005 C 
HETATM    7  C8  UNL     1       9.533  23.904  21.595  1.00  0.00     0.007 C 
HETATM    8  C9  UNL     1      11.853  22.710  21.658  1.00  0.00     0.016 C 
HETATM    9  C10 UNL     1      13.189  22.031  21.680  1.00  0.00     0.012 C 
ENDROOT
BRANCH   1  10
HETATM   10  N1  UNL     1      10.220  21.188  20.745  1.00  0.00    -0.074 N 
HETATM   11  C1  UNL     1       9.093  20.317  20.953  1.00  0.00     0.267 C 
ATOM     12  H12 UNL     1      10.971  20.702  20.254  1.00  0.00     0.277 HD
ATOM     13  H11 UNL     1      10.005  21.904  20.051  1.00  0.00     0.277 HD
ENDBRANCH   1  10
TORSDOF 1
ENDMDL
MODEL 3
REMARK VINA RESULT: -3.742677826      2.018      3.426
REMARK  1 active torsions:
REMARK  status: ('A' for Active; 'I' for Inactive)
REMARK    1  A    between atoms: N1_2  and  C2_5 
ROOT
HETATM    1  C2  UNL     1       8.970  22.949  22.232  1.00  0.00     0.193 C 
HETATM    2  C3  UNL     1      10.192  22.937  21.320  1.00  0.00     0.016 C 
HETATM    3  C4  UNL     1      11.097  24.112  21.609  1.00  0.00     0.007 C 
HETATM    4  C5  UNL     1      11.165  24.305  23.107  1.00  0.00     0.005 C 
HETATM    5  C6  UNL     1      10.889  22.959  23.751  1.00  0.00    -0.009 C 
HETATM    6  C7  UNL     1      11.726  21.942  22.983  1.00  0.00     0.005 C 
HETATM    7  C8  UNL     1      10.995  21.687  21.671  1.00  0.00     0.007 C 
HETATM    8  C9  UNL     1       9.451  22.535  23.597  1.00  0.00     0.016 C 
HETATM    9  C10 UNL     1       8.566  23.007  24.711  1.00  0.00     0.012 C 
ENDROOT
BRANCH   1  10
HETATM   10  N1  UNL     1       8.077  21.927  21.712  1.00  0.00    -0.074 N 
HETATM   11  C1  UNL     1       7.438  22.316  20.482  1.00  0.00     0.267 C 
ATOM     12  H12 UNL     1       7.386  21.655  22.411  1.00  0.00     0.277 HD
ATOM     13  H11 UNL     1       8.563  21.037  21.604  1.00  0.00     0.277 HD
ENDBRANCH   1  10
TORSDOF 1
ENDMDL
MODEL 4
REMARK VINA RESULT: -3.741682200      1.692      2.960
REMARK  1 active torsions:
REMARK  status: ('A' for Active; 'I' for Inactive)
REMARK    1  A    between atoms: N1_2  and  C2_5 
ROOT
HETATM    1  C2  UNL     1      10.066  22.124  21.412  1.00  0.00     0.193 C 
HETATM    2  C3  UNL     1      10.864  21.815  22.674  1.00  0.00     0.016 C 
HETATM    3  C4  UNL     1      12.256  22.401  22.592  1.00  0.00     0.007 C 
HETATM    4  C5  UNL     1      12.160  23.775  21.970  1.00  0.00     0.005 C 
HETATM    5  C6  UNL     1      10.769  24.309  22.260  1.00  0.00    -0.009 C 
HETATM    6  C7  UNL     1      10.503  24.018  23.733  1.00  0.00     0.005 C 
HETATM    7  C8  UNL     1      10.169  22.535  23.825  1.00  0.00     0.007 C 
HETATM    8  C9  UNL     1       9.704  23.583  21.481  1.00  0.00     0.016 C 
HETATM    9  C10 UNL     1       9.423  24.193  20.140  1.00  0.00     0.012 C 
ENDROOT
BRANCH   1  10
HETATM   10  N1  UNL     1       8.854  21.326  21.505  1.00  0.00    -0.074 N 
HETATM   11  C1  UNL     1       8.910  20.127  20.712  1.00  0.00     0.267 C 
ATOM     12  H12 UNL     1       8.032  21.882  21.267  1.00  0.00     0.277 HD
ATOM     13  H11 UNL     1       8.633  21.111  22.477  1.00  0.00     0.277 HD
ENDBRANCH   1  10
TORSDOF 1
ENDMDL
MODEL 5
REMARK VINA RESULT: -3.720287547      1.628      3.199
REMARK  1 active torsions:
REMARK  status: ('A' for Active; 'I' for Inactive)
REMARK    1  A    between atoms: N1_2  and  C2_5 
ROOT
HETATM    1  C2  UNL     1       9.847  21.771  21.988  1.00  0.00     0.193 C 
HETATM    2  C3  UNL     1       8.743  22.788  21.722  1.00  0.00     0.016 C 
HETATM    3  C4  UNL     1       8.391  23.548  22.980  1.00  0.00     0.007 C 
HETATM    4  C5  UNL     1       9.670  23.866  23.719  1.00  0.00     0.005 C 
HETATM    5  C6  UNL     1      10.787  23.918  22.694  1.00  0.00    -0.009 C 
HETATM    6  C7  UNL     1      10.251  24.736  21.524  1.00  0.00     0.005 C 
HETATM    7  C8  UNL     1       9.314  23.817  20.750  1.00  0.00     0.007 C 
HETATM    8  C9  UNL     1      11.123  22.555  22.146  1.00  0.00     0.016 C 
HETATM    9  C10 UNL     1      12.173  21.834  22.936  1.00  0.00     0.012 C 
ENDROOT
BRANCH   1  10
HETATM   10  N1  UNL     1       9.934  20.956  20.787  1.00  0.00    -0.074 N 
HETATM   11  C1  UNL     1       8.815  20.064  20.634  1.00  0.00     0.267 C 
ATOM     12  H12 UNL     1      10.816  20.443  20.756  1.00  0.00     0.277 HD
ATOM     13  H11 UNL     1      10.052  21.539  19.959  1.00  0.00     0.277 HD
ENDBRANCH   1  10
TORSDOF 1
ENDMDL
