MODEL 1
REMARK VINA RESULT: -4.170194961      0.000      0.000
REMARK  3 active torsions:
REMARK  status: ('A' for Active; 'I' for Inactive)
REMARK    1  A    between atoms: C4_4  and  N1_5 
REMARK    2  A    between atoms: C8_12  and  C9_13 
REMARK    3  A    between atoms: C9_13  and  N2_14 
ROOT
HETATM    1  C1  UNL     1       9.567  23.536  24.181  1.00  0.00     0.016 C 
HETATM    2  C2  UNL     1       9.920  22.736  22.983  1.00  0.00    -0.034 C 
HETATM    3  C3  UNL     1       8.766  21.979  22.372  1.00  0.00     0.042 C 
HETATM    4  C4  UNL     1       8.850  22.157  20.888  1.00  0.00     0.185 C 
HETATM    5  C5  UNL     1       9.788  23.322  20.640  1.00  0.00     0.043 C 
HETATM    6  C6  UNL     1      10.652  23.403  21.877  1.00  0.00    -0.030 C 
HETATM    7  C7  UNL     1      11.149  24.785  22.188  1.00  0.00     0.016 C 
HETATM    8  C8  UNL     1      11.667  22.310  21.879  1.00  0.00     0.020 C 
HETATM    9  C10 UNL     1      11.154  21.882  23.237  1.00  0.00     0.017 C 
ENDROOT
BRANCH   8  10
HETATM   10  C9  UNL     1      13.112  22.762  21.877  1.00  0.00     0.235 C 
BRANCH  10  11
HETATM   11  N2  UNL     1      13.904  21.766  21.174  1.00  0.00    -0.079 N 
ATOM     12  H23 UNL     1      14.712  22.172  20.702  1.00  0.00     0.274 HD
ATOM     13  H22 UNL     1      14.410  21.149  21.809  1.00  0.00     0.274 HD
ATOM     14  H21 UNL     1      13.292  21.257  20.537  1.00  0.00     0.274 HD
ENDBRANCH  10  11
ENDBRANCH   8  10
BRANCH   4  15
HETATM   15  N1  UNL     1       7.576  22.509  20.289  1.00  0.00    -0.075 N 
ATOM     16  H13 UNL     1       7.263  23.425  20.610  1.00  0.00     0.274 HD
ATOM     17  H12 UNL     1       7.683  22.710  19.295  1.00  0.00     0.274 HD
ATOM     18  H11 UNL     1       6.856  21.803  20.443  1.00  0.00     0.274 HD
ENDBRANCH   4  15
TORSDOF 3
ENDMDL
MODEL 2
REMARK VINA RESULT: -4.154773734      2.046      3.637
REMARK  3 active torsions:
REMARK  status: ('A' for Active; 'I' for Inactive)
REMARK    1  A    between atoms: C4_4  and  N1_5 
REMARK    2  A    between atoms: C8_12  and  C9_13 
REMARK    3  A    between atoms: C9_13  and  N2_14 
ROOT
HETATM    1  C1  UNL     1       9.572  23.212  20.909  1.00  0.00     0.016 C 
HETATM    2  C2  UNL     1      10.521  22.931  22.014  1.00  0.00    -0.034 C 
HETATM    3  C3  UNL     1      11.419  21.741  21.781  1.00  0.00     0.042 C 
HETATM    4  C4  UNL     1      12.801  22.134  22.202  1.00  0.00     0.185 C 
HETATM    5  C5  UNL     1      12.813  23.647  22.300  1.00  0.00     0.043 C 
HETATM    6  C6  UNL     1      11.370  24.041  22.516  1.00  0.00    -0.030 C 
HETATM    7  C7  UNL     1      11.018  25.399  21.984  1.00  0.00     0.016 C 
HETATM    8  C8  UNL     1      10.949  23.740  23.915  1.00  0.00     0.020 C 
HETATM    9  C10 UNL     1       9.809  22.914  23.359  1.00  0.00     0.017 C 
ENDROOT
BRANCH   8  10
HETATM   10  C9  UNL     1      10.508  24.933  24.734  1.00  0.00     0.235 C 
BRANCH  10  11
HETATM   11  N2  UNL     1      11.512  25.189  25.753  1.00  0.00    -0.079 N 
ATOM     12  H23 UNL     1      12.380  24.681  25.584  1.00  0.00     0.274 HD
ATOM     13  H22 UNL     1      11.892  26.135  25.700  1.00  0.00     0.274 HD
ATOM     14  H21 UNL     1      11.108  24.981  26.666  1.00  0.00     0.274 HD
ENDBRANCH  10  11
ENDBRANCH   8  10
BRANCH   4  15
HETATM   15  N1  UNL     1      13.813  21.769  21.227  1.00  0.00    -0.075 N 
ATOM     16  H13 UNL     1      13.518  22.019  20.283  1.00  0.00     0.274 HD
ATOM     17  H12 UNL     1      14.632  22.371  21.309  1.00  0.00     0.274 HD
ATOM     18  H11 UNL     1      14.076  20.785  21.278  1.00  0.00     0.274 HD
ENDBRANCH   4  15
TORSDOF 3
ENDMDL
MODEL 3
REMARK VINA RESULT: -3.890820840      2.230      3.448
REMARK  3 active torsions:
REMARK  status: ('A' for Active; 'I' for Inactive)
REMARK    1  A    between atoms: C4_4  and  N1_5 
REMARK    2  A    between atoms: C8_12  and  C9_13 
REMARK    3  A    between atoms: C9_13  and  N2_14 
ROOT
HETATM    1  C1  UNL     1      11.442  23.915  21.777  1.00  0.00     0.016 C 
HETATM    2  C2  UNL     1      10.504  22.891  22.301  1.00  0.00    -0.034 C 
HETATM    3  C3  UNL     1      10.401  22.848  23.805  1.00  0.00     0.042 C 
HETATM    4  C4  UNL     1       8.949  22.727  24.151  1.00  0.00     0.185 C 
HETATM    5  C5  UNL     1       8.171  23.099  22.904  1.00  0.00     0.043 C 
HETATM    6  C6  UNL     1       9.123  22.853  21.756  1.00  0.00    -0.030 C 
HETATM    7  C7  UNL     1       8.886  23.732  20.563  1.00  0.00     0.016 C 
HETATM    8  C8  UNL     1       9.260  21.390  21.494  1.00  0.00     0.020 C 
HETATM    9  C10 UNL     1      10.757  21.535  21.659  1.00  0.00     0.017 C 
ENDROOT
BRANCH   8  10
HETATM   10  C9  UNL     1       8.829  20.932  20.117  1.00  0.00     0.235 C 
BRANCH  10  11
HETATM   11  N2  UNL     1       8.416  19.541  20.203  1.00  0.00    -0.079 N 
ATOM     12  H23 UNL     1       7.409  19.424  20.088  1.00  0.00     0.274 HD
ATOM     13  H22 UNL     1       8.713  18.994  19.395  1.00  0.00     0.274 HD
ATOM     14  H21 UNL     1       8.757  19.156  21.084  1.00  0.00     0.274 HD
ENDBRANCH  10  11
ENDBRANCH   8  10
BRANCH   4  15
HETATM   15  N1  UNL     1       8.538  23.651  25.192  1.00  0.00    -0.075 N 
ATOM     16  H13 UNL     1       7.687  24.146  24.927  1.00  0.00     0.274 HD
ATOM     17  H12 UNL     1       8.190  23.149  26.009  1.00  0.00     0.274 HD
ATOM     18  H11 UNL     1       9.275  24.307  25.454  1.00  0.00     0.274 HD
ENDBRANCH   4  15
TORSDOF 3
ENDMDL
MODEL 4
REMARK VINA RESULT: -3.888500704      1.987      3.328
REMARK  3 active torsions:
REMARK  status: ('A' for Active; 'I' for Inactive)
REMARK    1  A    between atoms: C4_4  and  N1_5 
REMARK    2  A    between atoms: C8_12  and  C9_13 
REMARK    3  A    between atoms: C9_13  and  N2_14 
ROOT
HETATM    1  C1  UNL     1      11.853  22.071  23.377  1.00  0.00     0.016 C 
HETATM    2  C2  UNL     1      10.897  22.480  22.319  1.00  0.00    -0.034 C 
HETATM    3  C3  UNL     1      10.823  21.538  21.143  1.00  0.00     0.042 C 
HETATM    4  C4  UNL     1       9.376  21.354  20.806  1.00  0.00     0.185 C 
HETATM    5  C5  UNL     1       8.584  21.849  22.001  1.00  0.00     0.043 C 
HETATM    6  C6  UNL     1       9.505  22.812  22.714  1.00  0.00    -0.030 C 
HETATM    7  C7  UNL     1       9.270  22.903  24.194  1.00  0.00     0.016 C 
HETATM    8  C8  UNL     1       9.593  24.101  21.969  1.00  0.00     0.020 C 
HETATM    9  C10 UNL     1      11.097  23.938  21.931  1.00  0.00     0.017 C 
ENDROOT
BRANCH   8  10
HETATM   10  C9  UNL     1       9.121  25.324  22.725  1.00  0.00     0.235 C 
BRANCH  10  11
HETATM   11  N2  UNL     1       8.070  25.967  21.953  1.00  0.00    -0.079 N 
ATOM     12  H23 UNL     1       8.415  26.367  21.080  1.00  0.00     0.274 HD
ATOM     13  H22 UNL     1       7.416  25.296  21.549  1.00  0.00     0.274 HD
ATOM     14  H21 UNL     1       7.609  26.657  22.545  1.00  0.00     0.274 HD
ENDBRANCH  10  11
ENDBRANCH   8  10
BRANCH   4  15
HETATM   15  N1  UNL     1       9.014  19.963  20.609  1.00  0.00    -0.075 N 
ATOM     16  H13 UNL     1       9.844  19.372  20.570  1.00  0.00     0.274 HD
ATOM     17  H12 UNL     1       8.576  19.578  21.446  1.00  0.00     0.274 HD
ATOM     18  H11 UNL     1       8.424  19.819  19.789  1.00  0.00     0.274 HD
ENDBRANCH   4  15
TORSDOF 3
ENDMDL
MODEL 5
REMARK VINA RESULT: -3.856698406      1.954      3.685
REMARK  3 active torsions:
REMARK  status: ('A' for Active; 'I' for Inactive)
REMARK    1  A    between atoms: C4_4  and  N1_5 
REMARK    2  A    between atoms: C8_12  and  C9_13 
REMARK    3  A    between atoms: C9_13  and  N2_14 
ROOT
HETATM    1  C1  UNL     1       9.159  23.006  20.144  1.00  0.00     0.016 C 
HETATM    2  C2  UNL     1       9.837  22.725  21.433  1.00  0.00    -0.034 C 
HETATM    3  C3  UNL     1      10.794  21.559  21.397  1.00  0.00     0.042 C 
HETATM    4  C4  UNL     1      12.033  21.974  22.128  1.00  0.00     0.185 C 
HETATM    5  C5  UNL     1      11.985  23.485  22.246  1.00  0.00     0.043 C 
HETATM    6  C6  UNL     1      10.521  23.844  22.130  1.00  0.00    -0.030 C 
HETATM    7  C7  UNL     1      10.267  25.204  21.549  1.00  0.00     0.016 C 
HETATM    8  C8  UNL     1       9.799  23.509  23.392  1.00  0.00     0.020 C 
HETATM    9  C10 UNL     1       8.837  22.669  22.579  1.00  0.00     0.017 C 
ENDROOT
BRANCH   8  10
HETATM   10  C9  UNL     1       9.153  24.678  24.103  1.00  0.00     0.235 C 
BRANCH  10  11
HETATM   11  N2  UNL     1       9.590  24.672  25.490  1.00  0.00    -0.079 N 
ATOM     12  H23 UNL     1       9.993  25.564  25.777  1.00  0.00     0.274 HD
ATOM     13  H22 UNL     1       8.810  24.654  26.146  1.00  0.00     0.274 HD
ATOM     14  H21 UNL     1      10.233  23.891  25.623  1.00  0.00     0.274 HD
ENDBRANCH  10  11
ENDBRANCH   8  10
BRANCH   4  15
HETATM   15  N1  UNL     1      13.249  21.648  21.406  1.00  0.00    -0.075 N 
ATOM     16  H13 UNL     1      13.217  20.694  21.047  1.00  0.00     0.274 HD
ATOM     17  H12 UNL     1      13.296  22.156  20.523  1.00  0.00     0.274 HD
ATOM     18  H11 UNL     1      14.092  21.801  21.960  1.00  0.00     0.274 HD
ENDBRANCH   4  15
TORSDOF 3
ENDMDL
