MODEL 1
REMARK VINA RESULT: -4.153585442      0.000      0.000
REMARK  1 active torsions:
REMARK  status: ('A' for Active; 'I' for Inactive)
REMARK    1  A    between atoms: N1_2  and  C2_5 
ROOT
HETATM    1  C2  UNL     1       8.789  21.889  20.464  1.00  0.00     0.186 C 
HETATM    2  C3  UNL     1       9.901  21.072  21.112  1.00  0.00     0.038 C 
HETATM    3  C4  UNL     1      10.428  22.017  22.134  1.00  0.00    -0.008 C 
HETATM    4  C5  UNL     1      11.814  21.746  22.613  1.00  0.00     0.005 C 
HETATM    5  C6  UNL     1      12.277  22.986  23.367  1.00  0.00     0.000 C 
HETATM    6  C7  UNL     1      11.152  23.959  23.615  1.00  0.00     0.000 C 
HETATM    7  C8  UNL     1      10.740  24.494  22.257  1.00  0.00     0.005 C 
HETATM    8  C9  UNL     1      10.461  23.323  21.361  1.00  0.00    -0.008 C 
HETATM    9  C10 UNL     1       9.085  23.336  20.757  1.00  0.00     0.038 C 
ENDROOT
BRANCH   1  10
HETATM   10  N1  UNL     1       8.819  21.632  19.035  1.00  0.00    -0.075 N 
HETATM   11  C1  UNL     1       7.428  21.598  18.595  1.00  0.00     0.267 C 
ATOM     12  H12 UNL     1       9.343  20.795  18.784  1.00  0.00     0.277 HD
ATOM     13  H11 UNL     1       9.392  22.299  18.516  1.00  0.00     0.277 HD
ENDBRANCH   1  10
TORSDOF 1
ENDMDL
MODEL 2
REMARK VINA RESULT: -4.142644058      1.730      2.410
REMARK  1 active torsions:
REMARK  status: ('A' for Active; 'I' for Inactive)
REMARK    1  A    between atoms: N1_2  and  C2_5 
ROOT
HETATM    1  C2  UNL     1      10.735  21.530  21.957  1.00  0.00     0.186 C 
HETATM    2  C3  UNL     1      12.091  22.071  21.516  1.00  0.00     0.038 C 
HETATM    3  C4  UNL     1      12.503  22.882  22.693  1.00  0.00    -0.008 C 
HETATM    4  C5  UNL     1      13.528  23.932  22.431  1.00  0.00     0.005 C 
HETATM    5  C6  UNL     1      13.552  24.848  23.648  1.00  0.00     0.000 C 
HETATM    6  C7  UNL     1      12.762  24.287  24.802  1.00  0.00     0.000 C 
HETATM    7  C8  UNL     1      11.307  24.298  24.371  1.00  0.00     0.005 C 
HETATM    8  C9  UNL     1      11.209  23.588  23.052  1.00  0.00    -0.008 C 
HETATM    9  C10 UNL     1      10.242  22.438  23.053  1.00  0.00     0.038 C 
ENDROOT
BRANCH   1  10
HETATM   10  N1  UNL     1       9.844  21.568  20.811  1.00  0.00    -0.075 N 
HETATM   11  C1  UNL     1       9.088  20.319  20.839  1.00  0.00     0.267 C 
ATOM     12  H12 UNL     1      10.326  21.729  19.928  1.00  0.00     0.277 HD
ATOM     13  H11 UNL     1       9.252  22.399  20.785  1.00  0.00     0.277 HD
ENDBRANCH   1  10
TORSDOF 1
ENDMDL
MODEL 3
REMARK VINA RESULT: -4.113951370      0.985      1.120
REMARK  1 active torsions:
REMARK  status: ('A' for Active; 'I' for Inactive)
REMARK    1  A    between atoms: N1_2  and  C2_5 
ROOT
HETATM    1  C2  UNL     1       8.119  21.080  20.571  1.00  0.00     0.186 C 
HETATM    2  C3  UNL     1       9.501  20.609  21.012  1.00  0.00     0.038 C 
HETATM    3  C4  UNL     1      10.070  21.839  21.627  1.00  0.00    -0.008 C 
HETATM    4  C5  UNL     1      11.556  21.889  21.722  1.00  0.00     0.005 C 
HETATM    5  C6  UNL     1      11.937  23.328  22.047  1.00  0.00     0.000 C 
HETATM    6  C7  UNL     1      10.740  24.166  22.418  1.00  0.00     0.000 C 
HETATM    7  C8  UNL     1       9.897  24.290  21.163  1.00  0.00     0.005 C 
HETATM    8  C9  UNL     1       9.641  22.908  20.637  1.00  0.00    -0.008 C 
HETATM    9  C10 UNL     1       8.183  22.581  20.474  1.00  0.00     0.038 C 
ENDROOT
BRANCH   1  10
HETATM   10  N1  UNL     1       7.836  20.487  19.276  1.00  0.00    -0.075 N 
HETATM   11  C1  UNL     1       6.963  21.425  18.578  1.00  0.00     0.267 C 
ATOM     12  H12 UNL     1       7.452  19.545  19.337  1.00  0.00     0.277 HD
ATOM     13  H11 UNL     1       8.676  20.246  18.748  1.00  0.00     0.277 HD
ENDBRANCH   1  10
TORSDOF 1
ENDMDL
MODEL 4
REMARK VINA RESULT: -4.107970156      1.107      2.189
REMARK  1 active torsions:
REMARK  status: ('A' for Active; 'I' for Inactive)
REMARK    1  A    between atoms: N1_2  and  C2_5 
ROOT
HETATM    1  C2  UNL     1       8.765  21.609  20.212  1.00  0.00     0.186 C 
HETATM    2  C3  UNL     1       8.813  23.105  20.499  1.00  0.00     0.038 C 
HETATM    3  C4  UNL     1      10.192  23.277  21.033  1.00  0.00    -0.008 C 
HETATM    4  C5  UNL     1      10.419  24.496  21.861  1.00  0.00     0.005 C 
HETATM    5  C6  UNL     1      11.751  24.310  22.576  1.00  0.00     0.000 C 
HETATM    6  C7  UNL     1      12.523  23.127  22.049  1.00  0.00     0.000 C 
HETATM    7  C8  UNL     1      11.731  21.892  22.434  1.00  0.00     0.005 C 
HETATM    8  C9  UNL     1      10.323  22.074  21.949  1.00  0.00    -0.008 C 
HETATM    9  C10 UNL     1       9.844  20.972  21.048  1.00  0.00     0.038 C 
ENDROOT
BRANCH   1  10
HETATM   10  N1  UNL     1       7.453  21.121  20.598  1.00  0.00    -0.075 N 
HETATM   11  C1  UNL     1       6.603  22.299  20.736  1.00  0.00     0.267 C 
ATOM     12  H12 UNL     1       7.468  20.533  21.430  1.00  0.00     0.277 HD
ATOM     13  H11 UNL     1       7.076  20.422  19.957  1.00  0.00     0.277 HD
ENDBRANCH   1  10
TORSDOF 1
ENDMDL
MODEL 5
REMARK VINA RESULT: -4.104846202      1.415      1.536
REMARK  1 active torsions:
REMARK  status: ('A' for Active; 'I' for Inactive)
REMARK    1  A    between atoms: N1_2  and  C2_5 
ROOT
HETATM    1  C2  UNL     1       9.258  21.861  21.852  1.00  0.00     0.186 C 
HETATM    2  C3  UNL     1      10.641  21.257  21.633  1.00  0.00     0.038 C 
HETATM    3  C4  UNL     1      11.534  22.315  22.180  1.00  0.00    -0.008 C 
HETATM    4  C5  UNL     1      12.944  22.286  21.696  1.00  0.00     0.005 C 
HETATM    5  C6  UNL     1      13.580  23.614  22.089  1.00  0.00     0.000 C 
HETATM    6  C7  UNL     1      12.712  24.406  23.034  1.00  0.00     0.000 C 
HETATM    7  C8  UNL     1      11.481  24.813  22.247  1.00  0.00     0.005 C 
HETATM    8  C9  UNL     1      10.892  23.577  21.634  1.00  0.00    -0.008 C 
HETATM    9  C10 UNL     1       9.452  23.347  21.997  1.00  0.00     0.038 C 
ENDROOT
BRANCH   1  10
HETATM   10  N1  UNL     1       8.446  21.553  20.688  1.00  0.00    -0.075 N 
HETATM   11  C1  UNL     1       8.589  20.119  20.457  1.00  0.00     0.267 C 
ATOM     12  H12 UNL     1       8.676  22.120  19.873  1.00  0.00     0.277 HD
ATOM     13  H11 UNL     1       7.475  21.854  20.781  1.00  0.00     0.277 HD
ENDBRANCH   1  10
TORSDOF 1
ENDMDL
