MODEL 1
REMARK VINA RESULT: -4.434146871      0.000      0.000
REMARK  4 active torsions:
REMARK  status: ('A' for Active; 'I' for Inactive)
REMARK    1  A    between atoms: C3_3  and  C5_5 
REMARK    2  A    between atoms: C5_5  and  C6_6 
REMARK    3  A    between atoms: C6_6  and  N1_7 
REMARK    4  A    between atoms: C6_6  and  C8_10 
ROOT
HETATM    1  C1  UNL     1      -5.502  19.547 -19.152  1.00  0.00     0.012 C 
HETATM    2  C2  UNL     1      -6.480  20.177 -19.472  1.00  0.00    -0.113 C 
HETATM    3  C3  UNL     1      -7.678  20.972 -19.858  1.00  0.00     0.062 C 
HETATM    4  C4  UNL     1      -8.816  20.475 -18.929  1.00  0.00     0.023 C 
ENDROOT
BRANCH   3   5
HETATM    5  C5  UNL     1      -8.073  20.523 -21.225  1.00  0.00     0.041 C 
BRANCH   5   6
HETATM    6  C6  UNL     1      -9.286  19.706 -21.341  1.00  0.00     0.081 C 
BRANCH   6   7
HETATM    7  N1  UNL     1      -9.101  18.392 -21.766  1.00  0.00    -0.421 N 
HETATM    8  C7  UNL     1      -7.902  17.702 -21.832  1.00  0.00     0.140 C 
ATOM      9  H1  UNL     1      -9.937  17.885 -22.059  1.00  0.00     0.153 HD
ENDBRANCH   6   7
BRANCH   6  10
HETATM   10  C8  UNL     1     -10.372  20.374 -22.188  1.00  0.00     0.008 C 
HETATM   11  C9  UNL     1      -9.736  21.245 -23.236  1.00  0.00     0.007 C 
HETATM   12  C10 UNL     1     -10.105  20.730 -24.624  1.00  0.00     0.000 C 
HETATM   13  C11 UNL     1     -11.613  20.876 -24.723  1.00  0.00     0.000 C 
HETATM   14  C12 UNL     1     -12.242  19.915 -23.776  1.00  0.00     0.000 C 
HETATM   15  C13 UNL     1     -11.325  19.360 -22.722  1.00  0.00     0.007 C 
ENDBRANCH   6  10
ENDBRANCH   5   6
ENDBRANCH   3   5
TORSDOF 4
ENDMDL
MODEL 2
REMARK VINA RESULT: -4.378262068      1.379      2.540
REMARK  4 active torsions:
REMARK  status: ('A' for Active; 'I' for Inactive)
REMARK    1  A    between atoms: C3_3  and  C5_5 
REMARK    2  A    between atoms: C5_5  and  C6_6 
REMARK    3  A    between atoms: C6_6  and  N1_7 
REMARK    4  A    between atoms: C6_6  and  C8_10 
ROOT
HETATM    1  C1  UNL     1      -9.969  23.640 -21.026  1.00  0.00     0.012 C 
HETATM    2  C2  UNL     1      -9.626  22.543 -20.659  1.00  0.00    -0.113 C 
HETATM    3  C3  UNL     1      -9.219  21.190 -20.191  1.00  0.00     0.062 C 
HETATM    4  C4  UNL     1      -7.884  21.403 -19.431  1.00  0.00     0.023 C 
ENDROOT
BRANCH   3   5
HETATM    5  C5  UNL     1      -8.850  20.405 -21.405  1.00  0.00     0.041 C 
BRANCH   5   6
HETATM    6  C6  UNL     1      -9.734  19.298 -21.786  1.00  0.00     0.081 C 
BRANCH   6   7
HETATM    7  N1  UNL     1      -9.148  18.035 -21.834  1.00  0.00    -0.421 N 
HETATM    8  C7  UNL     1      -7.793  17.748 -21.844  1.00  0.00     0.140 C 
ATOM      9  H1  UNL     1      -9.784  17.238 -21.867  1.00  0.00     0.153 HD
ENDBRANCH   6   7
BRANCH   6  10
HETATM   10  C8  UNL     1     -10.492  19.566 -23.088  1.00  0.00     0.008 C 
HETATM   11  C9  UNL     1     -11.959  19.724 -22.800  1.00  0.00     0.007 C 
HETATM   12  C10 UNL     1     -12.412  21.128 -23.193  1.00  0.00     0.000 C 
HETATM   13  C11 UNL     1     -12.201  21.216 -24.694  1.00  0.00     0.000 C 
HETATM   14  C12 UNL     1     -10.737  21.193 -24.966  1.00  0.00     0.000 C 
HETATM   15  C13 UNL     1      -9.882  20.707 -23.830  1.00  0.00     0.007 C 
ENDBRANCH   6  10
ENDBRANCH   5   6
ENDBRANCH   3   5
TORSDOF 4
ENDMDL
MODEL 3
REMARK VINA RESULT: -4.356365705      3.117      6.145
REMARK  4 active torsions:
REMARK  status: ('A' for Active; 'I' for Inactive)
REMARK    1  A    between atoms: C3_3  and  C5_5 
REMARK    2  A    between atoms: C5_5  and  C6_6 
REMARK    3  A    between atoms: C6_6  and  N1_7 
REMARK    4  A    between atoms: C6_6  and  C8_10 
ROOT
HETATM    1  C1  UNL     1     -13.038  22.596 -26.172  1.00  0.00     0.012 C 
HETATM    2  C2  UNL     1     -13.668  22.754 -25.156  1.00  0.00    -0.113 C 
HETATM    3  C3  UNL     1     -14.464  22.948 -23.913  1.00  0.00     0.062 C 
HETATM    4  C4  UNL     1     -14.296  24.447 -23.548  1.00  0.00     0.023 C 
ENDROOT
BRANCH   3   5
HETATM    5  C5  UNL     1     -13.759  22.207 -22.827  1.00  0.00     0.041 C 
BRANCH   5   6
HETATM    6  C6  UNL     1     -13.589  20.760 -23.000  1.00  0.00     0.081 C 
BRANCH   6   7
HETATM    7  N1  UNL     1     -14.418  19.949 -22.229  1.00  0.00    -0.421 N 
HETATM    8  C7  UNL     1     -15.718  20.225 -21.837  1.00  0.00     0.140 C 
ATOM      9  H1  UNL     1     -14.028  19.059 -21.920  1.00  0.00     0.153 HD
ENDBRANCH   6   7
BRANCH   6  10
HETATM   10  C8  UNL     1     -12.134  20.311 -22.840  1.00  0.00     0.008 C 
HETATM   11  C9  UNL     1     -11.664  19.647 -24.104  1.00  0.00     0.007 C 
HETATM   12  C10 UNL     1     -10.506  20.442 -24.702  1.00  0.00     0.000 C 
HETATM   13  C11 UNL     1      -9.392  20.369 -23.674  1.00  0.00     0.000 C 
HETATM   14  C12 UNL     1      -9.809  21.142 -22.472  1.00  0.00     0.000 C 
HETATM   15  C13 UNL     1     -11.278  21.443 -22.382  1.00  0.00     0.007 C 
ENDBRANCH   6  10
ENDBRANCH   5   6
ENDBRANCH   3   5
TORSDOF 4
ENDMDL
MODEL 4
REMARK VINA RESULT: -4.334113732      2.169      4.595
REMARK  4 active torsions:
REMARK  status: ('A' for Active; 'I' for Inactive)
REMARK    1  A    between atoms: C3_3  and  C5_5 
REMARK    2  A    between atoms: C5_5  and  C6_6 
REMARK    3  A    between atoms: C6_6  and  N1_7 
REMARK    4  A    between atoms: C6_6  and  C8_10 
ROOT
HETATM    1  C1  UNL     1     -12.283  21.715 -25.169  1.00  0.00     0.012 C 
HETATM    2  C2  UNL     1     -12.261  20.792 -24.393  1.00  0.00    -0.113 C 
HETATM    3  C3  UNL     1     -12.237  19.639 -23.452  1.00  0.00     0.062 C 
HETATM    4  C4  UNL     1     -13.568  19.729 -22.660  1.00  0.00     0.023 C 
ENDROOT
BRANCH   3   5
HETATM    5  C5  UNL     1     -11.172  19.922 -22.447  1.00  0.00     0.041 C 
BRANCH   5   6
HETATM    6  C6  UNL     1      -9.833  19.386 -22.715  1.00  0.00     0.081 C 
BRANCH   6   7
HETATM    7  N1  UNL     1      -9.374  18.413 -21.830  1.00  0.00    -0.421 N 
HETATM    8  C7  UNL     1      -8.127  17.809 -21.834  1.00  0.00     0.140 C 
ATOM      9  H1  UNL     1     -10.024  18.114 -21.104  1.00  0.00     0.153 HD
ENDBRANCH   6   7
BRANCH   6  10
HETATM   10  C8  UNL     1      -8.776  20.483 -22.871  1.00  0.00     0.008 C 
HETATM   11  C9  UNL     1      -8.327  20.556 -24.304  1.00  0.00     0.007 C 
HETATM   12  C10 UNL     1      -8.669  21.928 -24.880  1.00  0.00     0.000 C 
HETATM   13  C11 UNL     1      -7.859  22.922 -24.067  1.00  0.00     0.000 C 
HETATM   14  C12 UNL     1      -8.396  22.942 -22.679  1.00  0.00     0.000 C 
HETATM   15  C13 UNL     1      -9.267  21.774 -22.311  1.00  0.00     0.007 C 
ENDBRANCH   6  10
ENDBRANCH   5   6
ENDBRANCH   3   5
TORSDOF 4
ENDMDL
MODEL 5
REMARK VINA RESULT: -4.307484818      1.674      4.807
REMARK  4 active torsions:
REMARK  status: ('A' for Active; 'I' for Inactive)
REMARK    1  A    between atoms: C3_3  and  C5_5 
REMARK    2  A    between atoms: C5_5  and  C6_6 
REMARK    3  A    between atoms: C6_6  and  N1_7 
REMARK    4  A    between atoms: C6_6  and  C8_10 
ROOT
HETATM    1  C1  UNL     1      -7.452  20.763 -24.923  1.00  0.00     0.012 C 
HETATM    2  C2  UNL     1      -8.644  20.918 -25.014  1.00  0.00    -0.113 C 
HETATM    3  C3  UNL     1     -10.116  21.097 -25.144  1.00  0.00     0.062 C 
HETATM    4  C4  UNL     1     -10.315  22.585 -25.536  1.00  0.00     0.023 C 
ENDROOT
BRANCH   3   5
HETATM    5  C5  UNL     1     -10.690  20.981 -23.772  1.00  0.00     0.041 C 
BRANCH   5   6
HETATM    6  C6  UNL     1     -10.916  19.629 -23.249  1.00  0.00     0.081 C 
BRANCH   6   7
HETATM    7  N1  UNL     1     -12.247  19.239 -23.114  1.00  0.00    -0.421 N 
HETATM    8  C7  UNL     1     -13.336  20.066 -22.894  1.00  0.00     0.140 C 
ATOM      9  H1  UNL     1     -12.439  18.240 -23.185  1.00  0.00     0.153 HD
ENDBRANCH   6   7
BRANCH   6  10
HETATM   10  C8  UNL     1     -10.166  19.367 -21.941  1.00  0.00     0.008 C 
HETATM   11  C9  UNL     1      -9.157  18.272 -22.143  1.00  0.00     0.007 C 
HETATM   12  C10 UNL     1      -7.751  18.816 -21.899  1.00  0.00     0.000 C 
HETATM   13  C11 UNL     1      -7.727  19.233 -20.439  1.00  0.00     0.000 C 
HETATM   14  C12 UNL     1      -8.629  20.405 -20.269  1.00  0.00     0.000 C 
HETATM   15  C13 UNL     1      -9.601  20.634 -21.392  1.00  0.00     0.007 C 
ENDBRANCH   6  10
ENDBRANCH   5   6
ENDBRANCH   3   5
TORSDOF 4
ENDMDL
