MODEL 1
REMARK VINA RESULT: -4.442894100      0.000      0.000
REMARK  3 active torsions:
REMARK  status: ('A' for Active; 'I' for Inactive)
REMARK    1  A    between atoms: C2_2  and  N1_4 
REMARK    2  A    between atoms: N1_4  and  C4_7 
REMARK    3  A    between atoms: C4_7  and  C5_8 
ROOT
HETATM    1  C5  UNL     1     -10.263  20.653 -22.457  1.00  0.00    -0.015 C 
HETATM    2  C6  UNL     1      -9.606  20.725 -23.802  1.00  0.00     0.016 C 
HETATM    3  C7  UNL     1     -10.727  20.312 -24.718  1.00  0.00    -0.009 C 
HETATM    4  C8  UNL     1     -11.693  21.482 -24.924  1.00  0.00     0.010 C 
HETATM    5  C9  UNL     1     -12.281  21.077 -23.564  1.00  0.00    -0.009 C 
HETATM    6  C10 UNL     1     -11.413  21.591 -22.407  1.00  0.00     0.016 C 
HETATM    7  C11 UNL     1     -11.800  19.694 -23.848  1.00  0.00    -0.005 C 
HETATM    8  C12 UNL     1     -11.012  19.319 -22.608  1.00  0.00     0.016 C 
ENDROOT
BRANCH   1   9
HETATM    9  C4  UNL     1      -9.301  20.693 -21.349  1.00  0.00     0.242 C 
BRANCH   9  10
HETATM   10  N1  UNL     1      -9.116  19.485 -20.625  1.00  0.00    -0.071 N 
ATOM     11  H12 UNL     1      -9.825  18.786 -20.850  1.00  0.00     0.277 HD
ATOM     12  H11 UNL     1      -9.328  19.590 -19.633  1.00  0.00     0.277 HD
BRANCH  10  13
HETATM   13  C2  UNL     1      -7.771  18.999 -20.852  1.00  0.00     0.177 C 
HETATM   14  C1  UNL     1      -6.798  20.018 -21.323  1.00  0.00     0.039 C 
HETATM   15  C3  UNL     1      -7.716  17.791 -21.764  1.00  0.00     0.039 C 
ENDBRANCH  10  13
ENDBRANCH   9  10
ENDBRANCH   1   9
TORSDOF 3
ENDMDL
MODEL 2
REMARK VINA RESULT: -4.424909595      0.624      1.584
REMARK  3 active torsions:
REMARK  status: ('A' for Active; 'I' for Inactive)
REMARK    1  A    between atoms: C2_2  and  N1_4 
REMARK    2  A    between atoms: N1_4  and  C4_7 
REMARK    3  A    between atoms: C4_7  and  C5_8 
ROOT
HETATM    1  C5  UNL     1     -10.198  20.412 -22.650  1.00  0.00    -0.015 C 
HETATM    2  C6  UNL     1     -10.982  21.641 -22.306  1.00  0.00     0.016 C 
HETATM    3  C7  UNL     1     -12.011  21.671 -23.404  1.00  0.00    -0.009 C 
HETATM    4  C8  UNL     1     -13.121  20.658 -23.110  1.00  0.00     0.010 C 
HETATM    5  C9  UNL     1     -12.146  19.612 -23.670  1.00  0.00    -0.009 C 
HETATM    6  C10 UNL     1     -11.088  19.223 -22.628  1.00  0.00     0.016 C 
HETATM    7  C11 UNL     1     -11.539  20.711 -24.475  1.00  0.00    -0.005 C 
HETATM    8  C12 UNL     1     -10.058  20.613 -24.168  1.00  0.00     0.016 C 
ENDROOT
BRANCH   1   9
HETATM    9  C4  UNL     1      -8.925  20.325 -21.923  1.00  0.00     0.242 C 
BRANCH   9  10
HETATM   10  N1  UNL     1      -8.936  19.588 -20.709  1.00  0.00    -0.071 N 
ATOM     11  H12 UNL     1      -9.810  19.078 -20.572  1.00  0.00     0.277 HD
ATOM     12  H11 UNL     1      -8.993  20.192 -19.888  1.00  0.00     0.277 HD
BRANCH  10  13
HETATM   13  C2  UNL     1      -7.780  18.718 -20.674  1.00  0.00     0.177 C 
HETATM   14  C1  UNL     1      -6.471  19.406 -20.539  1.00  0.00     0.039 C 
HETATM   15  C3  UNL     1      -7.723  17.749 -21.837  1.00  0.00     0.039 C 
ENDBRANCH  10  13
ENDBRANCH   9  10
ENDBRANCH   1   9
TORSDOF 3
ENDMDL
MODEL 3
REMARK VINA RESULT: -4.340405785      1.101      1.476
REMARK  3 active torsions:
REMARK  status: ('A' for Active; 'I' for Inactive)
REMARK    1  A    between atoms: C2_2  and  N1_4 
REMARK    2  A    between atoms: N1_4  and  C4_7 
REMARK    3  A    between atoms: C4_7  and  C5_8 
ROOT
HETATM    1  C5  UNL     1     -11.239  20.189 -22.938  1.00  0.00    -0.015 C 
HETATM    2  C6  UNL     1     -11.133  20.315 -24.427  1.00  0.00     0.016 C 
HETATM    3  C7  UNL     1     -12.329  21.171 -24.751  1.00  0.00    -0.009 C 
HETATM    4  C8  UNL     1     -12.029  22.637 -24.421  1.00  0.00     0.010 C 
HETATM    5  C9  UNL     1     -12.350  22.248 -22.971  1.00  0.00    -0.009 C 
HETATM    6  C10 UNL     1     -11.163  21.533 -22.311  1.00  0.00     0.016 C 
HETATM    7  C11 UNL     1     -13.217  21.169 -23.526  1.00  0.00    -0.005 C 
HETATM    8  C12 UNL     1     -12.747  19.918 -22.809  1.00  0.00     0.016 C 
ENDROOT
BRANCH   1   9
HETATM    9  C4  UNL     1     -10.378  19.132 -22.393  1.00  0.00     0.242 C 
BRANCH   9  10
HETATM   10  N1  UNL     1      -9.501  19.506 -21.340  1.00  0.00    -0.071 N 
ATOM     11  H12 UNL     1      -9.766  19.089 -20.448  1.00  0.00     0.277 HD
ATOM     12  H11 UNL     1      -9.606  20.486 -21.078  1.00  0.00     0.277 HD
BRANCH  10  13
HETATM   13  C2  UNL     1      -8.143  19.181 -21.719  1.00  0.00     0.177 C 
HETATM   14  C1  UNL     1      -7.624  19.901 -22.909  1.00  0.00     0.039 C 
HETATM   15  C3  UNL     1      -7.907  17.694 -21.887  1.00  0.00     0.039 C 
ENDBRANCH  10  13
ENDBRANCH   9  10
ENDBRANCH   1   9
TORSDOF 3
ENDMDL
MODEL 4
REMARK VINA RESULT: -4.334413982      1.227      2.116
REMARK  3 active torsions:
REMARK  status: ('A' for Active; 'I' for Inactive)
REMARK    1  A    between atoms: C2_2  and  N1_4 
REMARK    2  A    between atoms: N1_4  and  C4_7 
REMARK    3  A    between atoms: C4_7  and  C5_8 
ROOT
HETATM    1  C5  UNL     1      -9.645  20.297 -22.925  1.00  0.00    -0.015 C 
HETATM    2  C6  UNL     1     -10.451  19.130 -22.440  1.00  0.00     0.016 C 
HETATM    3  C7  UNL     1     -11.858  19.594 -22.703  1.00  0.00    -0.009 C 
HETATM    4  C8  UNL     1     -12.192  19.442 -24.190  1.00  0.00     0.010 C 
HETATM    5  C9  UNL     1     -11.426  20.761 -24.371  1.00  0.00    -0.009 C 
HETATM    6  C10 UNL     1      -9.908  20.528 -24.368  1.00  0.00     0.016 C 
HETATM    7  C11 UNL     1     -11.790  21.084 -22.961  1.00  0.00    -0.005 C 
HETATM    8  C12 UNL     1     -10.466  21.446 -22.316  1.00  0.00     0.016 C 
ENDROOT
BRANCH   1   9
HETATM    9  C4  UNL     1      -8.245  20.245 -22.486  1.00  0.00     0.242 C 
BRANCH   9  10
HETATM   10  N1  UNL     1      -7.887  21.095 -21.405  1.00  0.00    -0.071 N 
ATOM     11  H12 UNL     1      -8.608  21.787 -21.200  1.00  0.00     0.277 HD
ATOM     12  H11 UNL     1      -7.135  21.739 -21.650  1.00  0.00     0.277 HD
BRANCH  10  13
HETATM   13  C2  UNL     1      -7.561  20.282 -20.253  1.00  0.00     0.177 C 
HETATM   14  C1  UNL     1      -7.184  18.877 -20.552  1.00  0.00     0.039 C 
HETATM   15  C3  UNL     1      -8.634  20.299 -19.184  1.00  0.00     0.039 C 
ENDBRANCH  10  13
ENDBRANCH   9  10
ENDBRANCH   1   9
TORSDOF 3
ENDMDL
MODEL 5
REMARK VINA RESULT: -4.328256031      1.184      2.076
REMARK  3 active torsions:
REMARK  status: ('A' for Active; 'I' for Inactive)
REMARK    1  A    between atoms: C2_2  and  N1_4 
REMARK    2  A    between atoms: N1_4  and  C4_7 
REMARK    3  A    between atoms: C4_7  and  C5_8 
ROOT
HETATM    1  C5  UNL     1     -10.273  20.261 -22.761  1.00  0.00    -0.015 C 
HETATM    2  C6  UNL     1     -10.864  21.557 -22.294  1.00  0.00     0.016 C 
HETATM    3  C7  UNL     1     -11.968  21.773 -23.294  1.00  0.00    -0.009 C 
HETATM    4  C8  UNL     1     -13.170  20.888 -22.949  1.00  0.00     0.010 C 
HETATM    5  C9  UNL     1     -12.384  19.763 -23.638  1.00  0.00    -0.009 C 
HETATM    6  C10 UNL     1     -11.302  19.191 -22.713  1.00  0.00     0.016 C 
HETATM    7  C11 UNL     1     -11.712  20.823 -24.444  1.00  0.00    -0.005 C 
HETATM    8  C12 UNL     1     -10.234  20.527 -24.275  1.00  0.00     0.016 C 
ENDROOT
BRANCH   1   9
HETATM    9  C4  UNL     1      -8.966  19.980 -22.155  1.00  0.00     0.242 C 
BRANCH   9  10
HETATM   10  N1  UNL     1      -8.979  19.374 -20.869  1.00  0.00    -0.071 N 
ATOM     11  H12 UNL     1      -8.638  18.413 -20.890  1.00  0.00     0.277 HD
ATOM     12  H11 UNL     1      -9.926  19.184 -20.540  1.00  0.00     0.277 HD
BRANCH  10  13
HETATM   13  C2  UNL     1      -8.233  20.205 -19.949  1.00  0.00     0.177 C 
HETATM   14  C1  UNL     1      -6.845  19.756 -19.668  1.00  0.00     0.039 C 
HETATM   15  C3  UNL     1      -8.957  20.452 -18.642  1.00  0.00     0.039 C 
ENDBRANCH  10  13
ENDBRANCH   9  10
ENDBRANCH   1   9
TORSDOF 3
ENDMDL
