MODEL 1
REMARK VINA RESULT: -4.369812838      0.000      0.000
REMARK  4 active torsions:
REMARK  status: ('A' for Active; 'I' for Inactive)
REMARK    1  A    between atoms: C3_3  and  C4_4 
REMARK    2  A    between atoms: C4_4  and  C5_5 
REMARK    3  A    between atoms: C7_7  and  C8_8 
REMARK    4  A    between atoms: C12_12  and  N1_13 
ROOT
HETATM    1  C5  UNL     1      -9.304  19.805 -22.445  1.00  0.00     0.020 C 
HETATM    2  C6  UNL     1      -9.503  20.683 -21.263  1.00  0.00     0.012 C 
HETATM    3  C7  UNL     1      -8.743  20.093 -20.104  1.00  0.00    -0.008 C 
HETATM    4  C11 UNL     1      -7.623  19.343 -20.785  1.00  0.00     0.038 C 
HETATM    5  C12 UNL     1      -8.324  18.737 -22.008  1.00  0.00     0.188 C 
ENDROOT
BRANCH   1   6
HETATM    6  C4  UNL     1     -10.635  19.252 -22.884  1.00  0.00     0.033 C 
BRANCH   6   7
HETATM    7  C3  UNL     1     -11.759  20.190 -22.631  1.00  0.00    -0.031 C 
HETATM    8  C2  UNL     1     -12.993  19.765 -22.860  1.00  0.00    -0.035 C 
HETATM    9  C1  UNL     1     -14.127  20.695 -22.611  1.00  0.00     0.036 C 
ENDBRANCH   6   7
ENDBRANCH   1   6
BRANCH   5  10
HETATM   10  N1  UNL     1      -8.977  17.504 -21.660  1.00  0.00    -0.075 N 
ATOM     11  H13 UNL     1      -9.558  17.616 -20.829  1.00  0.00     0.274 HD
ATOM     12  H12 UNL     1      -9.702  17.268 -22.336  1.00  0.00     0.274 HD
ATOM     13  H11 UNL     1      -8.317  16.734 -21.546  1.00  0.00     0.274 HD
ENDBRANCH   5  10
BRANCH   3  14
HETATM   14  C8  UNL     1      -8.264  21.219 -19.252  1.00  0.00    -0.010 A 
HETATM   15  C9  UNL     1      -7.199  21.055 -18.241  1.00  0.00     0.005 A 
HETATM   16  C10 UNL     1      -8.635  21.074 -17.772  1.00  0.00     0.005 A 
ENDBRANCH   3  14
TORSDOF 4
ENDMDL
MODEL 2
REMARK VINA RESULT: -4.344904617      0.959      1.106
REMARK  4 active torsions:
REMARK  status: ('A' for Active; 'I' for Inactive)
REMARK    1  A    between atoms: C3_3  and  C4_4 
REMARK    2  A    between atoms: C4_4  and  C5_5 
REMARK    3  A    between atoms: C7_7  and  C8_8 
REMARK    4  A    between atoms: C12_12  and  N1_13 
ROOT
HETATM    1  C5  UNL     1      -9.444  19.782 -22.272  1.00  0.00     0.020 C 
HETATM    2  C6  UNL     1      -9.545  20.614 -21.046  1.00  0.00     0.012 C 
HETATM    3  C7  UNL     1      -8.590  20.062 -20.021  1.00  0.00    -0.008 C 
HETATM    4  C11 UNL     1      -7.520  19.420 -20.871  1.00  0.00     0.038 C 
HETATM    5  C12 UNL     1      -8.334  18.787 -22.007  1.00  0.00     0.188 C 
ENDROOT
BRANCH   1   6
HETATM    6  C4  UNL     1     -10.776  19.133 -22.545  1.00  0.00     0.033 C 
BRANCH   6   7
HETATM    7  C3  UNL     1     -11.740  20.053 -23.202  1.00  0.00    -0.031 C 
HETATM    8  C2  UNL     1     -11.403  20.589 -24.366  1.00  0.00    -0.035 C 
HETATM    9  C1  UNL     1     -12.360  21.512 -25.032  1.00  0.00     0.036 C 
ENDBRANCH   6   7
ENDBRANCH   1   6
BRANCH   5  10
HETATM   10  N1  UNL     1      -8.835  17.497 -21.615  1.00  0.00    -0.075 N 
ATOM     11  H13 UNL     1      -9.851  17.512 -21.516  1.00  0.00     0.274 HD
ATOM     12  H12 UNL     1      -8.756  16.825 -22.378  1.00  0.00     0.274 HD
ATOM     13  H11 UNL     1      -8.388  17.147 -20.768  1.00  0.00     0.274 HD
ENDBRANCH   5  10
BRANCH   3  14
HETATM   14  C8  UNL     1      -8.087  21.204 -19.205  1.00  0.00    -0.010 A 
HETATM   15  C9  UNL     1      -7.031  21.047 -18.182  1.00  0.00     0.005 A 
HETATM   16  C10 UNL     1      -8.469  21.118 -17.723  1.00  0.00     0.005 A 
ENDBRANCH   3  14
TORSDOF 4
ENDMDL
MODEL 3
REMARK VINA RESULT: -4.178041422      2.787      6.315
REMARK  4 active torsions:
REMARK  status: ('A' for Active; 'I' for Inactive)
REMARK    1  A    between atoms: C3_3  and  C4_4 
REMARK    2  A    between atoms: C4_4  and  C5_5 
REMARK    3  A    between atoms: C7_7  and  C8_8 
REMARK    4  A    between atoms: C12_12  and  N1_13 
ROOT
HETATM    1  C5  UNL     1     -11.418  20.643 -22.915  1.00  0.00     0.020 C 
HETATM    2  C6  UNL     1     -11.294  21.102 -24.322  1.00  0.00     0.012 C 
HETATM    3  C7  UNL     1     -12.677  21.354 -24.861  1.00  0.00    -0.008 C 
HETATM    4  C11 UNL     1     -13.461  21.704 -23.618  1.00  0.00     0.038 C 
HETATM    5  C12 UNL     1     -12.892  20.728 -22.581  1.00  0.00     0.188 C 
ENDROOT
BRANCH   1   6
HETATM    6  C4  UNL     1     -10.856  19.251 -22.793  1.00  0.00     0.033 C 
BRANCH   6   7
HETATM    7  C3  UNL     1      -9.490  19.231 -22.210  1.00  0.00    -0.031 C 
HETATM    8  C2  UNL     1      -8.921  18.054 -21.988  1.00  0.00    -0.035 C 
HETATM    9  C1  UNL     1      -7.553  18.021 -21.404  1.00  0.00     0.036 C 
ENDBRANCH   6   7
ENDBRANCH   1   6
BRANCH   5  10
HETATM   10  N1  UNL     1     -13.549  19.452 -22.669  1.00  0.00    -0.075 N 
ATOM     11  H13 UNL     1     -14.562  19.562 -22.716  1.00  0.00     0.274 HD
ATOM     12  H12 UNL     1     -13.390  19.019 -23.579  1.00  0.00     0.274 HD
ATOM     13  H11 UNL     1     -13.282  18.824 -21.911  1.00  0.00     0.274 HD
ENDBRANCH   5  10
BRANCH   3  14
HETATM   14  C8  UNL     1     -12.589  22.477 -25.837  1.00  0.00    -0.010 A 
HETATM   15  C9  UNL     1     -13.689  23.444 -26.040  1.00  0.00     0.005 A 
HETATM   16  C10 UNL     1     -13.526  22.324 -27.040  1.00  0.00     0.005 A 
ENDBRANCH   3  14
TORSDOF 4
ENDMDL
MODEL 4
REMARK VINA RESULT: -4.140907072      2.115      5.655
REMARK  4 active torsions:
REMARK  status: ('A' for Active; 'I' for Inactive)
REMARK    1  A    between atoms: C3_3  and  C4_4 
REMARK    2  A    between atoms: C4_4  and  C5_5 
REMARK    3  A    between atoms: C7_7  and  C8_8 
REMARK    4  A    between atoms: C12_12  and  N1_13 
ROOT
HETATM    1  C5  UNL     1      -8.380  18.998 -22.200  1.00  0.00     0.020 C 
HETATM    2  C6  UNL     1      -9.864  18.936 -22.175  1.00  0.00     0.012 C 
HETATM    3  C7  UNL     1     -10.399  20.116 -22.943  1.00  0.00    -0.008 C 
HETATM    4  C11 UNL     1      -9.291  20.404 -23.928  1.00  0.00     0.038 C 
HETATM    5  C12 UNL     1      -8.029  20.174 -23.086  1.00  0.00     0.188 C 
ENDROOT
BRANCH   1   6
HETATM    6  C4  UNL     1      -7.863  19.135 -20.792  1.00  0.00     0.033 C 
BRANCH   6   7
HETATM    7  C3  UNL     1      -6.636  18.334 -20.548  1.00  0.00    -0.031 C 
HETATM    8  C2  UNL     1      -5.749  18.796 -19.678  1.00  0.00    -0.035 C 
HETATM    9  C1  UNL     1      -4.516  18.003 -19.426  1.00  0.00     0.036 C 
ENDBRANCH   6   7
ENDBRANCH   1   6
BRANCH   5  10
HETATM   10  N1  UNL     1      -7.700  21.352 -22.330  1.00  0.00    -0.075 N 
ATOM     11  H13 UNL     1      -8.184  22.171 -22.697  1.00  0.00     0.274 HD
ATOM     12  H12 UNL     1      -8.116  21.320 -21.400  1.00  0.00     0.274 HD
ATOM     13  H11 UNL     1      -6.694  21.512 -22.277  1.00  0.00     0.274 HD
ENDBRANCH   5  10
BRANCH   3  14
HETATM   14  C8  UNL     1     -11.672  19.698 -23.594  1.00  0.00    -0.010 A 
HETATM   15  C9  UNL     1     -12.451  20.598 -24.470  1.00  0.00     0.005 A 
HETATM   16  C10 UNL     1     -12.911  20.412 -23.043  1.00  0.00     0.005 A 
ENDBRANCH   3  14
TORSDOF 4
ENDMDL
MODEL 5
REMARK VINA RESULT: -4.097305127      1.414      1.590
REMARK  4 active torsions:
REMARK  status: ('A' for Active; 'I' for Inactive)
REMARK    1  A    between atoms: C3_3  and  C4_4 
REMARK    2  A    between atoms: C4_4  and  C5_5 
REMARK    3  A    between atoms: C7_7  and  C8_8 
REMARK    4  A    between atoms: C12_12  and  N1_13 
ROOT
HETATM    1  C5  UNL     1     -10.367  20.351 -23.137  1.00  0.00     0.020 C 
HETATM    2  C6  UNL     1     -10.602  21.433 -22.146  1.00  0.00     0.012 C 
HETATM    3  C7  UNL     1      -9.648  21.237 -20.997  1.00  0.00    -0.008 C 
HETATM    4  C11 UNL     1      -8.485  20.524 -21.646  1.00  0.00     0.038 C 
HETATM    5  C12 UNL     1      -9.183  19.564 -22.617  1.00  0.00     0.188 C 
ENDROOT
BRANCH   1   6
HETATM    6  C4  UNL     1     -11.619  19.526 -23.278  1.00  0.00     0.033 C 
BRANCH   6   7
HETATM    7  C3  UNL     1     -12.852  20.290 -22.956  1.00  0.00    -0.031 C 
HETATM    8  C2  UNL     1     -13.868  19.639 -22.409  1.00  0.00    -0.035 C 
HETATM    9  C1  UNL     1     -15.108  20.393 -22.083  1.00  0.00     0.036 C 
ENDBRANCH   6   7
ENDBRANCH   1   6
BRANCH   5  10
HETATM   10  N1  UNL     1      -9.580  18.358 -21.942  1.00  0.00    -0.075 N 
ATOM     11  H13 UNL     1     -10.509  18.455 -21.531  1.00  0.00     0.274 HD
ATOM     12  H12 UNL     1      -9.774  17.610 -22.607  1.00  0.00     0.274 HD
ATOM     13  H11 UNL     1      -8.899  18.061 -21.243  1.00  0.00     0.274 HD
ENDBRANCH   5  10
BRANCH   3  14
HETATM   14  C8  UNL     1      -9.291  22.582 -20.465  1.00  0.00    -0.010 A 
HETATM   15  C9  UNL     1      -8.025  22.845 -19.750  1.00  0.00     0.005 A 
HETATM   16  C10 UNL     1      -9.283  22.658 -18.934  1.00  0.00     0.005 A 
ENDBRANCH   3  14
TORSDOF 4
ENDMDL
