MODEL 1
REMARK VINA RESULT: -4.096694056      0.000      0.000
REMARK  3 active torsions:
REMARK  status: ('A' for Active; 'I' for Inactive)
REMARK    1  A    between atoms: C2_2  and  N1_3 
REMARK    2  A    between atoms: C2_2  and  C4_8 
REMARK    3  A    between atoms: N1_3  and  C3_5 
ROOT
HETATM    1  C1  UNL     1     -12.093  19.249 -24.385  1.00  0.00     0.032 C 
HETATM    2  C2  UNL     1     -11.622  19.998 -23.179  1.00  0.00     0.083 C 
ENDROOT
BRANCH   2   3
HETATM    3  N1  UNL     1     -10.833  19.224 -22.263  1.00  0.00    -0.365 N 
ATOM      4  H1  UNL     1     -11.320  18.753 -21.501  1.00  0.00     0.162 HD
BRANCH   3   5
HETATM    5  C3  UNL     1      -9.430  19.066 -22.340  1.00  0.00     0.181 C 
HETATM    6  N2  UNL     1      -8.833  17.866 -21.858  1.00  0.00    -0.070 NA
HETATM    7  S1  UNL     1      -8.544  20.274 -22.975  1.00  0.00    -0.044 SA
ENDBRANCH   3   5
ENDBRANCH   2   3
BRANCH   2   8
HETATM    8  C4  UNL     1     -12.752  20.714 -22.470  1.00  0.00     0.008 C 
HETATM    9  C5  UNL     1     -13.112  21.906 -23.337  1.00  0.00     0.007 C 
HETATM   10  C6  UNL     1     -14.296  22.567 -22.713  1.00  0.00     0.000 C 
HETATM   11  C7  UNL     1     -15.489  21.656 -22.629  1.00  0.00     0.000 C 
HETATM   12  C8  UNL     1     -15.195  20.321 -22.034  1.00  0.00     0.000 C 
HETATM   13  C9  UNL     1     -13.891  19.733 -22.387  1.00  0.00     0.007 C 
ENDBRANCH   2   8
TORSDOF 3
ENDMDL
MODEL 2
REMARK VINA RESULT: -4.043394971      2.140      2.819
REMARK  3 active torsions:
REMARK  status: ('A' for Active; 'I' for Inactive)
REMARK    1  A    between atoms: C2_2  and  N1_3 
REMARK    2  A    between atoms: C2_2  and  C4_8 
REMARK    3  A    between atoms: N1_3  and  C3_5 
ROOT
HETATM    1  C1  UNL     1      -8.397  20.601 -23.034  1.00  0.00     0.032 C 
HETATM    2  C2  UNL     1      -9.222  20.310 -21.821  1.00  0.00     0.083 C 
ENDROOT
BRANCH   2   3
HETATM    3  N1  UNL     1      -8.893  19.082 -21.153  1.00  0.00    -0.365 N 
ATOM      4  H1  UNL     1      -9.605  18.665 -20.553  1.00  0.00     0.162 HD
BRANCH   3   5
HETATM    5  C3  UNL     1      -7.655  18.409 -21.265  1.00  0.00     0.181 C 
HETATM    6  N2  UNL     1      -7.520  17.344 -22.202  1.00  0.00    -0.070 NA
HETATM    7  S1  UNL     1      -6.426  18.874 -20.306  1.00  0.00    -0.044 SA
ENDBRANCH   3   5
ENDBRANCH   2   3
BRANCH   2   8
HETATM    8  C4  UNL     1     -10.706  20.411 -22.098  1.00  0.00     0.008 C 
HETATM    9  C5  UNL     1     -10.972  21.856 -22.479  1.00  0.00     0.007 C 
HETATM   10  C6  UNL     1     -12.410  21.956 -22.862  1.00  0.00     0.000 C 
HETATM   11  C7  UNL     1     -12.761  21.078 -24.031  1.00  0.00     0.000 C 
HETATM   12  C8  UNL     1     -12.299  19.668 -23.893  1.00  0.00     0.000 C 
HETATM   13  C9  UNL     1     -10.988  19.480 -23.248  1.00  0.00     0.007 C 
ENDBRANCH   2   8
TORSDOF 3
ENDMDL
MODEL 3
REMARK VINA RESULT: -4.041916623      2.111      3.326
REMARK  3 active torsions:
REMARK  status: ('A' for Active; 'I' for Inactive)
REMARK    1  A    between atoms: C2_2  and  N1_3 
REMARK    2  A    between atoms: C2_2  and  C4_8 
REMARK    3  A    between atoms: N1_3  and  C3_5 
ROOT
HETATM    1  C1  UNL     1      -9.228  21.275 -20.406  1.00  0.00     0.032 C 
HETATM    2  C2  UNL     1      -9.264  20.191 -21.437  1.00  0.00     0.083 C 
ENDROOT
BRANCH   2   3
HETATM    3  N1  UNL     1      -7.976  19.786 -21.925  1.00  0.00    -0.365 N 
ATOM      4  H1  UNL     1      -7.535  20.370 -22.636  1.00  0.00     0.162 HD
BRANCH   3   5
HETATM    5  C3  UNL     1      -7.274  18.637 -21.494  1.00  0.00     0.181 C 
HETATM    6  N2  UNL     1      -7.498  17.393 -22.151  1.00  0.00    -0.070 NA
HETATM    7  S1  UNL     1      -6.237  18.781 -20.249  1.00  0.00    -0.044 SA
ENDBRANCH   3   5
ENDBRANCH   2   3
BRANCH   2   8
HETATM    8  C4  UNL     1     -10.213  20.511 -22.572  1.00  0.00     0.008 C 
HETATM    9  C5  UNL     1     -11.123  19.305 -22.719  1.00  0.00     0.007 C 
HETATM   10  C6  UNL     1     -12.138  19.639 -23.761  1.00  0.00     0.000 C 
HETATM   11  C7  UNL     1     -12.975  20.832 -23.392  1.00  0.00     0.000 C 
HETATM   12  C8  UNL     1     -12.186  22.019 -22.955  1.00  0.00     0.000 C 
HETATM   13  C9  UNL     1     -10.986  21.732 -22.150  1.00  0.00     0.007 C 
ENDBRANCH   2   8
TORSDOF 3
ENDMDL
MODEL 4
REMARK VINA RESULT: -4.035691466      2.920      4.823
REMARK  3 active torsions:
REMARK  status: ('A' for Active; 'I' for Inactive)
REMARK    1  A    between atoms: C2_2  and  N1_3 
REMARK    2  A    between atoms: C2_2  and  C4_8 
REMARK    3  A    between atoms: N1_3  and  C3_5 
ROOT
HETATM    1  C1  UNL     1     -12.394  21.843 -25.233  1.00  0.00     0.032 C 
HETATM    2  C2  UNL     1     -12.452  20.749 -24.214  1.00  0.00     0.083 C 
ENDROOT
BRANCH   2   3
HETATM    3  N1  UNL     1     -12.959  21.149 -22.932  1.00  0.00    -0.365 N 
ATOM      4  H1  UNL     1     -12.293  21.523 -22.256  1.00  0.00     0.162 HD
BRANCH   3   5
HETATM    5  C3  UNL     1     -14.314  21.065 -22.538  1.00  0.00     0.181 C 
HETATM    6  N2  UNL     1     -14.837  19.818 -22.090  1.00  0.00    -0.070 NA
HETATM    7  S1  UNL     1     -15.234  22.405 -22.621  1.00  0.00    -0.044 SA
ENDBRANCH   3   5
ENDBRANCH   2   3
BRANCH   2   8
HETATM    8  C4  UNL     1     -11.135  20.015 -24.086  1.00  0.00     0.008 C 
HETATM    9  C5  UNL     1     -10.046  21.062 -24.231  1.00  0.00     0.007 C 
HETATM   10  C6  UNL     1      -8.740  20.380 -24.000  1.00  0.00     0.000 C 
HETATM   11  C7  UNL     1      -8.640  19.769 -22.630  1.00  0.00     0.000 C 
HETATM   12  C8  UNL     1      -9.806  18.921 -22.255  1.00  0.00     0.000 C 
HETATM   13  C9  UNL     1     -11.123  19.399 -22.712  1.00  0.00     0.007 C 
ENDBRANCH   2   8
TORSDOF 3
ENDMDL
MODEL 5
REMARK VINA RESULT: -4.020910608      2.505      3.578
REMARK  3 active torsions:
REMARK  status: ('A' for Active; 'I' for Inactive)
REMARK    1  A    between atoms: C2_2  and  N1_3 
REMARK    2  A    between atoms: C2_2  and  C4_8 
REMARK    3  A    between atoms: N1_3  and  C3_5 
ROOT
HETATM    1  C1  UNL     1      -9.174  21.323 -21.150  1.00  0.00     0.032 C 
HETATM    2  C2  UNL     1      -9.654  19.950 -21.501  1.00  0.00     0.083 C 
ENDROOT
BRANCH   2   3
HETATM    3  N1  UNL     1      -8.697  18.904 -21.271  1.00  0.00    -0.365 N 
ATOM      4  H1  UNL     1      -9.044  18.021 -20.897  1.00  0.00     0.162 HD
BRANCH   3   5
HETATM    5  C3  UNL     1      -7.310  19.009 -21.526  1.00  0.00     0.181 C 
HETATM    6  N2  UNL     1      -6.853  19.144 -22.868  1.00  0.00    -0.070 NA
HETATM    7  S1  UNL     1      -6.282  18.962 -20.266  1.00  0.00    -0.044 SA
ENDBRANCH   3   5
ENDBRANCH   2   3
BRANCH   2   8
HETATM    8  C4  UNL     1     -10.225  19.882 -22.900  1.00  0.00     0.008 C 
HETATM    9  C5  UNL     1     -11.693  19.530 -22.746  1.00  0.00     0.007 C 
HETATM   10  C6  UNL     1     -12.303  19.563 -24.107  1.00  0.00     0.000 C 
HETATM   11  C7  UNL     1     -12.199  20.915 -24.755  1.00  0.00     0.000 C 
HETATM   12  C8  UNL     1     -10.829  21.501 -24.724  1.00  0.00     0.000 C 
HETATM   13  C9  UNL     1     -10.051  21.253 -23.498  1.00  0.00     0.007 C 
ENDBRANCH   2   8
TORSDOF 3
ENDMDL
