MODEL 1
REMARK VINA RESULT: -4.755504160      0.000      0.000
REMARK  3 active torsions:
REMARK  status: ('A' for Active; 'I' for Inactive)
REMARK    1  A    between atoms: N1_1  and  C1_5 
REMARK    2  A    between atoms: C1_5  and  C2_6 
REMARK    3  A    between atoms: C2_6  and  C3_7 
ROOT
HETATM    1  C3  UNL     1      -9.375  20.049 -22.773  1.00  0.00    -0.035 A 
HETATM    2  C4  UNL     1      -9.251  21.225 -21.788  1.00  0.00     0.010 A 
HETATM    3  C5  UNL     1      -9.217  22.159 -22.937  1.00  0.00     0.006 A 
HETATM    4  C6  UNL     1      -9.411  20.978 -23.873  1.00  0.00    -0.006 A 
HETATM    5  C7  UNL     1     -10.543  21.047 -24.808  1.00  0.00     0.010 C 
HETATM    6  C8  UNL     1     -11.911  20.839 -24.398  1.00  0.00    -0.013 C 
HETATM    7  C9  UNL     1     -12.179  19.331 -24.242  1.00  0.00     0.009 C 
HETATM    8  C10 UNL     1     -11.886  19.598 -22.755  1.00  0.00    -0.013 C 
HETATM    9  C11 UNL     1     -12.314  20.971 -22.982  1.00  0.00     0.009 C 
HETATM   10  C12 UNL     1     -10.542  19.213 -22.436  1.00  0.00     0.014 C 
ENDROOT
BRANCH   1  11
HETATM   11  C2  UNL     1      -8.137  19.181 -22.654  1.00  0.00     0.037 C 
BRANCH  11  12
HETATM   12  C1  UNL     1      -8.239  17.970 -21.836  1.00  0.00     0.230 C 
BRANCH  12  13
HETATM   13  N1  UNL     1      -6.860  17.623 -21.429  1.00  0.00    -0.079 N 
ATOM     14  H13 UNL     1      -6.455  16.864 -21.978  1.00  0.00     0.274 HD
ATOM     15  H12 UNL     1      -6.174  18.336 -21.675  1.00  0.00     0.274 HD
ATOM     16  H11 UNL     1      -6.897  17.425 -20.429  1.00  0.00     0.274 HD
ENDBRANCH  12  13
ENDBRANCH  11  12
ENDBRANCH   1  11
TORSDOF 3
ENDMDL
MODEL 2
REMARK VINA RESULT: -4.626195131      1.317      2.962
REMARK  3 active torsions:
REMARK  status: ('A' for Active; 'I' for Inactive)
REMARK    1  A    between atoms: N1_1  and  C1_5 
REMARK    2  A    between atoms: C1_5  and  C2_6 
REMARK    3  A    between atoms: C2_6  and  C3_7 
ROOT
HETATM    1  C3  UNL     1     -11.011  20.154 -23.263  1.00  0.00    -0.035 A 
HETATM    2  C4  UNL     1     -12.309  19.642 -23.912  1.00  0.00     0.010 A 
HETATM    3  C5  UNL     1     -13.054  20.725 -23.230  1.00  0.00     0.006 A 
HETATM    4  C6  UNL     1     -11.742  21.241 -22.664  1.00  0.00    -0.006 A 
HETATM    5  C7  UNL     1     -11.411  22.649 -22.925  1.00  0.00     0.010 C 
HETATM    6  C8  UNL     1     -10.946  23.120 -24.207  1.00  0.00    -0.013 C 
HETATM    7  C9  UNL     1      -9.455  22.777 -24.373  1.00  0.00     0.009 C 
HETATM    8  C10 UNL     1      -9.988  21.552 -25.136  1.00  0.00    -0.013 C 
HETATM    9  C11 UNL     1     -11.176  22.337 -25.440  1.00  0.00     0.009 C 
HETATM   10  C12 UNL     1      -9.979  20.395 -24.288  1.00  0.00     0.014 C 
ENDROOT
BRANCH   1  11
HETATM   11  C2  UNL     1     -10.484  19.086 -22.322  1.00  0.00     0.037 C 
BRANCH  11  12
HETATM   12  C1  UNL     1      -9.032  18.908 -22.252  1.00  0.00     0.230 C 
BRANCH  12  13
HETATM   13  N1  UNL     1      -8.804  17.566 -21.674  1.00  0.00    -0.079 N 
ATOM     14  H13 UNL     1      -9.094  17.490 -20.698  1.00  0.00     0.274 HD
ATOM     15  H12 UNL     1      -9.430  16.853 -22.047  1.00  0.00     0.274 HD
ATOM     16  H11 UNL     1      -7.817  17.354 -21.820  1.00  0.00     0.274 HD
ENDBRANCH  12  13
ENDBRANCH  11  12
ENDBRANCH   1  11
TORSDOF 3
ENDMDL
MODEL 3
REMARK VINA RESULT: -4.624294858      3.236      4.758
REMARK  3 active torsions:
REMARK  status: ('A' for Active; 'I' for Inactive)
REMARK    1  A    between atoms: N1_1  and  C1_5 
REMARK    2  A    between atoms: C1_5  and  C2_6 
REMARK    3  A    between atoms: C2_6  and  C3_7 
ROOT
HETATM    1  C3  UNL     1     -13.202  21.350 -23.140  1.00  0.00    -0.035 A 
HETATM    2  C4  UNL     1     -13.254  22.176 -24.437  1.00  0.00     0.010 A 
HETATM    3  C5  UNL     1     -12.254  23.104 -23.863  1.00  0.00     0.006 A 
HETATM    4  C6  UNL     1     -12.178  22.223 -22.628  1.00  0.00    -0.006 A 
HETATM    5  C7  UNL     1     -10.849  21.735 -22.238  1.00  0.00     0.010 C 
HETATM    6  C8  UNL     1     -10.171  20.668 -22.935  1.00  0.00    -0.013 C 
HETATM    7  C9  UNL     1     -10.757  19.313 -22.500  1.00  0.00     0.009 C 
HETATM    8  C10 UNL     1     -11.610  19.458 -23.771  1.00  0.00    -0.013 C 
HETATM    9  C11 UNL     1     -10.549  20.293 -24.314  1.00  0.00     0.009 C 
HETATM   10  C12 UNL     1     -12.923  19.933 -23.438  1.00  0.00     0.014 C 
ENDROOT
BRANCH   1  11
HETATM   11  C2  UNL     1     -14.559  21.418 -22.463  1.00  0.00     0.037 C 
BRANCH  11  12
HETATM   12  C1  UNL     1     -15.131  20.163 -21.974  1.00  0.00     0.230 C 
BRANCH  12  13
HETATM   13  N1  UNL     1     -16.598  20.286 -22.124  1.00  0.00    -0.079 N 
ATOM     14  H13 UNL     1     -16.914  20.210 -23.091  1.00  0.00     0.274 HD
ATOM     15  H12 UNL     1     -17.110  19.483 -21.760  1.00  0.00     0.274 HD
ATOM     16  H11 UNL     1     -16.859  21.167 -21.681  1.00  0.00     0.274 HD
ENDBRANCH  12  13
ENDBRANCH  11  12
ENDBRANCH   1  11
TORSDOF 3
ENDMDL
MODEL 4
REMARK VINA RESULT: -4.494616845      1.464      2.267
REMARK  3 active torsions:
REMARK  status: ('A' for Active; 'I' for Inactive)
REMARK    1  A    between atoms: N1_1  and  C1_5 
REMARK    2  A    between atoms: C1_5  and  C2_6 
REMARK    3  A    between atoms: C2_6  and  C3_7 
ROOT
HETATM    1  C3  UNL     1     -10.488  20.514 -23.106  1.00  0.00    -0.035 A 
HETATM    2  C4  UNL     1      -9.172  20.967 -23.763  1.00  0.00     0.010 A 
HETATM    3  C5  UNL     1      -9.782  20.743 -25.094  1.00  0.00     0.006 A 
HETATM    4  C6  UNL     1     -11.085  20.369 -24.408  1.00  0.00    -0.006 A 
HETATM    5  C7  UNL     1     -12.287  21.113 -24.810  1.00  0.00     0.010 C 
HETATM    6  C8  UNL     1     -12.549  22.466 -24.383  1.00  0.00    -0.013 C 
HETATM    7  C9  UNL     1     -13.082  22.458 -22.938  1.00  0.00     0.009 C 
HETATM    8  C10 UNL     1     -11.615  22.739 -22.569  1.00  0.00    -0.013 C 
HETATM    9  C11 UNL     1     -11.462  23.337 -23.887  1.00  0.00     0.009 C 
HETATM   10  C12 UNL     1     -10.967  21.529 -22.150  1.00  0.00     0.014 C 
ENDROOT
BRANCH   1  11
HETATM   11  C2  UNL     1     -10.229  19.236 -22.328  1.00  0.00     0.037 C 
BRANCH  11  12
HETATM   12  C1  UNL     1      -8.834  18.884 -22.059  1.00  0.00     0.230 C 
BRANCH  12  13
HETATM   13  N1  UNL     1      -8.831  17.455 -21.674  1.00  0.00    -0.079 N 
ATOM     14  H13 UNL     1      -8.380  17.278 -20.777  1.00  0.00     0.274 HD
ATOM     15  H12 UNL     1      -9.754  17.102 -21.423  1.00  0.00     0.274 HD
ATOM     16  H11 UNL     1      -8.403  16.950 -22.450  1.00  0.00     0.274 HD
ENDBRANCH  12  13
ENDBRANCH  11  12
ENDBRANCH   1  11
TORSDOF 3
ENDMDL
MODEL 5
REMARK VINA RESULT: -4.463612840      2.642      4.296
REMARK  3 active torsions:
REMARK  status: ('A' for Active; 'I' for Inactive)
REMARK    1  A    between atoms: N1_1  and  C1_5 
REMARK    2  A    between atoms: C1_5  and  C2_6 
REMARK    3  A    between atoms: C2_6  and  C3_7 
ROOT
HETATM    1  C3  UNL     1     -11.750  20.241 -23.063  1.00  0.00    -0.035 A 
HETATM    2  C4  UNL     1     -11.499  20.434 -24.569  1.00  0.00     0.010 A 
HETATM    3  C5  UNL     1     -11.362  21.890 -24.340  1.00  0.00     0.006 A 
HETATM    4  C6  UNL     1     -11.543  21.650 -22.851  1.00  0.00    -0.006 A 
HETATM    5  C7  UNL     1     -10.495  22.166 -21.960  1.00  0.00     0.010 C 
HETATM    6  C8  UNL     1      -9.206  21.534 -21.818  1.00  0.00    -0.013 C 
HETATM    7  C9  UNL     1      -9.331  20.305 -20.899  1.00  0.00     0.009 C 
HETATM    8  C10 UNL     1      -9.448  19.530 -22.222  1.00  0.00    -0.013 C 
HETATM    9  C11 UNL     1      -8.692  20.605 -22.848  1.00  0.00     0.009 C 
HETATM   10  C12 UNL     1     -10.823  19.237 -22.508  1.00  0.00     0.014 C 
ENDROOT
BRANCH   1  11
HETATM   11  C2  UNL     1     -13.162  19.721 -22.866  1.00  0.00     0.037 C 
BRANCH  11  12
HETATM   12  C1  UNL     1     -14.184  20.687 -22.458  1.00  0.00     0.230 C 
BRANCH  12  13
HETATM   13  N1  UNL     1     -15.246  19.911 -21.782  1.00  0.00    -0.079 N 
ATOM     14  H13 UNL     1     -15.907  19.479 -22.430  1.00  0.00     0.274 HD
ATOM     15  H12 UNL     1     -14.908  19.049 -21.355  1.00  0.00     0.274 HD
ATOM     16  H11 UNL     1     -15.687  20.546 -21.117  1.00  0.00     0.274 HD
ENDBRANCH  12  13
ENDBRANCH  11  12
ENDBRANCH   1  11
TORSDOF 3
ENDMDL
