MODEL 1
REMARK VINA RESULT: -4.731346351      0.000      0.000
REMARK  4 active torsions:
REMARK  status: ('A' for Active; 'I' for Inactive)
REMARK    1  A    between atoms: N1_2  and  C3_4 
REMARK    2  A    between atoms: N2_5  and  C4_7 
REMARK    3  A    between atoms: C4_7  and  C5_11 
REMARK    4  A    between atoms: C6_12  and  C7_13 
ROOT
HETATM    1  C4  UNL     1      -7.884  18.270 -21.905  1.00  0.00     0.099 C 
HETATM    2  N3  UNL     1      -8.726  17.343 -21.699  1.00  0.00    -0.385 N 
ATOM      3  H31 UNL     1      -9.577  17.374 -22.261  1.00  0.00     0.157 HD
ATOM      4  H32 UNL     1      -8.574  16.602 -21.014  1.00  0.00     0.157 HD
ENDROOT
BRANCH   1   5
HETATM    5  N2  UNL     1      -6.700  18.227 -21.122  1.00  0.00    -0.339 N 
HETATM    6  C3  UNL     1      -6.583  19.068 -20.137  1.00  0.00     0.179 C 
ATOM      7  H2  UNL     1      -5.962  17.554 -21.326  1.00  0.00     0.168 HD
BRANCH   6   8
HETATM    8  N1  UNL     1      -5.416  19.062 -19.326  1.00  0.00    -0.386 N 
HETATM    9  C1  UNL     1      -4.479  17.958 -19.365  1.00  0.00     0.149 C 
HETATM   10  C2  UNL     1      -5.120  20.163 -18.429  1.00  0.00     0.149 C 
ENDBRANCH   6   8
ENDBRANCH   1   5
BRANCH   1  11
HETATM   11  C5  UNL     1      -8.098  19.311 -22.868  1.00  0.00     0.044 C 
HETATM   12  C6  UNL     1      -9.107  20.133 -22.985  1.00  0.00    -0.018 C 
BRANCH  12  13
HETATM   13  C7  UNL     1     -10.327  20.273 -22.200  1.00  0.00     0.008 C 
HETATM   14  C8  UNL     1     -11.411  19.361 -22.822  1.00  0.00     0.008 C 
HETATM   15  C9  UNL     1     -11.823  20.151 -24.019  1.00  0.00     0.001 C 
HETATM   16  C10 UNL     1     -11.750  21.595 -23.656  1.00  0.00     0.001 C 
HETATM   17  C11 UNL     1     -10.879  21.673 -22.441  1.00  0.00     0.008 C 
ENDBRANCH  12  13
ENDBRANCH   1  11
TORSDOF 4
ENDMDL
MODEL 2
REMARK VINA RESULT: -4.574337672      1.872      2.170
REMARK  4 active torsions:
REMARK  status: ('A' for Active; 'I' for Inactive)
REMARK    1  A    between atoms: N1_2  and  C3_4 
REMARK    2  A    between atoms: N2_5  and  C4_7 
REMARK    3  A    between atoms: C4_7  and  C5_11 
REMARK    4  A    between atoms: C6_12  and  C7_13 
ROOT
HETATM    1  C4  UNL     1      -8.603  18.668 -21.650  1.00  0.00     0.099 C 
HETATM    2  N3  UNL     1      -8.826  17.423 -21.747  1.00  0.00    -0.385 N 
ATOM      3  H31 UNL     1      -9.131  17.089 -22.662  1.00  0.00     0.157 HD
ATOM      4  H32 UNL     1      -8.710  16.780 -20.964  1.00  0.00     0.157 HD
ENDROOT
BRANCH   1   5
HETATM    5  N2  UNL     1      -8.179  19.133 -20.378  1.00  0.00    -0.339 N 
HETATM    6  C3  UNL     1      -8.794  20.154 -19.858  1.00  0.00     0.179 C 
ATOM      7  H2  UNL     1      -7.412  18.676 -19.883  1.00  0.00     0.168 HD
BRANCH   6   8
HETATM    8  N1  UNL     1      -8.404  20.653 -18.586  1.00  0.00    -0.386 N 
HETATM    9  C1  UNL     1      -7.030  21.024 -18.312  1.00  0.00     0.149 C 
HETATM   10  C2  UNL     1      -9.368  20.810 -17.514  1.00  0.00     0.149 C 
ENDBRANCH   6   8
ENDBRANCH   1   5
BRANCH   1  11
HETATM   11  C5  UNL     1      -8.766  19.572 -22.751  1.00  0.00     0.044 C 
HETATM   12  C6  UNL     1      -9.861  20.101 -23.231  1.00  0.00    -0.018 C 
BRANCH  12  13
HETATM   13  C7  UNL     1     -11.254  19.959 -22.825  1.00  0.00     0.008 C 
HETATM   14  C8  UNL     1     -12.085  19.563 -24.068  1.00  0.00     0.008 C 
HETATM   15  C9  UNL     1     -12.194  20.866 -24.788  1.00  0.00     0.001 C 
HETATM   16  C10 UNL     1     -12.290  21.943 -23.762  1.00  0.00     0.001 C 
HETATM   17  C11 UNL     1     -11.785  21.346 -22.486  1.00  0.00     0.008 C 
ENDBRANCH  12  13
ENDBRANCH   1  11
TORSDOF 4
ENDMDL
MODEL 3
REMARK VINA RESULT: -4.477636185      1.989      2.538
REMARK  4 active torsions:
REMARK  status: ('A' for Active; 'I' for Inactive)
REMARK    1  A    between atoms: N1_2  and  C3_4 
REMARK    2  A    between atoms: N2_5  and  C4_7 
REMARK    3  A    between atoms: C4_7  and  C5_11 
REMARK    4  A    between atoms: C6_12  and  C7_13 
ROOT
HETATM    1  C4  UNL     1      -8.357  18.657 -21.788  1.00  0.00     0.099 C 
HETATM    2  N3  UNL     1      -8.735  17.448 -21.708  1.00  0.00    -0.385 N 
ATOM      3  H31 UNL     1      -9.705  17.296 -21.430  1.00  0.00     0.157 HD
ATOM      4  H32 UNL     1      -8.115  16.663 -21.908  1.00  0.00     0.157 HD
ENDROOT
BRANCH   1   5
HETATM    5  N2  UNL     1      -7.007  18.868 -22.174  1.00  0.00    -0.339 N 
HETATM    6  C3  UNL     1      -6.661  20.055 -22.578  1.00  0.00     0.179 C 
ATOM      7  H2  UNL     1      -6.327  18.109 -22.135  1.00  0.00     0.168 HD
BRANCH   6   8
HETATM    8  N1  UNL     1      -5.321  20.313 -22.974  1.00  0.00    -0.386 N 
HETATM    9  C1  UNL     1      -4.923  20.255 -24.366  1.00  0.00     0.149 C 
HETATM   10  C2  UNL     1      -4.301  20.644 -21.998  1.00  0.00     0.149 C 
ENDBRANCH   6   8
ENDBRANCH   1   5
BRANCH   1  11
HETATM   11  C5  UNL     1      -9.228  19.761 -21.507  1.00  0.00     0.044 C 
HETATM   12  C6  UNL     1     -10.353  20.094 -22.084  1.00  0.00    -0.018 C 
BRANCH  12  13
HETATM   13  C7  UNL     1     -11.088  19.477 -23.181  1.00  0.00     0.008 C 
HETATM   14  C8  UNL     1     -10.805  20.284 -24.470  1.00  0.00     0.008 C 
HETATM   15  C9  UNL     1     -11.666  21.486 -24.272  1.00  0.00     0.001 C 
HETATM   16  C10 UNL     1     -12.900  21.046 -23.560  1.00  0.00     0.001 C 
HETATM   17  C11 UNL     1     -12.573  19.722 -22.944  1.00  0.00     0.008 C 
ENDBRANCH  12  13
ENDBRANCH   1  11
TORSDOF 4
ENDMDL
MODEL 4
REMARK VINA RESULT: -4.469213462      1.086      1.388
REMARK  4 active torsions:
REMARK  status: ('A' for Active; 'I' for Inactive)
REMARK    1  A    between atoms: N1_2  and  C3_4 
REMARK    2  A    between atoms: N2_5  and  C4_7 
REMARK    3  A    between atoms: C4_7  and  C5_11 
REMARK    4  A    between atoms: C6_12  and  C7_13 
ROOT
HETATM    1  C4  UNL     1      -8.279  18.548 -21.495  1.00  0.00     0.099 C 
HETATM    2  N3  UNL     1      -8.819  17.427 -21.745  1.00  0.00    -0.385 N 
ATOM      3  H31 UNL     1      -9.832  17.431 -21.865  1.00  0.00     0.157 HD
ATOM      4  H32 UNL     1      -8.283  16.563 -21.826  1.00  0.00     0.157 HD
ENDROOT
BRANCH   1   5
HETATM    5  N2  UNL     1      -6.869  18.541 -21.328  1.00  0.00    -0.339 N 
HETATM    6  C3  UNL     1      -6.381  18.966 -20.199  1.00  0.00     0.179 C 
ATOM      7  H2  UNL     1      -6.255  18.212 -22.073  1.00  0.00     0.168 HD
BRANCH   6   8
HETATM    8  N1  UNL     1      -4.976  18.977 -19.987  1.00  0.00    -0.386 N 
HETATM    9  C1  UNL     1      -4.313  17.904 -19.275  1.00  0.00     0.149 C 
HETATM   10  C2  UNL     1      -4.152  20.066 -20.477  1.00  0.00     0.149 C 
ENDBRANCH   6   8
ENDBRANCH   1   5
BRANCH   1  11
HETATM   11  C5  UNL     1      -9.033  19.762 -21.381  1.00  0.00     0.044 C 
HETATM   12  C6  UNL     1     -10.070  20.159 -22.070  1.00  0.00    -0.018 C 
BRANCH  12  13
HETATM   13  C7  UNL     1     -10.798  19.522 -23.161  1.00  0.00     0.008 C 
HETATM   14  C8  UNL     1     -10.593  20.366 -24.441  1.00  0.00     0.008 C 
HETATM   15  C9  UNL     1     -11.514  21.515 -24.198  1.00  0.00     0.001 C 
HETATM   16  C10 UNL     1     -12.703  20.995 -23.465  1.00  0.00     0.001 C 
HETATM   17  C11 UNL     1     -12.288  19.680 -22.883  1.00  0.00     0.008 C 
ENDBRANCH  12  13
ENDBRANCH   1  11
TORSDOF 4
ENDMDL
MODEL 5
REMARK VINA RESULT: -4.467229620      2.492      3.313
REMARK  4 active torsions:
REMARK  status: ('A' for Active; 'I' for Inactive)
REMARK    1  A    between atoms: N1_2  and  C3_4 
REMARK    2  A    between atoms: N2_5  and  C4_7 
REMARK    3  A    between atoms: C4_7  and  C5_11 
REMARK    4  A    between atoms: C6_12  and  C7_13 
ROOT
HETATM    1  C4  UNL     1      -8.632  18.804 -21.971  1.00  0.00     0.099 C 
HETATM    2  N3  UNL     1      -8.818  17.574 -21.722  1.00  0.00    -0.385 N 
ATOM      3  H31 UNL     1      -9.670  17.340 -21.212  1.00  0.00     0.157 HD
ATOM      4  H32 UNL     1      -8.162  16.848 -22.011  1.00  0.00     0.157 HD
ENDROOT
BRANCH   1   5
HETATM    5  N2  UNL     1      -7.446  19.128 -22.681  1.00  0.00    -0.339 N 
HETATM    6  C3  UNL     1      -7.524  19.996 -23.647  1.00  0.00     0.179 C 
ATOM      7  H2  UNL     1      -6.556  18.693 -22.439  1.00  0.00     0.168 HD
BRANCH   6   8
HETATM    8  N1  UNL     1      -6.362  20.352 -24.384  1.00  0.00    -0.386 N 
HETATM    9  C1  UNL     1      -6.433  20.651 -25.800  1.00  0.00     0.149 C 
HETATM   10  C2  UNL     1      -5.062  20.427 -23.746  1.00  0.00     0.149 C 
ENDBRANCH   6   8
ENDBRANCH   1   5
BRANCH   1  11
HETATM   11  C5  UNL     1      -9.555  19.824 -21.566  1.00  0.00     0.044 C 
HETATM   12  C6  UNL     1     -10.737  20.108 -22.047  1.00  0.00    -0.018 C 
BRANCH  12  13
HETATM   13  C7  UNL     1     -11.503  19.503 -23.129  1.00  0.00     0.008 C 
HETATM   14  C8  UNL     1     -11.143  20.232 -24.446  1.00  0.00     0.008 C 
HETATM   15  C9  UNL     1     -11.914  21.503 -24.310  1.00  0.00     0.001 C 
HETATM   16  C10 UNL     1     -13.186  21.187 -23.600  1.00  0.00     0.001 C 
HETATM   17  C11 UNL     1     -12.968  19.869 -22.925  1.00  0.00     0.008 C 
ENDBRANCH  12  13
ENDBRANCH   1  11
TORSDOF 4
ENDMDL
