MODEL 1
REMARK VINA RESULT: -4.446291106      0.000      0.000
REMARK  3 active torsions:
REMARK  status: ('A' for Active; 'I' for Inactive)
REMARK    1  A    between atoms: C2_2  and  N1_3 
REMARK    2  A    between atoms: C2_2  and  C9_11 
REMARK    3  A    between atoms: N1_3  and  C3_5 
ROOT
HETATM    1  C1  UNL     1     -10.681  20.632 -24.662  1.00  0.00     0.034 C 
HETATM    2  C2  UNL     1     -11.253  20.397 -23.317  1.00  0.00     0.103 C 
ENDROOT
BRANCH   2   3
HETATM    3  N1  UNL     1     -10.691  19.494 -22.441  1.00  0.00    -0.411 N 
ATOM      4  H1  UNL     1     -11.314  18.790 -22.045  1.00  0.00     0.154 HD
BRANCH   3   5
HETATM    5  C3  UNL     1      -9.362  19.446 -22.044  1.00  0.00     0.077 C 
HETATM    6  C4  UNL     1      -9.041  20.095 -20.727  1.00  0.00     0.024 C 
HETATM    7  C5  UNL     1      -7.524  20.180 -20.620  1.00  0.00     0.002 C 
HETATM    8  C6  UNL     1      -6.990  18.781 -20.500  1.00  0.00     0.000 C 
HETATM    9  C7  UNL     1      -7.452  17.895 -21.635  1.00  0.00     0.002 C 
HETATM   10  C8  UNL     1      -8.934  17.966 -21.849  1.00  0.00     0.024 C 
ENDBRANCH   3   5
ENDBRANCH   2   3
BRANCH   2  11
HETATM   11  C9  UNL     1     -12.769  20.216 -23.520  1.00  0.00     0.209 C 
HETATM   12  C10 UNL     1     -13.590  21.288 -22.857  1.00  0.00     0.062 C 
HETATM   13  C11 UNL     1     -14.402  20.151 -22.301  1.00  0.00     0.235 C 
HETATM   14  N2  UNL     1     -13.358  19.236 -22.678  1.00  0.00    -0.069 N 
ATOM     15  H22 UNL     1     -13.602  18.324 -23.063  1.00  0.00     0.277 HD
ATOM     16  H21 UNL     1     -12.794  18.790 -21.955  1.00  0.00     0.277 HD
ENDBRANCH   2  11
TORSDOF 3
ENDMDL
MODEL 2
REMARK VINA RESULT: -4.430621672      1.964      5.664
REMARK  3 active torsions:
REMARK  status: ('A' for Active; 'I' for Inactive)
REMARK    1  A    between atoms: C2_2  and  N1_3 
REMARK    2  A    between atoms: C2_2  and  C9_11 
REMARK    3  A    between atoms: N1_3  and  C3_5 
ROOT
HETATM    1  C1  UNL     1      -8.838  20.436 -19.514  1.00  0.00     0.034 C 
HETATM    2  C2  UNL     1      -8.408  19.728 -20.740  1.00  0.00     0.103 C 
ENDROOT
BRANCH   2   3
HETATM    3  N1  UNL     1      -9.265  18.906 -21.439  1.00  0.00    -0.411 N 
ATOM      4  H1  UNL     1      -9.452  17.988 -21.036  1.00  0.00     0.154 HD
BRANCH   3   5
HETATM    5  C3  UNL     1      -9.900  19.203 -22.637  1.00  0.00     0.077 C 
HETATM    6  C4  UNL     1     -11.372  19.493 -22.553  1.00  0.00     0.024 C 
HETATM    7  C5  UNL     1     -11.914  19.512 -23.976  1.00  0.00     0.002 C 
HETATM    8  C6  UNL     1     -11.327  20.701 -24.679  1.00  0.00     0.000 C 
HETATM    9  C7  UNL     1      -9.816  20.708 -24.625  1.00  0.00     0.002 C 
HETATM   10  C8  UNL     1      -9.293  20.502 -23.234  1.00  0.00     0.024 C 
ENDBRANCH   3   5
ENDBRANCH   2   3
BRANCH   2  11
HETATM   11  C9  UNL     1      -7.048  19.082 -20.410  1.00  0.00     0.209 C 
HETATM   12  C10 UNL     1      -6.238  19.874 -19.420  1.00  0.00     0.062 C 
HETATM   13  C11 UNL     1      -5.107  19.704 -20.396  1.00  0.00     0.235 C 
HETATM   14  N2  UNL     1      -6.051  19.284 -21.398  1.00  0.00    -0.069 N 
ATOM     15  H22 UNL     1      -5.807  18.522 -22.031  1.00  0.00     0.277 HD
ATOM     16  H21 UNL     1      -6.245  19.893 -22.193  1.00  0.00     0.277 HD
ENDBRANCH   2  11
TORSDOF 3
ENDMDL
MODEL 3
REMARK VINA RESULT: -4.391024305      0.607      1.448
REMARK  3 active torsions:
REMARK  status: ('A' for Active; 'I' for Inactive)
REMARK    1  A    between atoms: C2_2  and  N1_3 
REMARK    2  A    between atoms: C2_2  and  C9_11 
REMARK    3  A    between atoms: N1_3  and  C3_5 
ROOT
HETATM    1  C1  UNL     1     -10.392  20.679 -24.664  1.00  0.00     0.034 C 
HETATM    2  C2  UNL     1     -10.997  20.192 -23.404  1.00  0.00     0.103 C 
ENDROOT
BRANCH   2   3
HETATM    3  N1  UNL     1     -10.539  19.054 -22.775  1.00  0.00    -0.411 N 
ATOM      4  H1  UNL     1     -10.947  18.169 -23.073  1.00  0.00     0.154 HD
BRANCH   3   5
HETATM    5  C3  UNL     1      -9.578  18.994 -21.776  1.00  0.00     0.077 C 
HETATM    6  C4  UNL     1      -8.188  18.626 -22.215  1.00  0.00     0.024 C 
HETATM    7  C5  UNL     1      -7.374  18.345 -20.960  1.00  0.00     0.002 C 
HETATM    8  C6  UNL     1      -7.212  19.638 -20.213  1.00  0.00     0.000 C 
HETATM    9  C7  UNL     1      -8.540  20.296 -19.918  1.00  0.00     0.002 C 
HETATM   10  C8  UNL     1      -9.411  20.399 -21.135  1.00  0.00     0.024 C 
ENDBRANCH   3   5
ENDBRANCH   2   3
BRANCH   2  11
HETATM   11  C9  UNL     1     -12.522  20.219 -23.620  1.00  0.00     0.209 C 
HETATM   12  C10 UNL     1     -13.202  21.363 -22.917  1.00  0.00     0.062 C 
HETATM   13  C11 UNL     1     -14.161  20.321 -22.412  1.00  0.00     0.235 C 
HETATM   14  N2  UNL     1     -13.241  19.292 -22.823  1.00  0.00    -0.069 N 
ATOM     15  H22 UNL     1     -13.600  18.437 -23.246  1.00  0.00     0.277 HD
ATOM     16  H21 UNL     1     -12.748  18.748 -22.116  1.00  0.00     0.277 HD
ENDBRANCH   2  11
TORSDOF 3
ENDMDL
MODEL 4
REMARK VINA RESULT: -4.301817956      1.487      5.752
REMARK  3 active torsions:
REMARK  status: ('A' for Active; 'I' for Inactive)
REMARK    1  A    between atoms: C2_2  and  N1_3 
REMARK    2  A    between atoms: C2_2  and  C9_11 
REMARK    3  A    between atoms: N1_3  and  C3_5 
ROOT
HETATM    1  C1  UNL     1     -11.520  20.183 -24.517  1.00  0.00     0.034 C 
HETATM    2  C2  UNL     1     -11.711  19.396 -23.278  1.00  0.00     0.103 C 
ENDROOT
BRANCH   2   3
HETATM    3  N1  UNL     1     -12.906  19.405 -22.593  1.00  0.00    -0.411 N 
ATOM      4  H1  UNL     1     -13.030  18.692 -21.875  1.00  0.00     0.154 HD
BRANCH   3   5
HETATM    5  C3  UNL     1     -13.959  20.290 -22.782  1.00  0.00     0.077 C 
HETATM    6  C4  UNL     1     -15.144  20.115 -21.874  1.00  0.00     0.024 C 
HETATM    7  C5  UNL     1     -16.271  20.978 -22.425  1.00  0.00     0.002 C 
HETATM    8  C6  UNL     1     -15.872  22.417 -22.265  1.00  0.00     0.000 C 
HETATM    9  C7  UNL     1     -14.536  22.714 -22.906  1.00  0.00     0.002 C 
HETATM   10  C8  UNL     1     -13.475  21.737 -22.495  1.00  0.00     0.024 C 
ENDBRANCH   3   5
ENDBRANCH   2   3
BRANCH   2  11
HETATM   11  C9  UNL     1     -10.479  19.676 -22.396  1.00  0.00     0.209 C 
HETATM   12  C10 UNL     1      -9.294  20.182 -23.172  1.00  0.00     0.062 C 
HETATM   13  C11 UNL     1      -8.514  19.135 -22.427  1.00  0.00     0.235 C 
HETATM   14  N2  UNL     1      -9.750  18.516 -22.027  1.00  0.00    -0.069 N 
ATOM     15  H22 UNL     1      -9.843  18.143 -21.083  1.00  0.00     0.277 HD
ATOM     16  H21 UNL     1     -10.010  17.611 -22.420  1.00  0.00     0.277 HD
ENDBRANCH   2  11
TORSDOF 3
ENDMDL
MODEL 5
REMARK VINA RESULT: -4.295296592      1.927      5.513
REMARK  3 active torsions:
REMARK  status: ('A' for Active; 'I' for Inactive)
REMARK    1  A    between atoms: C2_2  and  N1_3 
REMARK    2  A    between atoms: C2_2  and  C9_11 
REMARK    3  A    between atoms: N1_3  and  C3_5 
ROOT
HETATM    1  C1  UNL     1      -7.329  19.553 -22.793  1.00  0.00     0.034 C 
HETATM    2  C2  UNL     1      -8.186  18.601 -22.050  1.00  0.00     0.103 C 
ENDROOT
BRANCH   2   3
HETATM    3  N1  UNL     1      -9.557  18.735 -22.020  1.00  0.00    -0.411 N 
ATOM      4  H1  UNL     1     -10.077  18.016 -21.517  1.00  0.00     0.154 HD
BRANCH   3   5
HETATM    5  C3  UNL     1     -10.300  19.750 -22.606  1.00  0.00     0.077 C 
HETATM    6  C4  UNL     1     -11.748  19.444 -22.870  1.00  0.00     0.024 C 
HETATM    7  C5  UNL     1     -12.294  20.557 -23.753  1.00  0.00     0.002 C 
HETATM    8  C6  UNL     1     -12.309  21.823 -22.945  1.00  0.00     0.000 C 
HETATM    9  C7  UNL     1     -10.952  22.146 -22.365  1.00  0.00     0.002 C 
HETATM   10  C8  UNL     1     -10.341  20.975 -21.653  1.00  0.00     0.024 C 
ENDBRANCH   3   5
ENDBRANCH   2   3
BRANCH   2  11
HETATM   11  C9  UNL     1      -7.540  18.433 -20.661  1.00  0.00     0.209 C 
HETATM   12  C10 UNL     1      -7.003  19.720 -20.096  1.00  0.00     0.062 C 
HETATM   13  C11 UNL     1      -5.753  18.933 -19.818  1.00  0.00     0.235 C 
HETATM   14  N2  UNL     1      -6.230  17.891 -20.688  1.00  0.00    -0.069 N 
ATOM     15  H22 UNL     1      -6.084  16.915 -20.432  1.00  0.00     0.277 HD
ATOM     16  H21 UNL     1      -5.768  17.733 -21.584  1.00  0.00     0.277 HD
ENDBRANCH   2  11
TORSDOF 3
ENDMDL
