MODEL 1
REMARK VINA RESULT: -10.474437726      0.000      0.000
REMARK  10 active torsions:
REMARK  status: ('A' for Active; 'I' for Inactive)
REMARK    1  A    between atoms: C4_4  and  C5_5 
REMARK    2  A    between atoms: C5_5  and  C6_6 
REMARK    3  A    between atoms: C6_6  and  C7_7 
REMARK    4  A    between atoms: C9_10  and  C10_11 
REMARK    5  A    between atoms: C10_11  and  C11_12 
REMARK    6  A    between atoms: C11_12  and  C12_13 
REMARK    7  A    between atoms: C12_13  and  O2_15 
REMARK    8  A    between atoms: O2_15  and  C13_16 
REMARK    9  A    between atoms: C21_26  and  O4_27 
REMARK   10  A    between atoms: C31_39  and  O6_40 
ROOT
HETATM    1  C7  UNL     1      40.203  47.047  17.270  1.00  0.00     0.019 C 
HETATM    2  C8  UNL     1      41.415  47.298  17.987  1.00  0.00     0.095 C 
HETATM    3  N1  UNL     1      42.398  47.498  18.584  1.00  0.00    -0.192 NA
HETATM    4  C9  UNL     1      39.340  46.195  17.780  1.00  0.00    -0.008 C 
ENDROOT
BRANCH   1   5
HETATM    5  C6  UNL     1      39.882  47.705  15.989  1.00  0.00     0.053 C 
BRANCH   5   6
HETATM    6  C5  UNL     1      39.533  46.636  14.974  1.00  0.00     0.032 C 
BRANCH   6   7
HETATM    7  C4  UNL     1      38.397  47.055  14.134  1.00  0.00    -0.024 C 
HETATM    8  C2  UNL     1      37.275  46.371  14.145  1.00  0.00    -0.091 C 
HETATM    9  C1  UNL     1      37.097  45.167  14.984  1.00  0.00     0.042 C 
HETATM   10  C3  UNL     1      36.130  46.816  13.282  1.00  0.00     0.042 C 
ENDBRANCH   6   7
ENDBRANCH   5   6
ENDBRANCH   1   5
BRANCH   4  11
HETATM   11  C10 UNL     1      39.562  45.473  19.073  1.00  0.00     0.038 C 
BRANCH  11  12
HETATM   12  C11 UNL     1      38.327  44.675  19.330  1.00  0.00     0.115 C 
BRANCH  12  13
HETATM   13  C12 UNL     1      38.171  44.289  20.739  1.00  0.00     0.259 C 
HETATM   14  O1  UNL     1      37.019  44.337  21.253  1.00  0.00    -0.265 OA
BRANCH  13  15
HETATM   15  O2  UNL     1      39.209  43.872  21.551  1.00  0.00    -0.315 OA
BRANCH  15  16
HETATM   16  C13 UNL     1      39.477  44.543  22.799  1.00  0.00     0.142 C 
HETATM   17  C14 UNL     1      38.558  43.994  23.825  1.00  0.00     0.060 C 
HETATM   18  C15 UNL     1      39.163  43.199  24.897  1.00  0.00    -0.019 C 
HETATM   19  C16 UNL     1      38.819  43.271  26.154  1.00  0.00    -0.047 C 
HETATM   20  C17 UNL     1      39.558  42.368  27.121  1.00  0.00     0.046 C 
HETATM   21  C18 UNL     1      37.773  44.166  26.716  1.00  0.00     0.268 C 
HETATM   22  F1  UNL     1      36.551  44.049  26.093  1.00  0.00    -0.236 F 
HETATM   23  C19 UNL     1      38.269  45.568  26.800  1.00  0.00     0.167 C 
HETATM   24  O3  UNL     1      37.473  46.466  26.787  1.00  0.00    -0.294 OA
HETATM   25  C20 UNL     1      39.744  45.837  26.901  1.00  0.00     0.114 C 
HETATM   26  C21 UNL     1      40.080  47.282  26.901  1.00  0.00     0.140 C 
HETATM   27  C22 UNL     1      40.443  47.871  25.579  1.00  0.00     0.039 C 
HETATM   28  C23 UNL     1      41.098  49.236  25.857  1.00  0.00     0.025 C 
HETATM   29  C24 UNL     1      39.233  48.192  24.729  1.00  0.00     0.025 C 
HETATM   30  C25 UNL     1      41.457  47.056  24.873  1.00  0.00     0.137 C 
HETATM   31  O5  UNL     1      42.321  46.532  25.527  1.00  0.00    -0.297 OA
HETATM   32  C26 UNL     1      41.386  46.911  23.434  1.00  0.00     0.084 C 
HETATM   33  C27 UNL     1      41.750  45.653  22.800  1.00  0.00     0.005 C 
HETATM   34  C28 UNL     1      43.134  45.117  23.084  1.00  0.00    -0.011 C 
HETATM   35  C32 UNL     1      40.933  44.432  23.063  1.00  0.00     0.049 C 
HETATM   36  C29 UNL     1      44.231  46.024  22.620  1.00  0.00     0.010 C 
HETATM   37  C30 UNL     1      43.095  43.817  22.259  1.00  0.00     0.037 C 
HETATM   38  C31 UNL     1      41.623  43.521  22.026  1.00  0.00     0.125 C 
BRANCH  26  39
HETATM   39  O4  UNL     1      39.082  48.067  27.501  1.00  0.00    -0.394 OA
ATOM     40  H4  UNL     1      38.890  47.795  28.391  1.00  0.00     0.210 HD
ENDBRANCH  26  39
BRANCH  38  41
HETATM   41  O6  UNL     1      41.280  42.213  22.113  1.00  0.00    -0.395 OA
ATOM     42  H6  UNL     1      41.966  41.600  21.872  1.00  0.00     0.210 HD
ENDBRANCH  38  41
ENDBRANCH  15  16
ENDBRANCH  13  15
ENDBRANCH  12  13
ENDBRANCH  11  12
ENDBRANCH   4  11
TORSDOF 10
ENDMDL
MODEL 2
REMARK VINA RESULT: -10.343646481      1.940      2.576
REMARK  10 active torsions:
REMARK  status: ('A' for Active; 'I' for Inactive)
REMARK    1  A    between atoms: C4_4  and  C5_5 
REMARK    2  A    between atoms: C5_5  and  C6_6 
REMARK    3  A    between atoms: C6_6  and  C7_7 
REMARK    4  A    between atoms: C9_10  and  C10_11 
REMARK    5  A    between atoms: C10_11  and  C11_12 
REMARK    6  A    between atoms: C11_12  and  C12_13 
REMARK    7  A    between atoms: C12_13  and  O2_15 
REMARK    8  A    between atoms: O2_15  and  C13_16 
REMARK    9  A    between atoms: C21_26  and  O4_27 
REMARK   10  A    between atoms: C31_39  and  O6_40 
ROOT
HETATM    1  C7  UNL     1      36.662  44.688  18.031  1.00  0.00     0.019 C 
HETATM    2  C8  UNL     1      36.036  43.990  19.112  1.00  0.00     0.095 C 
HETATM    3  N1  UNL     1      35.539  43.417  19.998  1.00  0.00    -0.192 NA
HETATM    4  C9  UNL     1      37.922  45.042  18.162  1.00  0.00    -0.008 C 
ENDROOT
BRANCH   1   5
HETATM    5  C6  UNL     1      35.954  45.024  16.781  1.00  0.00     0.053 C 
BRANCH   5   6
HETATM    6  C5  UNL     1      36.779  44.525  15.612  1.00  0.00     0.032 C 
BRANCH   6   7
HETATM    7  C4  UNL     1      36.528  45.331  14.405  1.00  0.00    -0.024 C 
HETATM    8  C2  UNL     1      37.448  46.151  13.950  1.00  0.00    -0.091 C 
HETATM    9  C1  UNL     1      38.760  46.305  14.614  1.00  0.00     0.042 C 
HETATM   10  C3  UNL     1      37.171  46.963  12.718  1.00  0.00     0.042 C 
ENDBRANCH   6   7
ENDBRANCH   5   6
ENDBRANCH   1   5
BRANCH   4  11
HETATM   11  C10 UNL     1      38.736  44.753  19.386  1.00  0.00     0.038 C 
BRANCH  11  12
HETATM   12  C11 UNL     1      40.166  44.764  18.956  1.00  0.00     0.115 C 
BRANCH  12  13
HETATM   13  C12 UNL     1      41.097  45.051  20.055  1.00  0.00     0.259 C 
HETATM   14  O1  UNL     1      41.832  46.075  19.971  1.00  0.00    -0.265 OA
BRANCH  13  15
HETATM   15  O2  UNL     1      41.227  44.272  21.189  1.00  0.00    -0.315 OA
BRANCH  15  16
HETATM   16  C13 UNL     1      40.900  44.807  22.488  1.00  0.00     0.142 C 
HETATM   17  C14 UNL     1      39.652  44.158  22.955  1.00  0.00     0.060 C 
HETATM   18  C15 UNL     1      39.767  43.253  24.102  1.00  0.00    -0.019 C 
HETATM   19  C16 UNL     1      38.911  43.195  25.086  1.00  0.00    -0.047 C 
HETATM   20  C17 UNL     1      39.196  42.193  26.187  1.00  0.00     0.046 C 
HETATM   21  C18 UNL     1      37.689  44.030  25.220  1.00  0.00     0.268 C 
HETATM   22  F1  UNL     1      36.862  43.984  24.121  1.00  0.00    -0.236 F 
HETATM   23  C19 UNL     1      38.040  45.414  25.645  1.00  0.00     0.167 C 
HETATM   24  O3  UNL     1      37.291  46.312  25.373  1.00  0.00    -0.294 OA
HETATM   25  C20 UNL     1      39.314  45.666  26.401  1.00  0.00     0.114 C 
HETATM   26  C21 UNL     1      39.556  47.101  26.686  1.00  0.00     0.140 C 
HETATM   27  C22 UNL     1      40.429  47.824  25.715  1.00  0.00     0.039 C 
HETATM   28  C23 UNL     1      40.842  49.150  26.380  1.00  0.00     0.025 C 
HETATM   29  C24 UNL     1      39.694  48.236  24.460  1.00  0.00     0.025 C 
HETATM   30  C25 UNL     1      41.682  47.083  25.445  1.00  0.00     0.137 C 
HETATM   31  O5  UNL     1      42.200  46.490  26.357  1.00  0.00    -0.297 OA
HETATM   32  C26 UNL     1      42.246  47.090  24.112  1.00  0.00     0.084 C 
HETATM   33  C27 UNL     1      42.901  45.903  23.582  1.00  0.00     0.005 C 
HETATM   34  C28 UNL     1      44.048  45.334  24.385  1.00  0.00    -0.011 C 
HETATM   35  C32 UNL     1      42.102  44.664  23.345  1.00  0.00     0.049 C 
HETATM   36  C29 UNL     1      45.198  46.281  24.533  1.00  0.00     0.010 C 
HETATM   37  C30 UNL     1      44.423  44.128  23.505  1.00  0.00     0.037 C 
HETATM   38  C31 UNL     1      43.211  43.864  22.629  1.00  0.00     0.125 C 
BRANCH  26  39
HETATM   39  O4  UNL     1      38.365  47.823  26.865  1.00  0.00    -0.394 OA
ATOM     40  H4  UNL     1      38.511  48.673  27.265  1.00  0.00     0.210 HD
ENDBRANCH  26  39
BRANCH  38  41
HETATM   41  O6  UNL     1      42.919  42.555  22.433  1.00  0.00    -0.395 OA
ATOM     42  H6  UNL     1      42.870  42.286  21.523  1.00  0.00     0.210 HD
ENDBRANCH  38  41
ENDBRANCH  15  16
ENDBRANCH  13  15
ENDBRANCH  12  13
ENDBRANCH  11  12
ENDBRANCH   4  11
TORSDOF 10
ENDMDL
MODEL 3
REMARK VINA RESULT: -10.070904765      1.857      3.371
REMARK  10 active torsions:
REMARK  status: ('A' for Active; 'I' for Inactive)
REMARK    1  A    between atoms: C4_4  and  C5_5 
REMARK    2  A    between atoms: C5_5  and  C6_6 
REMARK    3  A    between atoms: C6_6  and  C7_7 
REMARK    4  A    between atoms: C9_10  and  C10_11 
REMARK    5  A    between atoms: C10_11  and  C11_12 
REMARK    6  A    between atoms: C11_12  and  C12_13 
REMARK    7  A    between atoms: C12_13  and  O2_15 
REMARK    8  A    between atoms: O2_15  and  C13_16 
REMARK    9  A    between atoms: C21_26  and  O4_27 
REMARK   10  A    between atoms: C31_39  and  O6_40 
ROOT
HETATM    1  C7  UNL     1      37.354  45.145  17.456  1.00  0.00     0.019 C 
HETATM    2  C8  UNL     1      37.505  46.237  16.545  1.00  0.00     0.095 C 
HETATM    3  N1  UNL     1      37.639  47.134  15.811  1.00  0.00    -0.192 NA
HETATM    4  C9  UNL     1      38.339  44.884  18.288  1.00  0.00    -0.008 C 
ENDROOT
BRANCH   1   5
HETATM    5  C6  UNL     1      36.143  44.304  17.500  1.00  0.00     0.053 C 
BRANCH   5   6
HETATM    6  C5  UNL     1      35.527  44.418  18.879  1.00  0.00     0.032 C 
BRANCH   6   7
HETATM    7  C4  UNL     1      35.606  43.137  19.602  1.00  0.00    -0.024 C 
HETATM    8  C2  UNL     1      36.355  43.025  20.675  1.00  0.00    -0.091 C 
HETATM    9  C1  UNL     1      37.144  44.157  21.204  1.00  0.00     0.042 C 
HETATM   10  C3  UNL     1      36.420  41.710  21.397  1.00  0.00     0.042 C 
ENDBRANCH   6   7
ENDBRANCH   5   6
ENDBRANCH   1   5
BRANCH   4  11
HETATM   11  C10 UNL     1      39.612  45.672  18.331  1.00  0.00     0.038 C 
BRANCH  11  12
HETATM   12  C11 UNL     1      40.673  44.737  18.810  1.00  0.00     0.115 C 
BRANCH  12  13
HETATM   13  C12 UNL     1      41.212  45.101  20.126  1.00  0.00     0.259 C 
HETATM   14  O1  UNL     1      41.739  46.241  20.268  1.00  0.00    -0.265 OA
BRANCH  13  15
HETATM   15  O2  UNL     1      41.184  44.276  21.235  1.00  0.00    -0.315 OA
BRANCH  15  16
HETATM   16  C13 UNL     1      40.872  44.809  22.538  1.00  0.00     0.142 C 
HETATM   17  C14 UNL     1      39.643  44.139  23.029  1.00  0.00     0.060 C 
HETATM   18  C15 UNL     1      39.795  43.240  24.175  1.00  0.00    -0.019 C 
HETATM   19  C16 UNL     1      38.957  43.169  25.174  1.00  0.00    -0.047 C 
HETATM   20  C17 UNL     1      39.280  42.175  26.272  1.00  0.00     0.046 C 
HETATM   21  C18 UNL     1      37.723  43.984  25.329  1.00  0.00     0.268 C 
HETATM   22  F1  UNL     1      36.878  43.920  24.245  1.00  0.00    -0.236 F 
HETATM   23  C19 UNL     1      38.058  45.375  25.744  1.00  0.00     0.167 C 
HETATM   24  O3  UNL     1      37.289  46.259  25.484  1.00  0.00    -0.294 OA
HETATM   25  C20 UNL     1      39.341  45.650  26.477  1.00  0.00     0.114 C 
HETATM   26  C21 UNL     1      39.563  47.090  26.754  1.00  0.00     0.140 C 
HETATM   27  C22 UNL     1      40.406  47.825  25.766  1.00  0.00     0.039 C 
HETATM   28  C23 UNL     1      40.807  49.160  26.420  1.00  0.00     0.025 C 
HETATM   29  C24 UNL     1      39.641  48.222  24.523  1.00  0.00     0.025 C 
HETATM   30  C25 UNL     1      41.667  47.106  25.475  1.00  0.00     0.137 C 
HETATM   31  O5  UNL     1      42.211  46.524  26.379  1.00  0.00    -0.297 OA
HETATM   32  C26 UNL     1      42.207  47.118  24.132  1.00  0.00     0.084 C 
HETATM   33  C27 UNL     1      42.872  45.942  23.593  1.00  0.00     0.005 C 
HETATM   34  C28 UNL     1      44.043  45.395  24.377  1.00  0.00    -0.011 C 
HETATM   35  C32 UNL     1      42.091  44.689  23.374  1.00  0.00     0.049 C 
HETATM   36  C29 UNL     1      45.179  46.362  24.502  1.00  0.00     0.010 C 
HETATM   37  C30 UNL     1      44.423  44.193  23.493  1.00  0.00     0.037 C 
HETATM   38  C31 UNL     1      43.201  43.906  22.640  1.00  0.00     0.125 C 
BRANCH  26  39
HETATM   39  O4  UNL     1      38.363  47.792  26.953  1.00  0.00    -0.394 OA
ATOM     40  H4  UNL     1      37.597  47.274  26.735  1.00  0.00     0.210 HD
ENDBRANCH  26  39
BRANCH  38  41
HETATM   41  O6  UNL     1      42.928  42.592  22.452  1.00  0.00    -0.395 OA
ATOM     42  H6  UNL     1      42.018  42.392  22.267  1.00  0.00     0.210 HD
ENDBRANCH  38  41
ENDBRANCH  15  16
ENDBRANCH  13  15
ENDBRANCH  12  13
ENDBRANCH  11  12
ENDBRANCH   4  11
TORSDOF 10
ENDMDL
MODEL 4
REMARK VINA RESULT: -10.053594939      1.929      2.800
REMARK  10 active torsions:
REMARK  status: ('A' for Active; 'I' for Inactive)
REMARK    1  A    between atoms: C4_4  and  C5_5 
REMARK    2  A    between atoms: C5_5  and  C6_6 
REMARK    3  A    between atoms: C6_6  and  C7_7 
REMARK    4  A    between atoms: C9_10  and  C10_11 
REMARK    5  A    between atoms: C10_11  and  C11_12 
REMARK    6  A    between atoms: C11_12  and  C12_13 
REMARK    7  A    between atoms: C12_13  and  O2_15 
REMARK    8  A    between atoms: O2_15  and  C13_16 
REMARK    9  A    between atoms: C21_26  and  O4_27 
REMARK   10  A    between atoms: C31_39  and  O6_40 
ROOT
HETATM    1  C7  UNL     1      37.904  46.102  16.788  1.00  0.00     0.019 C 
HETATM    2  C8  UNL     1      38.488  47.271  16.207  1.00  0.00     0.095 C 
HETATM    3  N1  UNL     1      38.972  48.227  15.745  1.00  0.00    -0.192 NA
HETATM    4  C9  UNL     1      38.549  45.499  17.763  1.00  0.00    -0.008 C 
ENDROOT
BRANCH   1   5
HETATM    5  C6  UNL     1      36.611  45.549  16.341  1.00  0.00     0.053 C 
BRANCH   5   6
HETATM    6  C5  UNL     1      36.438  44.174  16.954  1.00  0.00     0.032 C 
BRANCH   6   7
HETATM    7  C4  UNL     1      35.085  44.010  17.513  1.00  0.00    -0.024 C 
HETATM    8  C2  UNL     1      34.913  43.884  18.809  1.00  0.00    -0.091 C 
HETATM    9  C1  UNL     1      36.047  43.899  19.757  1.00  0.00     0.042 C 
HETATM   10  C3  UNL     1      33.525  43.720  19.358  1.00  0.00     0.042 C 
ENDBRANCH   6   7
ENDBRANCH   5   6
ENDBRANCH   1   5
BRANCH   4  11
HETATM   11  C10 UNL     1      39.866  45.974  18.296  1.00  0.00     0.038 C 
BRANCH  11  12
HETATM   12  C11 UNL     1      40.531  44.783  18.903  1.00  0.00     0.115 C 
BRANCH  12  13
HETATM   13  C12 UNL     1      41.256  45.096  20.142  1.00  0.00     0.259 C 
HETATM   14  O1  UNL     1      41.908  46.176  20.203  1.00  0.00    -0.265 OA
BRANCH  13  15
HETATM   15  O2  UNL     1      41.276  44.282  21.259  1.00  0.00    -0.315 OA
BRANCH  15  16
HETATM   16  C13 UNL     1      40.912  44.804  22.552  1.00  0.00     0.142 C 
HETATM   17  C14 UNL     1      39.647  44.155  22.974  1.00  0.00     0.060 C 
HETATM   18  C15 UNL     1      39.724  43.237  24.113  1.00  0.00    -0.019 C 
HETATM   19  C16 UNL     1      38.837  43.171  25.070  1.00  0.00    -0.047 C 
HETATM   20  C17 UNL     1      39.085  42.156  26.168  1.00  0.00     0.046 C 
HETATM   21  C18 UNL     1      37.615  44.010  25.176  1.00  0.00     0.268 C 
HETATM   22  F1  UNL     1      36.822  43.980  24.052  1.00  0.00    -0.236 F 
HETATM   23  C19 UNL     1      37.959  45.388  25.627  1.00  0.00     0.167 C 
HETATM   24  O3  UNL     1      37.222  46.292  25.343  1.00  0.00    -0.294 OA
HETATM   25  C20 UNL     1      39.210  45.626  26.425  1.00  0.00     0.114 C 
HETATM   26  C21 UNL     1      39.448  47.057  26.733  1.00  0.00     0.140 C 
HETATM   27  C22 UNL     1      40.353  47.787  25.798  1.00  0.00     0.039 C 
HETATM   28  C23 UNL     1      40.750  49.104  26.489  1.00  0.00     0.025 C 
HETATM   29  C24 UNL     1      39.658  48.216  24.525  1.00  0.00     0.025 C 
HETATM   30  C25 UNL     1      41.611  47.044  25.558  1.00  0.00     0.137 C 
HETATM   31  O5  UNL     1      42.099  46.438  26.478  1.00  0.00    -0.297 OA
HETATM   32  C26 UNL     1      42.216  47.063  24.243  1.00  0.00     0.084 C 
HETATM   33  C27 UNL     1      42.882  45.880  23.719  1.00  0.00     0.005 C 
HETATM   34  C28 UNL     1      44.001  45.297  24.551  1.00  0.00    -0.011 C 
HETATM   35  C32 UNL     1      42.086  44.647  23.445  1.00  0.00     0.049 C 
HETATM   36  C29 UNL     1      45.150  46.237  24.745  1.00  0.00     0.010 C 
HETATM   37  C30 UNL     1      44.399  44.099  23.669  1.00  0.00     0.037 C 
HETATM   38  C31 UNL     1      43.213  43.850  22.754  1.00  0.00     0.125 C 
BRANCH  26  39
HETATM   39  O4  UNL     1      38.255  47.782  26.884  1.00  0.00    -0.394 OA
ATOM     40  H4  UNL     1      38.332  48.484  27.520  1.00  0.00     0.210 HD
ENDBRANCH  26  39
BRANCH  38  41
HETATM   41  O6  UNL     1      42.923  42.544  22.534  1.00  0.00    -0.395 OA
ATOM     42  H6  UNL     1      43.383  42.147  21.805  1.00  0.00     0.210 HD
ENDBRANCH  38  41
ENDBRANCH  15  16
ENDBRANCH  13  15
ENDBRANCH  12  13
ENDBRANCH  11  12
ENDBRANCH   4  11
TORSDOF 10
ENDMDL
MODEL 5
REMARK VINA RESULT: -10.043015372      1.192      1.538
REMARK  10 active torsions:
REMARK  status: ('A' for Active; 'I' for Inactive)
REMARK    1  A    between atoms: C4_4  and  C5_5 
REMARK    2  A    between atoms: C5_5  and  C6_6 
REMARK    3  A    between atoms: C6_6  and  C7_7 
REMARK    4  A    between atoms: C9_10  and  C10_11 
REMARK    5  A    between atoms: C10_11  and  C11_12 
REMARK    6  A    between atoms: C11_12  and  C12_13 
REMARK    7  A    between atoms: C12_13  and  O2_15 
REMARK    8  A    between atoms: O2_15  and  C13_16 
REMARK    9  A    between atoms: C21_26  and  O4_27 
REMARK   10  A    between atoms: C31_39  and  O6_40 
ROOT
HETATM    1  C7  UNL     1      39.458  47.254  16.278  1.00  0.00     0.019 C 
HETATM    2  C8  UNL     1      40.486  48.238  16.132  1.00  0.00     0.095 C 
HETATM    3  N1  UNL     1      41.328  49.040  16.028  1.00  0.00    -0.192 NA
HETATM    4  C9  UNL     1      39.501  46.455  17.321  1.00  0.00    -0.008 C 
ENDROOT
BRANCH   1   5
HETATM    5  C6  UNL     1      38.356  47.102  15.308  1.00  0.00     0.053 C 
BRANCH   5   6
HETATM    6  C5  UNL     1      37.966  45.639  15.248  1.00  0.00     0.032 C 
BRANCH   6   7
HETATM    7  C4  UNL     1      36.503  45.485  15.166  1.00  0.00    -0.024 C 
HETATM    8  C2  UNL     1      35.838  44.927  16.153  1.00  0.00    -0.091 C 
HETATM    9  C1  UNL     1      36.510  44.435  17.374  1.00  0.00     0.042 C 
HETATM   10  C3  UNL     1      34.347  44.780  16.048  1.00  0.00     0.042 C 
ENDBRANCH   6   7
ENDBRANCH   5   6
ENDBRANCH   1   5
BRANCH   4  11
HETATM   11  C10 UNL     1      40.571  46.521  18.367  1.00  0.00     0.038 C 
BRANCH  11  12
HETATM   12  C11 UNL     1      40.716  45.140  18.913  1.00  0.00     0.115 C 
BRANCH  12  13
HETATM   13  C12 UNL     1      39.915  44.910  20.122  1.00  0.00     0.259 C 
HETATM   14  O1  UNL     1      38.752  45.400  20.177  1.00  0.00    -0.265 OA
BRANCH  13  15
HETATM   15  O2  UNL     1      40.348  44.187  21.218  1.00  0.00    -0.315 OA
BRANCH  15  16
HETATM   16  C13 UNL     1      40.278  44.752  22.543  1.00  0.00     0.142 C 
HETATM   17  C14 UNL     1      39.205  44.051  23.288  1.00  0.00     0.060 C 
HETATM   18  C15 UNL     1      39.623  43.198  24.403  1.00  0.00    -0.019 C 
HETATM   19  C16 UNL     1      39.007  43.129  25.552  1.00  0.00    -0.047 C 
HETATM   20  C17 UNL     1      39.588  42.188  26.588  1.00  0.00     0.046 C 
HETATM   21  C18 UNL     1      37.793  43.898  25.931  1.00  0.00     0.268 C 
HETATM   22  F1  UNL     1      36.751  43.764  25.041  1.00  0.00    -0.236 F 
HETATM   23  C19 UNL     1      38.139  45.315  26.234  1.00  0.00     0.167 C 
HETATM   24  O3  UNL     1      37.293  46.158  26.111  1.00  0.00    -0.294 OA
HETATM   25  C20 UNL     1      39.528  45.667  26.686  1.00  0.00     0.114 C 
HETATM   26  C21 UNL     1      39.734  47.124  26.876  1.00  0.00     0.140 C 
HETATM   27  C22 UNL     1      40.328  47.857  25.720  1.00  0.00     0.039 C 
HETATM   28  C23 UNL     1      40.789  49.229  26.245  1.00  0.00     0.025 C 
HETATM   29  C24 UNL     1      39.312  48.179  24.646  1.00  0.00     0.025 C 
HETATM   30  C25 UNL     1      41.537  47.179  25.200  1.00  0.00     0.137 C 
HETATM   31  O5  UNL     1      42.277  46.651  25.990  1.00  0.00    -0.297 OA
HETATM   32  C26 UNL     1      41.796  47.167  23.776  1.00  0.00     0.084 C 
HETATM   33  C27 UNL     1      42.394  46.001  23.144  1.00  0.00     0.005 C 
HETATM   34  C28 UNL     1      43.722  45.529  23.691  1.00  0.00    -0.011 C 
HETATM   35  C32 UNL     1      41.644  44.710  23.119  1.00  0.00     0.049 C 
HETATM   36  C29 UNL     1      44.814  46.544  23.559  1.00  0.00     0.010 C 
HETATM   37  C30 UNL     1      43.973  44.313  22.780  1.00  0.00     0.037 C 
HETATM   38  C31 UNL     1      42.619  43.948  22.198  1.00  0.00     0.125 C 
BRANCH  26  39
HETATM   39  O4  UNL     1      38.567  47.783  27.294  1.00  0.00    -0.394 OA
ATOM     40  H4  UNL     1      37.818  47.201  27.346  1.00  0.00     0.210 HD
ENDBRANCH  26  39
BRANCH  38  41
HETATM   41  O6  UNL     1      42.376  42.617  22.103  1.00  0.00    -0.395 OA
ATOM     42  H6  UNL     1      43.149  42.073  22.010  1.00  0.00     0.210 HD
ENDBRANCH  38  41
ENDBRANCH  15  16
ENDBRANCH  13  15
ENDBRANCH  12  13
ENDBRANCH  11  12
ENDBRANCH   4  11
TORSDOF 10
ENDMDL
