MODEL 1
REMARK VINA RESULT: -10.897237109      0.000      0.000
REMARK  8 active torsions:
REMARK  status: ('A' for Active; 'I' for Inactive)
REMARK    1  A    between atoms: C3_5  and  N2_6 
REMARK    2  A    between atoms: C6_9  and  C7_10 
REMARK    3  A    between atoms: C7_10  and  C8_11 
REMARK    4  A    between atoms: C7_10  and  C11_17 
REMARK    5  A    between atoms: C11_17  and  N4_18 
REMARK       I    between atoms: N4_18  and  C12_20 
REMARK    6  A    between atoms: C12_20  and  O2_22 
REMARK    7  A    between atoms: O2_22  and  C13_23 
REMARK    8  A    between atoms: C29_41  and  N5_42 
ROOT
HETATM    1  C7  UNL     1      31.506  43.598  17.188  1.00  0.00     0.007 C 
ENDROOT
BRANCH   1   2
HETATM    2  C6  UNL     1      32.969  43.292  17.326  1.00  0.00     0.034 C 
HETATM    3  C5  UNL     1      33.479  44.172  18.475  1.00  0.00     0.030 C 
HETATM    4  C4  UNL     1      34.439  45.228  18.101  1.00  0.00     0.134 C 
HETATM    5  N2  UNL     1      35.533  44.732  17.274  1.00  0.00    -0.301 N 
HETATM    6  C27 UNL     1      35.238  43.557  16.545  1.00  0.00     0.226 C 
HETATM    7  C26 UNL     1      33.826  43.321  16.148  1.00  0.00     0.113 C 
HETATM    8  O3  UNL     1      36.199  42.786  16.281  1.00  0.00    -0.273 OA
BRANCH   5   9
HETATM    9  C3  UNL     1      36.780  45.402  17.233  1.00  0.00     0.154 A 
HETATM   10  N1  UNL     1      37.764  45.087  18.101  1.00  0.00    -0.330 N 
HETATM   11  C2  UNL     1      38.957  45.692  18.097  1.00  0.00     0.080 A 
ATOM     12  H1  UNL     1      37.590  44.356  18.790  1.00  0.00     0.168 HD
HETATM   13  C1  UNL     1      40.027  45.330  19.067  1.00  0.00     0.089 C 
HETATM   14  N6  UNL     1      39.235  46.662  17.210  1.00  0.00    -0.330 N 
HETATM   15  C29 UNL     1      38.293  47.007  16.331  1.00  0.00     0.143 A 
ATOM     16  H6  UNL     1      40.144  47.123  17.208  1.00  0.00     0.168 HD
HETATM   17  C28 UNL     1      37.042  46.390  16.316  1.00  0.00     0.203 A 
HETATM   18  F1  UNL     1      36.131  46.791  15.395  1.00  0.00    -0.198 F 
BRANCH  15  19
HETATM   19  N5  UNL     1      38.505  47.938  15.448  1.00  0.00    -0.383 N 
ATOM     20  H52 UNL     1      39.410  48.030  14.985  1.00  0.00     0.157 HD
ATOM     21  H51 UNL     1      37.730  48.568  15.241  1.00  0.00     0.157 HD
ENDBRANCH  15  19
ENDBRANCH   5   9
ENDBRANCH   1   2
BRANCH   1  22
HETATM   22  C8  UNL     1      31.237  44.562  16.069  1.00  0.00     0.082 A 
HETATM   23  N3  UNL     1      31.008  45.853  16.147  1.00  0.00    -0.359 N 
HETATM   24  C9  UNL     1      30.791  46.580  15.105  1.00  0.00     0.096 A 
ATOM     25  H3  UNL     1      31.002  46.296  17.065  1.00  0.00     0.166 HD
HETATM   26  C10 UNL     1      30.809  45.946  13.882  1.00  0.00     0.069 A 
HETATM   27  S1  UNL     1      31.141  44.346  14.376  1.00  0.00    -0.082 SA
ENDBRANCH   1  22
BRANCH   1  28
HETATM   28  C11 UNL     1      30.494  42.630  17.546  1.00  0.00     0.048 C 
HETATM   29  C20 UNL     1      29.111  42.520  17.137  1.00  0.00    -0.052 C 
HETATM   30  C21 UNL     1      28.161  43.642  17.449  1.00  0.00     0.036 C 
HETATM   31  C25 UNL     1      28.766  41.865  15.818  1.00  0.00     0.036 C 
HETATM   32  C22 UNL     1      27.602  44.200  16.129  1.00  0.00     0.004 C 
HETATM   33  C23 UNL     1      26.706  43.132  15.532  1.00  0.00     0.001 C 
HETATM   34  C24 UNL     1      27.221  41.741  15.861  1.00  0.00     0.004 C 
BRANCH  28  35
HETATM   35  N4  UNL     1      31.100  41.282  17.535  1.00  0.00    -0.302 N 
HETATM   36  C12 UNL     1      31.722  40.684  18.650  1.00  0.00     0.365 C 
HETATM   37  O1  UNL     1      31.823  41.242  19.774  1.00  0.00    -0.238 OA
ATOM     38  H4  UNL     1      31.067  40.750  16.665  1.00  0.00     0.171 HD
BRANCH  36  39
HETATM   39  O2  UNL     1      32.254  39.412  18.516  1.00  0.00    -0.298 OA
BRANCH  39  40
HETATM   40  C13 UNL     1      31.713  38.270  19.151  1.00  0.00     0.133 C 
HETATM   41  C14 UNL     1      31.550  38.601  20.598  1.00  0.00     0.032 C 
HETATM   42  C15 UNL     1      30.920  37.465  21.383  1.00  0.00     0.002 C 
HETATM   43  C16 UNL     1      29.546  37.134  20.900  1.00  0.00     0.000 C 
HETATM   44  C17 UNL     1      28.844  38.359  20.372  1.00  0.00     0.000 C 
HETATM   45  C18 UNL     1      29.233  38.709  18.972  1.00  0.00     0.002 C 
HETATM   46  C19 UNL     1      30.413  37.970  18.447  1.00  0.00     0.032 C 
ENDBRANCH  39  40
ENDBRANCH  36  39
ENDBRANCH  28  35
ENDBRANCH   1  28
TORSDOF 8
ENDMDL
MODEL 2
REMARK VINA RESULT: -10.884067184      3.060      8.813
REMARK  8 active torsions:
REMARK  status: ('A' for Active; 'I' for Inactive)
REMARK    1  A    between atoms: C3_5  and  N2_6 
REMARK    2  A    between atoms: C6_9  and  C7_10 
REMARK    3  A    between atoms: C7_10  and  C8_11 
REMARK    4  A    between atoms: C7_10  and  C11_17 
REMARK    5  A    between atoms: C11_17  and  N4_18 
REMARK       I    between atoms: N4_18  and  C12_20 
REMARK    6  A    between atoms: C12_20  and  O2_22 
REMARK    7  A    between atoms: O2_22  and  C13_23 
REMARK    8  A    between atoms: C29_41  and  N5_42 
ROOT
HETATM    1  C7  UNL     1      37.552  45.344  16.238  1.00  0.00     0.007 C 
ENDROOT
BRANCH   1   2
HETATM    2  C6  UNL     1      36.386  45.005  17.121  1.00  0.00     0.034 C 
HETATM    3  C5  UNL     1      36.029  43.546  16.809  1.00  0.00     0.030 C 
HETATM    4  C4  UNL     1      34.720  43.327  16.166  1.00  0.00     0.134 C 
HETATM    5  N2  UNL     1      33.631  44.016  16.846  1.00  0.00    -0.301 N 
HETATM    6  C27 UNL     1      34.025  45.142  17.604  1.00  0.00     0.226 C 
HETATM    7  C26 UNL     1      35.230  45.890  17.162  1.00  0.00     0.113 C 
HETATM    8  O3  UNL     1      33.323  45.436  18.608  1.00  0.00    -0.273 OA
BRANCH   5   9
HETATM    9  C3  UNL     1      32.294  43.559  16.737  1.00  0.00     0.154 A 
HETATM   10  N1  UNL     1      31.933  42.352  17.220  1.00  0.00    -0.330 N 
HETATM   11  C2  UNL     1      30.683  41.882  17.140  1.00  0.00     0.080 A 
ATOM     12  H1  UNL     1      32.644  41.773  17.666  1.00  0.00     0.168 HD
HETATM   13  C1  UNL     1      30.309  40.546  17.677  1.00  0.00     0.089 C 
HETATM   14  N6  UNL     1      29.711  42.606  16.560  1.00  0.00    -0.330 N 
HETATM   15  C29 UNL     1      30.021  43.806  16.068  1.00  0.00     0.143 A 
ATOM     16  H6  UNL     1      28.758  42.247  16.499  1.00  0.00     0.168 HD
HETATM   17  C28 UNL     1      31.317  44.317  16.142  1.00  0.00     0.203 A 
HETATM   18  F1  UNL     1      31.561  45.545  15.621  1.00  0.00    -0.198 F 
BRANCH  15  19
HETATM   19  N5  UNL     1      29.121  44.552  15.498  1.00  0.00    -0.383 N 
ATOM     20  H52 UNL     1      29.339  45.097  14.663  1.00  0.00     0.157 HD
ATOM     21  H51 UNL     1      28.193  44.567  15.920  1.00  0.00     0.157 HD
ENDBRANCH  15  19
ENDBRANCH   5   9
ENDBRANCH   1   2
BRANCH   1  22
HETATM   22  C8  UNL     1      37.114  45.982  14.952  1.00  0.00     0.082 A 
HETATM   23  N3  UNL     1      36.777  47.233  14.739  1.00  0.00    -0.359 N 
HETATM   24  C9  UNL     1      36.417  47.665  13.579  1.00  0.00     0.096 A 
ATOM     25  H3  UNL     1      36.802  47.889  15.520  1.00  0.00     0.166 HD
HETATM   26  C10 UNL     1      36.399  46.752  12.548  1.00  0.00     0.069 A 
HETATM   27  S1  UNL     1      36.909  45.349  13.377  1.00  0.00    -0.082 SA
ENDBRANCH   1  22
BRANCH   1  28
HETATM   28  C11 UNL     1      38.846  45.677  16.788  1.00  0.00     0.048 C 
HETATM   29  C20 UNL     1      39.819  46.665  16.374  1.00  0.00    -0.052 C 
HETATM   30  C21 UNL     1      40.415  46.576  14.997  1.00  0.00     0.036 C 
HETATM   31  C25 UNL     1      39.659  48.105  16.806  1.00  0.00     0.036 C 
HETATM   32  C22 UNL     1      40.069  47.859  14.223  1.00  0.00     0.004 C 
HETATM   33  C23 UNL     1      40.835  48.997  14.869  1.00  0.00     0.001 C 
HETATM   34  C24 UNL     1      40.987  48.773  16.364  1.00  0.00     0.004 C 
BRANCH  28  35
HETATM   35  N4  UNL     1      38.745  45.701  18.262  1.00  0.00    -0.302 N 
HETATM   36  C12 UNL     1      39.701  45.137  19.132  1.00  0.00     0.365 C 
HETATM   37  O1  UNL     1      40.744  44.554  18.735  1.00  0.00    -0.238 OA
ATOM     38  H4  UNL     1      37.931  46.154  18.677  1.00  0.00     0.171 HD
BRANCH  36  39
HETATM   39  O2  UNL     1      39.495  45.224  20.498  1.00  0.00    -0.298 OA
BRANCH  39  40
HETATM   40  C13 UNL     1      38.271  44.888  21.124  1.00  0.00     0.133 C 
HETATM   41  C14 UNL     1      37.784  43.622  20.499  1.00  0.00     0.032 C 
HETATM   42  C15 UNL     1      36.497  43.125  21.130  1.00  0.00     0.002 C 
HETATM   43  C16 UNL     1      36.660  42.808  22.580  1.00  0.00     0.000 C 
HETATM   44  C17 UNL     1      38.054  42.317  22.877  1.00  0.00     0.000 C 
HETATM   45  C18 UNL     1      39.052  43.420  23.024  1.00  0.00     0.002 C 
HETATM   46  C19 UNL     1      38.570  44.762  22.597  1.00  0.00     0.032 C 
ENDBRANCH  39  40
ENDBRANCH  36  39
ENDBRANCH  28  35
ENDBRANCH   1  28
TORSDOF 8
ENDMDL
MODEL 3
REMARK VINA RESULT: -10.713731741      2.979      9.556
REMARK  8 active torsions:
REMARK  status: ('A' for Active; 'I' for Inactive)
REMARK    1  A    between atoms: C3_5  and  N2_6 
REMARK    2  A    between atoms: C6_9  and  C7_10 
REMARK    3  A    between atoms: C7_10  and  C8_11 
REMARK    4  A    between atoms: C7_10  and  C11_17 
REMARK    5  A    between atoms: C11_17  and  N4_18 
REMARK       I    between atoms: N4_18  and  C12_20 
REMARK    6  A    between atoms: C12_20  and  O2_22 
REMARK    7  A    between atoms: O2_22  and  C13_23 
REMARK    8  A    between atoms: C29_41  and  N5_42 
ROOT
HETATM    1  C7  UNL     1      37.386  45.061  16.278  1.00  0.00     0.007 C 
ENDROOT
BRANCH   1   2
HETATM    2  C6  UNL     1      36.209  44.738  17.151  1.00  0.00     0.034 C 
HETATM    3  C5  UNL     1      35.806  43.299  16.802  1.00  0.00     0.030 C 
HETATM    4  C4  UNL     1      34.491  43.139  16.152  1.00  0.00     0.134 C 
HETATM    5  N2  UNL     1      33.424  43.845  16.849  1.00  0.00    -0.301 N 
HETATM    6  C27 UNL     1      33.853  44.940  17.634  1.00  0.00     0.226 C 
HETATM    7  C26 UNL     1      35.082  45.659  17.212  1.00  0.00     0.113 C 
HETATM    8  O3  UNL     1      33.159  45.231  18.645  1.00  0.00    -0.273 OA
BRANCH   5   9
HETATM    9  C3  UNL     1      32.073  43.435  16.726  1.00  0.00     0.154 A 
HETATM   10  N1  UNL     1      31.671  42.232  17.184  1.00  0.00    -0.330 N 
HETATM   11  C2  UNL     1      30.407  41.804  17.092  1.00  0.00     0.080 A 
ATOM     12  H1  UNL     1      32.361  41.621  17.621  1.00  0.00     0.168 HD
HETATM   13  C1  UNL     1      29.987  40.470  17.601  1.00  0.00     0.089 C 
HETATM   14  N6  UNL     1      29.461  42.572  16.525  1.00  0.00    -0.330 N 
HETATM   15  C29 UNL     1      29.811  43.770  16.058  1.00  0.00     0.143 A 
ATOM     16  H6  UNL     1      28.497  42.245  16.453  1.00  0.00     0.168 HD
HETATM   17  C28 UNL     1      31.123  44.236  16.145  1.00  0.00     0.203 A 
HETATM   18  F1  UNL     1      31.409  45.466  15.649  1.00  0.00    -0.198 F 
BRANCH  15  19
HETATM   19  N5  UNL     1      28.938  44.557  15.500  1.00  0.00    -0.383 N 
ATOM     20  H52 UNL     1      29.211  45.465  15.123  1.00  0.00     0.157 HD
ATOM     21  H51 UNL     1      27.974  44.226  15.457  1.00  0.00     0.157 HD
ENDBRANCH  15  19
ENDBRANCH   5   9
ENDBRANCH   1   2
BRANCH   1  22
HETATM   22  C8  UNL     1      36.968  45.705  14.988  1.00  0.00     0.082 A 
HETATM   23  N3  UNL     1      36.512  46.922  14.798  1.00  0.00    -0.359 N 
HETATM   24  C9  UNL     1      36.185  47.364  13.632  1.00  0.00     0.096 A 
ATOM     25  H3  UNL     1      36.413  47.541  15.603  1.00  0.00     0.166 HD
HETATM   26  C10 UNL     1      36.335  46.500  12.569  1.00  0.00     0.069 A 
HETATM   27  S1  UNL     1      36.938  45.124  13.380  1.00  0.00    -0.082 SA
ENDBRANCH   1  22
BRANCH   1  28
HETATM   28  C11 UNL     1      38.681  45.376  16.838  1.00  0.00     0.048 C 
HETATM   29  C20 UNL     1      39.654  46.375  16.455  1.00  0.00    -0.052 C 
HETATM   30  C21 UNL     1      40.252  46.327  15.077  1.00  0.00     0.036 C 
HETATM   31  C25 UNL     1      39.495  47.802  16.931  1.00  0.00     0.036 C 
HETATM   32  C22 UNL     1      39.908  47.633  14.341  1.00  0.00     0.004 C 
HETATM   33  C23 UNL     1      40.675  48.750  15.022  1.00  0.00     0.001 C 
HETATM   34  C24 UNL     1      40.825  48.481  16.510  1.00  0.00     0.004 C 
BRANCH  28  35
HETATM   35  N4  UNL     1      38.578  45.356  18.313  1.00  0.00    -0.302 N 
HETATM   36  C12 UNL     1      39.544  44.785  19.166  1.00  0.00     0.365 C 
HETATM   37  O1  UNL     1      40.599  44.233  18.754  1.00  0.00    -0.238 OA
ATOM     38  H4  UNL     1      37.756  45.781  18.740  1.00  0.00     0.171 HD
BRANCH  36  39
HETATM   39  O2  UNL     1      39.336  44.828  20.534  1.00  0.00    -0.298 OA
BRANCH  39  40
HETATM   40  C13 UNL     1      40.380  44.745  21.485  1.00  0.00     0.133 C 
HETATM   41  C14 UNL     1      41.268  45.927  21.274  1.00  0.00     0.032 C 
HETATM   42  C15 UNL     1      42.404  45.981  22.279  1.00  0.00     0.002 C 
HETATM   43  C16 UNL     1      41.915  46.104  23.685  1.00  0.00     0.000 C 
HETATM   44  C17 UNL     1      40.624  46.879  23.746  1.00  0.00     0.000 C 
HETATM   45  C18 UNL     1      39.421  46.055  23.418  1.00  0.00     0.002 C 
HETATM   46  C19 UNL     1      39.718  44.716  22.840  1.00  0.00     0.032 C 
ENDBRANCH  39  40
ENDBRANCH  36  39
ENDBRANCH  28  35
ENDBRANCH   1  28
TORSDOF 8
ENDMDL
MODEL 4
REMARK VINA RESULT: -10.703064103      3.202      9.454
REMARK  8 active torsions:
REMARK  status: ('A' for Active; 'I' for Inactive)
REMARK    1  A    between atoms: C3_5  and  N2_6 
REMARK    2  A    between atoms: C6_9  and  C7_10 
REMARK    3  A    between atoms: C7_10  and  C8_11 
REMARK    4  A    between atoms: C7_10  and  C11_17 
REMARK    5  A    between atoms: C11_17  and  N4_18 
REMARK       I    between atoms: N4_18  and  C12_20 
REMARK    6  A    between atoms: C12_20  and  O2_22 
REMARK    7  A    between atoms: O2_22  and  C13_23 
REMARK    8  A    between atoms: C29_41  and  N5_42 
ROOT
HETATM    1  C7  UNL     1      36.168  45.192  17.831  1.00  0.00     0.007 C 
ENDROOT
BRANCH   1   2
HETATM    2  C6  UNL     1      34.817  45.294  17.184  1.00  0.00     0.034 C 
HETATM    3  C5  UNL     1      33.804  45.387  18.332  1.00  0.00     0.030 C 
HETATM    4  C4  UNL     1      32.885  44.241  18.474  1.00  0.00     0.134 C 
HETATM    5  N2  UNL     1      32.247  43.867  17.218  1.00  0.00    -0.301 N 
HETATM    6  C27 UNL     1      32.960  44.243  16.057  1.00  0.00     0.226 C 
HETATM    7  C26 UNL     1      34.439  44.340  16.150  1.00  0.00     0.113 C 
HETATM    8  O3  UNL     1      32.287  44.471  15.016  1.00  0.00    -0.273 OA
BRANCH   5   9
HETATM    9  C3  UNL     1      31.006  43.183  17.204  1.00  0.00     0.154 A 
HETATM   10  N1  UNL     1      29.866  43.826  16.877  1.00  0.00    -0.330 N 
HETATM   11  C2  UNL     1      28.673  43.221  16.848  1.00  0.00     0.080 A 
ATOM     12  H1  UNL     1      29.915  44.817  16.641  1.00  0.00     0.168 HD
HETATM   13  C1  UNL     1      27.427  43.951  16.488  1.00  0.00     0.089 C 
HETATM   14  N6  UNL     1      28.555  41.917  17.151  1.00  0.00    -0.330 N 
HETATM   15  C29 UNL     1      29.656  41.240  17.480  1.00  0.00     0.143 A 
ATOM     16  H6  UNL     1      27.646  41.456  17.130  1.00  0.00     0.168 HD
HETATM   17  C28 UNL     1      30.910  41.850  17.516  1.00  0.00     0.203 A 
HETATM   18  F1  UNL     1      31.987  41.101  17.858  1.00  0.00    -0.198 F 
BRANCH  15  19
HETATM   19  N5  UNL     1      29.603  39.976  17.781  1.00  0.00    -0.383 N 
ATOM     20  H52 UNL     1      29.069  39.647  18.586  1.00  0.00     0.157 HD
ATOM     21  H51 UNL     1      30.117  39.332  17.179  1.00  0.00     0.157 HD
ENDBRANCH  15  19
ENDBRANCH   5   9
ENDBRANCH   1   2
BRANCH   1  22
HETATM   22  C8  UNL     1      36.180  44.189  18.949  1.00  0.00     0.082 A 
HETATM   23  N3  UNL     1      36.562  44.364  20.193  1.00  0.00    -0.359 N 
HETATM   24  C9  UNL     1      36.524  43.418  21.067  1.00  0.00     0.096 A 
ATOM     25  H3  UNL     1      36.902  45.283  20.478  1.00  0.00     0.166 HD
HETATM   26  C10 UNL     1      36.057  42.193  20.646  1.00  0.00     0.069 A 
HETATM   27  S1  UNL     1      35.720  42.544  19.009  1.00  0.00    -0.082 SA
ENDBRANCH   1  22
BRANCH   1  28
HETATM   28  C11 UNL     1      37.384  45.438  17.090  1.00  0.00     0.048 C 
HETATM   29  C20 UNL     1      37.586  46.007  15.776  1.00  0.00    -0.052 C 
HETATM   30  C21 UNL     1      36.985  45.324  14.579  1.00  0.00     0.036 C 
HETATM   31  C25 UNL     1      37.594  47.509  15.599  1.00  0.00     0.036 C 
HETATM   32  C22 UNL     1      36.005  46.292  13.896  1.00  0.00     0.004 C 
HETATM   33  C23 UNL     1      36.828  47.413  13.289  1.00  0.00     0.001 C 
HETATM   34  C24 UNL     1      38.057  47.705  14.132  1.00  0.00     0.004 C 
BRANCH  28  35
HETATM   35  N4  UNL     1      38.396  46.000  18.010  1.00  0.00    -0.302 N 
HETATM   36  C12 UNL     1      39.554  45.313  18.429  1.00  0.00     0.365 C 
HETATM   37  O1  UNL     1      39.843  44.145  18.058  1.00  0.00    -0.238 OA
ATOM     38  H4  UNL     1      38.246  46.944  18.365  1.00  0.00     0.171 HD
BRANCH  36  39
HETATM   39  O2  UNL     1      40.429  45.947  19.295  1.00  0.00    -0.298 OA
BRANCH  39  40
HETATM   40  C13 UNL     1      41.104  45.281  20.345  1.00  0.00     0.133 C 
HETATM   41  C14 UNL     1      42.047  46.264  20.960  1.00  0.00     0.032 C 
HETATM   42  C15 UNL     1      42.796  45.681  22.144  1.00  0.00     0.002 C 
HETATM   43  C16 UNL     1      41.880  45.273  23.251  1.00  0.00     0.000 C 
HETATM   44  C17 UNL     1      40.662  46.159  23.305  1.00  0.00     0.000 C 
HETATM   45  C18 UNL     1      39.608  45.781  22.316  1.00  0.00     0.002 C 
HETATM   46  C19 UNL     1      40.037  44.791  21.291  1.00  0.00     0.032 C 
ENDBRANCH  39  40
ENDBRANCH  36  39
ENDBRANCH  28  35
ENDBRANCH   1  28
TORSDOF 8
ENDMDL
MODEL 5
REMARK VINA RESULT: -10.524621109      3.176      9.022
REMARK  8 active torsions:
REMARK  status: ('A' for Active; 'I' for Inactive)
REMARK    1  A    between atoms: C3_5  and  N2_6 
REMARK    2  A    between atoms: C6_9  and  C7_10 
REMARK    3  A    between atoms: C7_10  and  C8_11 
REMARK    4  A    between atoms: C7_10  and  C11_17 
REMARK    5  A    between atoms: C11_17  and  N4_18 
REMARK       I    between atoms: N4_18  and  C12_20 
REMARK    6  A    between atoms: C12_20  and  O2_22 
REMARK    7  A    between atoms: O2_22  and  C13_23 
REMARK    8  A    between atoms: C29_41  and  N5_42 
ROOT
HETATM    1  C7  UNL     1      37.630  45.477  16.340  1.00  0.00     0.007 C 
ENDROOT
BRANCH   1   2
HETATM    2  C6  UNL     1      36.484  45.200  17.269  1.00  0.00     0.034 C 
HETATM    3  C5  UNL     1      36.216  43.693  17.171  1.00  0.00     0.030 C 
HETATM    4  C4  UNL     1      34.924  43.306  16.573  1.00  0.00     0.134 C 
HETATM    5  N2  UNL     1      33.793  44.020  17.153  1.00  0.00    -0.301 N 
HETATM    6  C27 UNL     1      34.118  45.265  17.739  1.00  0.00     0.226 C 
HETATM    7  C26 UNL     1      35.277  46.012  17.188  1.00  0.00     0.113 C 
HETATM    8  O3  UNL     1      33.396  45.658  18.695  1.00  0.00    -0.273 OA
BRANCH   5   9
HETATM    9  C3  UNL     1      32.487  43.474  17.117  1.00  0.00     0.154 A 
HETATM   10  N1  UNL     1      31.458  44.174  16.596  1.00  0.00    -0.330 N 
HETATM   11  C2  UNL     1      30.209  43.698  16.540  1.00  0.00     0.080 A 
ATOM     12  H1  UNL     1      31.641  45.108  16.228  1.00  0.00     0.168 HD
HETATM   13  C1  UNL     1      29.089  44.491  15.962  1.00  0.00     0.089 C 
HETATM   14  N6  UNL     1      29.917  42.474  17.011  1.00  0.00    -0.330 N 
HETATM   15  C29 UNL     1      30.902  41.744  17.536  1.00  0.00     0.143 A 
ATOM     16  H6  UNL     1      28.965  42.111  16.969  1.00  0.00     0.168 HD
HETATM   17  C28 UNL     1      32.212  42.221  17.604  1.00  0.00     0.203 A 
HETATM   18  F1  UNL     1      33.164  41.425  18.150  1.00  0.00    -0.198 F 
BRANCH  15  19
HETATM   19  N5  UNL     1      30.680  40.553  18.006  1.00  0.00    -0.383 N 
ATOM     20  H52 UNL     1      29.777  40.306  18.413  1.00  0.00     0.157 HD
ATOM     21  H51 UNL     1      31.443  39.879  17.949  1.00  0.00     0.157 HD
ENDBRANCH  15  19
ENDBRANCH   5   9
ENDBRANCH   1   2
BRANCH   1  22
HETATM   22  C8  UNL     1      37.167  46.063  15.038  1.00  0.00     0.082 A 
HETATM   23  N3  UNL     1      36.869  47.314  14.769  1.00  0.00    -0.359 N 
HETATM   24  C9  UNL     1      36.482  47.697  13.602  1.00  0.00     0.096 A 
ATOM     25  H3  UNL     1      36.947  48.008  15.513  1.00  0.00     0.166 HD
HETATM   26  C10 UNL     1      36.391  46.732  12.623  1.00  0.00     0.069 A 
HETATM   27  S1  UNL     1      36.880  45.356  13.508  1.00  0.00    -0.082 SA
ENDBRANCH   1  22
BRANCH   1  28
HETATM   28  C11 UNL     1      38.945  45.813  16.838  1.00  0.00     0.048 C 
HETATM   29  C20 UNL     1      39.907  46.787  16.374  1.00  0.00    -0.052 C 
HETATM   30  C21 UNL     1      40.456  46.671  14.979  1.00  0.00     0.036 C 
HETATM   31  C25 UNL     1      39.770  48.236  16.786  1.00  0.00     0.036 C 
HETATM   32  C22 UNL     1      40.090  47.942  14.195  1.00  0.00     0.004 C 
HETATM   33  C23 UNL     1      40.884  49.086  14.794  1.00  0.00     0.001 C 
HETATM   34  C24 UNL     1      41.086  48.887  16.287  1.00  0.00     0.004 C 
BRANCH  28  35
HETATM   35  N4  UNL     1      38.895  45.862  18.315  1.00  0.00    -0.302 N 
HETATM   36  C12 UNL     1      39.876  45.305  19.160  1.00  0.00     0.365 C 
HETATM   37  O1  UNL     1      40.899  44.705  18.738  1.00  0.00    -0.238 OA
ATOM     38  H4  UNL     1      38.100  46.330  18.750  1.00  0.00     0.171 HD
BRANCH  36  39
HETATM   39  O2  UNL     1      39.717  45.417  20.531  1.00  0.00    -0.298 OA
BRANCH  39  40
HETATM   40  C13 UNL     1      38.514  45.102  21.205  1.00  0.00     0.133 C 
HETATM   41  C14 UNL     1      37.973  43.853  20.590  1.00  0.00     0.032 C 
HETATM   42  C15 UNL     1      36.703  43.378  21.270  1.00  0.00     0.002 C 
HETATM   43  C16 UNL     1      36.919  43.044  22.710  1.00  0.00     0.000 C 
HETATM   44  C17 UNL     1      38.312  42.521  22.944  1.00  0.00     0.000 C 
HETATM   45  C18 UNL     1      39.340  43.600  23.058  1.00  0.00     0.002 C 
HETATM   46  C19 UNL     1      38.871  44.956  22.663  1.00  0.00     0.032 C 
ENDBRANCH  39  40
ENDBRANCH  36  39
ENDBRANCH  28  35
ENDBRANCH   1  28
TORSDOF 8
ENDMDL
