MODEL 1
REMARK VINA RESULT: -11.374799718      0.000      0.000
REMARK  10 active torsions:
REMARK  status: ('A' for Active; 'I' for Inactive)
REMARK    1  A    between atoms: O1_2  and  C2_3 
REMARK    2  A    between atoms: C5_6  and  O2_7 
REMARK    3  A    between atoms: C7_11  and  C8_12 
REMARK    4  A    between atoms: C8_12  and  C9_13 
REMARK    5  A    between atoms: C9_13  and  N2_14 
REMARK       I    between atoms: N2_14  and  C10_16 
REMARK    6  A    between atoms: C10_16  and  O4_18 
REMARK    7  A    between atoms: O4_18  and  C11_19 
REMARK    8  A    between atoms: C19_27  and  C20_28 
REMARK    9  A    between atoms: C20_28  and  N3_30 
REMARK   10  A    between atoms: C31_44  and  O5_45 
ROOT
HETATM    1  C11 UNL     1      33.724  42.895  17.173  1.00  0.00     0.173 C 
HETATM    2  C12 UNL     1      34.981  42.074  17.174  1.00  0.00     0.037 C 
HETATM    3  C13 UNL     1      36.077  42.906  16.550  1.00  0.00     0.012 C 
HETATM    4  C14 UNL     1      36.402  44.126  17.358  1.00  0.00    -0.033 C 
HETATM    5  C15 UNL     1      36.846  43.647  18.729  1.00  0.00     0.016 C 
HETATM    6  C16 UNL     1      37.608  44.786  16.733  1.00  0.00    -0.002 C 
HETATM    7  C17 UNL     1      38.270  45.728  17.684  1.00  0.00     0.006 C 
HETATM    8  C18 UNL     1      38.919  46.901  16.971  1.00  0.00     0.007 C 
HETATM    9  C19 UNL     1      39.538  46.460  15.678  1.00  0.00     0.016 C 
HETATM   10  C22 UNL     1      38.448  46.032  14.753  1.00  0.00     0.011 C 
HETATM   11  C23 UNL     1      37.275  45.370  15.385  1.00  0.00    -0.009 C 
HETATM   12  C24 UNL     1      36.063  46.227  15.386  1.00  0.00     0.005 C 
HETATM   13  C25 UNL     1      35.319  46.290  16.673  1.00  0.00     0.009 C 
HETATM   14  C26 UNL     1      35.181  44.984  17.421  1.00  0.00     0.036 C 
HETATM   15  C27 UNL     1      33.886  44.362  17.089  1.00  0.00     0.130 C 
HETATM   16  C28 UNL     1      32.829  44.967  18.035  1.00  0.00     0.055 C 
HETATM   17  F1  UNL     1      33.497  44.863  15.831  1.00  0.00    -0.240 F 
ENDROOT
BRANCH   1  18
HETATM   18  O4  UNL     1      32.788  42.460  18.140  1.00  0.00    -0.295 OA
BRANCH  18  19
HETATM   19  C10 UNL     1      31.881  41.464  17.980  1.00  0.00     0.364 C 
HETATM   20  N2  UNL     1      30.576  41.679  17.386  1.00  0.00    -0.316 N 
ATOM     21  H2  UNL     1      30.304  42.609  17.067  1.00  0.00     0.170 HD
HETATM   22  O3  UNL     1      32.162  40.327  18.349  1.00  0.00    -0.238 OA
BRANCH  20  23
HETATM   23  C9  UNL     1      29.688  40.599  17.255  1.00  0.00     0.072 C 
BRANCH  23  24
HETATM   24  C8  UNL     1      28.334  40.825  16.713  1.00  0.00     0.102 C 
BRANCH  24  25
HETATM   25  C7  UNL     1      27.462  41.661  17.556  1.00  0.00     0.029 A 
HETATM   26  N1  UNL     1      27.123  42.967  17.244  1.00  0.00    -0.334 N 
HETATM   27  C5  UNL     1      26.286  43.422  18.174  1.00  0.00     0.153 A 
HETATM   28  C6  UNL     1      27.636  43.658  16.077  1.00  0.00     0.158 C 
HETATM   29  C4  UNL     1      26.068  42.432  19.102  1.00  0.00     0.030 A 
HETATM   30  C3  UNL     1      25.328  42.347  20.270  1.00  0.00     0.056 A 
HETATM   31  C29 UNL     1      26.810  41.309  18.719  1.00  0.00     0.004 A 
HETATM   32  C2  UNL     1      25.318  41.205  21.036  1.00  0.00     0.102 A 
HETATM   33  C31 UNL     1      26.048  40.098  20.666  1.00  0.00     0.102 A 
HETATM   34  C30 UNL     1      26.783  40.164  19.513  1.00  0.00     0.054 A 
BRANCH  27  35
HETATM   35  O2  UNL     1      25.703  44.684  18.239  1.00  0.00    -0.345 OA
ATOM     36  H2  UNL     1      25.783  45.263  18.988  1.00  0.00     0.219 HD
ENDBRANCH  27  35
BRANCH  32  37
HETATM   37  O1  UNL     1      24.570  41.187  22.177  1.00  0.00    -0.353 OA
HETATM   38  C1  UNL     1      23.770  42.208  22.687  1.00  0.00     0.210 C 
ENDBRANCH  32  37
BRANCH  33  39
HETATM   39  O5  UNL     1      26.038  38.927  21.451  1.00  0.00    -0.353 OA
HETATM   40  C32 UNL     1      26.705  37.784  20.942  1.00  0.00     0.210 C 
ENDBRANCH  33  39
ENDBRANCH  24  25
ENDBRANCH  23  24
ENDBRANCH  20  23
ENDBRANCH  18  19
ENDBRANCH   1  18
BRANCH   9  41
HETATM   41  C20 UNL     1      40.210  47.692  15.071  1.00  0.00     0.183 C 
HETATM   42  C21 UNL     1      40.894  48.534  16.098  1.00  0.00     0.040 C 
BRANCH  41  43
HETATM   43  N3  UNL     1      39.279  48.464  14.287  1.00  0.00    -0.075 N 
ATOM     44  H33 UNL     1      38.796  47.884  13.601  1.00  0.00     0.274 HD
ATOM     45  H32 UNL     1      38.473  48.754  14.842  1.00  0.00     0.274 HD
ATOM     46  H31 UNL     1      39.736  49.262  13.848  1.00  0.00     0.274 HD
ENDBRANCH  41  43
ENDBRANCH   9  41
TORSDOF 10
ENDMDL
MODEL 2
REMARK VINA RESULT: -10.979201238      3.810     11.299
REMARK  10 active torsions:
REMARK  status: ('A' for Active; 'I' for Inactive)
REMARK    1  A    between atoms: O1_2  and  C2_3 
REMARK    2  A    between atoms: C5_6  and  O2_7 
REMARK    3  A    between atoms: C7_11  and  C8_12 
REMARK    4  A    between atoms: C8_12  and  C9_13 
REMARK    5  A    between atoms: C9_13  and  N2_14 
REMARK       I    between atoms: N2_14  and  C10_16 
REMARK    6  A    between atoms: C10_16  and  O4_18 
REMARK    7  A    between atoms: O4_18  and  C11_19 
REMARK    8  A    between atoms: C19_27  and  C20_28 
REMARK    9  A    between atoms: C20_28  and  N3_30 
REMARK   10  A    between atoms: C31_44  and  O5_45 
ROOT
HETATM    1  C11 UNL     1      33.410  44.194  16.209  1.00  0.00     0.173 C 
HETATM    2  C12 UNL     1      32.569  44.591  15.030  1.00  0.00     0.037 C 
HETATM    3  C13 UNL     1      31.336  43.719  15.028  1.00  0.00     0.012 C 
HETATM    4  C14 UNL     1      30.466  43.951  16.227  1.00  0.00    -0.033 C 
HETATM    5  C15 UNL     1      30.056  45.413  16.204  1.00  0.00     0.016 C 
HETATM    6  C16 UNL     1      29.197  43.155  16.039  1.00  0.00    -0.002 C 
HETATM    7  C17 UNL     1      28.106  43.647  16.931  1.00  0.00     0.006 C 
HETATM    8  C18 UNL     1      27.164  42.533  17.353  1.00  0.00     0.007 C 
HETATM    9  C19 UNL     1      26.939  41.572  16.225  1.00  0.00     0.016 C 
HETATM   10  C22 UNL     1      28.224  40.869  15.937  1.00  0.00     0.011 C 
HETATM   11  C23 UNL     1      29.464  41.674  16.114  1.00  0.00    -0.009 C 
HETATM   12  C24 UNL     1      30.249  41.266  17.306  1.00  0.00     0.005 C 
HETATM   13  C25 UNL     1      30.732  42.376  18.170  1.00  0.00     0.009 C 
HETATM   14  C26 UNL     1      31.251  43.598  17.448  1.00  0.00     0.036 C 
HETATM   15  C27 UNL     1      32.718  43.508  17.320  1.00  0.00     0.130 C 
HETATM   16  C28 UNL     1      33.329  44.068  18.621  1.00  0.00     0.055 C 
HETATM   17  F1  UNL     1      33.054  42.141  17.385  1.00  0.00    -0.240 F 
ENDROOT
BRANCH   1  18
HETATM   18  O4  UNL     1      34.300  45.217  16.612  1.00  0.00    -0.295 OA
BRANCH  18  19
HETATM   19  C10 UNL     1      35.348  45.690  15.892  1.00  0.00     0.364 C 
HETATM   20  N2  UNL     1      35.960  46.979  16.152  1.00  0.00    -0.316 N 
ATOM     21  H2  UNL     1      35.607  47.573  16.902  1.00  0.00     0.170 HD
HETATM   22  O3  UNL     1      35.808  45.012  14.978  1.00  0.00    -0.238 OA
BRANCH  20  23
HETATM   23  C9  UNL     1      37.041  47.403  15.362  1.00  0.00     0.072 C 
BRANCH  23  24
HETATM   24  C8  UNL     1      38.237  46.548  15.236  1.00  0.00     0.102 C 
BRANCH  24  25
HETATM   25  C7  UNL     1      39.185  46.640  16.360  1.00  0.00     0.029 A 
HETATM   26  N1  UNL     1      40.288  47.478  16.362  1.00  0.00    -0.334 N 
HETATM   27  C5  UNL     1      40.906  47.364  17.535  1.00  0.00     0.153 A 
HETATM   28  C6  UNL     1      40.645  48.314  15.232  1.00  0.00     0.158 C 
HETATM   29  C4  UNL     1      40.226  46.456  18.312  1.00  0.00     0.030 A 
HETATM   30  C3  UNL     1      40.417  45.935  19.582  1.00  0.00     0.056 A 
HETATM   31  C29 UNL     1      39.132  45.990  17.575  1.00  0.00     0.004 A 
HETATM   32  C2  UNL     1      39.567  44.990  20.108  1.00  0.00     0.102 A 
HETATM   33  C31 UNL     1      38.491  44.526  19.387  1.00  0.00     0.102 A 
HETATM   34  C30 UNL     1      38.286  45.032  18.132  1.00  0.00     0.054 A 
BRANCH  27  35
HETATM   35  O2  UNL     1      42.053  48.031  17.953  1.00  0.00    -0.345 OA
ATOM     36  H2  UNL     1      42.062  48.684  18.643  1.00  0.00     0.219 HD
ENDBRANCH  27  35
BRANCH  32  37
HETATM   37  O1  UNL     1      39.812  44.516  21.364  1.00  0.00    -0.353 OA
HETATM   38  C1  UNL     1      39.456  45.099  22.579  1.00  0.00     0.210 C 
ENDBRANCH  32  37
BRANCH  33  39
HETATM   39  O5  UNL     1      37.619  43.557  19.927  1.00  0.00    -0.353 OA
HETATM   40  C32 UNL     1      36.416  44.010  20.524  1.00  0.00     0.210 C 
ENDBRANCH  33  39
ENDBRANCH  24  25
ENDBRANCH  23  24
ENDBRANCH  20  23
ENDBRANCH  18  19
ENDBRANCH   1  18
BRANCH   9  41
HETATM   41  C20 UNL     1      25.940  40.530  16.729  1.00  0.00     0.183 C 
HETATM   42  C21 UNL     1      26.380  39.886  18.004  1.00  0.00     0.040 C 
BRANCH  41  43
HETATM   43  N3  UNL     1      25.647  39.550  15.714  1.00  0.00    -0.075 N 
ATOM     44  H33 UNL     1      26.375  39.523  14.999  1.00  0.00     0.274 HD
ATOM     45  H32 UNL     1      25.743  38.600  16.072  1.00  0.00     0.274 HD
ATOM     46  H31 UNL     1      24.726  39.704  15.305  1.00  0.00     0.274 HD
ENDBRANCH  41  43
ENDBRANCH   9  41
TORSDOF 10
ENDMDL
MODEL 3
REMARK VINA RESULT: -10.856682654      1.666      3.324
REMARK  10 active torsions:
REMARK  status: ('A' for Active; 'I' for Inactive)
REMARK    1  A    between atoms: O1_2  and  C2_3 
REMARK    2  A    between atoms: C5_6  and  O2_7 
REMARK    3  A    between atoms: C7_11  and  C8_12 
REMARK    4  A    between atoms: C8_12  and  C9_13 
REMARK    5  A    between atoms: C9_13  and  N2_14 
REMARK       I    between atoms: N2_14  and  C10_16 
REMARK    6  A    between atoms: C10_16  and  O4_18 
REMARK    7  A    between atoms: O4_18  and  C11_19 
REMARK    8  A    between atoms: C19_27  and  C20_28 
REMARK    9  A    between atoms: C20_28  and  N3_30 
REMARK   10  A    between atoms: C31_44  and  O5_45 
ROOT
HETATM    1  C11 UNL     1      33.553  43.024  16.766  1.00  0.00     0.173 C 
HETATM    2  C12 UNL     1      34.784  42.185  16.953  1.00  0.00     0.037 C 
HETATM    3  C13 UNL     1      35.960  42.966  16.414  1.00  0.00     0.012 C 
HETATM    4  C14 UNL     1      36.219  44.224  17.189  1.00  0.00    -0.033 C 
HETATM    5  C15 UNL     1      36.495  43.814  18.625  1.00  0.00     0.016 C 
HETATM    6  C16 UNL     1      37.500  44.831  16.671  1.00  0.00    -0.002 C 
HETATM    7  C17 UNL     1      38.071  45.813  17.640  1.00  0.00     0.006 C 
HETATM    8  C18 UNL     1      38.820  46.936  16.944  1.00  0.00     0.007 C 
HETATM    9  C19 UNL     1      39.571  46.417  15.755  1.00  0.00     0.016 C 
HETATM   10  C22 UNL     1      38.583  45.955  14.736  1.00  0.00     0.011 C 
HETATM   11  C23 UNL     1      37.332  45.346  15.265  1.00  0.00    -0.009 C 
HETATM   12  C24 UNL     1      36.146  46.220  15.084  1.00  0.00     0.005 C 
HETATM   13  C25 UNL     1      35.264  46.363  16.273  1.00  0.00     0.009 C 
HETATM   14  C26 UNL     1      35.016  45.101  17.069  1.00  0.00     0.036 C 
HETATM   15  C27 UNL     1      33.753  44.481  16.625  1.00  0.00     0.130 C 
HETATM   16  C28 UNL     1      32.609  45.152  17.413  1.00  0.00     0.055 C 
HETATM   17  F1  UNL     1      33.519  44.919  15.307  1.00  0.00    -0.240 F 
ENDROOT
BRANCH   1  18
HETATM   18  O4  UNL     1      32.505  42.656  17.643  1.00  0.00    -0.295 OA
BRANCH  18  19
HETATM   19  C10 UNL     1      32.460  41.532  18.402  1.00  0.00     0.364 C 
HETATM   20  N2  UNL     1      31.820  40.310  17.955  1.00  0.00    -0.316 N 
ATOM     21  H2  UNL     1      31.379  40.267  17.036  1.00  0.00     0.170 HD
HETATM   22  O3  UNL     1      32.976  41.534  19.516  1.00  0.00    -0.238 OA
BRANCH  20  23
HETATM   23  C9  UNL     1      31.811  39.186  18.797  1.00  0.00     0.072 C 
BRANCH  23  24
HETATM   24  C8  UNL     1      30.777  38.147  18.621  1.00  0.00     0.102 C 
BRANCH  24  25
HETATM   25  C7  UNL     1      29.418  38.551  19.020  1.00  0.00     0.029 A 
HETATM   26  N1  UNL     1      28.750  38.015  20.108  1.00  0.00    -0.334 N 
HETATM   27  C5  UNL     1      27.573  38.626  20.227  1.00  0.00     0.153 A 
HETATM   28  C6  UNL     1      29.307  36.962  20.935  1.00  0.00     0.158 C 
HETATM   29  C4  UNL     1      27.452  39.562  19.227  1.00  0.00     0.030 A 
HETATM   30  C3  UNL     1      26.460  40.452  18.851  1.00  0.00     0.056 A 
HETATM   31  C29 UNL     1      28.618  39.522  18.455  1.00  0.00     0.004 A 
HETATM   32  C2  UNL     1      26.604  41.273  17.757  1.00  0.00     0.102 A 
HETATM   33  C31 UNL     1      27.748  41.238  16.993  1.00  0.00     0.102 A 
HETATM   34  C30 UNL     1      28.740  40.364  17.350  1.00  0.00     0.054 A 
BRANCH  27  35
HETATM   35  O2  UNL     1      26.594  38.390  21.187  1.00  0.00    -0.345 OA
ATOM     36  H2  UNL     1      26.762  38.387  22.122  1.00  0.00     0.219 HD
ENDBRANCH  27  35
BRANCH  32  37
HETATM   37  O1  UNL     1      25.589  42.127  17.439  1.00  0.00    -0.353 OA
HETATM   38  C1  UNL     1      25.418  43.443  17.865  1.00  0.00     0.210 C 
ENDBRANCH  32  37
BRANCH  33  39
HETATM   39  O5  UNL     1      27.897  42.079  15.870  1.00  0.00    -0.353 OA
HETATM   40  C32 UNL     1      28.733  43.216  16.003  1.00  0.00     0.210 C 
ENDBRANCH  33  39
ENDBRANCH  24  25
ENDBRANCH  23  24
ENDBRANCH  20  23
ENDBRANCH  18  19
ENDBRANCH   1  18
BRANCH   9  41
HETATM   41  C20 UNL     1      40.332  47.604  15.164  1.00  0.00     0.183 C 
HETATM   42  C21 UNL     1      40.883  48.510  16.217  1.00  0.00     0.040 C 
BRANCH  41  43
HETATM   43  N3  UNL     1      39.522  48.325  14.215  1.00  0.00    -0.075 N 
ATOM     44  H33 UNL     1      40.041  48.532  13.361  1.00  0.00     0.274 HD
ATOM     45  H32 UNL     1      38.794  47.732  13.817  1.00  0.00     0.274 HD
ATOM     46  H31 UNL     1      39.130  49.171  14.629  1.00  0.00     0.274 HD
ENDBRANCH  41  43
ENDBRANCH   9  41
TORSDOF 10
ENDMDL
MODEL 4
REMARK VINA RESULT: -10.849039910      4.123     11.983
REMARK  10 active torsions:
REMARK  status: ('A' for Active; 'I' for Inactive)
REMARK    1  A    between atoms: O1_2  and  C2_3 
REMARK    2  A    between atoms: C5_6  and  O2_7 
REMARK    3  A    between atoms: C7_11  and  C8_12 
REMARK    4  A    between atoms: C8_12  and  C9_13 
REMARK    5  A    between atoms: C9_13  and  N2_14 
REMARK       I    between atoms: N2_14  and  C10_16 
REMARK    6  A    between atoms: C10_16  and  O4_18 
REMARK    7  A    between atoms: O4_18  and  C11_19 
REMARK    8  A    between atoms: C19_27  and  C20_28 
REMARK    9  A    between atoms: C20_28  and  N3_30 
REMARK   10  A    between atoms: C31_44  and  O5_45 
ROOT
HETATM    1  C11 UNL     1      34.045  43.783  18.400  1.00  0.00     0.173 C 
HETATM    2  C12 UNL     1      33.135  43.311  19.498  1.00  0.00     0.037 C 
HETATM    3  C13 UNL     1      31.722  43.321  18.963  1.00  0.00     0.012 C 
HETATM    4  C14 UNL     1      31.526  42.344  17.842  1.00  0.00    -0.033 C 
HETATM    5  C15 UNL     1      31.853  40.966  18.390  1.00  0.00     0.016 C 
HETATM    6  C16 UNL     1      30.056  42.322  17.500  1.00  0.00    -0.002 C 
HETATM    7  C17 UNL     1      29.692  41.097  16.728  1.00  0.00     0.006 C 
HETATM    8  C18 UNL     1      28.553  41.349  15.757  1.00  0.00     0.007 C 
HETATM    9  C19 UNL     1      27.540  42.280  16.355  1.00  0.00     0.016 C 
HETATM   10  C22 UNL     1      28.173  43.621  16.525  1.00  0.00     0.011 C 
HETATM   11  C23 UNL     1      29.619  43.623  16.877  1.00  0.00    -0.009 C 
HETATM   12  C24 UNL     1      30.483  44.068  15.754  1.00  0.00     0.005 C 
HETATM   13  C25 UNL     1      31.685  43.231  15.494  1.00  0.00     0.009 C 
HETATM   14  C26 UNL     1      32.425  42.738  16.717  1.00  0.00     0.036 C 
HETATM   15  C27 UNL     1      33.542  43.654  17.016  1.00  0.00     0.130 C 
HETATM   16  C28 UNL     1      34.745  43.208  16.160  1.00  0.00     0.055 C 
HETATM   17  F1  UNL     1      33.212  44.905  16.459  1.00  0.00    -0.240 F 
ENDROOT
BRANCH   1  18
HETATM   18  O4  UNL     1      35.382  43.360  18.583  1.00  0.00    -0.295 OA
BRANCH  18  19
HETATM   19  C10 UNL     1      36.421  44.145  18.963  1.00  0.00     0.364 C 
HETATM   20  N2  UNL     1      37.230  43.863  20.134  1.00  0.00    -0.316 N 
ATOM     21  H2  UNL     1      37.031  43.046  20.711  1.00  0.00     0.170 HD
HETATM   22  O3  UNL     1      36.701  45.140  18.300  1.00  0.00    -0.238 OA
BRANCH  20  23
HETATM   23  C9  UNL     1      38.289  44.723  20.467  1.00  0.00     0.072 C 
BRANCH  23  24
HETATM   24  C8  UNL     1      39.668  44.375  20.072  1.00  0.00     0.102 C 
BRANCH  24  25
HETATM   25  C7  UNL     1      40.441  45.480  19.480  1.00  0.00     0.029 A 
HETATM   26  N1  UNL     1      41.624  45.958  20.018  1.00  0.00    -0.334 N 
HETATM   27  C5  UNL     1      42.096  46.917  19.224  1.00  0.00     0.153 A 
HETATM   28  C6  UNL     1      42.194  45.446  21.249  1.00  0.00     0.158 C 
HETATM   29  C4  UNL     1      41.234  47.083  18.165  1.00  0.00     0.030 A 
HETATM   30  C3  UNL     1      41.201  47.930  17.069  1.00  0.00     0.056 A 
HETATM   31  C29 UNL     1      40.181  46.175  18.318  1.00  0.00     0.004 A 
HETATM   32  C2  UNL     1      40.171  47.891  16.159  1.00  0.00     0.102 A 
HETATM   33  C31 UNL     1      39.131  47.002  16.305  1.00  0.00     0.102 A 
HETATM   34  C30 UNL     1      39.148  46.156  17.381  1.00  0.00     0.054 A 
BRANCH  27  35
HETATM   35  O2  UNL     1      43.260  47.658  19.396  1.00  0.00    -0.345 OA
ATOM     36  H2  UNL     1      43.967  47.403  19.977  1.00  0.00     0.219 HD
ENDBRANCH  27  35
BRANCH  32  37
HETATM   37  O1  UNL     1      40.197  48.754  15.102  1.00  0.00    -0.353 OA
HETATM   38  C1  UNL     1      41.284  49.484  14.626  1.00  0.00     0.210 C 
ENDBRANCH  32  37
BRANCH  33  39
HETATM   39  O5  UNL     1      38.074  46.962  15.372  1.00  0.00    -0.353 OA
HETATM   40  C32 UNL     1      37.816  45.731  14.718  1.00  0.00     0.210 C 
ENDBRANCH  33  39
ENDBRANCH  24  25
ENDBRANCH  23  24
ENDBRANCH  20  23
ENDBRANCH  18  19
ENDBRANCH   1  18
BRANCH   9  41
HETATM   41  C20 UNL     1      26.415  42.422  15.329  1.00  0.00     0.183 C 
HETATM   42  C21 UNL     1      25.166  42.986  15.926  1.00  0.00     0.040 C 
BRANCH  41  43
HETATM   43  N3  UNL     1      26.163  41.175  14.652  1.00  0.00    -0.075 N 
ATOM     44  H33 UNL     1      26.973  40.556  14.693  1.00  0.00     0.274 HD
ATOM     45  H32 UNL     1      25.498  40.597  15.167  1.00  0.00     0.274 HD
ATOM     46  H31 UNL     1      25.857  41.330  13.692  1.00  0.00     0.274 HD
ENDBRANCH  41  43
ENDBRANCH   9  41
TORSDOF 10
ENDMDL
MODEL 5
REMARK VINA RESULT: -10.845283285      1.719      2.871
REMARK  10 active torsions:
REMARK  status: ('A' for Active; 'I' for Inactive)
REMARK    1  A    between atoms: O1_2  and  C2_3 
REMARK    2  A    between atoms: C5_6  and  O2_7 
REMARK    3  A    between atoms: C7_11  and  C8_12 
REMARK    4  A    between atoms: C8_12  and  C9_13 
REMARK    5  A    between atoms: C9_13  and  N2_14 
REMARK       I    between atoms: N2_14  and  C10_16 
REMARK    6  A    between atoms: C10_16  and  O4_18 
REMARK    7  A    between atoms: O4_18  and  C11_19 
REMARK    8  A    between atoms: C19_27  and  C20_28 
REMARK    9  A    between atoms: C20_28  and  N3_30 
REMARK   10  A    between atoms: C31_44  and  O5_45 
ROOT
HETATM    1  C11 UNL     1      33.883  43.087  17.377  1.00  0.00     0.173 C 
HETATM    2  C12 UNL     1      35.120  42.240  17.288  1.00  0.00     0.037 C 
HETATM    3  C13 UNL     1      36.199  43.067  16.629  1.00  0.00     0.012 C 
HETATM    4  C14 UNL     1      36.595  44.256  17.453  1.00  0.00    -0.033 C 
HETATM    5  C15 UNL     1      37.099  43.728  18.784  1.00  0.00     0.016 C 
HETATM    6  C16 UNL     1      37.779  44.909  16.783  1.00  0.00    -0.002 C 
HETATM    7  C17 UNL     1      38.512  45.809  17.722  1.00  0.00     0.006 C 
HETATM    8  C18 UNL     1      39.148  46.988  17.008  1.00  0.00     0.007 C 
HETATM    9  C19 UNL     1      39.687  46.573  15.673  1.00  0.00     0.016 C 
HETATM   10  C22 UNL     1      38.541  46.195  14.795  1.00  0.00     0.011 C 
HETATM   11  C23 UNL     1      37.388  45.539  15.471  1.00  0.00    -0.009 C 
HETATM   12  C24 UNL     1      36.197  46.421  15.562  1.00  0.00     0.005 C 
HETATM   13  C25 UNL     1      35.525  46.461  16.888  1.00  0.00     0.009 C 
HETATM   14  C26 UNL     1      35.398  45.137  17.606  1.00  0.00     0.036 C 
HETATM   15  C27 UNL     1      34.073  44.552  17.327  1.00  0.00     0.130 C 
HETATM   16  C28 UNL     1      33.081  45.150  18.345  1.00  0.00     0.055 C 
HETATM   17  F1  UNL     1      33.629  45.097  16.106  1.00  0.00    -0.240 F 
ENDROOT
BRANCH   1  18
HETATM   18  O4  UNL     1      32.991  42.643  18.381  1.00  0.00    -0.295 OA
BRANCH  18  19
HETATM   19  C10 UNL     1      32.129  41.600  18.277  1.00  0.00     0.364 C 
HETATM   20  N2  UNL     1      31.118  41.520  17.241  1.00  0.00    -0.316 N 
ATOM     21  H2  UNL     1      31.030  42.264  16.549  1.00  0.00     0.170 HD
HETATM   22  O3  UNL     1      32.195  40.679  19.086  1.00  0.00    -0.238 OA
BRANCH  20  23
HETATM   23  C9  UNL     1      30.259  40.409  17.197  1.00  0.00     0.072 C 
BRANCH  23  24
HETATM   24  C8  UNL     1      28.806  40.613  17.035  1.00  0.00     0.102 C 
BRANCH  24  25
HETATM   25  C7  UNL     1      27.976  40.025  18.102  1.00  0.00     0.029 A 
HETATM   26  N1  UNL     1      26.636  40.328  18.281  1.00  0.00    -0.334 N 
HETATM   27  C5  UNL     1      26.166  39.597  19.290  1.00  0.00     0.153 A 
HETATM   28  C6  UNL     1      25.930  41.296  17.463  1.00  0.00     0.158 C 
HETATM   29  C4  UNL     1      27.182  38.813  19.784  1.00  0.00     0.030 A 
HETATM   30  C3  UNL     1      27.281  37.897  20.818  1.00  0.00     0.056 A 
HETATM   31  C29 UNL     1      28.335  39.077  19.036  1.00  0.00     0.004 A 
HETATM   32  C2  UNL     1      28.467  37.265  21.112  1.00  0.00     0.102 A 
HETATM   33  C31 UNL     1      29.605  37.523  20.381  1.00  0.00     0.102 A 
HETATM   34  C30 UNL     1      29.525  38.424  19.354  1.00  0.00     0.054 A 
BRANCH  27  35
HETATM   35  O2  UNL     1      24.871  39.593  19.797  1.00  0.00    -0.345 OA
ATOM     36  H2  UNL     1      24.639  39.935  20.652  1.00  0.00     0.219 HD
ENDBRANCH  27  35
BRANCH  32  37
HETATM   37  O1  UNL     1      28.498  36.375  22.145  1.00  0.00    -0.353 OA
HETATM   38  C1  UNL     1      28.126  35.032  22.123  1.00  0.00     0.210 C 
ENDBRANCH  32  37
BRANCH  33  39
HETATM   39  O5  UNL     1      30.821  36.875  20.681  1.00  0.00    -0.353 OA
HETATM   40  C32 UNL     1      31.876  36.980  19.740  1.00  0.00     0.210 C 
ENDBRANCH  33  39
ENDBRANCH  24  25
ENDBRANCH  23  24
ENDBRANCH  20  23
ENDBRANCH  18  19
ENDBRANCH   1  18
BRANCH   9  41
HETATM   41  C20 UNL     1      40.353  47.808  15.065  1.00  0.00     0.183 C 
HETATM   42  C21 UNL     1      40.912  48.725  16.104  1.00  0.00     0.040 C 
BRANCH  41  43
HETATM   43  N3  UNL     1      39.458  48.500  14.173  1.00  0.00    -0.075 N 
ATOM     44  H33 UNL     1      39.962  48.937  13.401  1.00  0.00     0.274 HD
ATOM     45  H32 UNL     1      38.885  47.848  13.637  1.00  0.00     0.274 HD
ATOM     46  H31 UNL     1      38.883  49.176  14.676  1.00  0.00     0.274 HD
ENDBRANCH  41  43
ENDBRANCH   9  41
TORSDOF 10
ENDMDL
