MODEL 1
REMARK VINA RESULT: -6.402431003      0.000      0.000
REMARK  4 active torsions:
REMARK  status: ('A' for Active; 'I' for Inactive)
REMARK    1  A    between atoms: C1_2  and  C2_4 
REMARK       I    between atoms: C2_4  and  N1_6 
REMARK    2  A    between atoms: N1_6  and  O4_8 
REMARK    3  A    between atoms: O4_8  and  C3_9 
REMARK    4  A    between atoms: C4_11  and  C5_12 
ROOT
HETATM    1  C3  UNL     1      45.391  50.276  11.815  1.00  0.00     0.372 C 
HETATM    2  O5  UNL     1      44.905  51.013  12.888  1.00  0.00    -0.314 OA
HETATM    3  C4  UNL     1      43.754  51.726  12.626  1.00  0.00     0.337 C 
HETATM    4  N2  UNL     1      44.057  53.032  12.006  1.00  0.00    -0.273 N 
ATOM      5  H2  UNL     1      44.225  53.929  12.462  1.00  0.00     0.176 HD
HETATM    6  S1  UNL     1      44.056  52.661  10.291  1.00  0.00     0.290 S 
HETATM    7  O8  UNL     1      45.212  53.315   9.600  1.00  0.00    -0.194 OA
HETATM    8  O9  UNL     1      42.748  52.974   9.676  1.00  0.00    -0.194 OA
HETATM    9  S2  UNL     1      44.433  50.573  10.283  1.00  0.00     0.047 SA
ENDROOT
BRANCH   1  10
HETATM   10  O4  UNL     1      45.428  48.945  12.151  1.00  0.00    -0.232 OA
BRANCH  10  11
HETATM   11  N1  UNL     1      45.559  48.834  13.489  1.00  0.00    -0.222 N 
HETATM   12  C2  UNL     1      44.654  48.001  14.190  1.00  0.00     0.341 C 
HETATM   13  O3  UNL     1      43.759  47.398  13.514  1.00  0.00    -0.259 OA
ATOM     14  H1  UNL     1      46.294  49.339  13.984  1.00  0.00     0.198 HD
BRANCH  12  15
HETATM   15  C1  UNL     1      44.683  47.794  15.609  1.00  0.00     0.272 C 
HETATM   16  O1  UNL     1      43.756  48.230  16.329  1.00  0.00    -0.640 OA
HETATM   17  O2  UNL     1      45.723  47.116  16.200  1.00  0.00    -0.640 OA
ENDBRANCH  12  15
ENDBRANCH  10  11
ENDBRANCH   1  10
BRANCH   3  18
HETATM   18  C5  UNL     1      42.982  51.934  13.864  1.00  0.00     0.225 C 
HETATM   19  O6  UNL     1      42.075  52.781  13.896  1.00  0.00    -0.645 OA
HETATM   20  O7  UNL     1      43.266  51.190  14.982  1.00  0.00    -0.645 OA
ENDBRANCH   3  18
TORSDOF 4
ENDMDL
MODEL 2
REMARK VINA RESULT: -6.382082768      2.430      3.703
REMARK  4 active torsions:
REMARK  status: ('A' for Active; 'I' for Inactive)
REMARK    1  A    between atoms: C1_2  and  C2_4 
REMARK       I    between atoms: C2_4  and  N1_6 
REMARK    2  A    between atoms: N1_6  and  O4_8 
REMARK    3  A    between atoms: O4_8  and  C3_9 
REMARK    4  A    between atoms: C4_11  and  C5_12 
ROOT
HETATM    1  C3  UNL     1      44.956  50.511  10.581  1.00  0.00     0.372 C 
HETATM    2  O5  UNL     1      45.863  51.187   9.775  1.00  0.00    -0.314 OA
HETATM    3  C4  UNL     1      45.646  52.545   9.672  1.00  0.00     0.337 C 
HETATM    4  N2  UNL     1      44.650  52.856   8.626  1.00  0.00    -0.273 N 
ATOM      5  H2  UNL     1      44.806  53.046   7.636  1.00  0.00     0.176 HD
HETATM    6  S1  UNL     1      43.133  52.817   9.507  1.00  0.00     0.290 S 
HETATM    7  O8  UNL     1      42.081  52.086   8.730  1.00  0.00    -0.194 OA
HETATM    8  O9  UNL     1      42.721  54.174   9.925  1.00  0.00    -0.194 OA
HETATM    9  S2  UNL     1      43.616  51.606  11.180  1.00  0.00     0.047 SA
ENDROOT
BRANCH   1  10
HETATM   10  O4  UNL     1      45.625  49.901  11.613  1.00  0.00    -0.232 OA
BRANCH  10  11
HETATM   11  N1  UNL     1      45.189  48.630  11.728  1.00  0.00    -0.222 N 
HETATM   12  C2  UNL     1      44.604  48.224  12.953  1.00  0.00     0.341 C 
HETATM   13  O3  UNL     1      44.521  49.088  13.885  1.00  0.00    -0.259 OA
ATOM     14  H1  UNL     1      45.278  47.976  10.951  1.00  0.00     0.198 HD
BRANCH  12  15
HETATM   15  C1  UNL     1      44.100  46.906  13.207  1.00  0.00     0.272 C 
HETATM   16  O1  UNL     1      42.924  46.609  12.898  1.00  0.00    -0.640 OA
HETATM   17  O2  UNL     1      44.896  45.949  13.792  1.00  0.00    -0.640 OA
ENDBRANCH  12  15
ENDBRANCH  10  11
ENDBRANCH   1  10
BRANCH   3  18
HETATM   18  C5  UNL     1      46.907  53.249   9.379  1.00  0.00     0.225 C 
HETATM   19  O6  UNL     1      47.993  52.735   9.693  1.00  0.00    -0.645 OA
HETATM   20  O7  UNL     1      46.881  54.473   8.756  1.00  0.00    -0.645 OA
ENDBRANCH   3  18
TORSDOF 4
ENDMDL
MODEL 3
REMARK VINA RESULT: -6.211124677      3.160      6.932
REMARK  4 active torsions:
REMARK  status: ('A' for Active; 'I' for Inactive)
REMARK    1  A    between atoms: C1_2  and  C2_4 
REMARK       I    between atoms: C2_4  and  N1_6 
REMARK    2  A    between atoms: N1_6  and  O4_8 
REMARK    3  A    between atoms: O4_8  and  C3_9 
REMARK    4  A    between atoms: C4_11  and  C5_12 
ROOT
HETATM    1  C3  UNL     1      43.219  52.652  10.876  1.00  0.00     0.372 C 
HETATM    2  O5  UNL     1      44.519  53.085  10.645  1.00  0.00    -0.314 OA
HETATM    3  C4  UNL     1      45.433  52.077  10.419  1.00  0.00     0.337 C 
HETATM    4  N2  UNL     1      45.956  51.527  11.687  1.00  0.00    -0.273 N 
ATOM      5  H2  UNL     1      46.773  51.825  12.220  1.00  0.00     0.176 HD
HETATM    6  S1  UNL     1      44.825  50.236  12.049  1.00  0.00     0.290 S 
HETATM    7  O8  UNL     1      44.446  50.246  13.498  1.00  0.00    -0.194 OA
HETATM    8  O9  UNL     1      45.336  48.929  11.583  1.00  0.00    -0.194 OA
HETATM    9  S2  UNL     1      43.104  50.827  10.958  1.00  0.00     0.047 SA
ENDROOT
BRANCH   1  10
HETATM   10  O4  UNL     1      42.384  53.180   9.922  1.00  0.00    -0.232 OA
BRANCH  10  11
HETATM   11  N1  UNL     1      42.934  52.993   8.705  1.00  0.00    -0.222 N 
HETATM   12  C2  UNL     1      42.095  53.059   7.566  1.00  0.00     0.341 C 
HETATM   13  O3  UNL     1      40.858  53.293   7.755  1.00  0.00    -0.259 OA
ATOM     14  H1  UNL     1      43.932  52.808   8.607  1.00  0.00     0.198 HD
BRANCH  12  15
HETATM   15  C1  UNL     1      42.550  52.880   6.218  1.00  0.00     0.272 C 
HETATM   16  O1  UNL     1      43.069  53.833   5.595  1.00  0.00    -0.640 OA
HETATM   17  O2  UNL     1      42.425  51.663   5.589  1.00  0.00    -0.640 OA
ENDBRANCH  12  15
ENDBRANCH  10  11
ENDBRANCH   1  10
BRANCH   3  18
HETATM   18  C5  UNL     1      46.551  52.570   9.595  1.00  0.00     0.225 C 
HETATM   19  O6  UNL     1      46.330  53.327   8.636  1.00  0.00    -0.645 OA
HETATM   20  O7  UNL     1      47.838  52.192   9.889  1.00  0.00    -0.645 OA
ENDBRANCH   3  18
TORSDOF 4
ENDMDL
MODEL 4
REMARK VINA RESULT: -6.210909316      3.421      6.984
REMARK  4 active torsions:
REMARK  status: ('A' for Active; 'I' for Inactive)
REMARK    1  A    between atoms: C1_2  and  C2_4 
REMARK       I    between atoms: C2_4  and  N1_6 
REMARK    2  A    between atoms: N1_6  and  O4_8 
REMARK    3  A    between atoms: O4_8  and  C3_9 
REMARK    4  A    between atoms: C4_11  and  C5_12 
ROOT
HETATM    1  C3  UNL     1      45.372  47.220  14.953  1.00  0.00     0.372 C 
HETATM    2  O5  UNL     1      45.742  47.015  16.276  1.00  0.00    -0.314 OA
HETATM    3  C4  UNL     1      47.029  46.551  16.452  1.00  0.00     0.337 C 
HETATM    4  N2  UNL     1      47.097  45.081  16.318  1.00  0.00    -0.273 N 
ATOM      5  H2  UNL     1      46.995  44.371  17.044  1.00  0.00     0.176 HD
HETATM    6  S1  UNL     1      47.396  44.858  14.604  1.00  0.00     0.290 S 
HETATM    7  O8  UNL     1      46.544  43.758  14.050  1.00  0.00    -0.194 OA
HETATM    8  O9  UNL     1      48.838  44.681  14.330  1.00  0.00    -0.194 OA
HETATM    9  S2  UNL     1      46.669  46.674  13.781  1.00  0.00     0.047 SA
ENDROOT
BRANCH   1  10
HETATM   10  O4  UNL     1      45.033  48.538  14.770  1.00  0.00    -0.232 OA
BRANCH  10  11
HETATM   11  N1  UNL     1      45.201  48.857  13.470  1.00  0.00    -0.222 N 
HETATM   12  C2  UNL     1      44.579  50.030  12.976  1.00  0.00     0.341 C 
HETATM   13  O3  UNL     1      43.891  50.724  13.793  1.00  0.00    -0.259 OA
ATOM     14  H1  UNL     1      45.762  48.267  12.856  1.00  0.00     0.198 HD
BRANCH  12  15
HETATM   15  C1  UNL     1      44.676  50.483  11.619  1.00  0.00     0.272 C 
HETATM   16  O1  UNL     1      44.930  49.673  10.700  1.00  0.00    -0.640 OA
HETATM   17  O2  UNL     1      44.492  51.810  11.306  1.00  0.00    -0.640 OA
ENDBRANCH  12  15
ENDBRANCH  10  11
ENDBRANCH   1  10
BRANCH   3  18
HETATM   18  C5  UNL     1      47.545  46.951  17.773  1.00  0.00     0.225 C 
HETATM   19  O6  UNL     1      48.209  47.994  17.890  1.00  0.00    -0.645 OA
HETATM   20  O7  UNL     1      47.291  46.172  18.874  1.00  0.00    -0.645 OA
ENDBRANCH   3  18
TORSDOF 4
ENDMDL
MODEL 5
REMARK VINA RESULT: -6.182149953      3.083      6.564
REMARK  4 active torsions:
REMARK  status: ('A' for Active; 'I' for Inactive)
REMARK    1  A    between atoms: C1_2  and  C2_4 
REMARK       I    between atoms: C2_4  and  N1_6 
REMARK    2  A    between atoms: N1_6  and  O4_8 
REMARK    3  A    between atoms: O4_8  and  C3_9 
REMARK    4  A    between atoms: C4_11  and  C5_12 
ROOT
HETATM    1  C3  UNL     1      42.858  51.979  10.314  1.00  0.00     0.372 C 
HETATM    2  O5  UNL     1      42.338  51.857  11.596  1.00  0.00    -0.314 OA
HETATM    3  C4  UNL     1      43.281  51.804  12.601  1.00  0.00     0.337 C 
HETATM    4  N2  UNL     1      43.791  50.431  12.794  1.00  0.00    -0.273 N 
ATOM      5  H2  UNL     1      43.436  49.702  13.413  1.00  0.00     0.176 HD
HETATM    6  S1  UNL     1      45.156  50.362  11.694  1.00  0.00     0.290 S 
HETATM    7  O8  UNL     1      45.168  49.072  10.934  1.00  0.00    -0.194 OA
HETATM    8  O9  UNL     1      46.425  50.645  12.397  1.00  0.00    -0.194 OA
HETATM    9  S2  UNL     1      44.687  51.893  10.301  1.00  0.00     0.047 SA
ENDROOT
BRANCH   1  10
HETATM   10  O4  UNL     1      42.392  53.135   9.738  1.00  0.00    -0.232 OA
BRANCH  10  11
HETATM   11  N1  UNL     1      42.812  53.186   8.457  1.00  0.00    -0.222 N 
HETATM   12  C2  UNL     1      41.846  53.351   7.434  1.00  0.00     0.341 C 
HETATM   13  O3  UNL     1      40.624  53.442   7.783  1.00  0.00    -0.259 OA
ATOM     14  H1  UNL     1      43.803  53.109   8.230  1.00  0.00     0.198 HD
BRANCH  12  15
HETATM   15  C1  UNL     1      42.156  53.422   6.036  1.00  0.00     0.272 C 
HETATM   16  O1  UNL     1      41.704  54.355   5.336  1.00  0.00    -0.640 OA
HETATM   17  O2  UNL     1      42.952  52.470   5.443  1.00  0.00    -0.640 OA
ENDBRANCH  12  15
ENDBRANCH  10  11
ENDBRANCH   1  10
BRANCH   3  18
HETATM   18  C5  UNL     1      42.715  52.303  13.867  1.00  0.00     0.225 C 
HETATM   19  O6  UNL     1      41.972  53.298  13.866  1.00  0.00    -0.645 OA
HETATM   20  O7  UNL     1      43.008  51.667  15.048  1.00  0.00    -0.645 OA
ENDBRANCH   3  18
TORSDOF 4
ENDMDL
