MODEL 1
REMARK VINA RESULT: -5.156893684      0.000      0.000
REMARK  4 active torsions:
REMARK  status: ('A' for Active; 'I' for Inactive)
REMARK    1  A    between atoms: C2_5  and  C3_6 
REMARK    2  A    between atoms: C2_5  and  C4_9 
REMARK    3  A    between atoms: C4_9  and  C5_14 
REMARK    4  A    between atoms: N2_10  and  O4_12 
ROOT
HETATM    1  O1  UNL     1      50.204  59.409  10.241  1.00  0.00    -0.246 OA
HETATM    2  C1  UNL     1      49.837  58.403   9.515  1.00  0.00     0.331 C 
HETATM    3  N1  UNL     1      49.632  58.577   8.132  1.00  0.00    -0.311 N 
ATOM      4  H1  UNL     1      50.136  59.352   7.701  1.00  0.00     0.166 HD
HETATM    5  C2  UNL     1      48.805  57.801   7.250  1.00  0.00     0.242 C 
HETATM    6  C8  UNL     1      48.295  56.545   7.860  1.00  0.00     0.307 C 
HETATM    7  O5  UNL     1      47.289  56.008   7.518  1.00  0.00    -0.275 OA
HETATM    8  S1  UNL     1      49.234  55.828   9.147  1.00  0.00     0.303 S 
HETATM    9  O6  UNL     1      50.520  55.262   8.616  1.00  0.00    -0.197 OA
HETATM   10  O7  UNL     1      48.437  54.806   9.925  1.00  0.00    -0.197 OA
HETATM   11  N3  UNL     1      49.659  57.160  10.151  1.00  0.00    -0.229 N 
ATOM     12  H3  UNL     1      49.775  57.054  11.158  1.00  0.00     0.183 HD
ENDROOT
BRANCH   5  13
HETATM   13  C3  UNL     1      47.679  58.686   6.858  1.00  0.00     0.218 C 
HETATM   14  O2  UNL     1      47.085  59.409   7.732  1.00  0.00    -0.645 OA
HETATM   15  O3  UNL     1      47.237  58.767   5.577  1.00  0.00    -0.645 OA
ENDBRANCH   5  13
BRANCH   5  16
HETATM   16  C4  UNL     1      49.595  57.342   6.044  1.00  0.00     0.061 C 
HETATM   17  N2  UNL     1      49.039  56.469   5.254  1.00  0.00    -0.274 N 
ATOM     18  H2  UNL     1      48.103  56.132   5.479  1.00  0.00     0.193 HD
BRANCH  17  19
HETATM   19  O4  UNL     1      49.646  55.992   4.157  1.00  0.00    -0.290 OA
ATOM     20  H4  UNL     1      49.194  55.470   3.504  1.00  0.00     0.244 HD
ENDBRANCH  17  19
BRANCH  16  21
HETATM   21  C5  UNL     1      50.937  57.931   5.865  1.00  0.00     0.037 A 
HETATM   22  C6  UNL     1      51.577  58.257   4.601  1.00  0.00     0.011 A 
HETATM   23  C7  UNL     1      50.967  59.388   5.430  1.00  0.00     0.011 A 
ENDBRANCH  16  21
ENDBRANCH   5  16
TORSDOF 4
ENDMDL
MODEL 2
REMARK VINA RESULT: -5.024302779      2.095      3.198
REMARK  4 active torsions:
REMARK  status: ('A' for Active; 'I' for Inactive)
REMARK    1  A    between atoms: C2_5  and  C3_6 
REMARK    2  A    between atoms: C2_5  and  C4_9 
REMARK    3  A    between atoms: C4_9  and  C5_14 
REMARK    4  A    between atoms: N2_10  and  O4_12 
ROOT
HETATM    1  O1  UNL     1      48.280  59.409  11.205  1.00  0.00    -0.246 OA
HETATM    2  C1  UNL     1      49.014  58.769  10.353  1.00  0.00     0.331 C 
HETATM    3  N1  UNL     1      48.404  57.977   9.360  1.00  0.00    -0.311 N 
ATOM      4  H1  UNL     1      47.449  58.235   9.110  1.00  0.00     0.166 HD
HETATM    5  C2  UNL     1      48.954  56.853   8.655  1.00  0.00     0.242 C 
HETATM    6  C8  UNL     1      50.415  56.673   8.866  1.00  0.00     0.307 C 
HETATM    7  O5  UNL     1      50.968  55.623   8.772  1.00  0.00    -0.275 OA
HETATM    8  S1  UNL     1      51.358  58.086   9.271  1.00  0.00     0.303 S 
HETATM    9  O6  UNL     1      51.459  59.015   8.094  1.00  0.00    -0.197 OA
HETATM   10  O7  UNL     1      52.714  57.719   9.828  1.00  0.00    -0.197 OA
HETATM   11  N3  UNL     1      50.412  58.897  10.458  1.00  0.00    -0.229 N 
ATOM     12  H3  UNL     1      50.844  59.445  11.203  1.00  0.00     0.183 HD
ENDROOT
BRANCH   5  13
HETATM   13  C3  UNL     1      48.206  55.662   9.131  1.00  0.00     0.218 C 
HETATM   14  O2  UNL     1      48.457  55.153  10.278  1.00  0.00    -0.645 OA
HETATM   15  O3  UNL     1      47.239  55.072   8.384  1.00  0.00    -0.645 OA
ENDBRANCH   5  13
BRANCH   5  16
HETATM   16  C4  UNL     1      48.808  57.038   7.160  1.00  0.00     0.061 C 
HETATM   17  N2  UNL     1      49.119  56.033   6.393  1.00  0.00    -0.274 N 
ATOM     18  H2  UNL     1      49.445  55.169   6.827  1.00  0.00     0.193 HD
BRANCH  17  19
HETATM   19  O4  UNL     1      49.028  56.084   5.056  1.00  0.00    -0.290 OA
ATOM     20  H4  UNL     1      49.373  56.807   4.544  1.00  0.00     0.244 HD
ENDBRANCH  17  19
BRANCH  16  21
HETATM   21  C5  UNL     1      48.320  58.353   6.698  1.00  0.00     0.037 A 
HETATM   22  C6  UNL     1      48.123  58.766   5.318  1.00  0.00     0.011 A 
HETATM   23  C7  UNL     1      46.902  58.377   6.151  1.00  0.00     0.011 A 
ENDBRANCH  16  21
ENDBRANCH   5  16
TORSDOF 4
ENDMDL
MODEL 3
REMARK VINA RESULT: -5.021116235     12.557     14.476
REMARK  4 active torsions:
REMARK  status: ('A' for Active; 'I' for Inactive)
REMARK    1  A    between atoms: C2_5  and  C3_6 
REMARK    2  A    between atoms: C2_5  and  C4_9 
REMARK    3  A    between atoms: C4_9  and  C5_14 
REMARK    4  A    between atoms: N2_10  and  O4_12 
ROOT
HETATM    1  O1  UNL     1      43.609  43.200  13.498  1.00  0.00    -0.246 OA
HETATM    2  C1  UNL     1      44.660  43.882  13.821  1.00  0.00     0.331 C 
HETATM    3  N1  UNL     1      44.543  45.258  14.101  1.00  0.00    -0.311 N 
ATOM      4  H1  UNL     1      43.624  45.572  14.412  1.00  0.00     0.166 HD
HETATM    5  C2  UNL     1      45.553  46.275  14.006  1.00  0.00     0.242 C 
HETATM    6  C8  UNL     1      46.924  45.738  13.797  1.00  0.00     0.307 C 
HETATM    7  O5  UNL     1      47.795  46.347  13.261  1.00  0.00    -0.275 OA
HETATM    8  S1  UNL     1      47.261  44.125  14.377  1.00  0.00     0.303 S 
HETATM    9  O6  UNL     1      47.281  44.091  15.879  1.00  0.00    -0.197 OA
HETATM   10  O7  UNL     1      48.529  43.563  13.776  1.00  0.00    -0.197 OA
HETATM   11  N3  UNL     1      45.894  43.205  13.881  1.00  0.00    -0.229 N 
ATOM     12  H3  UNL     1      45.972  42.217  13.642  1.00  0.00     0.183 HD
ENDROOT
BRANCH   5  13
HETATM   13  C3  UNL     1      45.155  47.145  12.871  1.00  0.00     0.218 C 
HETATM   14  O2  UNL     1      44.099  46.889  12.195  1.00  0.00    -0.645 OA
HETATM   15  O3  UNL     1      45.880  48.233  12.508  1.00  0.00    -0.645 OA
ENDBRANCH   5  13
BRANCH   5  16
HETATM   16  C4  UNL     1      45.646  47.057  15.299  1.00  0.00     0.061 C 
HETATM   17  N2  UNL     1      46.822  47.189  15.842  1.00  0.00    -0.274 N 
ATOM     18  H2  UNL     1      47.625  46.764  15.378  1.00  0.00     0.193 HD
BRANCH  17  19
HETATM   19  O4  UNL     1      47.022  47.861  16.985  1.00  0.00    -0.290 OA
ATOM     20  H4  UNL     1      46.408  47.838  17.710  1.00  0.00     0.244 HD
ENDBRANCH  17  19
BRANCH  16  21
HETATM   21  C5  UNL     1      44.385  47.608  15.834  1.00  0.00     0.037 A 
HETATM   22  C6  UNL     1      44.237  48.430  17.024  1.00  0.00     0.011 A 
HETATM   23  C7  UNL     1      44.187  49.104  15.652  1.00  0.00     0.011 A 
ENDBRANCH  16  21
ENDBRANCH   5  16
TORSDOF 4
ENDMDL
MODEL 4
REMARK VINA RESULT: -4.942974730      5.946      7.678
REMARK  4 active torsions:
REMARK  status: ('A' for Active; 'I' for Inactive)
REMARK    1  A    between atoms: C2_5  and  C3_6 
REMARK    2  A    between atoms: C2_5  and  C4_9 
REMARK    3  A    between atoms: C4_9  and  C5_14 
REMARK    4  A    between atoms: N2_10  and  O4_12 
ROOT
HETATM    1  O1  UNL     1      42.845  52.768  12.904  1.00  0.00    -0.246 OA
HETATM    2  C1  UNL     1      43.718  52.109  12.214  1.00  0.00     0.331 C 
HETATM    3  N1  UNL     1      44.370  52.733  11.132  1.00  0.00    -0.311 N 
ATOM      4  H1  UNL     1      44.422  53.751  11.171  1.00  0.00     0.166 HD
HETATM    5  C2  UNL     1      44.971  52.119   9.980  1.00  0.00     0.242 C 
HETATM    6  C8  UNL     1      45.094  50.642  10.087  1.00  0.00     0.307 C 
HETATM    7  O5  UNL     1      45.127  49.914   9.145  1.00  0.00    -0.275 OA
HETATM    8  S1  UNL     1      45.197  49.949  11.687  1.00  0.00     0.303 S 
HETATM    9  O6  UNL     1      46.512  50.286  12.331  1.00  0.00    -0.197 OA
HETATM   10  O7  UNL     1      44.931  48.461  11.676  1.00  0.00    -0.197 OA
HETATM   11  N3  UNL     1      43.983  50.777  12.584  1.00  0.00    -0.229 N 
ATOM     12  H3  UNL     1      43.480  50.324  13.346  1.00  0.00     0.183 HD
ENDROOT
BRANCH   5  13
HETATM   13  C3  UNL     1      44.117  52.491   8.824  1.00  0.00     0.218 C 
HETATM   14  O2  UNL     1      44.607  52.537   7.642  1.00  0.00    -0.645 OA
HETATM   15  O3  UNL     1      42.802  52.792   8.966  1.00  0.00    -0.645 OA
ENDBRANCH   5  13
BRANCH   5  16
HETATM   16  C4  UNL     1      46.393  52.605   9.798  1.00  0.00     0.061 C 
HETATM   17  N2  UNL     1      47.349  51.727   9.897  1.00  0.00    -0.274 N 
ATOM     18  H2  UNL     1      47.103  50.756  10.092  1.00  0.00     0.193 HD
BRANCH  17  19
HETATM   19  O4  UNL     1      48.644  52.044   9.754  1.00  0.00    -0.290 OA
ATOM     20  H4  UNL     1      49.025  52.833  10.122  1.00  0.00     0.244 HD
ENDBRANCH  17  19
BRANCH  16  21
HETATM   21  C5  UNL     1      46.573  54.044   9.520  1.00  0.00     0.037 A 
HETATM   22  C6  UNL     1      47.717  54.860   9.894  1.00  0.00     0.011 A 
HETATM   23  C7  UNL     1      47.592  54.387   8.446  1.00  0.00     0.011 A 
ENDBRANCH  16  21
ENDBRANCH   5  16
TORSDOF 4
ENDMDL
MODEL 5
REMARK VINA RESULT: -4.868482540      6.736      8.116
REMARK  4 active torsions:
REMARK  status: ('A' for Active; 'I' for Inactive)
REMARK    1  A    between atoms: C2_5  and  C3_6 
REMARK    2  A    between atoms: C2_5  and  C4_9 
REMARK    3  A    between atoms: C4_9  and  C5_14 
REMARK    4  A    between atoms: N2_10  and  O4_12 
ROOT
HETATM    1  O1  UNL     1      48.366  51.700  11.395  1.00  0.00    -0.246 OA
HETATM    2  C1  UNL     1      47.152  51.348  11.120  1.00  0.00     0.331 C 
HETATM    3  N1  UNL     1      46.539  51.812   9.940  1.00  0.00    -0.311 N 
ATOM      4  H1  UNL     1      47.172  52.074   9.183  1.00  0.00     0.166 HD
HETATM    5  C2  UNL     1      45.137  51.964   9.664  1.00  0.00     0.242 C 
HETATM    6  C8  UNL     1      44.257  51.340  10.687  1.00  0.00     0.307 C 
HETATM    7  O5  UNL     1      43.147  51.706  10.912  1.00  0.00    -0.275 OA
HETATM    8  S1  UNL     1      44.899  49.997  11.602  1.00  0.00     0.303 S 
HETATM    9  O6  UNL     1      45.051  48.783  10.730  1.00  0.00    -0.197 OA
HETATM   10  O7  UNL     1      44.079  49.714  12.840  1.00  0.00    -0.197 OA
HETATM   11  N3  UNL     1      46.489  50.500  12.028  1.00  0.00    -0.229 N 
ATOM     12  H3  UNL     1      46.930  50.199  12.897  1.00  0.00     0.183 HD
ENDROOT
BRANCH   5  13
HETATM   13  C3  UNL     1      44.890  53.425   9.583  1.00  0.00     0.218 C 
HETATM   14  O2  UNL     1      45.746  54.200   9.032  1.00  0.00    -0.645 OA
HETATM   15  O3  UNL     1      43.762  53.994  10.080  1.00  0.00    -0.645 OA
ENDBRANCH   5  13
BRANCH   5  16
HETATM   16  C4  UNL     1      44.769  51.266   8.372  1.00  0.00     0.061 C 
HETATM   17  N2  UNL     1      45.170  50.037   8.213  1.00  0.00    -0.274 N 
ATOM     18  H2  UNL     1      45.711  49.599   8.959  1.00  0.00     0.193 HD
BRANCH  17  19
HETATM   19  O4  UNL     1      44.901  49.323   7.111  1.00  0.00    -0.290 OA
ATOM     20  H4  UNL     1      44.999  49.674   6.233  1.00  0.00     0.244 HD
ENDBRANCH  17  19
BRANCH  16  21
HETATM   21  C5  UNL     1      43.979  52.045   7.398  1.00  0.00     0.037 A 
HETATM   22  C6  UNL     1      43.184  51.510   6.305  1.00  0.00     0.011 A 
HETATM   23  C7  UNL     1      42.470  51.985   7.571  1.00  0.00     0.011 A 
ENDBRANCH  16  21
ENDBRANCH   5  16
TORSDOF 4
ENDMDL
