MODEL 1
REMARK VINA RESULT: -7.831751364      0.000      0.000
REMARK  6 active torsions:
REMARK  status: ('A' for Active; 'I' for Inactive)
REMARK       I    between atoms: N1_2  and  C2_4 
REMARK    1  A    between atoms: C2_4  and  O2_6 
REMARK    2  A    between atoms: O2_6  and  C3_7 
REMARK    3  A    between atoms: C4_8  and  N2_9 
REMARK    4  A    between atoms: C5_14  and  N4_15 
REMARK       I    between atoms: N4_15  and  C6_17 
REMARK    5  A    between atoms: C6_17  and  C7_19 
REMARK    6  A    between atoms: C7_19  and  O6_20 
ROOT
HETATM    1  C3  UNL     1      44.126  51.917  11.802  1.00  0.00     0.199 A 
HETATM    2  C4  UNL     1      45.046  50.975  11.404  1.00  0.00     0.228 A 
HETATM    3  N3  UNL     1      45.272  49.969  12.294  1.00  0.00    -0.167 N 
ATOM      4  H3  UNL     1      45.947  49.246  12.045  1.00  0.00     0.186 HD
HETATM    5  C5  UNL     1      44.653  49.881  13.481  1.00  0.00     0.689 A 
HETATM    6  N5  UNL     1      43.750  50.800  13.882  1.00  0.00    -0.153 N 
ATOM      7  H5  UNL     1      43.280  50.735  14.784  1.00  0.00     0.187 HD
HETATM    8  C8  UNL     1      43.502  51.817  13.017  1.00  0.00     0.297 A 
HETATM    9  O7  UNL     1      42.665  52.684  13.365  1.00  0.00    -0.264 OA
ENDROOT
BRANCH   5  10
HETATM   10  N4  UNL     1      44.900  48.909  14.292  1.00  0.00    -0.158 N 
HETATM   11  C6  UNL     1      44.704  47.586  13.871  1.00  0.00     0.259 C 
HETATM   12  O5  UNL     1      43.571  47.060  13.702  1.00  0.00    -0.270 OA
ATOM     13  H4  UNL     1      45.237  49.101  15.235  1.00  0.00     0.187 HD
BRANCH  11  14
HETATM   14  C7  UNL     1      45.885  46.705  13.593  1.00  0.00     0.267 C 
BRANCH  14  15
HETATM   15  O6  UNL     1      46.941  47.475  13.081  1.00  0.00    -0.392 OA
ATOM     16  H6  UNL     1      47.222  48.108  13.730  1.00  0.00     0.210 HD
ENDBRANCH  14  15
ENDBRANCH  11  14
ENDBRANCH   5  10
BRANCH   2  17
HETATM   17  N2  UNL     1      45.747  50.996  10.179  1.00  0.00    -0.094 N 
HETATM   18  O3  UNL     1      46.699  51.767  10.007  1.00  0.00    -0.530 OA
HETATM   19  O4  UNL     1      45.380  50.162   9.171  1.00  0.00    -0.530 OA
ENDBRANCH   2  17
BRANCH   1  20
HETATM   20  O2  UNL     1      43.831  52.974  10.965  1.00  0.00    -0.252 OA
BRANCH  20  21
HETATM   21  C2  UNL     1      43.216  52.717   9.748  1.00  0.00     0.365 C 
HETATM   22  N1  UNL     1      43.885  52.888   8.529  1.00  0.00    -0.341 N 
HETATM   23  C1  UNL     1      43.216  52.611   7.274  1.00  0.00     0.151 C 
ATOM     24  H1  UNL     1      44.852  53.212   8.525  1.00  0.00     0.164 HD
HETATM   25  O1  UNL     1      42.025  52.319   9.770  1.00  0.00    -0.238 OA
ENDBRANCH  20  21
ENDBRANCH   1  20
TORSDOF 6
ENDMDL
MODEL 2
REMARK VINA RESULT: -7.426533123      0.988      2.834
REMARK  6 active torsions:
REMARK  status: ('A' for Active; 'I' for Inactive)
REMARK       I    between atoms: N1_2  and  C2_4 
REMARK    1  A    between atoms: C2_4  and  O2_6 
REMARK    2  A    between atoms: O2_6  and  C3_7 
REMARK    3  A    between atoms: C4_8  and  N2_9 
REMARK    4  A    between atoms: C5_14  and  N4_15 
REMARK       I    between atoms: N4_15  and  C6_17 
REMARK    5  A    between atoms: C6_17  and  C7_19 
REMARK    6  A    between atoms: C7_19  and  O6_20 
ROOT
HETATM    1  C3  UNL     1      44.205  51.709  12.226  1.00  0.00     0.199 A 
HETATM    2  C4  UNL     1      43.451  51.598  13.369  1.00  0.00     0.228 A 
HETATM    3  N3  UNL     1      43.748  50.532  14.163  1.00  0.00    -0.167 N 
ATOM      4  H3  UNL     1      43.215  50.406  15.024  1.00  0.00     0.186 HD
HETATM    5  C5  UNL     1      44.706  49.639  13.871  1.00  0.00     0.689 A 
HETATM    6  N5  UNL     1      45.452  49.738  12.751  1.00  0.00    -0.153 N 
ATOM      7  H5  UNL     1      46.179  49.059  12.527  1.00  0.00     0.187 HD
HETATM    8  C8  UNL     1      45.180  50.790  11.938  1.00  0.00     0.297 A 
HETATM    9  O7  UNL     1      45.860  50.905  10.890  1.00  0.00    -0.264 OA
ENDROOT
BRANCH   5  10
HETATM   10  N4  UNL     1      44.952  48.644  14.655  1.00  0.00    -0.158 N 
HETATM   11  C6  UNL     1      45.151  47.366  14.114  1.00  0.00     0.259 C 
HETATM   12  O5  UNL     1      44.232  46.657  13.622  1.00  0.00    -0.270 OA
ATOM     13  H4  UNL     1      45.002  48.787  15.663  1.00  0.00     0.187 HD
BRANCH  11  14
HETATM   14  C7  UNL     1      46.524  46.765  14.097  1.00  0.00     0.267 C 
BRANCH  14  15
HETATM   15  O6  UNL     1      47.265  47.304  13.034  1.00  0.00    -0.392 OA
ATOM     16  H6  UNL     1      47.865  47.963  13.362  1.00  0.00     0.210 HD
ENDBRANCH  14  15
ENDBRANCH  11  14
ENDBRANCH   5  10
BRANCH   2  17
HETATM   17  N2  UNL     1      42.420  52.486  13.749  1.00  0.00    -0.094 N 
HETATM   18  O3  UNL     1      41.398  52.599  13.062  1.00  0.00    -0.530 OA
HETATM   19  O4  UNL     1      42.545  53.229  14.880  1.00  0.00    -0.530 OA
ENDBRANCH   2  17
BRANCH   1  20
HETATM   20  O2  UNL     1      43.976  52.759  11.360  1.00  0.00    -0.252 OA
BRANCH  20  21
HETATM   21  C2  UNL     1      43.460  52.491  10.100  1.00  0.00     0.365 C 
HETATM   22  N1  UNL     1      44.171  52.785   8.929  1.00  0.00    -0.341 N 
HETATM   23  C1  UNL     1      43.606  52.494   7.628  1.00  0.00     0.151 C 
ATOM     24  H1  UNL     1      45.097  53.209   8.994  1.00  0.00     0.164 HD
HETATM   25  O1  UNL     1      42.319  51.970  10.037  1.00  0.00    -0.238 OA
ENDBRANCH  20  21
ENDBRANCH   1  20
TORSDOF 6
ENDMDL
MODEL 3
REMARK VINA RESULT: -7.377187546      2.068      6.377
REMARK  6 active torsions:
REMARK  status: ('A' for Active; 'I' for Inactive)
REMARK       I    between atoms: N1_2  and  C2_4 
REMARK    1  A    between atoms: C2_4  and  O2_6 
REMARK    2  A    between atoms: O2_6  and  C3_7 
REMARK    3  A    between atoms: C4_8  and  N2_9 
REMARK    4  A    between atoms: C5_14  and  N4_15 
REMARK       I    between atoms: N4_15  and  C6_17 
REMARK    5  A    between atoms: C6_17  and  C7_19 
REMARK    6  A    between atoms: C7_19  and  O6_20 
ROOT
HETATM    1  C3  UNL     1      44.466  51.621  10.656  1.00  0.00     0.199 A 
HETATM    2  C4  UNL     1      43.320  52.265  11.058  1.00  0.00     0.228 A 
HETATM    3  N3  UNL     1      42.525  52.724  10.052  1.00  0.00    -0.167 N 
ATOM      4  H3  UNL     1      41.663  53.209  10.300  1.00  0.00     0.186 HD
HETATM    5  C5  UNL     1      42.817  52.569   8.752  1.00  0.00     0.689 A 
HETATM    6  N5  UNL     1      43.939  51.940   8.345  1.00  0.00    -0.153 N 
ATOM      7  H5  UNL     1      44.163  51.823   7.358  1.00  0.00     0.187 HD
HETATM    8  C8  UNL     1      44.754  51.470   9.325  1.00  0.00     0.297 A 
HETATM    9  O7  UNL     1      45.804  50.880   8.973  1.00  0.00    -0.264 OA
ENDROOT
BRANCH   5  10
HETATM   10  N4  UNL     1      42.032  53.021   7.833  1.00  0.00    -0.158 N 
HETATM   11  C6  UNL     1      42.479  53.086   6.506  1.00  0.00     0.259 C 
HETATM   12  O5  UNL     1      43.328  53.917   6.087  1.00  0.00    -0.270 OA
ATOM     13  H4  UNL     1      41.090  53.331   8.071  1.00  0.00     0.187 HD
BRANCH  11  14
HETATM   14  C7  UNL     1      41.943  52.125   5.488  1.00  0.00     0.267 C 
BRANCH  14  15
HETATM   15  O6  UNL     1      42.550  50.871   5.652  1.00  0.00    -0.392 OA
ATOM     16  H6  UNL     1      41.884  50.207   5.784  1.00  0.00     0.210 HD
ENDBRANCH  14  15
ENDBRANCH  11  14
ENDBRANCH   5  10
BRANCH   2  17
HETATM   17  N2  UNL     1      42.940  52.477  12.401  1.00  0.00    -0.094 N 
HETATM   18  O3  UNL     1      43.786  52.739  13.264  1.00  0.00    -0.530 OA
HETATM   19  O4  UNL     1      41.632  52.395  12.759  1.00  0.00    -0.530 OA
ENDBRANCH   2  17
BRANCH   1  20
HETATM   20  O2  UNL     1      45.333  51.120  11.605  1.00  0.00    -0.252 OA
BRANCH  20  21
HETATM   21  C2  UNL     1      45.048  49.900  12.201  1.00  0.00     0.365 C 
HETATM   22  N1  UNL     1      44.869  49.775  13.585  1.00  0.00    -0.341 N 
HETATM   23  C1  UNL     1      44.571  48.488  14.178  1.00  0.00     0.151 C 
ATOM     24  H1  UNL     1      44.949  50.599  14.181  1.00  0.00     0.164 HD
HETATM   25  O1  UNL     1      44.952  48.896  11.454  1.00  0.00    -0.238 OA
ENDBRANCH  20  21
ENDBRANCH   1  20
TORSDOF 6
ENDMDL
MODEL 4
REMARK VINA RESULT: -7.367633392      2.098      6.012
REMARK  6 active torsions:
REMARK  status: ('A' for Active; 'I' for Inactive)
REMARK       I    between atoms: N1_2  and  C2_4 
REMARK    1  A    between atoms: C2_4  and  O2_6 
REMARK    2  A    between atoms: O2_6  and  C3_7 
REMARK    3  A    between atoms: C4_8  and  N2_9 
REMARK    4  A    between atoms: C5_14  and  N4_15 
REMARK       I    between atoms: N4_15  and  C6_17 
REMARK    5  A    between atoms: C6_17  and  C7_19 
REMARK    6  A    between atoms: C7_19  and  O6_20 
ROOT
HETATM    1  C3  UNL     1      44.208  52.467  10.739  1.00  0.00     0.199 A 
HETATM    2  C4  UNL     1      44.831  52.824   9.567  1.00  0.00     0.228 A 
HETATM    3  N3  UNL     1      44.000  53.070   8.516  1.00  0.00    -0.167 N 
ATOM      4  H3  UNL     1      44.415  53.339   7.624  1.00  0.00     0.186 HD
HETATM    5  C5  UNL     1      42.664  52.977   8.595  1.00  0.00     0.689 A 
HETATM    6  N5  UNL     1      42.042  52.625   9.740  1.00  0.00    -0.153 N 
ATOM      7  H5  UNL     1      41.027  52.553   9.801  1.00  0.00     0.187 HD
HETATM    8  C8  UNL     1      42.843  52.373  10.807  1.00  0.00     0.297 A 
HETATM    9  O7  UNL     1      42.289  52.046  11.883  1.00  0.00    -0.264 OA
ENDROOT
BRANCH   5  10
HETATM   10  N4  UNL     1      41.917  53.219   7.572  1.00  0.00    -0.158 N 
HETATM   11  C6  UNL     1      42.460  53.149   6.281  1.00  0.00     0.259 C 
HETATM   12  O5  UNL     1      43.261  53.999   5.806  1.00  0.00    -0.270 OA
ATOM     13  H4  UNL     1      40.934  53.460   7.700  1.00  0.00     0.187 HD
BRANCH  11  14
HETATM   14  C7  UNL     1      42.097  52.012   5.375  1.00  0.00     0.267 C 
BRANCH  14  15
HETATM   15  O6  UNL     1      42.717  50.834   5.820  1.00  0.00    -0.392 OA
ATOM     16  H6  UNL     1      42.746  50.200   5.114  1.00  0.00     0.210 HD
ENDBRANCH  14  15
ENDBRANCH  11  14
ENDBRANCH   5  10
BRANCH   2  17
HETATM   17  N2  UNL     1      46.228  52.939   9.395  1.00  0.00    -0.094 N 
HETATM   18  O3  UNL     1      46.975  51.983   9.634  1.00  0.00    -0.530 OA
HETATM   19  O4  UNL     1      46.765  54.109   8.961  1.00  0.00    -0.530 OA
ENDBRANCH   2  17
BRANCH   1  20
HETATM   20  O2  UNL     1      44.969  52.200  11.859  1.00  0.00    -0.252 OA
BRANCH  20  21
HETATM   21  C2  UNL     1      44.969  50.914  12.381  1.00  0.00     0.365 C 
HETATM   22  N1  UNL     1      44.512  50.641  13.677  1.00  0.00    -0.341 N 
HETATM   23  C1  UNL     1      44.524  49.288  14.195  1.00  0.00     0.151 C 
ATOM     24  H1  UNL     1      44.168  51.402  14.263  1.00  0.00     0.164 HD
HETATM   25  O1  UNL     1      45.395  49.988  11.648  1.00  0.00    -0.238 OA
ENDBRANCH  20  21
ENDBRANCH   1  20
TORSDOF 6
ENDMDL
MODEL 5
REMARK VINA RESULT: -7.205910401      0.997      1.308
REMARK  6 active torsions:
REMARK  status: ('A' for Active; 'I' for Inactive)
REMARK       I    between atoms: N1_2  and  C2_4 
REMARK    1  A    between atoms: C2_4  and  O2_6 
REMARK    2  A    between atoms: O2_6  and  C3_7 
REMARK    3  A    between atoms: C4_8  and  N2_9 
REMARK    4  A    between atoms: C5_14  and  N4_15 
REMARK       I    between atoms: N4_15  and  C6_17 
REMARK    5  A    between atoms: C6_17  and  C7_19 
REMARK    6  A    between atoms: C7_19  and  O6_20 
ROOT
HETATM    1  C3  UNL     1      44.133  51.915  11.709  1.00  0.00     0.199 A 
HETATM    2  C4  UNL     1      45.115  51.077  11.237  1.00  0.00     0.228 A 
HETATM    3  N3  UNL     1      45.482  50.074  12.082  1.00  0.00    -0.167 N 
ATOM      4  H3  UNL     1      46.208  49.425  11.777  1.00  0.00     0.186 HD
HETATM    5  C5  UNL     1      44.938  49.895  13.295  1.00  0.00     0.689 A 
HETATM    6  N5  UNL     1      43.975  50.713  13.769  1.00  0.00    -0.153 N 
ATOM      7  H5  UNL     1      43.561  50.579  14.692  1.00  0.00     0.187 HD
HETATM    8  C8  UNL     1      43.586  51.723  12.950  1.00  0.00     0.297 A 
HETATM    9  O7  UNL     1      42.691  52.496  13.368  1.00  0.00    -0.264 OA
ENDROOT
BRANCH   5  10
HETATM   10  N4  UNL     1      45.319  48.930  14.062  1.00  0.00    -0.158 N 
HETATM   11  C6  UNL     1      44.366  48.058  14.607  1.00  0.00     0.259 C 
HETATM   12  O5  UNL     1      43.565  48.375  15.527  1.00  0.00    -0.270 OA
ATOM     13  H4  UNL     1      46.309  48.802  14.270  1.00  0.00     0.187 HD
BRANCH  11  14
HETATM   14  C7  UNL     1      44.257  46.653  14.096  1.00  0.00     0.267 C 
BRANCH  14  15
HETATM   15  O6  UNL     1      43.276  46.588  13.094  1.00  0.00    -0.392 OA
ATOM     16  H6  UNL     1      43.476  45.879  12.494  1.00  0.00     0.210 HD
ENDBRANCH  14  15
ENDBRANCH  11  14
ENDBRANCH   5  10
BRANCH   2  17
HETATM   17  N2  UNL     1      45.746  51.197   9.979  1.00  0.00    -0.094 N 
HETATM   18  O3  UNL     1      45.485  50.408   9.063  1.00  0.00    -0.530 OA
HETATM   19  O4  UNL     1      46.650  52.188   9.764  1.00  0.00    -0.530 OA
ENDBRANCH   2  17
BRANCH   1  20
HETATM   20  O2  UNL     1      43.695  52.960  10.922  1.00  0.00    -0.252 OA
BRANCH  20  21
HETATM   21  C2  UNL     1      43.079  52.678   9.712  1.00  0.00     0.365 C 
HETATM   22  N1  UNL     1      43.687  52.972   8.484  1.00  0.00    -0.341 N 
HETATM   23  C1  UNL     1      43.019  52.666   7.236  1.00  0.00     0.151 C 
ATOM     24  H1  UNL     1      44.610  53.407   8.468  1.00  0.00     0.164 HD
HETATM   25  O1  UNL     1      41.943  52.143   9.747  1.00  0.00    -0.238 OA
ENDBRANCH  20  21
ENDBRANCH   1  20
TORSDOF 6
ENDMDL
