MODEL 1
REMARK VINA RESULT: -9.242577197      0.000      0.000
REMARK  5 active torsions:
REMARK  status: ('A' for Active; 'I' for Inactive)
REMARK    1  A    between atoms: C1_2  and  C2_3 
REMARK       I    between atoms: C1_2  and  N5_19 
REMARK    2  A    between atoms: C2_3  and  C3_4 
REMARK    3  A    between atoms: C5_7  and  N1_8 
REMARK       I    between atoms: N1_8  and  C6_10 
REMARK       I    between atoms: C6_10  and  N2_12 
REMARK    4  A    between atoms: N2_12  and  N3_14 
REMARK    5  A    between atoms: N5_19  and  C7_21 
ROOT
HETATM    1  C3  UNL     1      44.446  51.417  10.877  1.00  0.00     0.026 A 
HETATM    2  C4  UNL     1      43.814  52.561  11.274  1.00  0.00     0.078 A 
HETATM    3  S1  UNL     1      43.392  52.207  12.883  1.00  0.00    -0.064 SA
HETATM    4  C5  UNL     1      44.035  50.633  12.970  1.00  0.00     0.152 A 
HETATM    5  N4  UNL     1      44.550  50.440  11.754  1.00  0.00    -0.339 N 
ATOM      6  H4  UNL     1      45.012  49.563  11.512  1.00  0.00     0.168 HD
ENDROOT
BRANCH   1   7
HETATM    7  C2  UNL     1      45.019  51.255   9.469  1.00  0.00     0.161 C 
BRANCH   7   8
HETATM    8  C1  UNL     1      45.009  52.530   8.756  1.00  0.00     0.241 C 
HETATM    9  O1  UNL     1      45.985  53.352   8.941  1.00  0.00    -0.272 OA
HETATM   10  N5  UNL     1      44.055  53.017   7.863  1.00  0.00    -0.157 N 
ATOM     11  H5  UNL     1      44.177  54.000   7.619  1.00  0.00     0.187 HD
BRANCH  10  12
HETATM   12  C7  UNL     1      43.071  52.468   7.303  1.00  0.00     0.716 A 
HETATM   13  N6  UNL     1      43.274  51.590   6.262  1.00  0.00    -0.115 N 
HETATM   14  N7  UNL     1      42.100  51.156   5.854  1.00  0.00    -0.213 N 
ATOM     15  H6  UNL     1      44.178  51.322   5.874  1.00  0.00     0.207 HD
HETATM   16  N8  UNL     1      41.164  51.716   6.584  1.00  0.00    -0.213 N 
ATOM     17  H7  UNL     1      41.944  50.493   5.095  1.00  0.00     0.210 HD
HETATM   18  N9  UNL     1      41.757  52.514   7.463  1.00  0.00    -0.115 N 
ATOM     19  H8  UNL     1      40.159  51.566   6.491  1.00  0.00     0.210 HD
ATOM     20  H9  UNL     1      41.272  53.079   8.161  1.00  0.00     0.207 HD
ENDBRANCH  10  12
ENDBRANCH   7   8
ENDBRANCH   1   7
BRANCH   4  21
HETATM   21  N1  UNL     1      44.032  49.789  13.986  1.00  0.00    -0.287 N 
HETATM   22  C6  UNL     1      44.574  48.503  13.851  1.00  0.00     0.345 C 
HETATM   23  O2  UNL     1      43.904  47.630  13.218  1.00  0.00    -0.245 OA
HETATM   24  N2  UNL     1      45.827  48.094  14.373  1.00  0.00    -0.191 N 
ATOM     25  H2  UNL     1      46.386  48.777  14.885  1.00  0.00     0.198 HD
ATOM     26  H1  UNL     1      43.631  50.077  14.879  1.00  0.00     0.172 HD
BRANCH  24  27
HETATM   27  N3  UNL     1      46.330  46.805  14.219  1.00  0.00    -0.035 N 
HETATM   28  O3  UNL     1      46.111  45.874  14.999  1.00  0.00    -0.516 OA
HETATM   29  O4  UNL     1      47.120  46.556  13.129  1.00  0.00    -0.516 OA
ENDBRANCH  24  27
ENDBRANCH   4  21
TORSDOF 5
ENDMDL
MODEL 2
REMARK VINA RESULT: -8.802433238      1.265      1.620
REMARK  5 active torsions:
REMARK  status: ('A' for Active; 'I' for Inactive)
REMARK    1  A    between atoms: C1_2  and  C2_3 
REMARK       I    between atoms: C1_2  and  N5_19 
REMARK    2  A    between atoms: C2_3  and  C3_4 
REMARK    3  A    between atoms: C5_7  and  N1_8 
REMARK       I    between atoms: N1_8  and  C6_10 
REMARK       I    between atoms: C6_10  and  N2_12 
REMARK    4  A    between atoms: N2_12  and  N3_14 
REMARK    5  A    between atoms: N5_19  and  C7_21 
ROOT
HETATM    1  C3  UNL     1      43.916  51.284  11.328  1.00  0.00     0.026 A 
HETATM    2  C4  UNL     1      44.610  50.332  10.635  1.00  0.00     0.078 A 
HETATM    3  S1  UNL     1      45.063  49.243  11.860  1.00  0.00    -0.064 SA
HETATM    4  C5  UNL     1      44.353  50.046  13.184  1.00  0.00     0.152 A 
HETATM    5  N4  UNL     1      43.794  51.124  12.630  1.00  0.00    -0.339 N 
ATOM      6  H4  UNL     1      43.287  51.803  13.198  1.00  0.00     0.168 HD
ENDROOT
BRANCH   1   7
HETATM    7  C2  UNL     1      43.295  52.497  10.637  1.00  0.00     0.161 C 
BRANCH   7   8
HETATM    8  C1  UNL     1      44.162  52.983   9.567  1.00  0.00     0.241 C 
HETATM    9  O1  UNL     1      45.310  53.480   9.876  1.00  0.00    -0.272 OA
HETATM   10  N5  UNL     1      43.922  52.992   8.193  1.00  0.00    -0.157 N 
ATOM     11  H5  UNL     1      44.601  53.531   7.656  1.00  0.00     0.187 HD
BRANCH  10  12
HETATM   12  C7  UNL     1      43.023  52.458   7.493  1.00  0.00     0.716 A 
HETATM   13  N6  UNL     1      43.364  51.588   6.483  1.00  0.00    -0.115 N 
HETATM   14  N7  UNL     1      42.256  51.169   5.908  1.00  0.00    -0.213 N 
ATOM     15  H6  UNL     1      44.312  51.316   6.223  1.00  0.00     0.207 HD
HETATM   16  N8  UNL     1      41.231  51.730   6.505  1.00  0.00    -0.213 N 
ATOM     17  H7  UNL     1      42.204  50.515   5.127  1.00  0.00     0.210 HD
HETATM   18  N9  UNL     1      41.700  52.513   7.468  1.00  0.00    -0.115 N 
ATOM     19  H8  UNL     1      40.248  51.589   6.270  1.00  0.00     0.210 HD
ATOM     20  H9  UNL     1      41.126  53.076   8.096  1.00  0.00     0.207 HD
ENDBRANCH  10  12
ENDBRANCH   7   8
ENDBRANCH   1   7
BRANCH   4  21
HETATM   21  N1  UNL     1      44.348  49.702  14.458  1.00  0.00    -0.287 N 
HETATM   22  C6  UNL     1      44.739  48.414  14.854  1.00  0.00     0.345 C 
HETATM   23  O2  UNL     1      43.929  47.454  14.666  1.00  0.00    -0.245 OA
HETATM   24  N2  UNL     1      45.982  48.096  15.456  1.00  0.00    -0.191 N 
ATOM     25  H2  UNL     1      46.651  48.848  15.618  1.00  0.00     0.198 HD
ATOM     26  H1  UNL     1      44.057  50.380  15.163  1.00  0.00     0.172 HD
BRANCH  24  27
HETATM   27  N3  UNL     1      46.332  46.803  15.837  1.00  0.00    -0.035 N 
HETATM   28  O3  UNL     1      46.659  45.910  15.049  1.00  0.00    -0.516 OA
HETATM   29  O4  UNL     1      46.312  46.505  17.172  1.00  0.00    -0.516 OA
ENDBRANCH  24  27
ENDBRANCH   4  21
TORSDOF 5
ENDMDL
MODEL 3
REMARK VINA RESULT: -8.553052899      1.258      1.501
REMARK  5 active torsions:
REMARK  status: ('A' for Active; 'I' for Inactive)
REMARK    1  A    between atoms: C1_2  and  C2_3 
REMARK       I    between atoms: C1_2  and  N5_19 
REMARK    2  A    between atoms: C2_3  and  C3_4 
REMARK    3  A    between atoms: C5_7  and  N1_8 
REMARK       I    between atoms: N1_8  and  C6_10 
REMARK       I    between atoms: C6_10  and  N2_12 
REMARK    4  A    between atoms: N2_12  and  N3_14 
REMARK    5  A    between atoms: N5_19  and  C7_21 
ROOT
HETATM    1  C3  UNL     1      44.966  50.712  10.577  1.00  0.00     0.026 A 
HETATM    2  C4  UNL     1      44.629  51.582  11.575  1.00  0.00     0.078 A 
HETATM    3  S1  UNL     1      44.329  50.540  12.885  1.00  0.00    -0.064 SA
HETATM    4  C5  UNL     1      44.645  49.060  12.104  1.00  0.00     0.152 A 
HETATM    5  N4  UNL     1      44.970  49.426  10.863  1.00  0.00    -0.339 N 
ATOM      6  H4  UNL     1      45.213  48.732  10.157  1.00  0.00     0.168 HD
ENDROOT
BRANCH   1   7
HETATM    7  C2  UNL     1      45.331  51.193   9.174  1.00  0.00     0.161 C 
BRANCH   7   8
HETATM    8  C1  UNL     1      44.904  52.575   8.972  1.00  0.00     0.241 C 
HETATM    9  O1  UNL     1      45.621  53.524   9.468  1.00  0.00    -0.272 OA
HETATM   10  N5  UNL     1      43.782  53.046   8.291  1.00  0.00    -0.157 N 
ATOM     11  H5  UNL     1      43.603  54.041   8.423  1.00  0.00     0.187 HD
BRANCH  10  12
HETATM   12  C7  UNL     1      42.950  52.470   7.543  1.00  0.00     0.716 A 
HETATM   13  N6  UNL     1      43.389  51.674   6.510  1.00  0.00    -0.115 N 
HETATM   14  N7  UNL     1      42.336  51.190   5.885  1.00  0.00    -0.213 N 
ATOM     15  H6  UNL     1      44.363  51.492   6.268  1.00  0.00     0.207 HD
HETATM   16  N8  UNL     1      41.251  51.640   6.472  1.00  0.00    -0.213 N 
ATOM     17  H7  UNL     1      42.359  50.568   5.078  1.00  0.00     0.210 HD
HETATM   18  N9  UNL     1      41.628  52.418   7.480  1.00  0.00    -0.115 N 
ATOM     19  H8  UNL     1      40.290  51.429   6.202  1.00  0.00     0.210 HD
ATOM     20  H9  UNL     1      40.992  52.904   8.113  1.00  0.00     0.207 HD
ENDBRANCH  10  12
ENDBRANCH   7   8
ENDBRANCH   1   7
BRANCH   4  21
HETATM   21  N1  UNL     1      44.587  47.834  12.592  1.00  0.00    -0.287 N 
HETATM   22  C6  UNL     1      45.584  47.359  13.456  1.00  0.00     0.345 C 
HETATM   23  O2  UNL     1      46.706  47.030  12.960  1.00  0.00    -0.245 OA
HETATM   24  N2  UNL     1      45.437  47.214  14.859  1.00  0.00    -0.191 N 
ATOM     25  H2  UNL     1      44.546  47.471  15.283  1.00  0.00     0.198 HD
ATOM     26  H1  UNL     1      43.808  47.226  12.338  1.00  0.00     0.172 HD
BRANCH  24  27
HETATM   27  N3  UNL     1      46.452  46.736  15.684  1.00  0.00    -0.035 N 
HETATM   28  O3  UNL     1      46.875  45.576  15.667  1.00  0.00    -0.516 OA
HETATM   29  O4  UNL     1      47.016  47.612  16.571  1.00  0.00    -0.516 OA
ENDBRANCH  24  27
ENDBRANCH   4  21
TORSDOF 5
ENDMDL
MODEL 4
REMARK VINA RESULT: -8.534485415      1.461      1.664
REMARK  5 active torsions:
REMARK  status: ('A' for Active; 'I' for Inactive)
REMARK    1  A    between atoms: C1_2  and  C2_3 
REMARK       I    between atoms: C1_2  and  N5_19 
REMARK    2  A    between atoms: C2_3  and  C3_4 
REMARK    3  A    between atoms: C5_7  and  N1_8 
REMARK       I    between atoms: N1_8  and  C6_10 
REMARK       I    between atoms: C6_10  and  N2_12 
REMARK    4  A    between atoms: N2_12  and  N3_14 
REMARK    5  A    between atoms: N5_19  and  C7_21 
ROOT
HETATM    1  C3  UNL     1      43.682  51.627  11.435  1.00  0.00     0.026 A 
HETATM    2  C4  UNL     1      43.889  51.856  12.766  1.00  0.00     0.078 A 
HETATM    3  S1  UNL     1      44.478  50.355  13.308  1.00  0.00    -0.064 SA
HETATM    4  C5  UNL     1      44.432  49.517  11.826  1.00  0.00     0.152 A 
HETATM    5  N4  UNL     1      43.964  50.427  10.970  1.00  0.00    -0.339 N 
ATOM      6  H4  UNL     1      43.829  50.200   9.984  1.00  0.00     0.168 HD
ENDROOT
BRANCH   1   7
HETATM    7  C2  UNL     1      43.145  52.711  10.501  1.00  0.00     0.161 C 
BRANCH   7   8
HETATM    8  C1  UNL     1      44.103  52.999   9.436  1.00  0.00     0.241 C 
HETATM    9  O1  UNL     1      45.291  53.382   9.758  1.00  0.00    -0.272 OA
HETATM   10  N5  UNL     1      43.917  52.918   8.057  1.00  0.00    -0.157 N 
ATOM     11  H5  UNL     1      44.675  53.326   7.510  1.00  0.00     0.187 HD
BRANCH  10  12
HETATM   12  C7  UNL     1      42.986  52.436   7.361  1.00  0.00     0.716 A 
HETATM   13  N6  UNL     1      43.259  51.461   6.429  1.00  0.00    -0.115 N 
HETATM   14  N7  UNL     1      42.129  51.125   5.841  1.00  0.00    -0.213 N 
ATOM     15  H6  UNL     1      44.177  51.066   6.227  1.00  0.00     0.207 HD
HETATM   16  N8  UNL     1      41.155  51.839   6.355  1.00  0.00    -0.213 N 
ATOM     17  H7  UNL     1      42.028  50.424   5.107  1.00  0.00     0.210 HD
HETATM   18  N9  UNL     1      41.679  52.635   7.279  1.00  0.00    -0.115 N 
ATOM     19  H8  UNL     1      40.171  51.791   6.091  1.00  0.00     0.210 HD
ATOM     20  H9  UNL     1      41.152  53.303   7.842  1.00  0.00     0.207 HD
ENDBRANCH  10  12
ENDBRANCH   7   8
ENDBRANCH   1   7
BRANCH   4  21
HETATM   21  N1  UNL     1      44.772  48.268  11.568  1.00  0.00    -0.287 N 
HETATM   22  C6  UNL     1      45.434  47.492  12.531  1.00  0.00     0.345 C 
HETATM   23  O2  UNL     1      46.667  47.709  12.737  1.00  0.00    -0.245 OA
HETATM   24  N2  UNL     1      44.825  46.469  13.302  1.00  0.00    -0.191 N 
ATOM     25  H2  UNL     1      43.835  46.275  13.156  1.00  0.00     0.198 HD
ATOM     26  H1  UNL     1      44.552  47.863  10.658  1.00  0.00     0.172 HD
BRANCH  24  27
HETATM   27  N3  UNL     1      45.517  45.719  14.248  1.00  0.00    -0.035 N 
HETATM   28  O3  UNL     1      45.863  44.544  14.089  1.00  0.00    -0.516 OA
HETATM   29  O4  UNL     1      45.834  46.324  15.433  1.00  0.00    -0.516 OA
ENDBRANCH  24  27
ENDBRANCH   4  21
TORSDOF 5
ENDMDL
MODEL 5
REMARK VINA RESULT: -8.292179346      3.257      4.122
REMARK  5 active torsions:
REMARK  status: ('A' for Active; 'I' for Inactive)
REMARK    1  A    between atoms: C1_2  and  C2_3 
REMARK       I    between atoms: C1_2  and  N5_19 
REMARK    2  A    between atoms: C2_3  and  C3_4 
REMARK    3  A    between atoms: C5_7  and  N1_8 
REMARK       I    between atoms: N1_8  and  C6_10 
REMARK       I    between atoms: C6_10  and  N2_12 
REMARK    4  A    between atoms: N2_12  and  N3_14 
REMARK    5  A    between atoms: N5_19  and  C7_21 
ROOT
HETATM    1  C3  UNL     1      44.796  51.219  10.799  1.00  0.00     0.026 A 
HETATM    2  C4  UNL     1      45.473  50.449  11.702  1.00  0.00     0.078 A 
HETATM    3  S1  UNL     1      44.593  50.707  13.135  1.00  0.00    -0.064 SA
HETATM    4  C5  UNL     1      43.418  51.774  12.518  1.00  0.00     0.152 A 
HETATM    5  N4  UNL     1      43.749  51.891  11.231  1.00  0.00    -0.339 N 
ATOM      6  H4  UNL     1      43.206  52.481  10.600  1.00  0.00     0.168 HD
ENDROOT
BRANCH   1   7
HETATM    7  C2  UNL     1      45.222  51.311   9.334  1.00  0.00     0.161 C 
BRANCH   7   8
HETATM    8  C1  UNL     1      44.982  52.652   8.808  1.00  0.00     0.241 C 
HETATM    9  O1  UNL     1      45.809  53.594   9.110  1.00  0.00    -0.272 OA
HETATM   10  N5  UNL     1      43.942  53.089   7.989  1.00  0.00    -0.157 N 
ATOM     11  H5  UNL     1      43.892  54.103   7.885  1.00  0.00     0.187 HD
BRANCH  10  12
HETATM   12  C7  UNL     1      43.054  52.465   7.353  1.00  0.00     0.716 A 
HETATM   13  N6  UNL     1      43.408  51.632   6.315  1.00  0.00    -0.115 N 
HETATM   14  N7  UNL     1      42.310  51.101   5.820  1.00  0.00    -0.213 N 
ATOM     15  H6  UNL     1      44.357  51.458   5.986  1.00  0.00     0.207 HD
HETATM   16  N8  UNL     1      41.278  51.556   6.492  1.00  0.00    -0.213 N 
ATOM     17  H7  UNL     1      42.268  50.444   5.041  1.00  0.00     0.210 HD
HETATM   18  N9  UNL     1      41.734  52.385   7.423  1.00  0.00    -0.115 N 
ATOM     19  H8  UNL     1      40.300  51.315   6.328  1.00  0.00     0.210 HD
ATOM     20  H9  UNL     1      41.152  52.887   8.094  1.00  0.00     0.207 HD
ENDBRANCH  10  12
ENDBRANCH   7   8
ENDBRANCH   1   7
BRANCH   4  21
HETATM   21  N1  UNL     1      42.414  52.357  13.147  1.00  0.00    -0.287 N 
HETATM   22  C6  UNL     1      42.434  52.511  14.541  1.00  0.00     0.345 C 
HETATM   23  O2  UNL     1      42.200  51.492  15.263  1.00  0.00    -0.245 OA
HETATM   24  N2  UNL     1      42.697  53.729  15.217  1.00  0.00    -0.191 N 
ATOM     25  H2  UNL     1      42.888  54.562  14.661  1.00  0.00     0.198 HD
ATOM     26  H1  UNL     1      41.615  52.700  12.613  1.00  0.00     0.172 HD
BRANCH  24  27
HETATM   27  N3  UNL     1      42.707  53.840  16.605  1.00  0.00    -0.035 N 
HETATM   28  O3  UNL     1      43.212  53.010  17.367  1.00  0.00    -0.516 OA
HETATM   29  O4  UNL     1      42.117  54.944  17.159  1.00  0.00    -0.516 OA
ENDBRANCH  24  27
ENDBRANCH   4  21
TORSDOF 5
ENDMDL
