MODEL 1
REMARK VINA RESULT: -6.688439736      0.000      0.000
REMARK  4 active torsions:
REMARK  status: ('A' for Active; 'I' for Inactive)
REMARK    1  A    between atoms: N1_2  and  S1_4 
REMARK    2  A    between atoms: S1_4  and  N2_7 
REMARK       I    between atoms: N2_7  and  C2_9 
REMARK    3  A    between atoms: C2_9  and  C3_11 
REMARK    4  A    between atoms: C5_16  and  N4_17 
ROOT
HETATM    1  C3  UNL     1      44.495  49.189  12.196  1.00  0.00     0.251 C 
HETATM    2  N3  UNL     1      45.741  48.473  12.100  1.00  0.00    -0.336 N 
ATOM      3  H3  UNL     1      46.415  48.771  11.394  1.00  0.00     0.164 HD
HETATM    4  C4  UNL     1      46.082  47.372  12.938  1.00  0.00     0.260 C 
HETATM    5  O4  UNL     1      47.218  46.802  12.784  1.00  0.00    -0.270 OA
HETATM    6  C5  UNL     1      45.168  46.864  13.983  1.00  0.00     0.346 C 
HETATM    7  S2  UNL     1      44.739  48.203  15.158  1.00  0.00    -0.052 SA
HETATM    8  S3  UNL     1      44.361  49.894  13.884  1.00  0.00    -0.060 SA
ENDROOT
BRANCH   1   9
HETATM    9  C2  UNL     1      44.514  50.319  11.243  1.00  0.00     0.266 C 
HETATM   10  N2  UNL     1      43.335  51.004  10.850  1.00  0.00    -0.235 N 
ATOM     11  H2  UNL     1      42.437  50.711  11.235  1.00  0.00     0.183 HD
HETATM   12  O3  UNL     1      45.616  50.685  10.766  1.00  0.00    -0.269 OA
BRANCH  10  13
HETATM   13  S1  UNL     1      43.383  52.306   9.746  1.00  0.00     0.321 S 
HETATM   14  O1  UNL     1      44.146  53.469  10.356  1.00  0.00    -0.182 OA
HETATM   15  O2  UNL     1      41.973  52.783   9.515  1.00  0.00    -0.182 OA
BRANCH  13  16
HETATM   16  N1  UNL     1      44.092  51.953   8.248  1.00  0.00    -0.307 N 
HETATM   17  C1  UNL     1      43.356  52.342   7.100  1.00  0.00     0.161 C 
ATOM     18  H1  UNL     1      44.996  51.488   8.177  1.00  0.00     0.173 HD
ENDBRANCH  13  16
ENDBRANCH  10  13
ENDBRANCH   1   9
BRANCH   6  19
HETATM   19  N4  UNL     1      43.935  46.429  13.354  1.00  0.00    -0.057 N 
ATOM     20  H43 UNL     1      44.030  45.523  12.896  1.00  0.00     0.276 HD
ATOM     21  H42 UNL     1      43.221  46.170  14.035  1.00  0.00     0.276 HD
ATOM     22  H41 UNL     1      43.617  47.157  12.714  1.00  0.00     0.276 HD
ENDBRANCH   6  19
TORSDOF 4
ENDMDL
MODEL 2
REMARK VINA RESULT: -6.687106457      1.083      1.083
REMARK  4 active torsions:
REMARK  status: ('A' for Active; 'I' for Inactive)
REMARK    1  A    between atoms: N1_2  and  S1_4 
REMARK    2  A    between atoms: S1_4  and  N2_7 
REMARK       I    between atoms: N2_7  and  C2_9 
REMARK    3  A    between atoms: C2_9  and  C3_11 
REMARK    4  A    between atoms: C5_16  and  N4_17 
ROOT
HETATM    1  C3  UNL     1      44.634  49.183  12.323  1.00  0.00     0.251 C 
HETATM    2  N3  UNL     1      45.846  48.408  12.278  1.00  0.00    -0.336 N 
ATOM      3  H3  UNL     1      46.593  48.716  11.655  1.00  0.00     0.164 HD
HETATM    4  C4  UNL     1      46.059  47.234  13.058  1.00  0.00     0.260 C 
HETATM    5  O4  UNL     1      47.174  46.614  12.958  1.00  0.00    -0.270 OA
HETATM    6  C5  UNL     1      45.033  46.706  13.983  1.00  0.00     0.346 C 
HETATM    7  S2  UNL     1      44.570  47.983  15.214  1.00  0.00    -0.052 SA
HETATM    8  S3  UNL     1      44.389  49.776  14.040  1.00  0.00    -0.060 SA
ENDROOT
BRANCH   1   9
HETATM    9  C2  UNL     1      44.792  50.374  11.460  1.00  0.00     0.266 C 
HETATM   10  N2  UNL     1      43.731  50.887  10.668  1.00  0.00    -0.235 N 
ATOM     11  H2  UNL     1      42.824  50.422  10.690  1.00  0.00     0.183 HD
HETATM   12  O3  UNL     1      45.906  50.952  11.430  1.00  0.00    -0.269 OA
BRANCH  10  13
HETATM   13  S1  UNL     1      43.939  52.264   9.679  1.00  0.00     0.321 S 
HETATM   14  O1  UNL     1      43.899  53.519  10.532  1.00  0.00    -0.182 OA
HETATM   15  O2  UNL     1      42.773  52.344   8.729  1.00  0.00    -0.182 OA
BRANCH  13  16
HETATM   16  N1  UNL     1      45.376  52.294   8.782  1.00  0.00    -0.307 N 
HETATM   17  C1  UNL     1      46.289  53.333   9.096  1.00  0.00     0.161 C 
ATOM     18  H1  UNL     1      45.574  51.604   8.058  1.00  0.00     0.173 HD
ENDBRANCH  13  16
ENDBRANCH  10  13
ENDBRANCH   1   9
BRANCH   6  19
HETATM   19  N4  UNL     1      43.839  46.386  13.223  1.00  0.00    -0.057 N 
ATOM     20  H43 UNL     1      43.895  46.706  12.257  1.00  0.00     0.276 HD
ATOM     21  H42 UNL     1      43.753  45.387  13.037  1.00  0.00     0.276 HD
ATOM     22  H41 UNL     1      43.027  46.762  13.712  1.00  0.00     0.276 HD
ENDBRANCH   6  19
TORSDOF 4
ENDMDL
MODEL 3
REMARK VINA RESULT: -6.467478825      1.539      1.749
REMARK  4 active torsions:
REMARK  status: ('A' for Active; 'I' for Inactive)
REMARK    1  A    between atoms: N1_2  and  S1_4 
REMARK    2  A    between atoms: S1_4  and  N2_7 
REMARK       I    between atoms: N2_7  and  C2_9 
REMARK    3  A    between atoms: C2_9  and  C3_11 
REMARK    4  A    between atoms: C5_16  and  N4_17 
ROOT
HETATM    1  C3  UNL     1      44.534  49.273  12.425  1.00  0.00     0.251 C 
HETATM    2  N3  UNL     1      45.768  48.546  12.274  1.00  0.00    -0.336 N 
ATOM      3  H3  UNL     1      46.471  48.917  11.634  1.00  0.00     0.164 HD
HETATM    4  C4  UNL     1      46.059  47.338  12.970  1.00  0.00     0.260 C 
HETATM    5  O4  UNL     1      47.188  46.766  12.778  1.00  0.00    -0.270 OA
HETATM    6  C5  UNL     1      45.101  46.720  13.911  1.00  0.00     0.346 C 
HETATM    7  S2  UNL     1      44.660  47.905  15.238  1.00  0.00    -0.052 SA
HETATM    8  S3  UNL     1      44.358  49.756  14.185  1.00  0.00    -0.060 SA
ENDROOT
BRANCH   1   9
HETATM    9  C2  UNL     1      44.608  50.517  11.628  1.00  0.00     0.266 C 
HETATM   10  N2  UNL     1      44.730  50.509  10.214  1.00  0.00    -0.235 N 
ATOM     11  H2  UNL     1      44.769  49.617   9.722  1.00  0.00     0.183 HD
HETATM   12  O3  UNL     1      44.559  51.619  12.227  1.00  0.00    -0.269 OA
BRANCH  10  13
HETATM   13  S1  UNL     1      44.813  51.960   9.316  1.00  0.00     0.321 S 
HETATM   14  O1  UNL     1      44.521  51.676   7.853  1.00  0.00    -0.182 OA
HETATM   15  O2  UNL     1      46.224  52.480   9.386  1.00  0.00    -0.182 OA
BRANCH  13  16
HETATM   16  N1  UNL     1      43.755  53.182   9.825  1.00  0.00    -0.307 N 
HETATM   17  C1  UNL     1      42.378  52.969   9.561  1.00  0.00     0.161 C 
ATOM     18  H1  UNL     1      44.090  54.023  10.295  1.00  0.00     0.173 HD
ENDBRANCH  13  16
ENDBRANCH  10  13
ENDBRANCH   1   9
BRANCH   6  19
HETATM   19  N4  UNL     1      43.881  46.401  13.194  1.00  0.00    -0.057 N 
ATOM     20  H43 UNL     1      43.301  45.727  13.693  1.00  0.00     0.276 HD
ATOM     21  H42 UNL     1      43.220  47.177  13.185  1.00  0.00     0.276 HD
ATOM     22  H41 UNL     1      44.124  46.085  12.255  1.00  0.00     0.276 HD
ENDBRANCH   6  19
TORSDOF 4
ENDMDL
MODEL 4
REMARK VINA RESULT: -6.352291544      2.070      6.471
REMARK  4 active torsions:
REMARK  status: ('A' for Active; 'I' for Inactive)
REMARK    1  A    between atoms: N1_2  and  S1_4 
REMARK    2  A    between atoms: S1_4  and  N2_7 
REMARK       I    between atoms: N2_7  and  C2_9 
REMARK    3  A    between atoms: C2_9  and  C3_11 
REMARK    4  A    between atoms: C5_16  and  N4_17 
ROOT
HETATM    1  C3  UNL     1      44.759  50.313  10.744  1.00  0.00     0.251 C 
HETATM    2  N3  UNL     1      43.532  51.045  10.566  1.00  0.00    -0.336 N 
ATOM      3  H3  UNL     1      42.785  50.908  11.247  1.00  0.00     0.164 HD
HETATM    4  C4  UNL     1      43.305  51.951   9.489  1.00  0.00     0.260 C 
HETATM    5  O4  UNL     1      42.184  52.564   9.418  1.00  0.00    -0.270 OA
HETATM    6  C5  UNL     1      44.324  52.210   8.449  1.00  0.00     0.346 C 
HETATM    7  S2  UNL     1      45.877  52.807   9.217  1.00  0.00    -0.052 SA
HETATM    8  S3  UNL     1      46.131  51.517  10.919  1.00  0.00    -0.060 SA
ENDROOT
BRANCH   1   9
HETATM    9  C2  UNL     1      44.681  49.542  12.003  1.00  0.00     0.266 C 
HETATM   10  N2  UNL     1      45.109  48.192  12.097  1.00  0.00    -0.235 N 
ATOM     11  H2  UNL     1      45.486  47.730  11.270  1.00  0.00     0.183 HD
HETATM   12  O3  UNL     1      44.220  50.105  13.026  1.00  0.00    -0.269 OA
BRANCH  10  13
HETATM   13  S1  UNL     1      45.009  47.322  13.563  1.00  0.00     0.321 S 
HETATM   14  O1  UNL     1      45.866  46.072  13.479  1.00  0.00    -0.182 OA
HETATM   15  O2  UNL     1      43.586  46.865  13.746  1.00  0.00    -0.182 OA
BRANCH  13  16
HETATM   16  N1  UNL     1      45.486  48.182  14.943  1.00  0.00    -0.307 N 
HETATM   17  C1  UNL     1      46.059  47.418  15.991  1.00  0.00     0.161 C 
ATOM     18  H1  UNL     1      45.369  49.193  15.016  1.00  0.00     0.173 HD
ENDBRANCH  13  16
ENDBRANCH  10  13
ENDBRANCH   1   9
BRANCH   6  19
HETATM   19  N4  UNL     1      44.628  50.964   7.772  1.00  0.00    -0.057 N 
ATOM     20  H43 UNL     1      44.173  50.894   6.862  1.00  0.00     0.276 HD
ATOM     21  H42 UNL     1      45.595  50.921   7.451  1.00  0.00     0.276 HD
ATOM     22  H41 UNL     1      44.388  50.187   8.388  1.00  0.00     0.276 HD
ENDBRANCH   6  19
TORSDOF 4
ENDMDL
MODEL 5
REMARK VINA RESULT: -6.316983967      2.484      6.362
REMARK  4 active torsions:
REMARK  status: ('A' for Active; 'I' for Inactive)
REMARK    1  A    between atoms: N1_2  and  S1_4 
REMARK    2  A    between atoms: S1_4  and  N2_7 
REMARK       I    between atoms: N2_7  and  C2_9 
REMARK    3  A    between atoms: C2_9  and  C3_11 
REMARK    4  A    between atoms: C5_16  and  N4_17 
ROOT
HETATM    1  C3  UNL     1      45.170  50.850  11.735  1.00  0.00     0.251 C 
HETATM    2  N3  UNL     1      45.121  50.243  10.430  1.00  0.00    -0.336 N 
ATOM      3  H3  UNL     1      45.104  49.224  10.372  1.00  0.00     0.164 HD
HETATM    4  C4  UNL     1      45.095  50.989   9.216  1.00  0.00     0.260 C 
HETATM    5  O4  UNL     1      45.043  50.361   8.102  1.00  0.00    -0.270 OA
HETATM    6  C5  UNL     1      45.124  52.467   9.199  1.00  0.00     0.346 C 
HETATM    7  S2  UNL     1      43.723  53.142  10.167  1.00  0.00    -0.052 SA
HETATM    8  S3  UNL     1      43.691  51.915  11.934  1.00  0.00    -0.060 SA
ENDROOT
BRANCH   1   9
HETATM    9  C2  UNL     1      45.095  49.789  12.763  1.00  0.00     0.266 C 
HETATM   10  N2  UNL     1      45.733  48.530  12.606  1.00  0.00    -0.235 N 
ATOM     11  H2  UNL     1      46.265  48.344  11.756  1.00  0.00     0.183 HD
HETATM   12  O3  UNL     1      44.444  50.012  13.812  1.00  0.00    -0.269 OA
BRANCH  10  13
HETATM   13  S1  UNL     1      45.632  47.321  13.807  1.00  0.00     0.321 S 
HETATM   14  O1  UNL     1      46.717  46.282  13.583  1.00  0.00    -0.182 OA
HETATM   15  O2  UNL     1      44.312  46.613  13.657  1.00  0.00    -0.182 OA
BRANCH  13  16
HETATM   16  N1  UNL     1      45.773  47.878  15.401  1.00  0.00    -0.307 N 
HETATM   17  C1  UNL     1      46.567  47.089  16.273  1.00  0.00     0.161 C 
ATOM     18  H1  UNL     1      45.314  48.732  15.716  1.00  0.00     0.173 HD
ENDBRANCH  13  16
ENDBRANCH  10  13
ENDBRANCH   1   9
BRANCH   6  19
HETATM   19  N4  UNL     1      46.347  52.918   9.836  1.00  0.00    -0.057 N 
ATOM     20  H43 UNL     1      46.726  52.227  10.483  1.00  0.00     0.276 HD
ATOM     21  H42 UNL     1      47.134  52.952   9.188  1.00  0.00     0.276 HD
ATOM     22  H41 UNL     1      46.172  53.817  10.284  1.00  0.00     0.276 HD
ENDBRANCH   6  19
TORSDOF 4
ENDMDL
