MODEL 1
REMARK VINA RESULT: -5.241275801      0.000      0.000
REMARK  5 active torsions:
REMARK  status: ('A' for Active; 'I' for Inactive)
REMARK    1  A    between atoms: C3_3  and  O1_4 
REMARK    2  A    between atoms: C3_3  and  C4_6 
REMARK    3  A    between atoms: C4_6  and  C5_7 
REMARK    4  A    between atoms: C6_10  and  C8_13 
REMARK       I    between atoms: C8_13  and  N3_15 
REMARK    5  A    between atoms: N3_15  and  N4_17 
ROOT
HETATM    1  C1  UNL     1      49.122  55.935   4.337  1.00  0.00     0.029 C 
HETATM    2  C2  UNL     1      49.112  57.420   4.507  1.00  0.00     0.141 C 
HETATM    3  C3  UNL     1      49.404  57.889   5.894  1.00  0.00     0.113 C 
HETATM    4  C6  UNL     1      48.328  57.435   6.813  1.00  0.00     0.176 C 
HETATM    5  C7  UNL     1      48.588  56.061   7.309  1.00  0.00     0.083 C 
HETATM    6  N2  UNL     1      48.779  54.986   7.700  1.00  0.00    -0.196 NA
HETATM    7  C9  UNL     1      46.998  57.513   6.113  1.00  0.00     0.178 C 
HETATM    8  S1  UNL     1      47.383  57.929   4.433  1.00  0.00     0.153 S 
HETATM    9  O4  UNL     1      47.345  59.409   4.240  1.00  0.00    -0.227 OA
HETATM   10  O5  UNL     1      46.622  57.161   3.441  1.00  0.00    -0.227 OA
ENDROOT
BRANCH   4  11
HETATM   11  C8  UNL     1      48.215  58.274   8.027  1.00  0.00     0.262 C 
HETATM   12  O3  UNL     1      47.690  59.408   8.012  1.00  0.00    -0.270 OA
HETATM   13  N3  UNL     1      48.715  57.788   9.251  1.00  0.00    -0.275 N 
ATOM     14  H3  UNL     1      49.148  56.864   9.279  1.00  0.00     0.189 HD
BRANCH  13  15
HETATM   15  N4  UNL     1      48.634  58.549  10.445  1.00  0.00    -0.343 N 
ATOM     16  H42 UNL     1      47.988  59.338  10.469  1.00  0.00     0.176 HD
ATOM     17  H41 UNL     1      49.199  58.325  11.264  1.00  0.00     0.176 HD
ENDBRANCH  13  15
ENDBRANCH   4  11
BRANCH   3  18
HETATM   18  O1  UNL     1      49.335  59.302   5.840  1.00  0.00    -0.386 OA
ATOM     19  H1  UNL     1      50.155  59.613   6.206  1.00  0.00     0.210 HD
ENDBRANCH   3  18
BRANCH   3  20
HETATM   20  C4  UNL     1      50.730  57.432   6.425  1.00  0.00     0.141 C 
BRANCH  20  21
HETATM   21  C5  UNL     1      51.604  58.519   6.880  1.00  0.00     0.234 C 
HETATM   22  N1  UNL     1      51.601  59.038   8.203  1.00  0.00    -0.062 NA
HETATM   23  O2  UNL     1      52.409  59.034   6.066  1.00  0.00    -0.277 OA
ENDBRANCH  20  21
ENDBRANCH   3  20
TORSDOF 5
ENDMDL
MODEL 2
REMARK VINA RESULT: -5.004096169      7.256      8.303
REMARK  5 active torsions:
REMARK  status: ('A' for Active; 'I' for Inactive)
REMARK    1  A    between atoms: C3_3  and  O1_4 
REMARK    2  A    between atoms: C3_3  and  C4_6 
REMARK    3  A    between atoms: C4_6  and  C5_7 
REMARK    4  A    between atoms: C6_10  and  C8_13 
REMARK       I    between atoms: C8_13  and  N3_15 
REMARK    5  A    between atoms: N3_15  and  N4_17 
ROOT
HETATM    1  C1  UNL     1      44.541  51.248   7.765  1.00  0.00     0.029 C 
HETATM    2  C2  UNL     1      44.374  52.486   8.586  1.00  0.00     0.141 C 
HETATM    3  C3  UNL     1      44.893  52.382   9.982  1.00  0.00     0.113 C 
HETATM    4  C6  UNL     1      44.110  51.367  10.733  1.00  0.00     0.176 C 
HETATM    5  C7  UNL     1      44.648  50.001  10.516  1.00  0.00     0.083 C 
HETATM    6  N2  UNL     1      45.058  48.930  10.350  1.00  0.00    -0.196 NA
HETATM    7  C9  UNL     1      42.662  51.446  10.331  1.00  0.00     0.178 C 
HETATM    8  S1  UNL     1      42.617  52.599   8.985  1.00  0.00     0.153 S 
HETATM    9  O4  UNL     1      42.346  53.978   9.488  1.00  0.00    -0.227 OA
HETATM   10  O5  UNL     1      41.768  52.174   7.866  1.00  0.00    -0.227 OA
ENDROOT
BRANCH   4  11
HETATM   11  C8  UNL     1      44.152  51.576  12.198  1.00  0.00     0.262 C 
HETATM   12  O3  UNL     1      45.075  51.128  12.913  1.00  0.00    -0.270 OA
HETATM   13  N3  UNL     1      43.120  52.303  12.823  1.00  0.00    -0.275 N 
ATOM     14  H3  UNL     1      42.359  52.674  12.253  1.00  0.00     0.189 HD
BRANCH  13  15
HETATM   15  N4  UNL     1      43.110  52.534  14.222  1.00  0.00    -0.343 N 
ATOM     16  H42 UNL     1      42.930  51.741  14.839  1.00  0.00     0.176 HD
ATOM     17  H41 UNL     1      43.277  53.460  14.614  1.00  0.00     0.176 HD
ENDBRANCH  13  15
ENDBRANCH   4  11
BRANCH   3  18
HETATM   18  O1  UNL     1      44.630  53.637  10.582  1.00  0.00    -0.386 OA
ATOM     19  H1  UNL     1      45.125  54.272  10.077  1.00  0.00     0.210 HD
ENDBRANCH   3  18
BRANCH   3  20
HETATM   20  C4  UNL     1      46.351  52.037  10.065  1.00  0.00     0.141 C 
BRANCH  20  21
HETATM   21  C5  UNL     1      47.244  53.067   9.523  1.00  0.00     0.234 C 
HETATM   22  N1  UNL     1      46.793  54.277   8.931  1.00  0.00    -0.062 NA
HETATM   23  O2  UNL     1      48.486  52.885   9.576  1.00  0.00    -0.277 OA
ENDBRANCH  20  21
ENDBRANCH   3  20
TORSDOF 5
ENDMDL
MODEL 3
REMARK VINA RESULT: -4.849758720      2.349      3.673
REMARK  5 active torsions:
REMARK  status: ('A' for Active; 'I' for Inactive)
REMARK    1  A    between atoms: C3_3  and  O1_4 
REMARK    2  A    between atoms: C3_3  and  C4_6 
REMARK    3  A    between atoms: C4_6  and  C5_7 
REMARK    4  A    between atoms: C6_10  and  C8_13 
REMARK       I    between atoms: C8_13  and  N3_15 
REMARK    5  A    between atoms: N3_15  and  N4_17 
ROOT
HETATM    1  C1  UNL     1      48.802  57.127   4.731  1.00  0.00     0.029 C 
HETATM    2  C2  UNL     1      49.824  56.893   5.796  1.00  0.00     0.141 C 
HETATM    3  C3  UNL     1      49.331  57.107   7.189  1.00  0.00     0.113 C 
HETATM    4  C6  UNL     1      48.965  58.536   7.377  1.00  0.00     0.176 C 
HETATM    5  C7  UNL     1      47.575  58.799   6.930  1.00  0.00     0.083 C 
HETATM    6  N2  UNL     1      46.492  59.017   6.579  1.00  0.00    -0.196 NA
HETATM    7  C9  UNL     1      49.943  59.409   6.639  1.00  0.00     0.178 C 
HETATM    8  S1  UNL     1      50.965  58.288   5.721  1.00  0.00     0.153 S 
HETATM    9  O4  UNL     1      52.184  57.931   6.507  1.00  0.00    -0.227 OA
HETATM   10  O5  UNL     1      51.227  58.715   4.343  1.00  0.00    -0.227 OA
ENDROOT
BRANCH   4  11
HETATM   11  C8  UNL     1      49.007  58.960   8.794  1.00  0.00     0.262 C 
HETATM   12  O3  UNL     1      50.068  59.292   9.365  1.00  0.00    -0.270 OA
HETATM   13  N3  UNL     1      47.811  58.993   9.540  1.00  0.00    -0.275 N 
ATOM     14  H3  UNL     1      46.937  58.725   9.089  1.00  0.00     0.189 HD
BRANCH  13  15
HETATM   15  N4  UNL     1      47.792  59.392  10.901  1.00  0.00    -0.343 N 
ATOM     16  H42 UNL     1      47.464  58.719  11.595  1.00  0.00     0.176 HD
ATOM     17  H41 UNL     1      48.095  60.321  11.192  1.00  0.00     0.176 HD
ENDBRANCH  13  15
ENDBRANCH   4  11
BRANCH   3  18
HETATM   18  O1  UNL     1      50.440  56.849   8.031  1.00  0.00    -0.386 OA
ATOM     19  H1  UNL     1      50.149  56.182   8.641  1.00  0.00     0.210 HD
ENDBRANCH   3  18
BRANCH   3  20
HETATM   20  C4  UNL     1      48.159  56.248   7.560  1.00  0.00     0.141 C 
BRANCH  20  21
HETATM   21  C5  UNL     1      48.433  55.287   8.634  1.00  0.00     0.234 C 
HETATM   22  N1  UNL     1      49.091  54.043   8.436  1.00  0.00    -0.062 NA
HETATM   23  O2  UNL     1      48.072  55.562   9.804  1.00  0.00    -0.277 OA
ENDBRANCH  20  21
ENDBRANCH   3  20
TORSDOF 5
ENDMDL
MODEL 4
REMARK VINA RESULT: -4.304547259      2.335      4.010
REMARK  5 active torsions:
REMARK  status: ('A' for Active; 'I' for Inactive)
REMARK    1  A    between atoms: C3_3  and  O1_4 
REMARK    2  A    between atoms: C3_3  and  C4_6 
REMARK    3  A    between atoms: C4_6  and  C5_7 
REMARK    4  A    between atoms: C6_10  and  C8_13 
REMARK       I    between atoms: C8_13  and  N3_15 
REMARK    5  A    between atoms: N3_15  and  N4_17 
ROOT
HETATM    1  C1  UNL     1      47.295  57.672   6.852  1.00  0.00     0.029 C 
HETATM    2  C2  UNL     1      48.660  57.069   6.766  1.00  0.00     0.141 C 
HETATM    3  C3  UNL     1      49.409  57.036   8.057  1.00  0.00     0.113 C 
HETATM    4  C6  UNL     1      49.679  58.424   8.514  1.00  0.00     0.176 C 
HETATM    5  C7  UNL     1      48.534  58.971   9.285  1.00  0.00     0.083 C 
HETATM    6  N2  UNL     1      47.644  59.409   9.884  1.00  0.00    -0.196 NA
HETATM    7  C9  UNL     1      49.996  59.295   7.329  1.00  0.00     0.178 C 
HETATM    8  S1  UNL     1      49.695  58.274   5.911  1.00  0.00     0.153 S 
HETATM    9  O4  UNL     1      50.952  57.586   5.488  1.00  0.00    -0.227 OA
HETATM   10  O5  UNL     1      48.975  58.955   4.829  1.00  0.00    -0.227 OA
ENDROOT
BRANCH   4  11
HETATM   11  C8  UNL     1      50.842  58.514   9.426  1.00  0.00     0.262 C 
HETATM   12  O3  UNL     1      52.022  58.481   9.014  1.00  0.00    -0.270 OA
HETATM   13  N3  UNL     1      50.624  58.641  10.813  1.00  0.00    -0.275 N 
ATOM     14  H3  UNL     1      49.666  58.668  11.164  1.00  0.00     0.189 HD
BRANCH  13  15
HETATM   15  N4  UNL     1      51.700  58.731  11.732  1.00  0.00    -0.343 N 
ATOM     16  H42 UNL     1      52.446  59.399  11.535  1.00  0.00     0.176 HD
ATOM     17  H41 UNL     1      51.740  58.151  12.569  1.00  0.00     0.176 HD
ENDBRANCH  13  15
ENDBRANCH   4  11
BRANCH   3  18
HETATM   18  O1  UNL     1      50.661  56.447   7.757  1.00  0.00    -0.386 OA
ATOM     19  H1  UNL     1      50.844  55.854   8.477  1.00  0.00     0.210 HD
ENDBRANCH   3  18
BRANCH   3  20
HETATM   20  C4  UNL     1      48.706  56.287   9.150  1.00  0.00     0.141 C 
BRANCH  20  21
HETATM   21  C5  UNL     1      48.321  54.918   8.790  1.00  0.00     0.234 C 
HETATM   22  N1  UNL     1      49.248  53.903   8.431  1.00  0.00    -0.062 NA
HETATM   23  O2  UNL     1      47.105  54.606   8.795  1.00  0.00    -0.277 OA
ENDBRANCH  20  21
ENDBRANCH   3  20
TORSDOF 5
ENDMDL
MODEL 5
REMARK VINA RESULT: -4.082993706      2.784      4.859
REMARK  5 active torsions:
REMARK  status: ('A' for Active; 'I' for Inactive)
REMARK    1  A    between atoms: C3_3  and  O1_4 
REMARK    2  A    between atoms: C3_3  and  C4_6 
REMARK    3  A    between atoms: C4_6  and  C5_7 
REMARK    4  A    between atoms: C6_10  and  C8_13 
REMARK       I    between atoms: C8_13  and  N3_15 
REMARK    5  A    between atoms: N3_15  and  N4_17 
ROOT
HETATM    1  C1  UNL     1      48.603  56.856  10.315  1.00  0.00     0.029 C 
HETATM    2  C2  UNL     1      48.980  58.008   9.441  1.00  0.00     0.141 C 
HETATM    3  C3  UNL     1      48.791  57.768   7.979  1.00  0.00     0.113 C 
HETATM    4  C6  UNL     1      49.705  56.686   7.528  1.00  0.00     0.176 C 
HETATM    5  C7  UNL     1      49.102  55.347   7.744  1.00  0.00     0.083 C 
HETATM    6  N2  UNL     1      48.644  54.296   7.913  1.00  0.00    -0.196 NA
HETATM    7  C9  UNL     1      51.023  56.806   8.243  1.00  0.00     0.178 C 
HETATM    8  S1  UNL     1      50.782  58.084   9.448  1.00  0.00     0.153 S 
HETATM    9  O4  UNL     1      51.191  59.408   8.892  1.00  0.00    -0.227 OA
HETATM   10  O5  UNL     1      51.344  57.772  10.766  1.00  0.00    -0.227 OA
ENDROOT
BRANCH   4  11
HETATM   11  C8  UNL     1      50.003  56.751   6.079  1.00  0.00     0.262 C 
HETATM   12  O3  UNL     1      50.873  57.515   5.607  1.00  0.00    -0.270 OA
HETATM   13  N3  UNL     1      49.287  55.926   5.189  1.00  0.00    -0.275 N 
ATOM     14  H3  UNL     1      48.573  55.298   5.559  1.00  0.00     0.189 HD
BRANCH  13  15
HETATM   15  N4  UNL     1      49.531  55.947   3.792  1.00  0.00    -0.343 N 
ATOM     16  H42 UNL     1      49.531  55.058   3.291  1.00  0.00     0.176 HD
ATOM     17  H41 UNL     1      49.704  56.818   3.291  1.00  0.00     0.176 HD
ENDBRANCH  13  15
ENDBRANCH   4  11
BRANCH   3  18
HETATM   18  O1  UNL     1      49.211  58.959   7.339  1.00  0.00    -0.386 OA
ATOM     19  H1  UNL     1      48.940  58.873   6.433  1.00  0.00     0.210 HD
ENDBRANCH   3  18
BRANCH   3  20
HETATM   20  C4  UNL     1      47.385  57.415   7.596  1.00  0.00     0.141 C 
BRANCH  20  21
HETATM   21  C5  UNL     1      46.927  58.036   6.349  1.00  0.00     0.234 C 
HETATM   22  N1  UNL     1      46.708  57.320   5.140  1.00  0.00    -0.062 NA
HETATM   23  O2  UNL     1      46.708  59.272   6.328  1.00  0.00    -0.277 OA
ENDBRANCH  20  21
ENDBRANCH   3  20
TORSDOF 5
ENDMDL
