MODEL 1
REMARK VINA RESULT: -8.315041173      0.000      0.000
REMARK  5 active torsions:
REMARK  status: ('A' for Active; 'I' for Inactive)
REMARK    1  A    between atoms: C3_3  and  O1_4 
REMARK    2  A    between atoms: C5_7  and  N1_8 
REMARK    3  A    between atoms: N4_18  and  O4_19 
REMARK    4  A    between atoms: O4_19  and  C9_20 
REMARK    5  A    between atoms: C9_20  and  C10_22 
ROOT
HETATM    1  C1  UNL     1      47.040  53.478   9.167  1.00  0.00     0.016 C 
HETATM    2  C2  UNL     1      46.188  52.646   9.406  1.00  0.00    -0.060 C 
HETATM    3  C3  UNL     1      45.150  51.644   9.674  1.00  0.00     0.203 C 
HETATM    4  C4  UNL     1      45.458  50.855  10.927  1.00  0.00     0.100 C 
HETATM    5  C5  UNL     1      44.761  51.626  11.993  1.00  0.00     0.134 C 
HETATM    6  C8  UNL     1      43.556  52.193  11.295  1.00  0.00     0.153 C 
HETATM    7  N4  UNL     1      43.943  52.379   9.935  1.00  0.00    -0.139 NA
ENDROOT
BRANCH   3   8
HETATM    8  O1  UNL     1      44.965  50.842   8.556  1.00  0.00    -0.363 OA
ATOM      9  H1  UNL     1      44.044  50.814   8.326  1.00  0.00     0.213 HD
ENDBRANCH   3   8
BRANCH   7  10
HETATM   10  O4  UNL     1      42.927  51.897   9.126  1.00  0.00    -0.220 OA
BRANCH  10  11
HETATM   11  C9  UNL     1      42.344  52.666   8.130  1.00  0.00     0.289 C 
HETATM   12  O5  UNL     1      41.413  53.444   8.447  1.00  0.00    -0.263 OA
BRANCH  11  13
HETATM   13  C10 UNL     1      42.826  52.561   6.719  1.00  0.00     0.236 C 
HETATM   14  C11 UNL     1      42.146  53.537   5.866  1.00  0.00     0.069 C 
HETATM   15  N5  UNL     1      41.617  54.311   5.189  1.00  0.00    -0.197 NA
ENDBRANCH  11  13
ENDBRANCH  10  11
ENDBRANCH   7  10
BRANCH   5  16
HETATM   16  N1  UNL     1      44.433  50.891  13.186  1.00  0.00    -0.232 N 
HETATM   17  N2  UNL     1      45.042  49.740  13.506  1.00  0.00    -0.245 N 
HETATM   18  C6  UNL     1      44.539  49.307  14.680  1.00  0.00     0.343 A 
ATOM     19  H2  UNL     1      45.763  49.273  12.956  1.00  0.00     0.192 HD
HETATM   20  O2  UNL     1      44.879  48.248  15.291  1.00  0.00    -0.245 OA
HETATM   21  N3  UNL     1      43.606  50.173  15.119  1.00  0.00    -0.258 N 
HETATM   22  C7  UNL     1      43.566  51.150  14.159  1.00  0.00     0.345 A 
ATOM     23  H3  UNL     1      43.052  50.114  15.973  1.00  0.00     0.175 HD
HETATM   24  O3  UNL     1      42.808  52.137  14.219  1.00  0.00    -0.245 OA
ENDBRANCH   5  16
TORSDOF 5
ENDMDL
MODEL 2
REMARK VINA RESULT: -8.176864796      2.945      4.404
REMARK  5 active torsions:
REMARK  status: ('A' for Active; 'I' for Inactive)
REMARK    1  A    between atoms: C3_3  and  O1_4 
REMARK    2  A    between atoms: C5_7  and  N1_8 
REMARK    3  A    between atoms: N4_18  and  O4_19 
REMARK    4  A    between atoms: O4_19  and  C9_20 
REMARK    5  A    between atoms: C9_20  and  C10_22 
ROOT
HETATM    1  C1  UNL     1      42.765  52.222  13.545  1.00  0.00     0.016 C 
HETATM    2  C2  UNL     1      43.696  51.526  13.192  1.00  0.00    -0.060 C 
HETATM    3  C3  UNL     1      44.826  50.701  12.750  1.00  0.00     0.203 C 
HETATM    4  C4  UNL     1      45.067  49.546  13.696  1.00  0.00     0.100 C 
HETATM    5  C5  UNL     1      44.248  48.451  13.109  1.00  0.00     0.134 C 
HETATM    6  C8  UNL     1      44.302  48.717  11.630  1.00  0.00     0.153 C 
HETATM    7  N4  UNL     1      44.435  50.130  11.491  1.00  0.00    -0.139 NA
ENDROOT
BRANCH   3   8
HETATM    8  O1  UNL     1      45.949  51.497  12.563  1.00  0.00    -0.363 OA
ATOM      9  H1  UNL     1      45.740  52.403  12.760  1.00  0.00     0.213 HD
ENDBRANCH   3   8
BRANCH   7  10
HETATM   10  O4  UNL     1      45.418  50.381  10.547  1.00  0.00    -0.220 OA
BRANCH  10  11
HETATM   11  C9  UNL     1      45.118  50.687   9.228  1.00  0.00     0.289 C 
HETATM   12  O5  UNL     1      45.323  49.813   8.352  1.00  0.00    -0.263 OA
BRANCH  11  13
HETATM   13  C10 UNL     1      44.562  52.029   8.874  1.00  0.00     0.236 C 
HETATM   14  C11 UNL     1      45.574  53.072   9.050  1.00  0.00     0.069 C 
HETATM   15  N5  UNL     1      46.372  53.899   9.181  1.00  0.00    -0.197 NA
ENDBRANCH  11  13
ENDBRANCH  10  11
ENDBRANCH   7  10
BRANCH   5  16
HETATM   16  N1  UNL     1      44.645  47.113  13.460  1.00  0.00    -0.232 N 
HETATM   17  N2  UNL     1      45.805  46.853  14.081  1.00  0.00    -0.245 N 
HETATM   18  C6  UNL     1      45.882  45.523  14.292  1.00  0.00     0.343 A 
ATOM     19  H2  UNL     1      46.508  47.542  14.347  1.00  0.00     0.192 HD
HETATM   20  O2  UNL     1      46.841  44.912  14.857  1.00  0.00    -0.245 OA
HETATM   21  N3  UNL     1      44.778  44.923  13.809  1.00  0.00    -0.258 N 
HETATM   22  C7  UNL     1      44.027  45.948  13.296  1.00  0.00     0.345 A 
ATOM     23  H3  UNL     1      44.551  43.929  13.822  1.00  0.00     0.175 HD
HETATM   24  O3  UNL     1      42.918  45.780  12.754  1.00  0.00    -0.245 OA
ENDBRANCH   5  16
TORSDOF 5
ENDMDL
MODEL 3
REMARK VINA RESULT: -7.986525813      4.049      9.059
REMARK  5 active torsions:
REMARK  status: ('A' for Active; 'I' for Inactive)
REMARK    1  A    between atoms: C3_3  and  O1_4 
REMARK    2  A    between atoms: C5_7  and  N1_8 
REMARK    3  A    between atoms: N4_18  and  O4_19 
REMARK    4  A    between atoms: O4_19  and  C9_20 
REMARK    5  A    between atoms: C9_20  and  C10_22 
ROOT
HETATM    1  C1  UNL     1      44.717  43.698  13.936  1.00  0.00     0.016 C 
HETATM    2  C2  UNL     1      45.462  44.652  14.024  1.00  0.00    -0.060 C 
HETATM    3  C3  UNL     1      46.376  45.795  14.144  1.00  0.00     0.203 C 
HETATM    4  C4  UNL     1      46.078  46.848  13.101  1.00  0.00     0.100 C 
HETATM    5  C5  UNL     1      45.119  47.751  13.795  1.00  0.00     0.134 C 
HETATM    6  C8  UNL     1      45.547  47.690  15.235  1.00  0.00     0.153 C 
HETATM    7  N4  UNL     1      46.104  46.390  15.423  1.00  0.00    -0.139 NA
ENDROOT
BRANCH   3   8
HETATM    8  O1  UNL     1      47.692  45.354  14.115  1.00  0.00    -0.363 OA
ATOM      9  H1  UNL     1      48.283  46.093  14.195  1.00  0.00     0.213 HD
ENDBRANCH   3   8
BRANCH   7  10
HETATM   10  O4  UNL     1      47.288  46.524  16.129  1.00  0.00    -0.220 OA
BRANCH  10  11
HETATM   11  C9  UNL     1      47.432  46.066  17.430  1.00  0.00     0.289 C 
HETATM   12  O5  UNL     1      46.802  46.653  18.342  1.00  0.00    -0.263 OA
BRANCH  11  13
HETATM   13  C10 UNL     1      48.319  44.898  17.722  1.00  0.00     0.236 C 
HETATM   14  C11 UNL     1      47.925  43.737  16.923  1.00  0.00     0.069 C 
HETATM   15  N5  UNL     1      47.623  42.819  16.288  1.00  0.00    -0.197 NA
ENDBRANCH  11  13
ENDBRANCH  10  11
ENDBRANCH   7  10
BRANCH   5  16
HETATM   16  N1  UNL     1      45.037  49.092  13.283  1.00  0.00    -0.232 N 
HETATM   17  N2  UNL     1      45.562  49.438  12.098  1.00  0.00    -0.245 N 
HETATM   18  C6  UNL     1      45.308  50.745  11.887  1.00  0.00     0.343 A 
ATOM     19  H2  UNL     1      46.066  48.818  11.464  1.00  0.00     0.192 HD
HETATM   20  O2  UNL     1      45.654  51.417  10.868  1.00  0.00    -0.245 OA
HETATM   21  N3  UNL     1      44.623  51.247  12.932  1.00  0.00    -0.258 N 
HETATM   22  C7  UNL     1      44.473  50.185  13.785  1.00  0.00     0.345 A 
ATOM     23  H3  UNL     1      44.291  52.203  13.060  1.00  0.00     0.175 HD
HETATM   24  O3  UNL     1      43.880  50.265  14.878  1.00  0.00    -0.245 OA
ENDBRANCH   5  16
TORSDOF 5
ENDMDL
MODEL 4
REMARK VINA RESULT: -7.966162027      3.738      8.801
REMARK  5 active torsions:
REMARK  status: ('A' for Active; 'I' for Inactive)
REMARK    1  A    between atoms: C3_3  and  O1_4 
REMARK    2  A    between atoms: C5_7  and  N1_8 
REMARK    3  A    between atoms: N4_18  and  O4_19 
REMARK    4  A    between atoms: O4_19  and  C9_20 
REMARK    5  A    between atoms: C9_20  and  C10_22 
ROOT
HETATM    1  C1  UNL     1      44.851  44.026  13.897  1.00  0.00     0.016 C 
HETATM    2  C2  UNL     1      45.437  45.087  13.963  1.00  0.00    -0.060 C 
HETATM    3  C3  UNL     1      46.159  46.362  14.057  1.00  0.00     0.203 C 
HETATM    4  C4  UNL     1      45.785  47.291  12.924  1.00  0.00     0.100 C 
HETATM    5  C5  UNL     1      44.654  48.076  13.488  1.00  0.00     0.134 C 
HETATM    6  C8  UNL     1      44.979  48.171  14.953  1.00  0.00     0.153 C 
HETATM    7  N4  UNL     1      45.708  46.987  15.270  1.00  0.00    -0.139 NA
ENDROOT
BRANCH   3   8
HETATM    8  O1  UNL     1      47.524  46.127  14.143  1.00  0.00    -0.363 OA
ATOM      9  H1  UNL     1      47.970  46.531  13.407  1.00  0.00     0.213 HD
ENDBRANCH   3   8
BRANCH   7  10
HETATM   10  O4  UNL     1      46.804  47.345  16.038  1.00  0.00    -0.220 OA
BRANCH  10  11
HETATM   11  C9  UNL     1      46.909  47.014  17.380  1.00  0.00     0.289 C 
HETATM   12  O5  UNL     1      45.857  46.931  18.058  1.00  0.00    -0.263 OA
BRANCH  11  13
HETATM   13  C10 UNL     1      48.251  46.762  17.990  1.00  0.00     0.236 C 
HETATM   14  C11 UNL     1      48.569  47.788  18.984  1.00  0.00     0.069 C 
HETATM   15  N5  UNL     1      48.821  48.592  19.776  1.00  0.00    -0.197 NA
ENDBRANCH  11  13
ENDBRANCH  10  11
ENDBRANCH   7  10
BRANCH   5  16
HETATM   16  N1  UNL     1      44.411  49.355  12.876  1.00  0.00    -0.232 N 
HETATM   17  N2  UNL     1      43.960  50.407  13.576  1.00  0.00    -0.245 N 
HETATM   18  C6  UNL     1      43.854  51.458  12.738  1.00  0.00     0.343 A 
ATOM     19  H2  UNL     1      43.738  50.411  14.571  1.00  0.00     0.192 HD
HETATM   20  O2  UNL     1      43.459  52.623  13.050  1.00  0.00    -0.245 OA
HETATM   21  N3  UNL     1      44.231  51.090  11.499  1.00  0.00    -0.258 N 
HETATM   22  C7  UNL     1      44.572  49.768  11.624  1.00  0.00     0.345 A 
ATOM     23  H3  UNL     1      44.258  51.665  10.658  1.00  0.00     0.175 HD
HETATM   24  O3  UNL     1      44.977  49.074  10.672  1.00  0.00    -0.245 OA
ENDBRANCH   5  16
TORSDOF 5
ENDMDL
MODEL 5
REMARK VINA RESULT: -7.935849050      2.716      4.209
REMARK  5 active torsions:
REMARK  status: ('A' for Active; 'I' for Inactive)
REMARK    1  A    between atoms: C3_3  and  O1_4 
REMARK    2  A    between atoms: C5_7  and  N1_8 
REMARK    3  A    between atoms: N4_18  and  O4_19 
REMARK    4  A    between atoms: O4_19  and  C9_20 
REMARK    5  A    between atoms: C9_20  and  C10_22 
ROOT
HETATM    1  C1  UNL     1      42.770  52.192  13.523  1.00  0.00     0.016 C 
HETATM    2  C2  UNL     1      43.703  51.487  13.195  1.00  0.00    -0.060 C 
HETATM    3  C3  UNL     1      44.837  50.651  12.785  1.00  0.00     0.203 C 
HETATM    4  C4  UNL     1      45.028  49.482  13.725  1.00  0.00     0.100 C 
HETATM    5  C5  UNL     1      44.216  48.405  13.097  1.00  0.00     0.134 C 
HETATM    6  C8  UNL     1      44.326  48.687  11.624  1.00  0.00     0.153 C 
HETATM    7  N4  UNL     1      44.484  50.099  11.506  1.00  0.00    -0.139 NA
ENDROOT
BRANCH   3   8
HETATM    8  O1  UNL     1      45.976  51.433  12.648  1.00  0.00    -0.363 OA
ATOM      9  H1  UNL     1      46.735  50.878  12.507  1.00  0.00     0.213 HD
ENDBRANCH   3   8
BRANCH   7  10
HETATM   10  O4  UNL     1      45.503  50.347  10.601  1.00  0.00    -0.220 OA
BRANCH  10  11
HETATM   11  C9  UNL     1      45.258  50.782   9.308  1.00  0.00     0.289 C 
HETATM   12  O5  UNL     1      45.287  49.939   8.379  1.00  0.00    -0.263 OA
BRANCH  11  13
HETATM   13  C10 UNL     1      44.963  52.224   9.042  1.00  0.00     0.236 C 
HETATM   14  C11 UNL     1      43.976  52.361   7.970  1.00  0.00     0.069 C 
HETATM   15  N5  UNL     1      43.191  52.475   7.129  1.00  0.00    -0.197 NA
ENDBRANCH  11  13
ENDBRANCH  10  11
ENDBRANCH   7  10
BRANCH   5  16
HETATM   16  N1  UNL     1      44.581  47.059  13.446  1.00  0.00    -0.232 N 
HETATM   17  N2  UNL     1      45.717  46.774  14.100  1.00  0.00    -0.245 N 
HETATM   18  C6  UNL     1      45.767  45.441  14.300  1.00  0.00     0.343 A 
ATOM     19  H2  UNL     1      46.422  47.449  14.395  1.00  0.00     0.192 HD
HETATM   20  O2  UNL     1      46.699  44.811  14.888  1.00  0.00    -0.245 OA
HETATM   21  N3  UNL     1      44.670  44.863  13.778  1.00  0.00    -0.258 N 
HETATM   22  C7  UNL     1      43.951  45.905  13.252  1.00  0.00     0.345 A 
ATOM     23  H3  UNL     1      44.427  43.873  13.774  1.00  0.00     0.175 HD
HETATM   24  O3  UNL     1      42.857  45.759  12.675  1.00  0.00    -0.245 OA
ENDBRANCH   5  16
TORSDOF 5
ENDMDL
