MODEL 1
REMARK VINA RESULT: -8.538202548      0.000      0.000
REMARK  11 active torsions:
REMARK  status: ('A' for Active; 'I' for Inactive)
REMARK       I    between atoms: C2_2  and  N1_4 
REMARK    1  A    between atoms: N1_4  and  C3_6 
REMARK    2  A    between atoms: C3_6  and  C4_7 
REMARK    3  A    between atoms: N2_8  and  C5_10 
REMARK    4  A    between atoms: C5_10  and  C6_11 
REMARK    5  A    between atoms: C6_11  and  C7_13 
REMARK    6  A    between atoms: C7_13  and  O3_14 
REMARK    7  A    between atoms: O3_14  and  C8_15 
REMARK    8  A    between atoms: C8_15  and  C9_17 
REMARK    9  A    between atoms: C15_23  and  O5_24 
REMARK   10  A    between atoms: C22_33  and  C23_34 
REMARK   11  A    between atoms: C23_34  and  C26_37 
ROOT
HETATM    1  C9  UNL     1      17.826 -28.921  -2.852  1.00  0.00     0.051 C 
HETATM    2  C10 UNL     1      17.908 -27.739  -1.843  1.00  0.00     0.026 C 
HETATM    3  C11 UNL     1      17.682 -28.317  -4.200  1.00  0.00     0.020 C 
HETATM    4  C12 UNL     1      16.184 -27.990  -4.330  1.00  0.00     0.007 C 
HETATM    5  C13 UNL     1      15.582 -28.401  -3.019  1.00  0.00    -0.001 C 
HETATM    6  C14 UNL     1      16.461 -29.553  -2.621  1.00  0.00     0.037 C 
HETATM    7  C15 UNL     1      16.191 -30.806  -3.347  1.00  0.00     0.125 C 
HETATM    8  C16 UNL     1      14.736 -31.107  -3.192  1.00  0.00     0.049 C 
HETATM    9  C17 UNL     1      13.759 -30.053  -3.516  1.00  0.00     0.023 C 
HETATM   10  C18 UNL     1      12.440 -30.571  -2.899  1.00  0.00     0.024 C 
HETATM   11  C19 UNL     1      13.531 -30.110  -4.999  1.00  0.00     0.135 C 
HETATM   12  O6  UNL     1      13.975 -31.017  -5.692  1.00  0.00    -0.297 OA
HETATM   13  C20 UNL     1      12.760 -29.052  -5.634  1.00  0.00     0.079 C 
HETATM   14  C21 UNL     1      12.319 -27.976  -4.691  1.00  0.00     0.013 C 
HETATM   15  C22 UNL     1      13.362 -27.569  -3.685  1.00  0.00     0.008 C 
HETATM   16  C27 UNL     1      14.103 -28.681  -3.033  1.00  0.00     0.011 C 
ENDROOT
BRANCH   1  17
HETATM   17  C8  UNL     1      18.952 -29.793  -2.613  1.00  0.00     0.272 C 
HETATM   18  O4  UNL     1      19.061 -30.953  -2.996  1.00  0.00    -0.264 OA
BRANCH  17  19
HETATM   19  O3  UNL     1      20.033 -29.268  -1.859  1.00  0.00    -0.287 OA
BRANCH  19  20
HETATM   20  C7  UNL     1      21.306 -29.270  -2.427  1.00  0.00     0.197 C 
BRANCH  20  21
HETATM   21  C6  UNL     1      22.328 -30.174  -1.959  1.00  0.00     0.189 C 
HETATM   22  O2  UNL     1      22.476 -31.297  -2.336  1.00  0.00    -0.289 OA
BRANCH  21  23
HETATM   23  C5  UNL     1      23.313 -29.633  -0.894  1.00  0.00     0.203 C 
BRANCH  23  24
HETATM   24  N2  UNL     1      24.435 -30.442  -0.872  1.00  0.00    -0.393 N 
HETATM   25  C4  UNL     1      25.672 -30.303  -1.381  1.00  0.00     0.075 C 
ATOM     26  H2  UNL     1      24.296 -31.318  -0.369  1.00  0.00     0.159 HD
BRANCH  25  27
HETATM   27  C3  UNL     1      26.115 -30.384  -2.773  1.00  0.00     0.166 C 
BRANCH  27  28
HETATM   28  N1  UNL     1      25.165 -30.733  -3.771  1.00  0.00    -0.357 N 
HETATM   29  C2  UNL     1      25.379 -31.305  -5.022  1.00  0.00     0.213 C 
HETATM   30  C1  UNL     1      24.199 -31.571  -5.919  1.00  0.00     0.117 C 
HETATM   31  O1  UNL     1      26.495 -31.622  -5.472  1.00  0.00    -0.274 OA
ATOM     32  H1  UNL     1      24.192 -30.537  -3.538  1.00  0.00     0.162 HD
ENDBRANCH  27  28
ENDBRANCH  25  27
ENDBRANCH  23  24
ENDBRANCH  21  23
ENDBRANCH  20  21
ENDBRANCH  19  20
ENDBRANCH  17  19
ENDBRANCH   1  17
BRANCH   7  33
HETATM   33  O5  UNL     1      16.669 -30.877  -4.648  1.00  0.00    -0.395 OA
ATOM     34  H5  UNL     1      16.299 -30.257  -5.266  1.00  0.00     0.210 HD
ENDBRANCH   7  33
BRANCH  15  35
HETATM   35  C23 UNL     1      13.001 -26.357  -2.940  1.00  0.00     0.054 C 
HETATM   36  C24 UNL     1      12.496 -26.804  -1.541  1.00  0.00     0.024 C 
HETATM   37  C25 UNL     1      11.894 -25.511  -3.481  1.00  0.00     0.024 C 
BRANCH  35  38
HETATM   38  C26 UNL     1      14.113 -25.412  -2.546  1.00  0.00     0.395 C 
HETATM   39  F1  UNL     1      13.466 -24.206  -2.192  1.00  0.00    -0.170 F 
HETATM   40  F2  UNL     1      14.986 -25.083  -3.511  1.00  0.00    -0.170 F 
HETATM   41  F3  UNL     1      14.697 -25.754  -1.316  1.00  0.00    -0.170 F 
ENDBRANCH  35  38
ENDBRANCH  15  35
TORSDOF 11
ENDMDL
MODEL 2
REMARK VINA RESULT: -8.526146313      0.972      1.291
REMARK  11 active torsions:
REMARK  status: ('A' for Active; 'I' for Inactive)
REMARK       I    between atoms: C2_2  and  N1_4 
REMARK    1  A    between atoms: N1_4  and  C3_6 
REMARK    2  A    between atoms: C3_6  and  C4_7 
REMARK    3  A    between atoms: N2_8  and  C5_10 
REMARK    4  A    between atoms: C5_10  and  C6_11 
REMARK    5  A    between atoms: C6_11  and  C7_13 
REMARK    6  A    between atoms: C7_13  and  O3_14 
REMARK    7  A    between atoms: O3_14  and  C8_15 
REMARK    8  A    between atoms: C8_15  and  C9_17 
REMARK    9  A    between atoms: C15_23  and  O5_24 
REMARK   10  A    between atoms: C22_33  and  C23_34 
REMARK   11  A    between atoms: C23_34  and  C26_37 
ROOT
HETATM    1  C9  UNL     1      17.849 -28.717  -2.769  1.00  0.00     0.051 C 
HETATM    2  C10 UNL     1      17.869 -27.525  -1.770  1.00  0.00     0.026 C 
HETATM    3  C11 UNL     1      17.709 -28.132  -4.125  1.00  0.00     0.020 C 
HETATM    4  C12 UNL     1      16.203 -27.862  -4.286  1.00  0.00     0.007 C 
HETATM    5  C13 UNL     1      15.592 -28.284  -2.982  1.00  0.00    -0.001 C 
HETATM    6  C14 UNL     1      16.505 -29.398  -2.557  1.00  0.00     0.037 C 
HETATM    7  C15 UNL     1      16.296 -30.667  -3.276  1.00  0.00     0.125 C 
HETATM    8  C16 UNL     1      14.850 -31.021  -3.144  1.00  0.00     0.049 C 
HETATM    9  C17 UNL     1      13.841 -30.007  -3.497  1.00  0.00     0.023 C 
HETATM   10  C18 UNL     1      12.531 -30.569  -2.899  1.00  0.00     0.024 C 
HETATM   11  C19 UNL     1      13.643 -30.086  -4.983  1.00  0.00     0.135 C 
HETATM   12  O6  UNL     1      14.133 -30.981  -5.659  1.00  0.00    -0.297 OA
HETATM   13  C20 UNL     1      12.845 -29.063  -5.642  1.00  0.00     0.079 C 
HETATM   14  C21 UNL     1      12.346 -27.996  -4.718  1.00  0.00     0.013 C 
HETATM   15  C22 UNL     1      13.355 -27.541  -3.697  1.00  0.00     0.008 C 
HETATM   16  C27 UNL     1      14.125 -28.619  -3.020  1.00  0.00     0.011 C 
ENDROOT
BRANCH   1  17
HETATM   17  C8  UNL     1      19.003 -29.544  -2.501  1.00  0.00     0.272 C 
HETATM   18  O4  UNL     1      19.225 -30.651  -2.981  1.00  0.00    -0.264 OA
BRANCH  17  19
HETATM   19  O3  UNL     1      19.969 -29.040  -1.593  1.00  0.00    -0.287 OA
BRANCH  19  20
HETATM   20  C7  UNL     1      21.096 -28.399  -2.105  1.00  0.00     0.197 C 
BRANCH  20  21
HETATM   21  C6  UNL     1      22.359 -28.447  -1.408  1.00  0.00     0.189 C 
HETATM   22  O2  UNL     1      22.959 -27.495  -1.009  1.00  0.00    -0.289 OA
BRANCH  21  23
HETATM   23  C5  UNL     1      22.970 -29.847  -1.154  1.00  0.00     0.203 C 
BRANCH  23  24
HETATM   24  N2  UNL     1      22.505 -30.719  -2.123  1.00  0.00    -0.393 N 
HETATM   25  C4  UNL     1      23.122 -31.588  -2.942  1.00  0.00     0.075 C 
ATOM     26  H2  UNL     1      21.492 -30.697  -2.238  1.00  0.00     0.159 HD
BRANCH  25  27
HETATM   27  C3  UNL     1      23.944 -31.323  -4.123  1.00  0.00     0.166 C 
BRANCH  27  28
HETATM   28  N1  UNL     1      25.154 -30.596  -3.963  1.00  0.00    -0.357 N 
HETATM   29  C2  UNL     1      26.377 -30.778  -4.603  1.00  0.00     0.213 C 
HETATM   30  C1  UNL     1      27.531 -29.878  -4.249  1.00  0.00     0.117 C 
HETATM   31  O1  UNL     1      26.599 -31.647  -5.466  1.00  0.00    -0.274 OA
ATOM     32  H1  UNL     1      25.122 -29.835  -3.284  1.00  0.00     0.162 HD
ENDBRANCH  27  28
ENDBRANCH  25  27
ENDBRANCH  23  24
ENDBRANCH  21  23
ENDBRANCH  20  21
ENDBRANCH  19  20
ENDBRANCH  17  19
ENDBRANCH   1  17
BRANCH   7  33
HETATM   33  O5  UNL     1      16.800 -30.731  -4.567  1.00  0.00    -0.395 OA
ATOM     34  H5  UNL     1      16.228 -30.418  -5.258  1.00  0.00     0.210 HD
ENDBRANCH   7  33
BRANCH  15  35
HETATM   35  C23 UNL     1      12.935 -26.337  -2.970  1.00  0.00     0.054 C 
HETATM   36  C24 UNL     1      12.435 -26.788  -1.571  1.00  0.00     0.024 C 
HETATM   37  C25 UNL     1      11.799 -25.545  -3.532  1.00  0.00     0.024 C 
BRANCH  35  38
HETATM   38  C26 UNL     1      14.001 -25.341  -2.577  1.00  0.00     0.395 C 
HETATM   39  F1  UNL     1      13.304 -24.145  -2.290  1.00  0.00    -0.170 F 
HETATM   40  F2  UNL     1      14.894 -25.018  -3.526  1.00  0.00    -0.170 F 
HETATM   41  F3  UNL     1      14.556 -25.617  -1.318  1.00  0.00    -0.170 F 
ENDBRANCH  35  38
ENDBRANCH  15  35
TORSDOF 11
ENDMDL
MODEL 3
REMARK VINA RESULT: -8.283388314      6.015      9.754
REMARK  11 active torsions:
REMARK  status: ('A' for Active; 'I' for Inactive)
REMARK       I    between atoms: C2_2  and  N1_4 
REMARK    1  A    between atoms: N1_4  and  C3_6 
REMARK    2  A    between atoms: C3_6  and  C4_7 
REMARK    3  A    between atoms: N2_8  and  C5_10 
REMARK    4  A    between atoms: C5_10  and  C6_11 
REMARK    5  A    between atoms: C6_11  and  C7_13 
REMARK    6  A    between atoms: C7_13  and  O3_14 
REMARK    7  A    between atoms: O3_14  and  C8_15 
REMARK    8  A    between atoms: C8_15  and  C9_17 
REMARK    9  A    between atoms: C15_23  and  O5_24 
REMARK   10  A    between atoms: C22_33  and  C23_34 
REMARK   11  A    between atoms: C23_34  and  C26_37 
ROOT
HETATM    1  C9  UNL     1      18.553 -26.147   0.289  1.00  0.00     0.051 C 
HETATM    2  C10 UNL     1      19.506 -27.305  -0.125  1.00  0.00     0.026 C 
HETATM    3  C11 UNL     1      19.413 -24.969   0.564  1.00  0.00     0.020 C 
HETATM    4  C12 UNL     1      19.922 -25.178   2.001  1.00  0.00     0.007 C 
HETATM    5  C13 UNL     1      19.339 -26.491   2.432  1.00  0.00    -0.001 C 
HETATM    6  C14 UNL     1      18.043 -26.520   1.673  1.00  0.00     0.037 C 
HETATM    7  C15 UNL     1      16.988 -25.658   2.234  1.00  0.00     0.125 C 
HETATM    8  C16 UNL     1      16.826 -26.030   3.671  1.00  0.00     0.049 C 
HETATM    9  C17 UNL     1      18.023 -26.075   4.528  1.00  0.00     0.023 C 
HETATM   10  C18 UNL     1      17.546 -26.832   5.789  1.00  0.00     0.024 C 
HETATM   11  C19 UNL     1      18.274 -24.672   5.002  1.00  0.00     0.135 C 
HETATM   12  O6  UNL     1      17.471 -23.767   4.812  1.00  0.00    -0.297 OA
HETATM   13  C20 UNL     1      19.512 -24.378   5.708  1.00  0.00     0.079 C 
HETATM   14  C21 UNL     1      20.431 -25.553   5.831  1.00  0.00     0.013 C 
HETATM   15  C22 UNL     1      20.523 -26.399   4.590  1.00  0.00     0.008 C 
HETATM   16  C27 UNL     1      19.232 -26.707   3.918  1.00  0.00     0.011 C 
ENDROOT
BRANCH   1  17
HETATM   17  C8  UNL     1      17.533 -26.022  -0.726  1.00  0.00     0.272 C 
HETATM   18  O4  UNL     1      16.907 -25.004  -0.999  1.00  0.00    -0.264 OA
BRANCH  17  19
HETATM   19  O3  UNL     1      17.214 -27.184  -1.475  1.00  0.00    -0.287 OA
BRANCH  19  20
HETATM   20  C7  UNL     1      16.212 -27.103  -2.440  1.00  0.00     0.197 C 
BRANCH  20  21
HETATM   21  C6  UNL     1      16.189 -28.005  -3.566  1.00  0.00     0.189 C 
HETATM   22  O2  UNL     1      15.382 -27.984  -4.445  1.00  0.00    -0.289 OA
BRANCH  21  23
HETATM   23  C5  UNL     1      17.309 -29.072  -3.636  1.00  0.00     0.203 C 
BRANCH  23  24
HETATM   24  N2  UNL     1      16.747 -30.321  -3.442  1.00  0.00    -0.393 N 
HETATM   25  C4  UNL     1      16.661 -31.416  -4.219  1.00  0.00     0.075 C 
ATOM     26  H2  UNL     1      16.311 -30.434  -2.527  1.00  0.00     0.159 HD
BRANCH  25  27
HETATM   27  C3  UNL     1      15.829 -31.650  -5.399  1.00  0.00     0.166 C 
BRANCH  27  28
HETATM   28  N1  UNL     1      14.712 -30.802  -5.625  1.00  0.00    -0.357 N 
HETATM   29  C2  UNL     1      13.472 -30.799  -4.992  1.00  0.00     0.213 C 
HETATM   30  C1  UNL     1      12.431 -29.799  -5.422  1.00  0.00     0.117 C 
HETATM   31  O1  UNL     1      13.144 -31.578  -4.078  1.00  0.00    -0.274 OA
ATOM     32  H1  UNL     1      14.836 -30.097  -6.351  1.00  0.00     0.162 HD
ENDBRANCH  27  28
ENDBRANCH  25  27
ENDBRANCH  23  24
ENDBRANCH  21  23
ENDBRANCH  20  21
ENDBRANCH  19  20
ENDBRANCH  17  19
ENDBRANCH   1  17
BRANCH   7  33
HETATM   33  O5  UNL     1      17.113 -24.298   1.991  1.00  0.00    -0.395 OA
ATOM     34  H5  UNL     1      17.826 -23.855   2.435  1.00  0.00     0.210 HD
ENDBRANCH   7  33
BRANCH  15  35
HETATM   35  C23 UNL     1      21.604 -27.390   4.648  1.00  0.00     0.054 C 
HETATM   36  C24 UNL     1      22.674 -26.855   5.639  1.00  0.00     0.024 C 
HETATM   37  C25 UNL     1      22.367 -27.662   3.391  1.00  0.00     0.024 C 
BRANCH  35  38
HETATM   38  C26 UNL     1      21.299 -28.735   5.266  1.00  0.00     0.395 C 
HETATM   39  F1  UNL     1      22.257 -29.619   4.721  1.00  0.00    -0.170 F 
HETATM   40  F2  UNL     1      20.105 -29.270   4.969  1.00  0.00    -0.170 F 
HETATM   41  F3  UNL     1      21.647 -28.793   6.624  1.00  0.00    -0.170 F 
ENDBRANCH  35  38
ENDBRANCH  15  35
TORSDOF 11
ENDMDL
MODEL 4
REMARK VINA RESULT: -8.280207202      6.061      9.653
REMARK  11 active torsions:
REMARK  status: ('A' for Active; 'I' for Inactive)
REMARK       I    between atoms: C2_2  and  N1_4 
REMARK    1  A    between atoms: N1_4  and  C3_6 
REMARK    2  A    between atoms: C3_6  and  C4_7 
REMARK    3  A    between atoms: N2_8  and  C5_10 
REMARK    4  A    between atoms: C5_10  and  C6_11 
REMARK    5  A    between atoms: C6_11  and  C7_13 
REMARK    6  A    between atoms: C7_13  and  O3_14 
REMARK    7  A    between atoms: O3_14  and  C8_15 
REMARK    8  A    between atoms: C8_15  and  C9_17 
REMARK    9  A    between atoms: C15_23  and  O5_24 
REMARK   10  A    between atoms: C22_33  and  C23_34 
REMARK   11  A    between atoms: C23_34  and  C26_37 
ROOT
HETATM    1  C9  UNL     1      18.424 -26.218   0.346  1.00  0.00     0.051 C 
HETATM    2  C10 UNL     1      19.161 -27.578   0.181  1.00  0.00     0.026 C 
HETATM    3  C11 UNL     1      19.476 -25.186   0.529  1.00  0.00     0.020 C 
HETATM    4  C12 UNL     1      19.848 -25.261   2.020  1.00  0.00     0.007 C 
HETATM    5  C13 UNL     1      19.000 -26.367   2.576  1.00  0.00    -0.001 C 
HETATM    6  C14 UNL     1      17.771 -26.277   1.719  1.00  0.00     0.037 C 
HETATM    7  C15 UNL     1      16.868 -25.164   2.060  1.00  0.00     0.125 C 
HETATM    8  C16 UNL     1      16.551 -25.276   3.515  1.00  0.00     0.049 C 
HETATM    9  C17 UNL     1      17.665 -25.405   4.472  1.00  0.00     0.023 C 
HETATM   10  C18 UNL     1      16.977 -25.862   5.778  1.00  0.00     0.024 C 
HETATM   11  C19 UNL     1      18.150 -24.014   4.766  1.00  0.00     0.135 C 
HETATM   12  O6  UNL     1      17.548 -23.020   4.382  1.00  0.00    -0.297 OA
HETATM   13  C20 UNL     1      19.377 -23.844   5.530  1.00  0.00     0.079 C 
HETATM   14  C21 UNL     1      20.045 -25.133   5.895  1.00  0.00     0.013 C 
HETATM   15  C22 UNL     1      20.048 -26.162   4.796  1.00  0.00     0.008 C 
HETATM   16  C27 UNL     1      18.765 -26.331   4.063  1.00  0.00     0.011 C 
ENDROOT
BRANCH   1  17
HETATM   17  C8  UNL     1      17.509 -26.067  -0.762  1.00  0.00     0.272 C 
HETATM   18  O4  UNL     1      16.975 -25.023  -1.121  1.00  0.00    -0.264 OA
BRANCH  17  19
HETATM   19  O3  UNL     1      17.188 -27.233  -1.504  1.00  0.00    -0.287 OA
BRANCH  19  20
HETATM   20  C7  UNL     1      16.186 -27.156  -2.469  1.00  0.00     0.197 C 
BRANCH  20  21
HETATM   21  C6  UNL     1      16.176 -28.046  -3.604  1.00  0.00     0.189 C 
HETATM   22  O2  UNL     1      15.378 -28.018  -4.491  1.00  0.00    -0.289 OA
BRANCH  21  23
HETATM   23  C5  UNL     1      17.300 -29.109  -3.674  1.00  0.00     0.203 C 
BRANCH  23  24
HETATM   24  N2  UNL     1      16.744 -30.360  -3.470  1.00  0.00    -0.393 N 
HETATM   25  C4  UNL     1      16.654 -31.458  -4.241  1.00  0.00     0.075 C 
ATOM     26  H2  UNL     1      16.316 -30.470  -2.551  1.00  0.00     0.159 HD
BRANCH  25  27
HETATM   27  C3  UNL     1      15.812 -31.700  -5.413  1.00  0.00     0.166 C 
BRANCH  27  28
HETATM   28  N1  UNL     1      14.697 -30.850  -5.637  1.00  0.00    -0.357 N 
HETATM   29  C2  UNL     1      13.465 -30.831  -4.989  1.00  0.00     0.213 C 
HETATM   30  C1  UNL     1      12.424 -29.833  -5.421  1.00  0.00     0.117 C 
HETATM   31  O1  UNL     1      13.145 -31.594  -4.059  1.00  0.00    -0.274 OA
ATOM     32  H1  UNL     1      14.815 -30.156  -6.376  1.00  0.00     0.162 HD
ENDBRANCH  27  28
ENDBRANCH  25  27
ENDBRANCH  23  24
ENDBRANCH  21  23
ENDBRANCH  20  21
ENDBRANCH  19  20
ENDBRANCH  17  19
ENDBRANCH   1  17
BRANCH   7  33
HETATM   33  O5  UNL     1      17.265 -23.901   1.642  1.00  0.00    -0.395 OA
ATOM     34  H5  UNL     1      17.074 -23.183   2.234  1.00  0.00     0.210 HD
ENDBRANCH   7  33
BRANCH  15  35
HETATM   35  C23 UNL     1      20.914 -27.311   5.085  1.00  0.00     0.054 C 
HETATM   36  C24 UNL     1      20.080 -28.597   4.834  1.00  0.00     0.024 C 
HETATM   37  C25 UNL     1      21.423 -27.465   6.482  1.00  0.00     0.024 C 
BRANCH  35  38
HETATM   38  C26 UNL     1      22.090 -27.558   4.169  1.00  0.00     0.395 C 
HETATM   39  F1  UNL     1      22.863 -26.377   4.230  1.00  0.00    -0.170 F 
HETATM   40  F2  UNL     1      21.805 -27.735   2.869  1.00  0.00    -0.170 F 
HETATM   41  F3  UNL     1      23.001 -28.483   4.702  1.00  0.00    -0.170 F 
ENDBRANCH  35  38
ENDBRANCH  15  35
TORSDOF 11
ENDMDL
MODEL 5
REMARK VINA RESULT: -8.278650885      1.368      1.875
REMARK  11 active torsions:
REMARK  status: ('A' for Active; 'I' for Inactive)
REMARK       I    between atoms: C2_2  and  N1_4 
REMARK    1  A    between atoms: N1_4  and  C3_6 
REMARK    2  A    between atoms: C3_6  and  C4_7 
REMARK    3  A    between atoms: N2_8  and  C5_10 
REMARK    4  A    between atoms: C5_10  and  C6_11 
REMARK    5  A    between atoms: C6_11  and  C7_13 
REMARK    6  A    between atoms: C7_13  and  O3_14 
REMARK    7  A    between atoms: O3_14  and  C8_15 
REMARK    8  A    between atoms: C8_15  and  C9_17 
REMARK    9  A    between atoms: C15_23  and  O5_24 
REMARK   10  A    between atoms: C22_33  and  C23_34 
REMARK   11  A    between atoms: C23_34  and  C26_37 
ROOT
HETATM    1  C9  UNL     1      17.739 -28.623  -2.791  1.00  0.00     0.051 C 
HETATM    2  C10 UNL     1      17.728 -27.415  -1.810  1.00  0.00     0.026 C 
HETATM    3  C11 UNL     1      17.606 -28.060  -4.158  1.00  0.00     0.020 C 
HETATM    4  C12 UNL     1      16.098 -27.816  -4.341  1.00  0.00     0.007 C 
HETATM    5  C13 UNL     1      15.478 -28.227  -3.038  1.00  0.00    -0.001 C 
HETATM    6  C14 UNL     1      16.403 -29.321  -2.586  1.00  0.00     0.037 C 
HETATM    7  C15 UNL     1      16.222 -30.604  -3.288  1.00  0.00     0.125 C 
HETATM    8  C16 UNL     1      14.781 -30.978  -3.169  1.00  0.00     0.049 C 
HETATM    9  C17 UNL     1      13.760 -29.985  -3.548  1.00  0.00     0.023 C 
HETATM   10  C18 UNL     1      12.452 -30.558  -2.958  1.00  0.00     0.024 C 
HETATM   11  C19 UNL     1      13.582 -30.089  -5.036  1.00  0.00     0.135 C 
HETATM   12  O6  UNL     1      14.094 -30.986  -5.692  1.00  0.00    -0.297 OA
HETATM   13  C20 UNL     1      12.776 -29.088  -5.720  1.00  0.00     0.079 C 
HETATM   14  C21 UNL     1      12.250 -28.016  -4.817  1.00  0.00     0.013 C 
HETATM   15  C22 UNL     1      13.239 -27.530  -3.791  1.00  0.00     0.008 C 
HETATM   16  C27 UNL     1      14.017 -28.586  -3.089  1.00  0.00     0.011 C 
ENDROOT
BRANCH   1  17
HETATM   17  C8  UNL     1      18.902 -29.428  -2.498  1.00  0.00     0.272 C 
HETATM   18  O4  UNL     1      19.153 -30.532  -2.967  1.00  0.00    -0.264 OA
BRANCH  17  19
HETATM   19  O3  UNL     1      19.842 -28.902  -1.574  1.00  0.00    -0.287 OA
BRANCH  19  20
HETATM   20  C7  UNL     1      21.002 -28.307  -2.067  1.00  0.00     0.197 C 
BRANCH  20  21
HETATM   21  C6  UNL     1      22.227 -28.323  -1.304  1.00  0.00     0.189 C 
HETATM   22  O2  UNL     1      22.721 -27.370  -0.781  1.00  0.00    -0.289 OA
BRANCH  21  23
HETATM   23  C5  UNL     1      22.942 -29.687  -1.148  1.00  0.00     0.203 C 
BRANCH  23  24
HETATM   24  N2  UNL     1      22.431 -30.568  -2.086  1.00  0.00    -0.393 N 
HETATM   25  C4  UNL     1      23.002 -31.490  -2.881  1.00  0.00     0.075 C 
ATOM     26  H2  UNL     1      21.419 -30.504  -2.195  1.00  0.00     0.159 HD
BRANCH  25  27
HETATM   27  C3  UNL     1      23.825 -31.300  -4.075  1.00  0.00     0.166 C 
BRANCH  27  28
HETATM   28  N1  UNL     1      25.058 -30.606  -3.950  1.00  0.00    -0.357 N 
HETATM   29  C2  UNL     1      26.254 -30.816  -4.631  1.00  0.00     0.213 C 
HETATM   30  C1  UNL     1      27.443 -29.949  -4.309  1.00  0.00     0.117 C 
HETATM   31  O1  UNL     1      26.426 -31.684  -5.506  1.00  0.00    -0.274 OA
ATOM     32  H1  UNL     1      25.069 -29.850  -3.266  1.00  0.00     0.162 HD
ENDBRANCH  27  28
ENDBRANCH  25  27
ENDBRANCH  23  24
ENDBRANCH  21  23
ENDBRANCH  20  21
ENDBRANCH  19  20
ENDBRANCH  17  19
ENDBRANCH   1  17
BRANCH   7  33
HETATM   33  O5  UNL     1      16.743 -30.679  -4.572  1.00  0.00    -0.395 OA
ATOM     34  H5  UNL     1      16.154 -30.443  -5.280  1.00  0.00     0.210 HD
ENDBRANCH   7  33
BRANCH  15  35
HETATM   35  C23 UNL     1      12.792 -26.322  -3.088  1.00  0.00     0.054 C 
HETATM   36  C24 UNL     1      13.860 -25.220  -3.332  1.00  0.00     0.024 C 
HETATM   37  C25 UNL     1      12.664 -26.391  -1.600  1.00  0.00     0.024 C 
BRANCH  35  38
HETATM   38  C26 UNL     1      11.552 -25.625  -3.596  1.00  0.00     0.395 C 
HETATM   39  F1  UNL     1      11.141 -24.781  -2.539  1.00  0.00    -0.170 F 
HETATM   40  F2  UNL     1      10.495 -26.409  -3.862  1.00  0.00    -0.170 F 
HETATM   41  F3  UNL     1      11.838 -24.670  -4.584  1.00  0.00    -0.170 F 
ENDBRANCH  35  38
ENDBRANCH  15  35
TORSDOF 11
ENDMDL
