MODEL 1
REMARK VINA RESULT: -8.538972256      0.000      0.000
REMARK  10 active torsions:
REMARK  status: ('A' for Active; 'I' for Inactive)
REMARK    1  A    between atoms: S1_2  and  C2_3 
REMARK    2  A    between atoms: C4_5  and  C5_7 
REMARK    3  A    between atoms: C5_7  and  C6_8 
REMARK    4  A    between atoms: C6_8  and  N4_31 
REMARK    5  A    between atoms: N1_9  and  O1_11 
REMARK    6  A    between atoms: O1_11  and  C7_12 
REMARK    7  A    between atoms: C7_12  and  C8_13 
REMARK       I    between atoms: C8_13  and  N2_15 
REMARK    8  A    between atoms: N2_15  and  N3_17 
REMARK       I    between atoms: N3_17  and  C9_19 
REMARK    9  A    between atoms: C9_19  and  C10_21 
REMARK   10  A    between atoms: C11_22  and  O4_23 
ROOT
HETATM    1  C8  UNL     1      15.621 -25.440  -2.160  1.00  0.00     0.262 C 
HETATM    2  O2  UNL     1      16.190 -25.568  -3.298  1.00  0.00    -0.269 OA
HETATM    3  N2  UNL     1      14.294 -24.969  -2.070  1.00  0.00    -0.265 N 
ATOM      4  H2  UNL     1      13.830 -24.880  -1.165  1.00  0.00     0.190 HD
ENDROOT
BRANCH   1   5
HETATM    5  C7  UNL     1      16.398 -25.794  -0.960  1.00  0.00     0.305 C 
BRANCH   5   6
HETATM    6  O1  UNL     1      16.957 -27.045  -1.043  1.00  0.00    -0.270 OA
BRANCH   6   7
HETATM    7  N1  UNL     1      18.072 -27.569  -1.437  1.00  0.00    -0.254 N 
HETATM    8  C6  UNL     1      18.572 -28.249  -2.370  1.00  0.00     0.104 C 
ATOM      9  H1  UNL     1      18.798 -27.356  -0.754  1.00  0.00     0.195 HD
BRANCH   8  10
HETATM   10  C5  UNL     1      17.698 -28.676  -3.484  1.00  0.00     0.130 C 
BRANCH  10  11
HETATM   11  C4  UNL     1      16.736 -29.725  -3.190  1.00  0.00     0.031 C 
HETATM   12  C2  UNL     1      15.513 -29.673  -3.672  1.00  0.00    -0.008 C 
HETATM   13  C3  UNL     1      15.081 -28.575  -4.569  1.00  0.00     0.057 C 
HETATM   14 CL1  UNL     1      17.153 -31.096  -2.162  1.00  0.00    -0.087 Cl
BRANCH  12  15
HETATM   15  S1  UNL     1      14.349 -30.961  -3.280  1.00  0.00    -0.138 SA
HETATM   16  C1  UNL     1      12.983 -31.069  -4.446  1.00  0.00     0.095 C 
ENDBRANCH  12  15
ENDBRANCH  10  11
ENDBRANCH   8  10
BRANCH   8  17
HETATM   17  N4  UNL     1      19.985 -28.585  -2.366  1.00  0.00    -0.369 N 
HETATM   18  C16 UNL     1      20.435 -29.937  -2.623  1.00  0.00     0.124 C 
HETATM   19  C17 UNL     1      21.925 -29.927  -2.542  1.00  0.00     0.021 C 
HETATM   20  C18 UNL     1      22.175 -28.749  -1.620  1.00  0.00     0.021 C 
HETATM   21  C19 UNL     1      21.125 -27.762  -2.142  1.00  0.00     0.124 C 
ENDBRANCH   8  17
ENDBRANCH   6   7
ENDBRANCH   5   6
ENDBRANCH   1   5
BRANCH   3  22
HETATM   22  N3  UNL     1      13.611 -24.620  -3.286  1.00  0.00    -0.263 N 
HETATM   23  C9  UNL     1      12.231 -24.492  -3.275  1.00  0.00     0.276 C 
HETATM   24  O3  UNL     1      11.643 -24.707  -2.160  1.00  0.00    -0.266 OA
ATOM     25  H3  UNL     1      14.137 -24.467  -4.147  1.00  0.00     0.190 HD
BRANCH  23  26
HETATM   26  C10 UNL     1      11.369 -24.145  -4.392  1.00  0.00     0.105 A 
HETATM   27  C11 UNL     1      11.472 -22.879  -4.990  1.00  0.00     0.085 A 
HETATM   28  C12 UNL     1      10.703 -22.481  -6.059  1.00  0.00     0.056 A 
HETATM   29  C13 UNL     1       9.785 -23.340  -6.583  1.00  0.00     0.016 A 
HETATM   30 BR1  UNL     1       8.723 -22.782  -8.061  1.00  0.00    -0.051 Br
HETATM   31  C14 UNL     1       9.649 -24.589  -6.028  1.00  0.00     0.062 A 
HETATM   32  C15 UNL     1      10.435 -24.983  -4.945  1.00  0.00     0.136 A 
HETATM   33  F1  UNL     1      10.234 -26.226  -4.464  1.00  0.00    -0.205 F 
BRANCH  27  34
HETATM   34  O4  UNL     1      12.423 -22.003  -4.439  1.00  0.00    -0.360 OA
ATOM     35  H4  UNL     1      12.612 -22.114  -3.515  1.00  0.00     0.217 HD
ENDBRANCH  27  34
ENDBRANCH  23  26
ENDBRANCH   3  22
TORSDOF 10
ENDMDL
MODEL 2
REMARK VINA RESULT: -8.395842455      2.015      3.878
REMARK  10 active torsions:
REMARK  status: ('A' for Active; 'I' for Inactive)
REMARK    1  A    between atoms: S1_2  and  C2_3 
REMARK    2  A    between atoms: C4_5  and  C5_7 
REMARK    3  A    between atoms: C5_7  and  C6_8 
REMARK    4  A    between atoms: C6_8  and  N4_31 
REMARK    5  A    between atoms: N1_9  and  O1_11 
REMARK    6  A    between atoms: O1_11  and  C7_12 
REMARK    7  A    between atoms: C7_12  and  C8_13 
REMARK       I    between atoms: C8_13  and  N2_15 
REMARK    8  A    between atoms: N2_15  and  N3_17 
REMARK       I    between atoms: N3_17  and  C9_19 
REMARK    9  A    between atoms: C9_19  and  C10_21 
REMARK   10  A    between atoms: C11_22  and  O4_23 
ROOT
HETATM    1  C8  UNL     1      15.694 -25.649  -2.220  1.00  0.00     0.262 C 
HETATM    2  O2  UNL     1      16.166 -25.927  -3.376  1.00  0.00    -0.269 OA
HETATM    3  N2  UNL     1      14.447 -25.002  -2.090  1.00  0.00    -0.265 N 
ATOM      4  H2  UNL     1      14.061 -24.791  -1.169  1.00  0.00     0.190 HD
ENDROOT
BRANCH   1   5
HETATM    5  C7  UNL     1      16.499 -26.021  -1.043  1.00  0.00     0.305 C 
BRANCH   5   6
HETATM    6  O1  UNL     1      17.279 -27.128  -1.266  1.00  0.00    -0.270 OA
BRANCH   6   7
HETATM    7  N1  UNL     1      17.218 -28.214  -1.967  1.00  0.00    -0.254 N 
HETATM    8  C6  UNL     1      17.885 -28.912  -2.773  1.00  0.00     0.104 C 
ATOM      9  H1  UNL     1      16.314 -28.659  -1.811  1.00  0.00     0.195 HD
BRANCH   8  10
HETATM   10  C5  UNL     1      19.241 -28.459  -3.150  1.00  0.00     0.130 C 
BRANCH  10  11
HETATM   11  C4  UNL     1      20.356 -29.160  -2.535  1.00  0.00     0.031 C 
HETATM   12  C2  UNL     1      21.154 -28.548  -1.688  1.00  0.00    -0.008 C 
HETATM   13  C3  UNL     1      20.926 -27.138  -1.290  1.00  0.00     0.057 C 
HETATM   14 CL1  UNL     1      20.701 -30.849  -2.909  1.00  0.00    -0.087 Cl
BRANCH  12  15
HETATM   15  S1  UNL     1      22.524 -29.425  -0.966  1.00  0.00    -0.138 SA
HETATM   16  C1  UNL     1      23.902 -29.658  -2.099  1.00  0.00     0.095 C 
ENDBRANCH  12  15
ENDBRANCH  10  11
ENDBRANCH   8  10
BRANCH   8  17
HETATM   17  N4  UNL     1      17.345 -30.151  -3.302  1.00  0.00    -0.369 N 
HETATM   18  C16 UNL     1      16.586 -30.174  -4.536  1.00  0.00     0.124 C 
HETATM   19  C17 UNL     1      16.187 -31.590  -4.781  1.00  0.00     0.021 C 
HETATM   20  C18 UNL     1      16.178 -32.156  -3.374  1.00  0.00     0.021 C 
HETATM   21  C19 UNL     1      17.427 -31.481  -2.797  1.00  0.00     0.124 C 
ENDBRANCH   8  17
ENDBRANCH   6   7
ENDBRANCH   5   6
ENDBRANCH   1   5
BRANCH   3  22
HETATM   22  N3  UNL     1      13.736 -24.648  -3.288  1.00  0.00    -0.263 N 
HETATM   23  C9  UNL     1      12.353 -24.555  -3.252  1.00  0.00     0.276 C 
HETATM   24  O3  UNL     1      11.790 -24.804  -2.131  1.00  0.00    -0.266 OA
ATOM     25  H3  UNL     1      14.242 -24.467  -4.154  1.00  0.00     0.190 HD
BRANCH  23  26
HETATM   26  C10 UNL     1      11.464 -24.209  -4.347  1.00  0.00     0.105 A 
HETATM   27  C11 UNL     1      11.531 -22.933  -4.929  1.00  0.00     0.085 A 
HETATM   28  C12 UNL     1      10.734 -22.535  -5.977  1.00  0.00     0.056 A 
HETATM   29  C13 UNL     1       9.824 -23.405  -6.496  1.00  0.00     0.016 A 
HETATM   30 BR1  UNL     1       8.723 -22.848  -7.947  1.00  0.00    -0.051 Br
HETATM   31  C14 UNL     1       9.723 -24.664  -5.958  1.00  0.00     0.062 A 
HETATM   32  C15 UNL     1      10.536 -25.058  -4.895  1.00  0.00     0.136 A 
HETATM   33  F1  UNL     1      10.369 -26.311  -4.428  1.00  0.00    -0.205 F 
BRANCH  27  34
HETATM   34  O4  UNL     1      12.474 -22.046  -4.382  1.00  0.00    -0.360 OA
ATOM     35  H4  UNL     1      12.129 -21.340  -3.848  1.00  0.00     0.217 HD
ENDBRANCH  27  34
ENDBRANCH  23  26
ENDBRANCH   3  22
TORSDOF 10
ENDMDL
MODEL 3
REMARK VINA RESULT: -8.169991076      5.851     10.540
REMARK  10 active torsions:
REMARK  status: ('A' for Active; 'I' for Inactive)
REMARK    1  A    between atoms: S1_2  and  C2_3 
REMARK    2  A    between atoms: C4_5  and  C5_7 
REMARK    3  A    between atoms: C5_7  and  C6_8 
REMARK    4  A    between atoms: C6_8  and  N4_31 
REMARK    5  A    between atoms: N1_9  and  O1_11 
REMARK    6  A    between atoms: O1_11  and  C7_12 
REMARK    7  A    between atoms: C7_12  and  C8_13 
REMARK       I    between atoms: C8_13  and  N2_15 
REMARK    8  A    between atoms: N2_15  and  N3_17 
REMARK       I    between atoms: N3_17  and  C9_19 
REMARK    9  A    between atoms: C9_19  and  C10_21 
REMARK   10  A    between atoms: C11_22  and  O4_23 
ROOT
HETATM    1  C8  UNL     1      20.270 -27.963  -1.073  1.00  0.00     0.262 C 
HETATM    2  O2  UNL     1      20.909 -26.858  -1.014  1.00  0.00    -0.269 OA
HETATM    3  N2  UNL     1      20.879 -29.118  -1.607  1.00  0.00    -0.265 N 
ATOM      4  H2  UNL     1      20.376 -30.005  -1.643  1.00  0.00     0.190 HD
ENDROOT
BRANCH   1   5
HETATM    5  C7  UNL     1      18.884 -27.981  -0.570  1.00  0.00     0.305 C 
BRANCH   5   6
HETATM    6  O1  UNL     1      17.961 -28.135  -1.574  1.00  0.00    -0.270 OA
BRANCH   6   7
HETATM    7  N1  UNL     1      17.455 -29.104  -2.265  1.00  0.00    -0.254 N 
HETATM    8  C6  UNL     1      16.697 -29.333  -3.243  1.00  0.00     0.104 C 
ATOM      9  H1  UNL     1      17.785 -29.990  -1.885  1.00  0.00     0.195 HD
BRANCH   8  10
HETATM   10  C5  UNL     1      16.096 -28.188  -3.959  1.00  0.00     0.130 C 
BRANCH  10  11
HETATM   11  C4  UNL     1      14.827 -27.695  -3.448  1.00  0.00     0.031 C 
HETATM   12  C2  UNL     1      14.757 -26.549  -2.807  1.00  0.00    -0.008 C 
HETATM   13  C3  UNL     1      15.952 -25.692  -2.620  1.00  0.00     0.057 C 
HETATM   14 CL1  UNL     1      13.336 -28.616  -3.644  1.00  0.00    -0.087 Cl
BRANCH  12  15
HETATM   15  S1  UNL     1      13.193 -25.980  -2.174  1.00  0.00    -0.138 SA
HETATM   16  C1  UNL     1      12.629 -24.449  -2.933  1.00  0.00     0.095 C 
ENDBRANCH  12  15
ENDBRANCH  10  11
ENDBRANCH   8  10
BRANCH   8  17
HETATM   17  N4  UNL     1      16.440 -30.695  -3.677  1.00  0.00    -0.369 N 
HETATM   18  C16 UNL     1      17.076 -31.822  -3.027  1.00  0.00     0.124 C 
HETATM   19  C17 UNL     1      16.595 -33.055  -3.716  1.00  0.00     0.021 C 
HETATM   20  C18 UNL     1      16.247 -32.523  -5.092  1.00  0.00     0.021 C 
HETATM   21  C19 UNL     1      15.598 -31.186  -4.715  1.00  0.00     0.124 C 
ENDBRANCH   8  17
ENDBRANCH   6   7
ENDBRANCH   5   6
ENDBRANCH   1   5
BRANCH   3  22
HETATM   22  N3  UNL     1      22.224 -29.011  -2.101  1.00  0.00    -0.263 N 
HETATM   23  C9  UNL     1      22.946 -30.167  -2.356  1.00  0.00     0.276 C 
HETATM   24  O3  UNL     1      22.355 -31.276  -2.121  1.00  0.00    -0.266 OA
ATOM     25  H3  UNL     1      22.643 -28.095  -2.263  1.00  0.00     0.190 HD
BRANCH  23  26
HETATM   26  C10 UNL     1      24.306 -30.265  -2.858  1.00  0.00     0.105 A 
HETATM   27  C11 UNL     1      25.363 -29.688  -2.136  1.00  0.00     0.085 A 
HETATM   28  C12 UNL     1      26.678 -29.751  -2.537  1.00  0.00     0.056 A 
HETATM   29  C13 UNL     1      26.997 -30.400  -3.691  1.00  0.00     0.016 A 
HETATM   30 BR1  UNL     1      28.818 -30.482  -4.241  1.00  0.00    -0.051 Br
HETATM   31  C14 UNL     1      25.995 -30.978  -4.430  1.00  0.00     0.062 A 
HETATM   32  C15 UNL     1      24.665 -30.910  -4.014  1.00  0.00     0.136 A 
HETATM   33  F1  UNL     1      23.746 -31.505  -4.801  1.00  0.00    -0.205 F 
BRANCH  27  34
HETATM   34  O4  UNL     1      25.018 -29.022  -0.948  1.00  0.00    -0.360 OA
ATOM     35  H4  UNL     1      25.738 -28.668  -0.438  1.00  0.00     0.217 HD
ENDBRANCH  27  34
ENDBRANCH  23  26
ENDBRANCH   3  22
TORSDOF 10
ENDMDL
MODEL 4
REMARK VINA RESULT: -8.009188900      5.306      8.183
REMARK  10 active torsions:
REMARK  status: ('A' for Active; 'I' for Inactive)
REMARK    1  A    between atoms: S1_2  and  C2_3 
REMARK    2  A    between atoms: C4_5  and  C5_7 
REMARK    3  A    between atoms: C5_7  and  C6_8 
REMARK    4  A    between atoms: C6_8  and  N4_31 
REMARK    5  A    between atoms: N1_9  and  O1_11 
REMARK    6  A    between atoms: O1_11  and  C7_12 
REMARK    7  A    between atoms: C7_12  and  C8_13 
REMARK       I    between atoms: C8_13  and  N2_15 
REMARK    8  A    between atoms: N2_15  and  N3_17 
REMARK       I    between atoms: N3_17  and  C9_19 
REMARK    9  A    between atoms: C9_19  and  C10_21 
REMARK   10  A    between atoms: C11_22  and  O4_23 
ROOT
HETATM    1  C8  UNL     1      21.146 -28.323  -1.364  1.00  0.00     0.262 C 
HETATM    2  O2  UNL     1      21.259 -29.589  -1.507  1.00  0.00    -0.269 OA
HETATM    3  N2  UNL     1      20.006 -27.645  -1.845  1.00  0.00    -0.265 N 
ATOM      4  H2  UNL     1      19.905 -26.638  -1.720  1.00  0.00     0.190 HD
ENDROOT
BRANCH   1   5
HETATM    5  C7  UNL     1      22.244 -27.608  -0.690  1.00  0.00     0.305 C 
BRANCH   5   6
HETATM    6  O1  UNL     1      23.449 -28.253  -0.814  1.00  0.00    -0.270 OA
BRANCH   6   7
HETATM    7  N1  UNL     1      24.041 -29.012  -1.678  1.00  0.00    -0.254 N 
HETATM    8  C6  UNL     1      25.069 -29.721  -1.836  1.00  0.00     0.104 C 
ATOM      9  H1  UNL     1      23.480 -29.048  -2.529  1.00  0.00     0.195 HD
BRANCH   8  10
HETATM   10  C5  UNL     1      26.038 -29.821  -0.724  1.00  0.00     0.130 C 
BRANCH  10  11
HETATM   11  C4  UNL     1      25.834 -30.906   0.222  1.00  0.00     0.031 C 
HETATM   12  C2  UNL     1      25.465 -30.662   1.460  1.00  0.00    -0.008 C 
HETATM   13  C3  UNL     1      25.197 -29.282   1.930  1.00  0.00     0.057 C 
HETATM   14 CL1  UNL     1      26.090 -32.589  -0.239  1.00  0.00    -0.087 Cl
BRANCH  12  15
HETATM   15  S1  UNL     1      25.242 -32.008   2.603  1.00  0.00    -0.138 SA
HETATM   16  C1  UNL     1      26.773 -32.553   3.374  1.00  0.00     0.095 C 
ENDBRANCH  12  15
ENDBRANCH  10  11
ENDBRANCH   8  10
BRANCH   8  17
HETATM   17  N4  UNL     1      25.284 -30.447  -3.074  1.00  0.00    -0.369 N 
HETATM   18  C16 UNL     1      26.474 -30.232  -3.873  1.00  0.00     0.124 C 
HETATM   19  C17 UNL     1      26.373 -31.128  -5.061  1.00  0.00     0.021 C 
HETATM   20  C18 UNL     1      24.871 -31.298  -5.193  1.00  0.00     0.021 C 
HETATM   21  C19 UNL     1      24.478 -31.430  -3.717  1.00  0.00     0.124 C 
ENDBRANCH   8  17
ENDBRANCH   6   7
ENDBRANCH   5   6
ENDBRANCH   1   5
BRANCH   3  22
HETATM   22  N3  UNL     1      18.990 -28.412  -2.514  1.00  0.00    -0.263 N 
HETATM   23  C9  UNL     1      17.658 -28.192  -2.200  1.00  0.00     0.276 C 
HETATM   24  O3  UNL     1      17.417 -27.307  -1.308  1.00  0.00    -0.266 OA
ATOM     25  H3  UNL     1      19.247 -29.109  -3.213  1.00  0.00     0.190 HD
BRANCH  23  26
HETATM   26  C10 UNL     1      16.497 -28.856  -2.766  1.00  0.00     0.105 A 
HETATM   27  C11 UNL     1      15.592 -28.133  -3.559  1.00  0.00     0.085 A 
HETATM   28  C12 UNL     1      14.479 -28.694  -4.141  1.00  0.00     0.056 A 
HETATM   29  C13 UNL     1      14.219 -30.018  -3.954  1.00  0.00     0.016 A 
HETATM   30 BR1  UNL     1      12.675 -30.787  -4.763  1.00  0.00    -0.051 Br
HETATM   31  C14 UNL     1      15.077 -30.764  -3.185  1.00  0.00     0.062 A 
HETATM   32  C15 UNL     1      16.203 -30.186  -2.600  1.00  0.00     0.136 A 
HETATM   33  F1  UNL     1      16.990 -30.993  -1.860  1.00  0.00    -0.205 F 
BRANCH  27  34
HETATM   34  O4  UNL     1      15.874 -26.769  -3.742  1.00  0.00    -0.360 OA
ATOM     35  H4  UNL     1      15.125 -26.185  -3.783  1.00  0.00     0.217 HD
ENDBRANCH  27  34
ENDBRANCH  23  26
ENDBRANCH   3  22
TORSDOF 10
ENDMDL
MODEL 5
REMARK VINA RESULT: -7.979327357      5.558      8.494
REMARK  10 active torsions:
REMARK  status: ('A' for Active; 'I' for Inactive)
REMARK    1  A    between atoms: S1_2  and  C2_3 
REMARK    2  A    between atoms: C4_5  and  C5_7 
REMARK    3  A    between atoms: C5_7  and  C6_8 
REMARK    4  A    between atoms: C6_8  and  N4_31 
REMARK    5  A    between atoms: N1_9  and  O1_11 
REMARK    6  A    between atoms: O1_11  and  C7_12 
REMARK    7  A    between atoms: C7_12  and  C8_13 
REMARK       I    between atoms: C8_13  and  N2_15 
REMARK    8  A    between atoms: N2_15  and  N3_17 
REMARK       I    between atoms: N3_17  and  C9_19 
REMARK    9  A    between atoms: C9_19  and  C10_21 
REMARK   10  A    between atoms: C11_22  and  O4_23 
ROOT
HETATM    1  C8  UNL     1      21.178 -28.409  -1.417  1.00  0.00     0.262 C 
HETATM    2  O2  UNL     1      21.257 -29.681  -1.510  1.00  0.00    -0.269 OA
HETATM    3  N2  UNL     1      20.059 -27.719  -1.929  1.00  0.00    -0.265 N 
ATOM      4  H2  UNL     1      19.986 -26.705  -1.844  1.00  0.00     0.190 HD
ENDROOT
BRANCH   1   5
HETATM    5  C7  UNL     1      22.293 -27.698  -0.766  1.00  0.00     0.305 C 
BRANCH   5   6
HETATM    6  O1  UNL     1      23.505 -28.305  -0.983  1.00  0.00    -0.270 OA
BRANCH   6   7
HETATM    7  N1  UNL     1      24.031 -29.100  -1.858  1.00  0.00    -0.254 N 
HETATM    8  C6  UNL     1      24.616 -30.208  -1.965  1.00  0.00     0.104 C 
ATOM      9  H1  UNL     1      23.940 -28.682  -2.783  1.00  0.00     0.195 HD
BRANCH   8  10
HETATM   10  C5  UNL     1      24.860 -31.002  -0.741  1.00  0.00     0.130 C 
BRANCH  10  11
HETATM   11  C4  UNL     1      26.100 -30.737  -0.031  1.00  0.00     0.031 C 
HETATM   12  C2  UNL     1      26.453 -31.466   1.005  1.00  0.00    -0.008 C 
HETATM   13  C3  UNL     1      25.632 -32.613   1.461  1.00  0.00     0.057 C 
HETATM   14 CL1  UNL     1      27.172 -29.420  -0.507  1.00  0.00    -0.087 Cl
BRANCH  12  15
HETATM   15  S1  UNL     1      27.967 -31.106   1.870  1.00  0.00    -0.138 SA
HETATM   16  C1  UNL     1      29.403 -31.937   1.174  1.00  0.00     0.095 C 
ENDBRANCH  12  15
ENDBRANCH  10  11
ENDBRANCH   8  10
BRANCH   8  17
HETATM   17  N4  UNL     1      25.019 -30.710  -3.266  1.00  0.00    -0.369 N 
HETATM   18  C16 UNL     1      26.328 -30.415  -3.811  1.00  0.00     0.124 C 
HETATM   19  C17 UNL     1      26.408 -31.076  -5.146  1.00  0.00     0.021 C 
HETATM   20  C18 UNL     1      24.946 -31.144  -5.544  1.00  0.00     0.021 C 
HETATM   21  C19 UNL     1      24.311 -31.520  -4.200  1.00  0.00     0.124 C 
ENDBRANCH   8  17
ENDBRANCH   6   7
ENDBRANCH   5   6
ENDBRANCH   1   5
BRANCH   3  22
HETATM   22  N3  UNL     1      19.026 -28.482  -2.574  1.00  0.00    -0.263 N 
HETATM   23  C9  UNL     1      17.701 -28.240  -2.246  1.00  0.00     0.276 C 
HETATM   24  O3  UNL     1      17.482 -27.338  -1.367  1.00  0.00    -0.266 OA
ATOM     25  H3  UNL     1      19.265 -29.194  -3.264  1.00  0.00     0.190 HD
BRANCH  23  26
HETATM   26  C10 UNL     1      16.524 -28.898  -2.787  1.00  0.00     0.105 A 
HETATM   27  C11 UNL     1      15.614 -28.174  -3.574  1.00  0.00     0.085 A 
HETATM   28  C12 UNL     1      14.486 -28.729  -4.133  1.00  0.00     0.056 A 
HETATM   29  C13 UNL     1      14.215 -30.048  -3.928  1.00  0.00     0.016 A 
HETATM   30 BR1  UNL     1      12.651 -30.809  -4.704  1.00  0.00    -0.051 Br
HETATM   31  C14 UNL     1      15.077 -30.795  -3.164  1.00  0.00     0.062 A 
HETATM   32  C15 UNL     1      16.218 -30.222  -2.602  1.00  0.00     0.136 A 
HETATM   33  F1  UNL     1      17.008 -31.030  -1.866  1.00  0.00    -0.205 F 
BRANCH  27  34
HETATM   34  O4  UNL     1      15.908 -26.815  -3.777  1.00  0.00    -0.360 OA
ATOM     35  H4  UNL     1      15.622 -26.216  -3.096  1.00  0.00     0.217 HD
ENDBRANCH  27  34
ENDBRANCH  23  26
ENDBRANCH   3  22
TORSDOF 10
ENDMDL
