MODEL 1
REMARK VINA RESULT: -8.920436020      0.000      0.000
REMARK  10 active torsions:
REMARK  status: ('A' for Active; 'I' for Inactive)
REMARK    1  A    between atoms: C2_2  and  C4_4 
REMARK    2  A    between atoms: C6_6  and  N1_7 
REMARK    3  A    between atoms: N1_7  and  C7_9 
REMARK    4  A    between atoms: C9_15  and  N4_16 
REMARK    5  A    between atoms: C12_19  and  N5_20 
REMARK    6  A    between atoms: N6_23  and  C15_24 
REMARK    7  A    between atoms: C15_24  and  C16_25 
REMARK    8  A    between atoms: C16_25  and  O1_26 
REMARK    9  A    between atoms: C16_25  and  C17_28 
REMARK   10  A    between atoms: C17_28  and  O2_29 
ROOT
HETATM    1  C7  UNL     1      23.705 -29.596  -0.136  1.00  0.00     0.150 A 
HETATM    2  N2  UNL     1      23.902 -28.948   1.006  1.00  0.00    -0.336 N 
ATOM      3  H2  UNL     1      24.644 -29.248   1.638  1.00  0.00     0.168 HD
HETATM    4  C8  UNL     1      23.114 -27.879   1.341  1.00  0.00     0.183 A 
HETATM    5  N3  UNL     1      22.144 -27.468   0.544  1.00  0.00    -0.336 N 
ATOM      6  H3  UNL     1      21.576 -26.670   0.828  1.00  0.00     0.168 HD
HETATM    7  C9  UNL     1      21.878 -28.082  -0.654  1.00  0.00     0.147 A 
HETATM    8  C22 UNL     1      22.671 -29.143  -0.979  1.00  0.00     0.204 A 
HETATM    9  F1  UNL     1      22.494 -29.804  -2.132  1.00  0.00    -0.198 F 
ENDROOT
BRANCH   7  10
HETATM   10  N4  UNL     1      20.844 -27.574  -1.466  1.00  0.00    -0.364 N 
HETATM   11  C10 UNL     1      20.501 -27.949  -2.797  1.00  0.00     0.126 C 
HETATM   12  C11 UNL     1      19.125 -28.551  -2.867  1.00  0.00     0.055 C 
HETATM   13  C12 UNL     1      18.283 -28.295  -1.662  1.00  0.00     0.226 C 
HETATM   14  C20 UNL     1      18.528 -27.010  -0.942  1.00  0.00     0.055 C 
HETATM   15  C21 UNL     1      19.944 -26.550  -0.877  1.00  0.00     0.126 C 
BRANCH  13  16
HETATM   16  N5  UNL     1      16.901 -28.379  -2.080  1.00  0.00     0.096 N 
HETATM   17  C13 UNL     1      16.580 -29.577  -2.787  1.00  0.00     0.292 C 
HETATM   18  C14 UNL     1      15.665 -29.407  -3.941  1.00  0.00     0.147 C 
HETATM   19  N6  UNL     1      14.678 -28.377  -3.845  1.00  0.00    -0.407 N 
HETATM   20  C18 UNL     1      14.918 -27.367  -2.902  1.00  0.00     0.147 C 
HETATM   21  C19 UNL     1      16.445 -27.205  -2.789  1.00  0.00     0.292 C 
BRANCH  19  22
HETATM   22  C15 UNL     1      13.350 -28.837  -4.048  1.00  0.00     0.150 C 
BRANCH  22  23
HETATM   23  C16 UNL     1      13.149 -30.290  -3.721  1.00  0.00     0.159 C 
BRANCH  23  24
HETATM   24  O1  UNL     1      12.380 -30.530  -2.602  1.00  0.00    -0.392 OA
ATOM     25  H1  UNL     1      12.769 -31.125  -1.972  1.00  0.00     0.210 HD
ENDBRANCH  23  24
BRANCH  23  26
HETATM   26  C17 UNL     1      12.560 -30.989  -4.916  1.00  0.00     0.197 C 
BRANCH  26  27
HETATM   27  O2  UNL     1      12.297 -30.096  -5.962  1.00  0.00    -0.398 OA
ATOM     28  H2  UNL     1      11.953 -30.541  -6.728  1.00  0.00     0.209 HD
ENDBRANCH  26  27
ENDBRANCH  23  26
ENDBRANCH  22  23
ENDBRANCH  19  22
ENDBRANCH  13  16
ENDBRANCH   7  10
BRANCH   1  29
HETATM   29  N1  UNL     1      24.399 -30.643  -0.509  1.00  0.00    -0.340 N 
ATOM     30  H1  UNL     1      24.110 -31.576  -0.214  1.00  0.00     0.167 HD
BRANCH  29  31
HETATM   31  C6  UNL     1      25.561 -30.483  -1.327  1.00  0.00     0.036 A 
HETATM   32  C5  UNL     1      26.761 -30.143  -0.750  1.00  0.00     0.043 A 
HETATM   33  C4  UNL     1      27.944 -30.078  -1.489  1.00  0.00    -0.009 A 
HETATM   34  C25 UNL     1      27.890 -30.364  -2.860  1.00  0.00     0.066 A 
HETATM   35  C24 UNL     1      26.679 -30.692  -3.413  1.00  0.00     0.058 A 
HETATM   36 CL2  UNL     1      29.320 -30.278  -3.856  1.00  0.00    -0.082 Cl
HETATM   37  C23 UNL     1      25.526 -30.756  -2.679  1.00  0.00     0.055 A 
HETATM   38 CL1  UNL     1      26.617 -31.038  -5.146  1.00  0.00    -0.082 Cl
BRANCH  33  39
HETATM   39  C2  UNL     1      29.279 -29.868  -0.875  1.00  0.00    -0.076 C 
HETATM   40  C1  UNL     1      29.582 -30.725   0.313  1.00  0.00     0.044 C 
HETATM   41  C3  UNL     1      29.775 -28.476  -0.900  1.00  0.00     0.044 C 
ENDBRANCH  33  39
ENDBRANCH  29  31
ENDBRANCH   1  29
TORSDOF 10
ENDMDL
MODEL 2
REMARK VINA RESULT: -8.565628031      1.003      2.255
REMARK  10 active torsions:
REMARK  status: ('A' for Active; 'I' for Inactive)
REMARK    1  A    between atoms: C2_2  and  C4_4 
REMARK    2  A    between atoms: C6_6  and  N1_7 
REMARK    3  A    between atoms: N1_7  and  C7_9 
REMARK    4  A    between atoms: C9_15  and  N4_16 
REMARK    5  A    between atoms: C12_19  and  N5_20 
REMARK    6  A    between atoms: N6_23  and  C15_24 
REMARK    7  A    between atoms: C15_24  and  C16_25 
REMARK    8  A    between atoms: C16_25  and  O1_26 
REMARK    9  A    between atoms: C16_25  and  C17_28 
REMARK   10  A    between atoms: C17_28  and  O2_29 
ROOT
HETATM    1  C7  UNL     1      23.741 -29.575   0.260  1.00  0.00     0.150 A 
HETATM    2  N2  UNL     1      24.002 -28.849   1.341  1.00  0.00    -0.336 N 
ATOM      3  H2  UNL     1      24.737 -29.144   1.983  1.00  0.00     0.168 HD
HETATM    4  C8  UNL     1      23.288 -27.709   1.600  1.00  0.00     0.183 A 
HETATM    5  N3  UNL     1      22.329 -27.304   0.787  1.00  0.00    -0.336 N 
ATOM      6  H3  UNL     1      21.816 -26.451   1.013  1.00  0.00     0.168 HD
HETATM    7  C9  UNL     1      22.000 -27.995  -0.352  1.00  0.00     0.147 A 
HETATM    8  C22 UNL     1      22.719 -29.127  -0.601  1.00  0.00     0.204 A 
HETATM    9  F1  UNL     1      22.477 -29.867  -1.693  1.00  0.00    -0.198 F 
ENDROOT
BRANCH   7  10
HETATM   10  N4  UNL     1      20.982 -27.491  -1.186  1.00  0.00    -0.364 N 
HETATM   11  C10 UNL     1      20.783 -27.724  -2.577  1.00  0.00     0.126 C 
HETATM   12  C11 UNL     1      19.491 -28.443  -2.841  1.00  0.00     0.055 C 
HETATM   13  C12 UNL     1      18.537 -28.428  -1.694  1.00  0.00     0.226 C 
HETATM   14  C20 UNL     1      18.585 -27.229  -0.806  1.00  0.00     0.055 C 
HETATM   15  C21 UNL     1      19.934 -26.645  -0.561  1.00  0.00     0.126 C 
BRANCH  13  16
HETATM   16  N5  UNL     1      17.207 -28.592  -2.240  1.00  0.00     0.096 N 
HETATM   17  C13 UNL     1      17.125 -29.562  -3.286  1.00  0.00     0.292 C 
HETATM   18  C14 UNL     1      16.243 -29.198  -4.420  1.00  0.00     0.147 C 
HETATM   19  N6  UNL     1      15.091 -28.404  -4.123  1.00  0.00    -0.407 N 
HETATM   20  C18 UNL     1      15.116 -27.694  -2.914  1.00  0.00     0.147 C 
HETATM   21  C19 UNL     1      16.587 -27.344  -2.623  1.00  0.00     0.292 C 
BRANCH  19  22
HETATM   22  C15 UNL     1      13.871 -28.978  -4.567  1.00  0.00     0.150 C 
BRANCH  22  23
HETATM   23  C16 UNL     1      13.566 -30.316  -3.954  1.00  0.00     0.159 C 
BRANCH  23  24
HETATM   24  O1  UNL     1      12.542 -30.309  -3.030  1.00  0.00    -0.392 OA
ATOM     25  H1  UNL     1      11.827 -29.717  -3.232  1.00  0.00     0.210 HD
ENDBRANCH  23  24
BRANCH  23  26
HETATM   26  C17 UNL     1      13.272 -31.306  -5.048  1.00  0.00     0.197 C 
BRANCH  26  27
HETATM   27  O2  UNL     1      14.278 -31.316  -6.023  1.00  0.00    -0.398 OA
ATOM     28  H2  UNL     1      13.964 -31.664  -6.849  1.00  0.00     0.209 HD
ENDBRANCH  26  27
ENDBRANCH  23  26
ENDBRANCH  22  23
ENDBRANCH  19  22
ENDBRANCH  13  16
ENDBRANCH   7  10
BRANCH   1  29
HETATM   29  N1  UNL     1      24.362 -30.690  -0.037  1.00  0.00    -0.340 N 
ATOM     30  H1  UNL     1      24.058 -31.568   0.384  1.00  0.00     0.167 HD
BRANCH  29  31
HETATM   31  C6  UNL     1      25.464 -30.681  -0.948  1.00  0.00     0.036 A 
HETATM   32  C5  UNL     1      25.257 -30.982  -2.273  1.00  0.00     0.043 A 
HETATM   33  C4  UNL     1      26.278 -30.884  -3.221  1.00  0.00    -0.009 A 
HETATM   34  C25 UNL     1      27.547 -30.473  -2.793  1.00  0.00     0.066 A 
HETATM   35  C24 UNL     1      27.729 -30.187  -1.465  1.00  0.00     0.058 A 
HETATM   36 CL2  UNL     1      28.880 -30.353  -3.912  1.00  0.00    -0.082 Cl
HETATM   37  C23 UNL     1      26.721 -30.283  -0.544  1.00  0.00     0.055 A 
HETATM   38 CL1  UNL     1      29.337 -29.682  -0.931  1.00  0.00    -0.082 Cl
BRANCH  33  39
HETATM   39  C2  UNL     1      26.054 -31.050  -4.679  1.00  0.00    -0.076 C 
HETATM   40  C1  UNL     1      26.721 -30.034  -5.550  1.00  0.00     0.044 C 
HETATM   41  C3  UNL     1      24.720 -31.558  -5.061  1.00  0.00     0.044 C 
ENDBRANCH  33  39
ENDBRANCH  29  31
ENDBRANCH   1  29
TORSDOF 10
ENDMDL
MODEL 3
REMARK VINA RESULT: -8.473165054      1.269      2.522
REMARK  10 active torsions:
REMARK  status: ('A' for Active; 'I' for Inactive)
REMARK    1  A    between atoms: C2_2  and  C4_4 
REMARK    2  A    between atoms: C6_6  and  N1_7 
REMARK    3  A    between atoms: N1_7  and  C7_9 
REMARK    4  A    between atoms: C9_15  and  N4_16 
REMARK    5  A    between atoms: C12_19  and  N5_20 
REMARK    6  A    between atoms: N6_23  and  C15_24 
REMARK    7  A    between atoms: C15_24  and  C16_25 
REMARK    8  A    between atoms: C16_25  and  O1_26 
REMARK    9  A    between atoms: C16_25  and  C17_28 
REMARK   10  A    between atoms: C17_28  and  O2_29 
ROOT
HETATM    1  C7  UNL     1      23.930 -29.561   0.517  1.00  0.00     0.150 A 
HETATM    2  N2  UNL     1      24.199 -28.802   1.572  1.00  0.00    -0.336 N 
ATOM      3  H2  UNL     1      24.963 -29.056   2.197  1.00  0.00     0.168 HD
HETATM    4  C8  UNL     1      23.456 -27.679   1.826  1.00  0.00     0.183 A 
HETATM    5  N3  UNL     1      22.460 -27.326   1.034  1.00  0.00    -0.336 N 
ATOM      6  H3  UNL     1      21.926 -26.485   1.256  1.00  0.00     0.168 HD
HETATM    7  C9  UNL     1      22.120 -28.055  -0.078  1.00  0.00     0.147 A 
HETATM    8  C22 UNL     1      22.868 -29.168  -0.323  1.00  0.00     0.204 A 
HETATM    9  F1  UNL     1      22.618 -29.943  -1.388  1.00  0.00    -0.198 F 
ENDROOT
BRANCH   7  10
HETATM   10  N4  UNL     1      21.061 -27.605  -0.891  1.00  0.00    -0.364 N 
HETATM   11  C10 UNL     1      20.993 -27.569  -2.314  1.00  0.00     0.126 C 
HETATM   12  C11 UNL     1      19.909 -28.466  -2.842  1.00  0.00     0.055 C 
HETATM   13  C12 UNL     1      18.916 -28.895  -1.814  1.00  0.00     0.226 C 
HETATM   14  C20 UNL     1      18.649 -27.932  -0.705  1.00  0.00     0.055 C 
HETATM   15  C21 UNL     1      19.818 -27.148  -0.217  1.00  0.00     0.126 C 
BRANCH  13  16
HETATM   16  N5  UNL     1      17.688 -29.209  -2.511  1.00  0.00     0.096 N 
HETATM   17  C13 UNL     1      17.452 -30.609  -2.670  1.00  0.00     0.292 C 
HETATM   18  C14 UNL     1      16.888 -31.012  -3.980  1.00  0.00     0.147 C 
HETATM   19  N6  UNL     1      16.009 -30.087  -4.625  1.00  0.00    -0.407 N 
HETATM   20  C18 UNL     1      16.088 -28.752  -4.203  1.00  0.00     0.147 C 
HETATM   21  C19 UNL     1      17.541 -28.501  -3.761  1.00  0.00     0.292 C 
BRANCH  19  22
HETATM   22  C15 UNL     1      14.743 -30.637  -4.956  1.00  0.00     0.150 C 
BRANCH  22  23
HETATM   23  C16 UNL     1      13.630 -29.629  -5.002  1.00  0.00     0.159 C 
BRANCH  23  24
HETATM   24  O1  UNL     1      13.170 -29.333  -6.268  1.00  0.00    -0.392 OA
ATOM     25  H1  UNL     1      13.850 -29.187  -6.915  1.00  0.00     0.210 HD
ENDBRANCH  23  24
BRANCH  23  26
HETATM   26  C17 UNL     1      12.496 -30.102  -4.135  1.00  0.00     0.197 C 
BRANCH  26  27
HETATM   27  O2  UNL     1      12.496 -31.496  -3.995  1.00  0.00    -0.398 OA
ATOM     28  H2  UNL     1      12.070 -31.770  -3.192  1.00  0.00     0.209 HD
ENDBRANCH  26  27
ENDBRANCH  23  26
ENDBRANCH  22  23
ENDBRANCH  19  22
ENDBRANCH  13  16
ENDBRANCH   7  10
BRANCH   1  29
HETATM   29  N1  UNL     1      24.578 -30.663   0.227  1.00  0.00    -0.340 N 
ATOM     30  H1  UNL     1      24.334 -31.535   0.697  1.00  0.00     0.167 HD
BRANCH  29  31
HETATM   31  C6  UNL     1      25.628 -30.647  -0.744  1.00  0.00     0.036 A 
HETATM   32  C5  UNL     1      25.351 -30.956  -2.054  1.00  0.00     0.043 A 
HETATM   33  C4  UNL     1      26.316 -30.853  -3.057  1.00  0.00    -0.009 A 
HETATM   34  C25 UNL     1      27.603 -30.427  -2.703  1.00  0.00     0.066 A 
HETATM   35  C24 UNL     1      27.856 -30.134  -1.388  1.00  0.00     0.058 A 
HETATM   36 CL2  UNL     1      28.871 -30.299  -3.895  1.00  0.00    -0.082 Cl
HETATM   37  C23 UNL     1      26.902 -30.235  -0.412  1.00  0.00     0.055 A 
HETATM   38 CL1  UNL     1      29.486 -29.610  -0.946  1.00  0.00    -0.082 Cl
BRANCH  33  39
HETATM   39  C2  UNL     1      26.014 -31.027  -4.500  1.00  0.00    -0.076 C 
HETATM   40  C1  UNL     1      26.766 -30.127  -5.428  1.00  0.00     0.044 C 
HETATM   41  C3  UNL     1      24.612 -31.372  -4.816  1.00  0.00     0.044 C 
ENDBRANCH  33  39
ENDBRANCH  29  31
ENDBRANCH   1  29
TORSDOF 10
ENDMDL
MODEL 4
REMARK VINA RESULT: -8.440654264      1.988      2.399
REMARK  10 active torsions:
REMARK  status: ('A' for Active; 'I' for Inactive)
REMARK    1  A    between atoms: C2_2  and  C4_4 
REMARK    2  A    between atoms: C6_6  and  N1_7 
REMARK    3  A    between atoms: N1_7  and  C7_9 
REMARK    4  A    between atoms: C9_15  and  N4_16 
REMARK    5  A    between atoms: C12_19  and  N5_20 
REMARK    6  A    between atoms: N6_23  and  C15_24 
REMARK    7  A    between atoms: C15_24  and  C16_25 
REMARK    8  A    between atoms: C16_25  and  O1_26 
REMARK    9  A    between atoms: C16_25  and  C17_28 
REMARK   10  A    between atoms: C17_28  and  O2_29 
ROOT
HETATM    1  C7  UNL     1      23.861 -29.637   0.055  1.00  0.00     0.150 A 
HETATM    2  N2  UNL     1      24.075 -29.156   1.274  1.00  0.00    -0.336 N 
ATOM      3  H2  UNL     1      24.774 -29.592   1.875  1.00  0.00     0.168 HD
HETATM    4  C8  UNL     1      23.362 -28.079   1.730  1.00  0.00     0.183 A 
HETATM    5  N3  UNL     1      22.450 -27.495   0.974  1.00  0.00    -0.336 N 
ATOM      6  H3  UNL     1      21.936 -26.696   1.348  1.00  0.00     0.168 HD
HETATM    7  C9  UNL     1      22.171 -27.929  -0.298  1.00  0.00     0.147 A 
HETATM    8  C22 UNL     1      22.889 -28.999  -0.742  1.00  0.00     0.204 A 
HETATM    9  F1  UNL     1      22.694 -29.493  -1.973  1.00  0.00    -0.198 F 
ENDROOT
BRANCH   7  10
HETATM   10  N4  UNL     1      21.202 -27.242  -1.056  1.00  0.00    -0.364 N 
HETATM   11  C10 UNL     1      20.536 -27.675  -2.239  1.00  0.00     0.126 C 
HETATM   12  C11 UNL     1      19.056 -27.816  -2.023  1.00  0.00     0.055 C 
HETATM   13  C12 UNL     1      18.550 -27.139  -0.793  1.00  0.00     0.226 C 
HETATM   14  C20 UNL     1      19.278 -25.909  -0.365  1.00  0.00     0.055 C 
HETATM   15  C21 UNL     1      20.755 -25.913  -0.564  1.00  0.00     0.126 C 
BRANCH  13  16
HETATM   16  N5  UNL     1      17.151 -26.842  -1.013  1.00  0.00     0.096 N 
HETATM   17  C13 UNL     1      16.581 -27.522  -2.132  1.00  0.00     0.292 C 
HETATM   18  C14 UNL     1      15.642 -26.719  -2.950  1.00  0.00     0.147 C 
HETATM   19  N6  UNL     1      14.859 -25.735  -2.270  1.00  0.00    -0.407 N 
HETATM   20  C18 UNL     1      15.330 -25.319  -1.016  1.00  0.00     0.147 C 
HETATM   21  C19 UNL     1      16.866 -25.426  -1.050  1.00  0.00     0.292 C 
BRANCH  19  22
HETATM   22  C15 UNL     1      13.462 -25.874  -2.476  1.00  0.00     0.150 C 
BRANCH  22  23
HETATM   23  C16 UNL     1      12.761 -24.589  -2.816  1.00  0.00     0.159 C 
BRANCH  23  24
HETATM   24  O1  UNL     1      13.186 -23.990  -3.982  1.00  0.00    -0.392 OA
ATOM     25  H1  UNL     1      12.873 -23.102  -4.112  1.00  0.00     0.210 HD
ENDBRANCH  23  24
BRANCH  23  26
HETATM   26  C17 UNL     1      11.278 -24.831  -2.865  1.00  0.00     0.197 C 
BRANCH  26  27
HETATM   27  O2  UNL     1      10.965 -25.994  -3.580  1.00  0.00    -0.398 OA
ATOM     28  H2  UNL     1      10.259 -26.480  -3.172  1.00  0.00     0.209 HD
ENDBRANCH  26  27
ENDBRANCH  23  26
ENDBRANCH  22  23
ENDBRANCH  19  22
ENDBRANCH  13  16
ENDBRANCH   7  10
BRANCH   1  29
HETATM   29  N1  UNL     1      24.484 -30.680  -0.437  1.00  0.00    -0.340 N 
ATOM     30  H1  UNL     1      24.143 -31.619  -0.229  1.00  0.00     0.167 HD
BRANCH  29  31
HETATM   31  C6  UNL     1      25.639 -30.507  -1.262  1.00  0.00     0.036 A 
HETATM   32  C5  UNL     1      26.843 -30.175  -0.689  1.00  0.00     0.043 A 
HETATM   33  C4  UNL     1      28.020 -30.099  -1.437  1.00  0.00    -0.009 A 
HETATM   34  C25 UNL     1      27.955 -30.364  -2.811  1.00  0.00     0.066 A 
HETATM   35  C24 UNL     1      26.740 -30.684  -3.359  1.00  0.00     0.058 A 
HETATM   36 CL2  UNL     1      29.377 -30.262  -3.818  1.00  0.00    -0.082 Cl
HETATM   37  C23 UNL     1      25.592 -30.759  -2.617  1.00  0.00     0.055 A 
HETATM   38 CL1  UNL     1      26.663 -31.004  -5.097  1.00  0.00    -0.082 Cl
BRANCH  33  39
HETATM   39  C2  UNL     1      29.360 -29.898  -0.830  1.00  0.00    -0.076 C 
HETATM   40  C1  UNL     1      29.655 -30.739   0.370  1.00  0.00     0.044 C 
HETATM   41  C3  UNL     1      29.875 -28.513  -0.880  1.00  0.00     0.044 C 
ENDBRANCH  33  39
ENDBRANCH  29  31
ENDBRANCH   1  29
TORSDOF 10
ENDMDL
MODEL 5
REMARK VINA RESULT: -8.392768058      1.020      1.355
REMARK  10 active torsions:
REMARK  status: ('A' for Active; 'I' for Inactive)
REMARK    1  A    between atoms: C2_2  and  C4_4 
REMARK    2  A    between atoms: C6_6  and  N1_7 
REMARK    3  A    between atoms: N1_7  and  C7_9 
REMARK    4  A    between atoms: C9_15  and  N4_16 
REMARK    5  A    between atoms: C12_19  and  N5_20 
REMARK    6  A    between atoms: N6_23  and  C15_24 
REMARK    7  A    between atoms: C15_24  and  C16_25 
REMARK    8  A    between atoms: C16_25  and  O1_26 
REMARK    9  A    between atoms: C16_25  and  C17_28 
REMARK   10  A    between atoms: C17_28  and  O2_29 
ROOT
HETATM    1  C7  UNL     1      23.985 -29.587   0.277  1.00  0.00     0.150 A 
HETATM    2  N2  UNL     1      24.220 -28.877   1.374  1.00  0.00    -0.336 N 
ATOM      3  H2  UNL     1      25.011 -29.116   1.972  1.00  0.00     0.168 HD
HETATM    4  C8  UNL     1      23.408 -27.826   1.707  1.00  0.00     0.183 A 
HETATM    5  N3  UNL     1      22.376 -27.493   0.952  1.00  0.00    -0.336 N 
ATOM      6  H3  UNL     1      21.791 -26.706   1.233  1.00  0.00     0.168 HD
HETATM    7  C9  UNL     1      22.067 -28.175  -0.199  1.00  0.00     0.147 A 
HETATM    8  C22 UNL     1      22.884 -29.217  -0.522  1.00  0.00     0.204 A 
HETATM    9  F1  UNL     1      22.669 -29.940  -1.630  1.00  0.00    -0.198 F 
ENDROOT
BRANCH   7  10
HETATM   10  N4  UNL     1      20.966 -27.750  -0.968  1.00  0.00    -0.364 N 
HETATM   11  C10 UNL     1      20.926 -27.443  -2.359  1.00  0.00     0.126 C 
HETATM   12  C11 UNL     1      20.021 -28.380  -3.108  1.00  0.00     0.055 C 
HETATM   13  C12 UNL     1      19.092 -29.160  -2.239  1.00  0.00     0.226 C 
HETATM   14  C20 UNL     1      18.641 -28.491  -0.983  1.00  0.00     0.055 C 
HETATM   15  C21 UNL     1      19.649 -27.642  -0.289  1.00  0.00     0.126 C 
BRANCH  13  16
HETATM   16  N5  UNL     1      17.951 -29.524  -3.050  1.00  0.00     0.096 N 
HETATM   17  C13 UNL     1      17.275 -28.410  -3.635  1.00  0.00     0.292 C 
HETATM   18  C14 UNL     1      15.796 -28.501  -3.648  1.00  0.00     0.147 C 
HETATM   19  N6  UNL     1      15.223 -29.804  -3.784  1.00  0.00    -0.407 N 
HETATM   20  C18 UNL     1      16.054 -30.889  -3.468  1.00  0.00     0.147 C 
HETATM   21  C19 UNL     1      17.030 -30.410  -2.377  1.00  0.00     0.292 C 
BRANCH  19  22
HETATM   22  C15 UNL     1      14.314 -29.919  -4.868  1.00  0.00     0.150 C 
BRANCH  22  23
HETATM   23  C16 UNL     1      12.870 -29.785  -4.473  1.00  0.00     0.159 C 
BRANCH  23  24
HETATM   24  O1  UNL     1      12.621 -29.942  -3.127  1.00  0.00    -0.392 OA
ATOM     25  H1  UNL     1      12.403 -30.827  -2.862  1.00  0.00     0.210 HD
ENDBRANCH  23  24
BRANCH  23  26
HETATM   26  C17 UNL     1      12.349 -28.456  -4.947  1.00  0.00     0.197 C 
BRANCH  26  27
HETATM   27  O2  UNL     1      12.375 -27.494  -3.929  1.00  0.00    -0.398 OA
ATOM     28  H2  UNL     1      12.941 -26.764  -4.148  1.00  0.00     0.209 HD
ENDBRANCH  26  27
ENDBRANCH  23  26
ENDBRANCH  22  23
ENDBRANCH  19  22
ENDBRANCH  13  16
ENDBRANCH   7  10
BRANCH   1  29
HETATM   29  N1  UNL     1      24.701 -30.622  -0.089  1.00  0.00    -0.340 N 
ATOM     30  H1  UNL     1      24.473 -31.550   0.268  1.00  0.00     0.167 HD
BRANCH  29  31
HETATM   31  C6  UNL     1      25.802 -30.455  -0.987  1.00  0.00     0.036 A 
HETATM   32  C5  UNL     1      27.037 -30.108  -0.494  1.00  0.00     0.043 A 
HETATM   33  C4  UNL     1      28.165 -30.037  -1.314  1.00  0.00    -0.009 A 
HETATM   34  C25 UNL     1      28.018 -30.323  -2.678  1.00  0.00     0.066 A 
HETATM   35  C24 UNL     1      26.773 -30.658  -3.145  1.00  0.00     0.058 A 
HETATM   36 CL2  UNL     1      29.374 -30.229  -3.771  1.00  0.00    -0.082 Cl
HETATM   37  C23 UNL     1      25.674 -30.728  -2.332  1.00  0.00     0.055 A 
HETATM   38 CL1  UNL     1      26.592 -31.005  -4.869  1.00  0.00    -0.082 Cl
BRANCH  33  39
HETATM   39  C2  UNL     1      29.539 -29.819  -0.794  1.00  0.00    -0.076 C 
HETATM   40  C1  UNL     1      29.920 -30.658   0.384  1.00  0.00     0.044 C 
HETATM   41  C3  UNL     1      30.033 -28.429  -0.875  1.00  0.00     0.044 C 
ENDBRANCH  33  39
ENDBRANCH  29  31
ENDBRANCH   1  29
TORSDOF 10
ENDMDL
