MODEL 1
REMARK VINA RESULT: -8.505165279      0.000      0.000
REMARK  11 active torsions:
REMARK  status: ('A' for Active; 'I' for Inactive)
REMARK    1  A    between atoms: C2_2  and  S1_4 
REMARK    2  A    between atoms: S1_4  and  N1_7 
REMARK    3  A    between atoms: N2_10  and  C6_11 
REMARK    4  A    between atoms: C6_11  and  O3_12 
REMARK    5  A    between atoms: C6_11  and  C7_14 
REMARK    6  A    between atoms: C7_14  and  N3_15 
REMARK    7  A    between atoms: N3_15  and  C8_17 
REMARK    8  A    between atoms: C8_17  and  O4_18 
REMARK    9  A    between atoms: C8_17  and  C9_20 
REMARK   10  A    between atoms: C11_22  and  O5_23 
REMARK   11  A    between atoms: N4_25  and  C12_26 
ROOT
HETATM    1  N3  UNL     1      16.025 -25.556  -0.354  1.00  0.00    -0.389 N 
ATOM      2  H3  UNL     1      15.635 -26.473  -0.136  1.00  0.00     0.156 HD
ENDROOT
BRANCH   1   3
HETATM    3  C7  UNL     1      15.922 -24.978  -1.652  1.00  0.00     0.180 C 
BRANCH   3   4
HETATM    4  C6  UNL     1      14.771 -25.508  -2.419  1.00  0.00     0.374 C 
BRANCH   4   5
HETATM    5  N2  UNL     1      14.903 -26.895  -2.786  1.00  0.00     0.128 N 
HETATM    6  C5  UNL     1      13.728 -27.493  -3.338  1.00  0.00     0.321 C 
HETATM    7  C4  UNL     1      13.909 -28.969  -3.524  1.00  0.00     0.109 C 
HETATM    8  N1  UNL     1      15.206 -29.458  -3.508  1.00  0.00    -0.248 N 
HETATM    9  C20 UNL     1      16.328 -28.631  -3.493  1.00  0.00     0.213 C 
HETATM   10  C19 UNL     1      15.985 -27.153  -3.715  1.00  0.00     0.343 C 
HETATM   11  C21 UNL     1      17.111 -28.652  -2.185  1.00  0.00     0.080 C 
HETATM   12  F1  UNL     1      17.203 -28.978  -4.505  1.00  0.00    -0.217 F 
BRANCH   8  13
HETATM   13  S1  UNL     1      15.369 -31.105  -3.305  1.00  0.00     0.238 S 
HETATM   14  O1  UNL     1      15.659 -31.544  -1.898  1.00  0.00    -0.205 OA
HETATM   15  O2  UNL     1      14.142 -31.827  -3.843  1.00  0.00    -0.205 OA
BRANCH  13  16
HETATM   16  C2  UNL     1      16.738 -31.705  -4.305  1.00  0.00     0.121 C 
HETATM   17  C1  UNL     1      17.841 -32.038  -3.293  1.00  0.00     0.027 C 
HETATM   18  C3  UNL     1      16.288 -33.022  -4.892  1.00  0.00     0.027 C 
ENDBRANCH  13  16
ENDBRANCH   8  13
ENDBRANCH   4   5
BRANCH   4  19
HETATM   19  O3  UNL     1      13.523 -25.347  -1.855  1.00  0.00    -0.366 OA
ATOM     20  H3  UNL     1      13.097 -24.628  -2.307  1.00  0.00     0.212 HD
ENDBRANCH   4  19
ENDBRANCH   3   4
ENDBRANCH   1   3
BRANCH   1  21
HETATM   21  C8  UNL     1      16.708 -24.774   0.619  1.00  0.00     0.249 C 
BRANCH  21  22
HETATM   22  O4  UNL     1      16.221 -25.166   1.884  1.00  0.00    -0.373 OA
ATOM     23  H4  UNL     1      15.303 -24.925   1.918  1.00  0.00     0.212 HD
ENDBRANCH  21  22
BRANCH  21  24
HETATM   24  C9  UNL     1      18.168 -25.141   0.645  1.00  0.00     0.010 A 
HETATM   25  C10 UNL     1      19.168 -24.346   1.134  1.00  0.00     0.069 A 
HETATM   26  C11 UNL     1      20.347 -25.060   0.959  1.00  0.00     0.147 A 
HETATM   27  N4  UNL     1      20.098 -26.240   0.390  1.00  0.00    -0.302 N 
HETATM   28  C18 UNL     1      18.758 -26.298   0.194  1.00  0.00     0.111 A 
BRANCH  26  29
HETATM   29  O5  UNL     1      21.600 -24.564   1.344  1.00  0.00    -0.346 OA
ATOM     30  H5  UNL     1      21.866 -24.488   2.252  1.00  0.00     0.219 HD
ENDBRANCH  26  29
BRANCH  27  31
HETATM   31  C12 UNL     1      21.055 -27.242   0.051  1.00  0.00     0.044 A 
HETATM   32  C13 UNL     1      20.867 -27.976  -1.097  1.00  0.00     0.054 A 
HETATM   33  C14 UNL     1      21.763 -28.956  -1.478  1.00  0.00     0.037 A 
HETATM   34 CL1  UNL     1      21.515 -29.884  -2.943  1.00  0.00    -0.084 Cl
HETATM   35  C15 UNL     1      22.870 -29.218  -0.705  1.00  0.00     0.048 A 
HETATM   36  C16 UNL     1      23.062 -28.484   0.450  1.00  0.00     0.037 A 
HETATM   37 CL2  UNL     1      24.481 -28.824   1.432  1.00  0.00    -0.084 Cl
HETATM   38  C17 UNL     1      22.165 -27.510   0.819  1.00  0.00     0.054 A 
ENDBRANCH  27  31
ENDBRANCH  21  24
ENDBRANCH   1  21
TORSDOF 11
ENDMDL
MODEL 2
REMARK VINA RESULT: -8.366030513      0.471      1.609
REMARK  11 active torsions:
REMARK  status: ('A' for Active; 'I' for Inactive)
REMARK    1  A    between atoms: C2_2  and  S1_4 
REMARK    2  A    between atoms: S1_4  and  N1_7 
REMARK    3  A    between atoms: N2_10  and  C6_11 
REMARK    4  A    between atoms: C6_11  and  O3_12 
REMARK    5  A    between atoms: C6_11  and  C7_14 
REMARK    6  A    between atoms: C7_14  and  N3_15 
REMARK    7  A    between atoms: N3_15  and  C8_17 
REMARK    8  A    between atoms: C8_17  and  O4_18 
REMARK    9  A    between atoms: C8_17  and  C9_20 
REMARK   10  A    between atoms: C11_22  and  O5_23 
REMARK   11  A    between atoms: N4_25  and  C12_26 
ROOT
HETATM    1  N3  UNL     1      16.327 -25.742  -0.583  1.00  0.00    -0.389 N 
ATOM      2  H3  UNL     1      16.634 -26.682  -0.837  1.00  0.00     0.156 HD
ENDROOT
BRANCH   1   3
HETATM    3  C7  UNL     1      15.155 -25.152  -1.138  1.00  0.00     0.180 C 
BRANCH   3   4
HETATM    4  C6  UNL     1      14.999 -25.448  -2.581  1.00  0.00     0.374 C 
BRANCH   4   5
HETATM    5  N2  UNL     1      15.054 -26.853  -2.898  1.00  0.00     0.128 N 
HETATM    6  C5  UNL     1      13.825 -27.423  -3.353  1.00  0.00     0.321 C 
HETATM    7  C4  UNL     1      13.936 -28.911  -3.489  1.00  0.00     0.109 C 
HETATM    8  N1  UNL     1      15.211 -29.452  -3.531  1.00  0.00    -0.248 N 
HETATM    9  C20 UNL     1      16.364 -28.672  -3.617  1.00  0.00     0.213 C 
HETATM   10  C19 UNL     1      16.065 -27.191  -3.879  1.00  0.00     0.343 C 
HETATM   11  C21 UNL     1      17.225 -28.676  -2.359  1.00  0.00     0.080 C 
HETATM   12  F1  UNL     1      17.160 -29.094  -4.664  1.00  0.00    -0.217 F 
BRANCH   8  13
HETATM   13  S1  UNL     1      15.322 -31.095  -3.271  1.00  0.00     0.238 S 
HETATM   14  O1  UNL     1      15.531 -31.497  -1.839  1.00  0.00    -0.205 OA
HETATM   15  O2  UNL     1      14.105 -31.804  -3.848  1.00  0.00    -0.205 OA
BRANCH  13  16
HETATM   16  C2  UNL     1      16.723 -31.759  -4.183  1.00  0.00     0.121 C 
HETATM   17  C1  UNL     1      17.723 -32.186  -3.101  1.00  0.00     0.027 C 
HETATM   18  C3  UNL     1      16.238 -33.030  -4.839  1.00  0.00     0.027 C 
ENDBRANCH  13  16
ENDBRANCH   8  13
ENDBRANCH   4   5
BRANCH   4  19
HETATM   19  O3  UNL     1      13.884 -24.928  -3.203  1.00  0.00    -0.366 OA
ATOM     20  H3  UNL     1      13.417 -25.652  -3.602  1.00  0.00     0.212 HD
ENDBRANCH   4  19
ENDBRANCH   3   4
ENDBRANCH   1   3
BRANCH   1  21
HETATM   21  C8  UNL     1      17.041 -24.939   0.350  1.00  0.00     0.249 C 
BRANCH  21  22
HETATM   22  O4  UNL     1      16.492 -25.194   1.625  1.00  0.00    -0.373 OA
ATOM     23  H4  UNL     1      15.694 -25.693   1.492  1.00  0.00     0.212 HD
ENDBRANCH  21  22
BRANCH  21  24
HETATM   24  C9  UNL     1      18.467 -25.412   0.452  1.00  0.00     0.010 A 
HETATM   25  C10 UNL     1      19.454 -24.780   1.157  1.00  0.00     0.069 A 
HETATM   26  C11 UNL     1      20.603 -25.542   0.977  1.00  0.00     0.147 A 
HETATM   27  N4  UNL     1      20.347 -26.596   0.201  1.00  0.00    -0.302 N 
HETATM   28  C18 UNL     1      19.034 -26.524  -0.126  1.00  0.00     0.111 A 
BRANCH  26  29
HETATM   29  O5  UNL     1      21.835 -25.205   1.554  1.00  0.00    -0.346 OA
ATOM     30  H5  UNL     1      21.938 -25.031   2.482  1.00  0.00     0.219 HD
ENDBRANCH  26  29
BRANCH  27  31
HETATM   31  C12 UNL     1      21.276 -27.599  -0.206  1.00  0.00     0.044 A 
HETATM   32  C13 UNL     1      22.390 -27.823   0.569  1.00  0.00     0.054 A 
HETATM   33  C14 UNL     1      23.322 -28.784   0.226  1.00  0.00     0.037 A 
HETATM   34 CL1  UNL     1      24.737 -29.062   1.220  1.00  0.00    -0.084 Cl
HETATM   35  C15 UNL     1      23.149 -29.540  -0.910  1.00  0.00     0.048 A 
HETATM   36  C16 UNL     1      22.031 -29.318  -1.691  1.00  0.00     0.037 A 
HETATM   37 CL2  UNL     1      21.816 -30.290  -3.141  1.00  0.00    -0.084 Cl
HETATM   38  C17 UNL     1      21.109 -28.360  -1.340  1.00  0.00     0.054 A 
ENDBRANCH  27  31
ENDBRANCH  21  24
ENDBRANCH   1  21
TORSDOF 11
ENDMDL
MODEL 3
REMARK VINA RESULT: -8.313118090      3.253      4.839
REMARK  11 active torsions:
REMARK  status: ('A' for Active; 'I' for Inactive)
REMARK    1  A    between atoms: C2_2  and  S1_4 
REMARK    2  A    between atoms: S1_4  and  N1_7 
REMARK    3  A    between atoms: N2_10  and  C6_11 
REMARK    4  A    between atoms: C6_11  and  O3_12 
REMARK    5  A    between atoms: C6_11  and  C7_14 
REMARK    6  A    between atoms: C7_14  and  N3_15 
REMARK    7  A    between atoms: N3_15  and  C8_17 
REMARK    8  A    between atoms: C8_17  and  O4_18 
REMARK    9  A    between atoms: C8_17  and  C9_20 
REMARK   10  A    between atoms: C11_22  and  O5_23 
REMARK   11  A    between atoms: N4_25  and  C12_26 
ROOT
HETATM    1  N3  UNL     1      20.199 -27.739   0.126  1.00  0.00    -0.389 N 
ATOM      2  H3  UNL     1      20.070 -28.319   0.956  1.00  0.00     0.156 HD
ENDROOT
BRANCH   1   3
HETATM    3  C7  UNL     1      19.167 -27.561  -0.841  1.00  0.00     0.180 C 
BRANCH   3   4
HETATM    4  C6  UNL     1      18.812 -28.822  -1.531  1.00  0.00     0.374 C 
BRANCH   4   5
HETATM    5  N2  UNL     1      17.549 -28.772  -2.224  1.00  0.00     0.128 N 
HETATM    6  C5  UNL     1      16.990 -27.466  -2.379  1.00  0.00     0.321 C 
HETATM    7  C4  UNL     1      15.607 -27.534  -2.951  1.00  0.00     0.109 C 
HETATM    8  N1  UNL     1      15.231 -28.718  -3.567  1.00  0.00    -0.248 N 
HETATM    9  C20 UNL     1      16.123 -29.760  -3.816  1.00  0.00     0.213 C 
HETATM   10  C19 UNL     1      17.582 -29.377  -3.541  1.00  0.00     0.343 C 
HETATM   11  C21 UNL     1      15.887 -31.008  -2.973  1.00  0.00     0.080 C 
HETATM   12  F1  UNL     1      16.069 -30.141  -5.143  1.00  0.00    -0.217 F 
BRANCH   8  13
HETATM   13  S1  UNL     1      13.597 -28.926  -3.825  1.00  0.00     0.238 S 
HETATM   14  O1  UNL     1      12.905 -29.807  -2.826  1.00  0.00    -0.205 OA
HETATM   15  O2  UNL     1      12.900 -27.575  -3.912  1.00  0.00    -0.205 OA
BRANCH  13  16
HETATM   16  C2  UNL     1      13.331 -29.691  -5.431  1.00  0.00     0.121 C 
HETATM   17  C1  UNL     1      12.654 -31.031  -5.115  1.00  0.00     0.027 C 
HETATM   18  C3  UNL     1      12.295 -28.848  -6.136  1.00  0.00     0.027 C 
ENDBRANCH  13  16
ENDBRANCH   8  13
ENDBRANCH   4   5
BRANCH   4  19
HETATM   19  O3  UNL     1      19.745 -29.331  -2.410  1.00  0.00    -0.366 OA
ATOM     20  H3  UNL     1      19.900 -28.670  -3.075  1.00  0.00     0.212 HD
ENDBRANCH   4  19
ENDBRANCH   3   4
ENDBRANCH   1   3
BRANCH   1  21
HETATM   21  C8  UNL     1      21.419 -27.057  -0.139  1.00  0.00     0.249 C 
BRANCH  21  22
HETATM   22  O4  UNL     1      21.824 -26.446   1.067  1.00  0.00    -0.373 OA
ATOM     23  H4  UNL     1      21.957 -25.523   0.882  1.00  0.00     0.212 HD
ENDBRANCH  21  22
BRANCH  21  24
HETATM   24  C9  UNL     1      22.510 -28.050  -0.443  1.00  0.00     0.010 A 
HETATM   25  C10 UNL     1      23.156 -28.814   0.489  1.00  0.00     0.069 A 
HETATM   26  C11 UNL     1      24.083 -29.576  -0.215  1.00  0.00     0.147 A 
HETATM   27  N4  UNL     1      24.018 -29.302  -1.518  1.00  0.00    -0.302 N 
HETATM   28  C18 UNL     1      23.052 -28.364  -1.667  1.00  0.00     0.111 A 
BRANCH  26  29
HETATM   29  O5  UNL     1      24.942 -30.491   0.408  1.00  0.00    -0.346 OA
ATOM     30  H5  UNL     1      25.062 -30.526   1.349  1.00  0.00     0.219 HD
ENDBRANCH  26  29
BRANCH  27  31
HETATM   31  C12 UNL     1      24.814 -29.881  -2.551  1.00  0.00     0.044 A 
HETATM   32  C13 UNL     1      24.184 -30.550  -3.575  1.00  0.00     0.054 A 
HETATM   33  C14 UNL     1      24.903 -31.127  -4.605  1.00  0.00     0.037 A 
HETATM   34 CL1  UNL     1      24.091 -31.976  -5.904  1.00  0.00    -0.084 Cl
HETATM   35  C15 UNL     1      26.275 -31.043  -4.622  1.00  0.00     0.048 A 
HETATM   36  C16 UNL     1      26.911 -30.372  -3.594  1.00  0.00     0.037 A 
HETATM   37 CL2  UNL     1      28.666 -30.267  -3.623  1.00  0.00    -0.084 Cl
HETATM   38  C17 UNL     1      26.187 -29.800  -2.575  1.00  0.00     0.054 A 
ENDBRANCH  27  31
ENDBRANCH  21  24
ENDBRANCH   1  21
TORSDOF 11
ENDMDL
MODEL 4
REMARK VINA RESULT: -8.283376536      3.329      5.393
REMARK  11 active torsions:
REMARK  status: ('A' for Active; 'I' for Inactive)
REMARK    1  A    between atoms: C2_2  and  S1_4 
REMARK    2  A    between atoms: S1_4  and  N1_7 
REMARK    3  A    between atoms: N2_10  and  C6_11 
REMARK    4  A    between atoms: C6_11  and  O3_12 
REMARK    5  A    between atoms: C6_11  and  C7_14 
REMARK    6  A    between atoms: C7_14  and  N3_15 
REMARK    7  A    between atoms: N3_15  and  C8_17 
REMARK    8  A    between atoms: C8_17  and  O4_18 
REMARK    9  A    between atoms: C8_17  and  C9_20 
REMARK   10  A    between atoms: C11_22  and  O5_23 
REMARK   11  A    between atoms: N4_25  and  C12_26 
ROOT
HETATM    1  N3  UNL     1      17.574 -29.164  -3.223  1.00  0.00    -0.389 N 
ATOM      2  H3  UNL     1      18.148 -29.867  -3.689  1.00  0.00     0.156 HD
ENDROOT
BRANCH   1   3
HETATM    3  C7  UNL     1      16.166 -29.316  -3.069  1.00  0.00     0.180 C 
BRANCH   3   4
HETATM    4  C6  UNL     1      15.420 -28.964  -4.299  1.00  0.00     0.374 C 
BRANCH   4   5
HETATM    5  N2  UNL     1      14.303 -28.082  -4.072  1.00  0.00     0.128 N 
HETATM    6  C5  UNL     1      13.053 -28.534  -4.597  1.00  0.00     0.321 C 
HETATM    7  C4  UNL     1      11.997 -27.479  -4.465  1.00  0.00     0.109 C 
HETATM    8  N1  UNL     1      12.241 -26.442  -3.578  1.00  0.00    -0.248 N 
HETATM    9  C20 UNL     1      13.328 -26.432  -2.704  1.00  0.00     0.213 C 
HETATM   10  C19 UNL     1      14.084 -27.765  -2.674  1.00  0.00     0.343 C 
HETATM   11  C21 UNL     1      14.393 -25.392  -3.032  1.00  0.00     0.080 C 
HETATM   12  F1  UNL     1      12.908 -26.200  -1.408  1.00  0.00    -0.217 F 
BRANCH   8  13
HETATM   13  S1  UNL     1      11.276 -25.093  -3.740  1.00  0.00     0.238 S 
HETATM   14  O1  UNL     1       9.870 -25.370  -4.186  1.00  0.00    -0.205 OA
HETATM   15  O2  UNL     1      11.273 -24.288  -2.448  1.00  0.00    -0.205 OA
BRANCH  13  16
HETATM   16  C2  UNL     1      11.980 -23.990  -4.974  1.00  0.00     0.121 C 
HETATM   17  C1  UNL     1      10.858 -23.787  -5.999  1.00  0.00     0.027 C 
HETATM   18  C3  UNL     1      12.177 -22.658  -4.289  1.00  0.00     0.027 C 
ENDBRANCH  13  16
ENDBRANCH   8  13
ENDBRANCH   4   5
BRANCH   4  19
HETATM   19  O3  UNL     1      16.155 -28.438  -5.341  1.00  0.00    -0.366 OA
ATOM     20  H3  UNL     1      16.581 -29.164  -5.782  1.00  0.00     0.212 HD
ENDBRANCH   4  19
ENDBRANCH   3   4
ENDBRANCH   1   3
BRANCH   1  21
HETATM   21  C8  UNL     1      18.130 -27.970  -2.683  1.00  0.00     0.249 C 
BRANCH  21  22
HETATM   22  O4  UNL     1      17.487 -27.733  -1.449  1.00  0.00    -0.373 OA
ATOM     23  H4  UNL     1      17.988 -27.065  -0.996  1.00  0.00     0.212 HD
ENDBRANCH  21  22
BRANCH  21  24
HETATM   24  C9  UNL     1      19.574 -28.192  -2.319  1.00  0.00     0.010 A 
HETATM   25  C10 UNL     1      20.320 -27.362  -1.528  1.00  0.00     0.069 A 
HETATM   26  C11 UNL     1      21.586 -27.932  -1.459  1.00  0.00     0.147 A 
HETATM   27  N4  UNL     1      21.630 -29.059  -2.170  1.00  0.00    -0.302 N 
HETATM   28  C18 UNL     1      20.395 -29.227  -2.703  1.00  0.00     0.111 A 
BRANCH  26  29
HETATM   29  O5  UNL     1      22.637 -27.361  -0.729  1.00  0.00    -0.346 OA
ATOM     30  H5  UNL     1      23.360 -27.870  -0.384  1.00  0.00     0.219 HD
ENDBRANCH  26  29
BRANCH  27  31
HETATM   31  C12 UNL     1      22.757 -29.917  -2.339  1.00  0.00     0.044 A 
HETATM   32  C13 UNL     1      23.019 -30.426  -3.590  1.00  0.00     0.054 A 
HETATM   33  C14 UNL     1      24.099 -31.258  -3.815  1.00  0.00     0.037 A 
HETATM   34 CL1  UNL     1      24.425 -31.900  -5.412  1.00  0.00    -0.084 Cl
HETATM   35  C15 UNL     1      24.939 -31.596  -2.779  1.00  0.00     0.048 A 
HETATM   36  C16 UNL     1      24.678 -31.086  -1.521  1.00  0.00     0.037 A 
HETATM   37 CL2  UNL     1      25.757 -31.522  -0.202  1.00  0.00    -0.084 Cl
HETATM   38  C17 UNL     1      23.602 -30.259  -1.308  1.00  0.00     0.054 A 
ENDBRANCH  27  31
ENDBRANCH  21  24
ENDBRANCH   1  21
TORSDOF 11
ENDMDL
MODEL 5
REMARK VINA RESULT: -8.253283505      3.393      5.198
REMARK  11 active torsions:
REMARK  status: ('A' for Active; 'I' for Inactive)
REMARK    1  A    between atoms: C2_2  and  S1_4 
REMARK    2  A    between atoms: S1_4  and  N1_7 
REMARK    3  A    between atoms: N2_10  and  C6_11 
REMARK    4  A    between atoms: C6_11  and  O3_12 
REMARK    5  A    between atoms: C6_11  and  C7_14 
REMARK    6  A    between atoms: C7_14  and  N3_15 
REMARK    7  A    between atoms: N3_15  and  C8_17 
REMARK    8  A    between atoms: C8_17  and  O4_18 
REMARK    9  A    between atoms: C8_17  and  C9_20 
REMARK   10  A    between atoms: C11_22  and  O5_23 
REMARK   11  A    between atoms: N4_25  and  C12_26 
ROOT
HETATM    1  N3  UNL     1      20.271 -28.358  -0.970  1.00  0.00    -0.389 N 
ATOM      2  H3  UNL     1      21.007 -28.046  -0.336  1.00  0.00     0.156 HD
ENDROOT
BRANCH   1   3
HETATM    3  C7  UNL     1      18.898 -28.370  -0.588  1.00  0.00     0.180 C 
BRANCH   3   4
HETATM    4  C6  UNL     1      18.168 -27.170  -1.057  1.00  0.00     0.374 C 
BRANCH   4   5
HETATM    5  N2  UNL     1      17.020 -27.467  -1.875  1.00  0.00     0.128 N 
HETATM    6  C5  UNL     1      16.137 -26.368  -2.108  1.00  0.00     0.321 C 
HETATM    7  C4  UNL     1      14.893 -26.813  -2.816  1.00  0.00     0.109 C 
HETATM    8  N1  UNL     1      14.929 -28.046  -3.448  1.00  0.00    -0.248 N 
HETATM    9  C20 UNL     1      16.098 -28.794  -3.587  1.00  0.00     0.213 C 
HETATM   10  C19 UNL     1      17.355 -28.021  -3.172  1.00  0.00     0.343 C 
HETATM   11  C21 UNL     1      16.135 -30.069  -2.753  1.00  0.00     0.080 C 
HETATM   12  F1  UNL     1      16.289 -29.157  -4.907  1.00  0.00    -0.217 F 
BRANCH   8  13
HETATM   13  S1  UNL     1      13.454 -28.700  -3.868  1.00  0.00     0.238 S 
HETATM   14  O1  UNL     1      12.934 -29.746  -2.924  1.00  0.00    -0.205 OA
HETATM   15  O2  UNL     1      12.423 -27.597  -4.057  1.00  0.00    -0.205 OA
BRANCH  13  16
HETATM   16  C2  UNL     1      13.582 -29.499  -5.474  1.00  0.00     0.121 C 
HETATM   17  C1  UNL     1      13.415 -30.995  -5.178  1.00  0.00     0.027 C 
HETATM   18  C3  UNL     1      12.357 -29.081  -6.254  1.00  0.00     0.027 C 
ENDBRANCH  13  16
ENDBRANCH   8  13
ENDBRANCH   4   5
BRANCH   4  19
HETATM   19  O3  UNL     1      17.765 -26.273  -0.089  1.00  0.00    -0.366 OA
ATOM     20  H3  UNL     1      18.373 -25.545  -0.106  1.00  0.00     0.212 HD
ENDBRANCH   4  19
ENDBRANCH   3   4
ENDBRANCH   1   3
BRANCH   1  21
HETATM   21  C8  UNL     1      20.550 -28.809  -2.291  1.00  0.00     0.249 C 
BRANCH  21  22
HETATM   22  O4  UNL     1      20.900 -27.674  -3.052  1.00  0.00    -0.373 OA
ATOM     23  H4  UNL     1      20.686 -27.866  -3.957  1.00  0.00     0.212 HD
ENDBRANCH  21  22
BRANCH  21  24
HETATM   24  C9  UNL     1      21.790 -29.663  -2.293  1.00  0.00     0.010 A 
HETATM   25  C10 UNL     1      21.958 -30.799  -3.036  1.00  0.00     0.069 A 
HETATM   26  C11 UNL     1      23.230 -31.272  -2.733  1.00  0.00     0.147 A 
HETATM   27  N4  UNL     1      23.826 -30.473  -1.848  1.00  0.00    -0.302 N 
HETATM   28  C18 UNL     1      22.946 -29.480  -1.572  1.00  0.00     0.111 A 
BRANCH  26  29
HETATM   29  O5  UNL     1      23.765 -32.433  -3.308  1.00  0.00    -0.346 OA
ATOM     30  H5  UNL     1      24.319 -33.036  -2.827  1.00  0.00     0.219 HD
ENDBRANCH  26  29
BRANCH  27  31
HETATM   31  C12 UNL     1      25.132 -30.635  -1.298  1.00  0.00     0.044 A 
HETATM   32  C13 UNL     1      25.260 -31.223  -0.060  1.00  0.00     0.054 A 
HETATM   33  C14 UNL     1      26.499 -31.410   0.521  1.00  0.00     0.037 A 
HETATM   34 CL1  UNL     1      26.652 -32.160   2.097  1.00  0.00    -0.084 Cl
HETATM   35  C15 UNL     1      27.639 -31.007  -0.136  1.00  0.00     0.048 A 
HETATM   36  C16 UNL     1      27.514 -30.416  -1.379  1.00  0.00     0.037 A 
HETATM   37 CL2  UNL     1      28.975 -29.904  -2.212  1.00  0.00    -0.084 Cl
HETATM   38  C17 UNL     1      26.276 -30.235  -1.949  1.00  0.00     0.054 A 
ENDBRANCH  27  31
ENDBRANCH  21  24
ENDBRANCH   1  21
TORSDOF 11
ENDMDL
