MODEL 1
REMARK VINA RESULT: -9.208508095      0.000      0.000
REMARK  9 active torsions:
REMARK  status: ('A' for Active; 'I' for Inactive)
REMARK    1  A    between atoms: C1_2  and  C2_3 
REMARK       I    between atoms: C1_2  and  N2_20 
REMARK    2  A    between atoms: C2_3  and  O2_4 
REMARK    3  A    between atoms: O2_4  and  C3_5 
REMARK    4  A    between atoms: C3_5  and  C4_7 
REMARK    5  A    between atoms: C4_7  and  N1_8 
REMARK       I    between atoms: N1_8  and  C5_10 
REMARK    6  A    between atoms: C5_10  and  C6_12 
REMARK    7  A    between atoms: N2_20  and  C12_22 
REMARK    8  A    between atoms: C14_24  and  C15_25 
REMARK    9  A    between atoms: C18_31  and  N3_32 
ROOT
HETATM    1  O1  UNL     1      13.081 -28.485  -5.533  1.00  0.00    -0.271 OA
HETATM    2  C1  UNL     1      12.752 -28.695  -4.340  1.00  0.00     0.246 C 
HETATM    3  N2  UNL     1      12.222 -27.668  -3.556  1.00  0.00    -0.323 N 
ATOM      4  H2  UNL     1      11.999 -27.875  -2.581  1.00  0.00     0.169 HD
ENDROOT
BRANCH   2   5
HETATM    5  C2  UNL     1      12.960 -30.081  -3.848  1.00  0.00     0.281 C 
BRANCH   5   6
HETATM    6  O2  UNL     1      13.611 -30.973  -4.610  1.00  0.00    -0.311 OA
BRANCH   6   7
HETATM    7  C3  UNL     1      14.918 -31.408  -4.666  1.00  0.00     0.277 C 
HETATM    8  O3  UNL     1      15.125 -32.582  -4.321  1.00  0.00    -0.263 OA
BRANCH   7   9
HETATM    9  C4  UNL     1      15.974 -30.478  -5.121  1.00  0.00     0.233 C 
BRANCH   9  10
HETATM   10  N1  UNL     1      16.897 -30.065  -4.112  1.00  0.00    -0.348 N 
HETATM   11  C5  UNL     1      16.946 -28.692  -3.784  1.00  0.00     0.252 C 
HETATM   12  O4  UNL     1      16.173 -27.873  -4.390  1.00  0.00    -0.268 OA
ATOM     13  H1  UNL     1      17.502 -30.739  -3.644  1.00  0.00     0.163 HD
BRANCH  11  14
HETATM   14  C6  UNL     1      17.840 -28.140  -2.778  1.00  0.00     0.035 A 
HETATM   15  C7  UNL     1      17.306 -27.293  -1.806  1.00  0.00     0.041 A 
HETATM   16  C8  UNL     1      18.134 -26.742  -0.830  1.00  0.00     0.036 A 
HETATM   17 CL1  UNL     1      17.452 -25.669   0.386  1.00  0.00    -0.084 Cl
HETATM   18  C9  UNL     1      19.476 -27.016  -0.798  1.00  0.00     0.043 A 
HETATM   19  C10 UNL     1      20.002 -27.848  -1.752  1.00  0.00     0.013 A 
HETATM   20 BR1  UNL     1      21.849 -28.234  -1.735  1.00  0.00    -0.051 Br
HETATM   21  C11 UNL     1      19.188 -28.395  -2.720  1.00  0.00     0.036 A 
ENDBRANCH  11  14
ENDBRANCH   9  10
ENDBRANCH   7   9
ENDBRANCH   6   7
ENDBRANCH   5   6
ENDBRANCH   2   5
BRANCH   3  22
HETATM   22  C12 UNL     1      11.974 -26.360  -4.030  1.00  0.00     0.069 A 
HETATM   23  C13 UNL     1      10.956 -26.107  -4.941  1.00  0.00     0.052 A 
HETATM   24  C14 UNL     1      10.668 -24.791  -5.301  1.00  0.00     0.064 A 
HETATM   25  C16 UNL     1      11.338 -23.700  -4.806  1.00  0.00     0.053 A 
HETATM   26 CL2  UNL     1      10.932 -22.063  -5.301  1.00  0.00    -0.083 Cl
HETATM   27  C17 UNL     1      12.344 -23.954  -3.906  1.00  0.00     0.063 A 
HETATM   28  C18 UNL     1      12.651 -25.282  -3.527  1.00  0.00     0.131 A 
BRANCH  24  29
HETATM   29  C15 UNL     1       9.574 -24.543  -6.260  1.00  0.00     0.211 C 
HETATM   30  O5  UNL     1       9.371 -23.435  -6.802  1.00  0.00    -0.644 OA
HETATM   31  O6  UNL     1       8.730 -25.589  -6.573  1.00  0.00    -0.644 OA
ENDBRANCH  24  29
BRANCH  28  32
HETATM   32  N3  UNL     1      13.718 -25.400  -2.606  1.00  0.00    -0.113 N 
HETATM   33  O7  UNL     1      13.494 -25.828  -1.471  1.00  0.00    -0.532 OA
HETATM   34  O8  UNL     1      14.995 -25.080  -2.982  1.00  0.00    -0.532 OA
ENDBRANCH  28  32
ENDBRANCH   3  22
TORSDOF 9
ENDMDL
MODEL 2
REMARK VINA RESULT: -9.176701153      1.383      1.616
REMARK  9 active torsions:
REMARK  status: ('A' for Active; 'I' for Inactive)
REMARK    1  A    between atoms: C1_2  and  C2_3 
REMARK       I    between atoms: C1_2  and  N2_20 
REMARK    2  A    between atoms: C2_3  and  O2_4 
REMARK    3  A    between atoms: O2_4  and  C3_5 
REMARK    4  A    between atoms: C3_5  and  C4_7 
REMARK    5  A    between atoms: C4_7  and  N1_8 
REMARK       I    between atoms: N1_8  and  C5_10 
REMARK    6  A    between atoms: C5_10  and  C6_12 
REMARK    7  A    between atoms: N2_20  and  C12_22 
REMARK    8  A    between atoms: C14_24  and  C15_25 
REMARK    9  A    between atoms: C18_31  and  N3_32 
ROOT
HETATM    1  O1  UNL     1      13.122 -28.449  -5.583  1.00  0.00    -0.271 OA
HETATM    2  C1  UNL     1      12.757 -28.690  -4.406  1.00  0.00     0.246 C 
HETATM    3  N2  UNL     1      12.176 -27.692  -3.621  1.00  0.00    -0.323 N 
ATOM      4  H2  UNL     1      11.925 -27.923  -2.659  1.00  0.00     0.169 HD
ENDROOT
BRANCH   2   5
HETATM    5  C2  UNL     1      12.980 -30.081  -3.933  1.00  0.00     0.281 C 
BRANCH   5   6
HETATM    6  O2  UNL     1      13.699 -30.935  -4.677  1.00  0.00    -0.311 OA
BRANCH   6   7
HETATM    7  C3  UNL     1      14.991 -31.410  -4.604  1.00  0.00     0.277 C 
HETATM    8  O3  UNL     1      15.134 -32.556  -4.149  1.00  0.00    -0.263 OA
BRANCH   7   9
HETATM    9  C4  UNL     1      16.108 -30.553  -5.059  1.00  0.00     0.233 C 
BRANCH   9  10
HETATM   10  N1  UNL     1      16.967 -30.073  -4.025  1.00  0.00    -0.348 N 
HETATM   11  C5  UNL     1      16.915 -28.697  -3.709  1.00  0.00     0.252 C 
HETATM   12  O4  UNL     1      16.112 -27.936  -4.348  1.00  0.00    -0.268 OA
ATOM     13  H1  UNL     1      17.598 -30.703  -3.530  1.00  0.00     0.163 HD
BRANCH  11  14
HETATM   14  C6  UNL     1      17.737 -28.081  -2.679  1.00  0.00     0.035 A 
HETATM   15  C7  UNL     1      19.092 -28.412  -2.621  1.00  0.00     0.041 A 
HETATM   16  C8  UNL     1      19.907 -27.846  -1.644  1.00  0.00     0.036 A 
HETATM   17 CL1  UNL     1      21.611 -28.276  -1.575  1.00  0.00    -0.084 Cl
HETATM   18  C9  UNL     1      19.408 -26.958  -0.727  1.00  0.00     0.043 A 
HETATM   19  C10 UNL     1      18.078 -26.631  -0.783  1.00  0.00     0.013 A 
HETATM   20 BR1  UNL     1      17.364 -25.417   0.473  1.00  0.00    -0.051 Br
HETATM   21  C11 UNL     1      17.266 -27.189  -1.747  1.00  0.00     0.036 A 
ENDBRANCH  11  14
ENDBRANCH   9  10
ENDBRANCH   7   9
ENDBRANCH   6   7
ENDBRANCH   5   6
ENDBRANCH   2   5
BRANCH   3  22
HETATM   22  C12 UNL     1      11.916 -26.379  -4.078  1.00  0.00     0.069 A 
HETATM   23  C13 UNL     1      10.917 -26.130  -5.011  1.00  0.00     0.052 A 
HETATM   24  C14 UNL     1      10.612 -24.813  -5.356  1.00  0.00     0.064 A 
HETATM   25  C16 UNL     1      11.248 -23.719  -4.824  1.00  0.00     0.053 A 
HETATM   26 CL2  UNL     1      10.822 -22.081  -5.300  1.00  0.00    -0.083 Cl
HETATM   27  C17 UNL     1      12.235 -23.970  -3.903  1.00  0.00     0.063 A 
HETATM   28  C18 UNL     1      12.558 -25.298  -3.540  1.00  0.00     0.131 A 
BRANCH  24  29
HETATM   29  C15 UNL     1       9.539 -24.569  -6.339  1.00  0.00     0.211 C 
HETATM   30  O5  UNL     1       9.328 -23.456  -6.866  1.00  0.00    -0.644 OA
HETATM   31  O6  UNL     1       8.723 -25.625  -6.691  1.00  0.00    -0.644 OA
ENDBRANCH  24  29
BRANCH  28  32
HETATM   32  N3  UNL     1      13.602 -25.412  -2.592  1.00  0.00    -0.113 N 
HETATM   33  O7  UNL     1      13.346 -25.802  -1.450  1.00  0.00    -0.532 OA
HETATM   34  O8  UNL     1      14.894 -25.132  -2.950  1.00  0.00    -0.532 OA
ENDBRANCH  28  32
ENDBRANCH   3  22
TORSDOF 9
ENDMDL
MODEL 3
REMARK VINA RESULT: -8.897445348      3.562      8.163
REMARK  9 active torsions:
REMARK  status: ('A' for Active; 'I' for Inactive)
REMARK    1  A    between atoms: C1_2  and  C2_3 
REMARK       I    between atoms: C1_2  and  N2_20 
REMARK    2  A    between atoms: C2_3  and  O2_4 
REMARK    3  A    between atoms: O2_4  and  C3_5 
REMARK    4  A    between atoms: C3_5  and  C4_7 
REMARK    5  A    between atoms: C4_7  and  N1_8 
REMARK       I    between atoms: N1_8  and  C5_10 
REMARK    6  A    between atoms: C5_10  and  C6_12 
REMARK    7  A    between atoms: N2_20  and  C12_22 
REMARK    8  A    between atoms: C14_24  and  C15_25 
REMARK    9  A    between atoms: C18_31  and  N3_32 
ROOT
HETATM    1  O1  UNL     1      17.004 -31.776  -1.683  1.00  0.00    -0.271 OA
HETATM    2  C1  UNL     1      16.844 -31.623  -2.918  1.00  0.00     0.246 C 
HETATM    3  N2  UNL     1      17.646 -30.732  -3.636  1.00  0.00    -0.323 N 
ATOM      4  H2  UNL     1      17.460 -30.615  -4.632  1.00  0.00     0.169 HD
ENDROOT
BRANCH   2   5
HETATM    5  C2  UNL     1      15.771 -32.444  -3.537  1.00  0.00     0.281 C 
BRANCH   5   6
HETATM    6  O2  UNL     1      14.541 -31.932  -3.695  1.00  0.00    -0.311 OA
BRANCH   6   7
HETATM    7  C3  UNL     1      13.876 -31.354  -4.754  1.00  0.00     0.277 C 
HETATM    8  O3  UNL     1      14.470 -31.353  -5.845  1.00  0.00    -0.263 OA
BRANCH   7   9
HETATM    9  C4  UNL     1      12.528 -30.784  -4.543  1.00  0.00     0.233 C 
BRANCH   9  10
HETATM   10  N1  UNL     1      12.492 -29.569  -3.794  1.00  0.00    -0.348 N 
HETATM   11  C5  UNL     1      12.467 -28.352  -4.511  1.00  0.00     0.252 C 
HETATM   12  O4  UNL     1      12.476 -28.376  -5.789  1.00  0.00    -0.268 OA
ATOM     13  H1  UNL     1      12.484 -29.579  -2.774  1.00  0.00     0.163 HD
BRANCH  11  14
HETATM   14  C6  UNL     1      12.430 -27.046  -3.871  1.00  0.00     0.035 A 
HETATM   15  C7  UNL     1      13.458 -26.709  -2.988  1.00  0.00     0.041 A 
HETATM   16  C8  UNL     1      13.452 -25.469  -2.354  1.00  0.00     0.036 A 
HETATM   17 CL1  UNL     1      14.747 -25.056  -1.237  1.00  0.00    -0.084 Cl
HETATM   18  C9  UNL     1      12.452 -24.559  -2.577  1.00  0.00     0.043 A 
HETATM   19  C10 UNL     1      11.443 -24.889  -3.444  1.00  0.00     0.013 A 
HETATM   20 BR1  UNL     1      10.049 -23.657  -3.763  1.00  0.00    -0.051 Br
HETATM   21  C11 UNL     1      11.443 -26.114  -4.075  1.00  0.00     0.036 A 
ENDBRANCH  11  14
ENDBRANCH   9  10
ENDBRANCH   7   9
ENDBRANCH   6   7
ENDBRANCH   5   6
ENDBRANCH   2   5
BRANCH   3  22
HETATM   22  C12 UNL     1      18.700 -29.984  -3.065  1.00  0.00     0.069 A 
HETATM   23  C13 UNL     1      19.972 -30.527  -2.924  1.00  0.00     0.052 A 
HETATM   24  C14 UNL     1      21.014 -29.724  -2.461  1.00  0.00     0.064 A 
HETATM   25  C16 UNL     1      20.867 -28.401  -2.125  1.00  0.00     0.053 A 
HETATM   26 CL2  UNL     1      22.219 -27.440  -1.543  1.00  0.00    -0.083 Cl
HETATM   27  C17 UNL     1      19.609 -27.868  -2.266  1.00  0.00     0.063 A 
HETATM   28  C18 UNL     1      18.539 -28.666  -2.735  1.00  0.00     0.131 A 
BRANCH  24  29
HETATM   29  C15 UNL     1      22.359 -30.316  -2.330  1.00  0.00     0.211 C 
HETATM   30  O5  UNL     1      23.028 -30.728  -3.303  1.00  0.00    -0.644 OA
HETATM   31  O6  UNL     1      22.906 -30.424  -1.068  1.00  0.00    -0.644 OA
ENDBRANCH  24  29
BRANCH  28  32
HETATM   32  N3  UNL     1      17.297 -27.995  -2.817  1.00  0.00    -0.113 N 
HETATM   33  O7  UNL     1      16.821 -27.473  -1.805  1.00  0.00    -0.532 OA
HETATM   34  O8  UNL     1      16.646 -27.888  -4.017  1.00  0.00    -0.532 OA
ENDBRANCH  28  32
ENDBRANCH   3  22
TORSDOF 9
ENDMDL
MODEL 4
REMARK VINA RESULT: -8.837580058      5.677      8.642
REMARK  9 active torsions:
REMARK  status: ('A' for Active; 'I' for Inactive)
REMARK    1  A    between atoms: C1_2  and  C2_3 
REMARK       I    between atoms: C1_2  and  N2_20 
REMARK    2  A    between atoms: C2_3  and  O2_4 
REMARK    3  A    between atoms: O2_4  and  C3_5 
REMARK    4  A    between atoms: C3_5  and  C4_7 
REMARK    5  A    between atoms: C4_7  and  N1_8 
REMARK       I    between atoms: N1_8  and  C5_10 
REMARK    6  A    between atoms: C5_10  and  C6_12 
REMARK    7  A    between atoms: N2_20  and  C12_22 
REMARK    8  A    between atoms: C14_24  and  C15_25 
REMARK    9  A    between atoms: C18_31  and  N3_32 
ROOT
HETATM    1  O1  UNL     1      20.096 -28.076  -3.271  1.00  0.00    -0.271 OA
HETATM    2  C1  UNL     1      19.764 -27.961  -2.066  1.00  0.00     0.246 C 
HETATM    3  N2  UNL     1      18.512 -28.399  -1.627  1.00  0.00    -0.323 N 
ATOM      4  H2  UNL     1      18.271 -28.256  -0.645  1.00  0.00     0.169 HD
ENDROOT
BRANCH   2   5
HETATM    5  C2  UNL     1      20.780 -27.349  -1.172  1.00  0.00     0.281 C 
BRANCH   5   6
HETATM    6  O2  UNL     1      21.469 -28.118  -0.314  1.00  0.00    -0.311 OA
BRANCH   6   7
HETATM    7  C3  UNL     1      22.594 -27.917   0.456  1.00  0.00     0.277 C 
HETATM    8  O3  UNL     1      22.661 -26.837   1.065  1.00  0.00    -0.263 OA
BRANCH   7   9
HETATM    9  C4  UNL     1      23.632 -28.969   0.515  1.00  0.00     0.233 C 
BRANCH   9  10
HETATM   10  N1  UNL     1      23.966 -29.566  -0.739  1.00  0.00    -0.348 N 
HETATM   11  C5  UNL     1      25.288 -29.412  -1.212  1.00  0.00     0.252 C 
HETATM   12  O4  UNL     1      26.132 -28.755  -0.513  1.00  0.00    -0.268 OA
ATOM     13  H1  UNL     1      23.272 -30.086  -1.275  1.00  0.00     0.163 HD
BRANCH  11  14
HETATM   14  C6  UNL     1      25.757 -29.968  -2.471  1.00  0.00     0.035 A 
HETATM   15  C7  UNL     1      27.130 -29.981  -2.723  1.00  0.00     0.041 A 
HETATM   16  C8  UNL     1      27.614 -30.501  -3.922  1.00  0.00     0.036 A 
HETATM   17 CL1  UNL     1      29.345 -30.506  -4.232  1.00  0.00    -0.084 Cl
HETATM   18  C9  UNL     1      26.767 -31.007  -4.872  1.00  0.00     0.043 A 
HETATM   19  C10 UNL     1      25.418 -30.995  -4.626  1.00  0.00     0.013 A 
HETATM   20 BR1  UNL     1      24.229 -31.679  -5.922  1.00  0.00    -0.051 Br
HETATM   21  C11 UNL     1      24.933 -30.482  -3.443  1.00  0.00     0.036 A 
ENDBRANCH  11  14
ENDBRANCH   9  10
ENDBRANCH   7   9
ENDBRANCH   6   7
ENDBRANCH   5   6
ENDBRANCH   2   5
BRANCH   3  22
HETATM   22  C12 UNL     1      17.558 -29.027  -2.460  1.00  0.00     0.069 A 
HETATM   23  C13 UNL     1      17.639 -30.384  -2.745  1.00  0.00     0.052 A 
HETATM   24  C14 UNL     1      16.620 -30.993  -3.478  1.00  0.00     0.064 A 
HETATM   25  C16 UNL     1      15.516 -30.327  -3.949  1.00  0.00     0.053 A 
HETATM   26 CL2  UNL     1      14.264 -31.148  -4.871  1.00  0.00    -0.083 Cl
HETATM   27  C17 UNL     1      15.440 -28.986  -3.665  1.00  0.00     0.063 A 
HETATM   28  C18 UNL     1      16.463 -28.350  -2.922  1.00  0.00     0.131 A 
BRANCH  24  29
HETATM   29  C15 UNL     1      16.717 -32.438  -3.760  1.00  0.00     0.211 C 
HETATM   30  O5  UNL     1      16.658 -33.318  -2.875  1.00  0.00    -0.644 OA
HETATM   31  O6  UNL     1      16.887 -32.839  -5.070  1.00  0.00    -0.644 OA
ENDBRANCH  24  29
BRANCH  28  32
HETATM   32  N3  UNL     1      16.265 -26.965  -2.715  1.00  0.00    -0.113 N 
HETATM   33  O7  UNL     1      15.817 -26.272  -3.632  1.00  0.00    -0.532 OA
HETATM   34  O8  UNL     1      16.530 -26.403  -1.494  1.00  0.00    -0.532 OA
ENDBRANCH  28  32
ENDBRANCH   3  22
TORSDOF 9
ENDMDL
MODEL 5
REMARK VINA RESULT: -8.832603534      5.196      7.663
REMARK  9 active torsions:
REMARK  status: ('A' for Active; 'I' for Inactive)
REMARK    1  A    between atoms: C1_2  and  C2_3 
REMARK       I    between atoms: C1_2  and  N2_20 
REMARK    2  A    between atoms: C2_3  and  O2_4 
REMARK    3  A    between atoms: O2_4  and  C3_5 
REMARK    4  A    between atoms: C3_5  and  C4_7 
REMARK    5  A    between atoms: C4_7  and  N1_8 
REMARK       I    between atoms: N1_8  and  C5_10 
REMARK    6  A    between atoms: C5_10  and  C6_12 
REMARK    7  A    between atoms: N2_20  and  C12_22 
REMARK    8  A    between atoms: C14_24  and  C15_25 
REMARK    9  A    between atoms: C18_31  and  N3_32 
ROOT
HETATM    1  O1  UNL     1      18.302 -29.168  -1.295  1.00  0.00    -0.271 OA
HETATM    2  C1  UNL     1      18.840 -28.426  -2.151  1.00  0.00     0.246 C 
HETATM    3  N2  UNL     1      18.153 -28.062  -3.312  1.00  0.00    -0.323 N 
ATOM      4  H2  UNL     1      18.641 -27.484  -3.997  1.00  0.00     0.169 HD
ENDROOT
BRANCH   2   5
HETATM    5  C2  UNL     1      20.221 -27.974  -1.839  1.00  0.00     0.281 C 
BRANCH   5   6
HETATM    6  O2  UNL     1      20.680 -28.045  -0.580  1.00  0.00    -0.311 OA
BRANCH   6   7
HETATM    7  C3  UNL     1      21.850 -27.650   0.032  1.00  0.00     0.277 C 
HETATM    8  O3  UNL     1      21.859 -26.509   0.521  1.00  0.00    -0.263 OA
BRANCH   7   9
HETATM    9  C4  UNL     1      22.999 -28.580   0.074  1.00  0.00     0.233 C 
BRANCH   9  10
HETATM   10  N1  UNL     1      23.649 -28.802  -1.178  1.00  0.00    -0.348 N 
HETATM   11  C5  UNL     1      24.396 -29.990  -1.334  1.00  0.00     0.252 C 
HETATM   12  O4  UNL     1      24.467 -30.819  -0.363  1.00  0.00    -0.268 OA
ATOM     13  H1  UNL     1      23.575 -28.123  -1.936  1.00  0.00     0.163 HD
BRANCH  11  14
HETATM   14  C6  UNL     1      25.106 -30.335  -2.555  1.00  0.00     0.035 A 
HETATM   15  C7  UNL     1      24.368 -30.807  -3.643  1.00  0.00     0.041 A 
HETATM   16  C8  UNL     1      25.016 -31.152  -4.827  1.00  0.00     0.036 A 
HETATM   17 CL1  UNL     1      24.078 -31.752  -6.189  1.00  0.00    -0.084 Cl
HETATM   18  C9  UNL     1      26.375 -31.039  -4.954  1.00  0.00     0.043 A 
HETATM   19  C10 UNL     1      27.101 -30.576  -3.887  1.00  0.00     0.013 A 
HETATM   20 BR1  UNL     1      28.975 -30.418  -4.035  1.00  0.00    -0.051 Br
HETATM   21  C11 UNL     1      26.466 -30.233  -2.713  1.00  0.00     0.036 A 
ENDBRANCH  11  14
ENDBRANCH   9  10
ENDBRANCH   7   9
ENDBRANCH   6   7
ENDBRANCH   5   6
ENDBRANCH   2   5
BRANCH   3  22
HETATM   22  C12 UNL     1      16.822 -28.446  -3.595  1.00  0.00     0.069 A 
HETATM   23  C13 UNL     1      16.533 -29.705  -4.108  1.00  0.00     0.052 A 
HETATM   24  C14 UNL     1      15.202 -30.091  -4.270  1.00  0.00     0.064 A 
HETATM   25  C16 UNL     1      14.132 -29.294  -3.949  1.00  0.00     0.053 A 
HETATM   26 CL2  UNL     1      12.475 -29.834  -4.178  1.00  0.00    -0.083 Cl
HETATM   27  C17 UNL     1      14.422 -28.051  -3.442  1.00  0.00     0.063 A 
HETATM   28  C18 UNL     1      15.766 -27.641  -3.270  1.00  0.00     0.131 A 
BRANCH  24  29
HETATM   29  C15 UNL     1      14.916 -31.436  -4.805  1.00  0.00     0.211 C 
HETATM   30  O5  UNL     1      14.303 -31.635  -5.875  1.00  0.00    -0.644 OA
HETATM   31  O6  UNL     1      15.344 -32.531  -4.083  1.00  0.00    -0.644 OA
ENDBRANCH  24  29
BRANCH  28  32
HETATM   32  N3  UNL     1      15.920 -26.333  -2.753  1.00  0.00    -0.113 N 
HETATM   33  O7  UNL     1      16.414 -26.178  -1.633  1.00  0.00    -0.532 OA
HETATM   34  O8  UNL     1      15.563 -25.246  -3.505  1.00  0.00    -0.532 OA
ENDBRANCH  28  32
ENDBRANCH   3  22
TORSDOF 9
ENDMDL
