MODEL 1
REMARK VINA RESULT: -8.425423839      0.000      0.000
REMARK  13 active torsions:
REMARK  status: ('A' for Active; 'I' for Inactive)
REMARK    1  A    between atoms: C2_2  and  C4_4 
REMARK    2  A    between atoms: C4_4  and  O1_5 
REMARK    3  A    between atoms: C4_4  and  C10_14 
REMARK    4  A    between atoms: O1_5  and  C5_6 
REMARK       I    between atoms: C5_6  and  N1_8 
REMARK    5  A    between atoms: N1_8  and  C6_10 
REMARK       I    between atoms: C10_14  and  N2_16 
REMARK    6  A    between atoms: N2_16  and  C11_18 
REMARK    7  A    between atoms: C11_18  and  C12_19 
REMARK    8  A    between atoms: C11_18  and  C22_34 
REMARK    9  A    between atoms: C12_19  and  N3_20 
REMARK   10  A    between atoms: C15_23  and  N4_24 
REMARK       I    between atoms: N4_24  and  C16_26 
REMARK   11  A    between atoms: C16_26  and  O5_28 
REMARK   12  A    between atoms: O5_28  and  C17_29 
REMARK   13  A    between atoms: C22_34  and  C23_36 
ROOT
HETATM    1  C11 UNL     1      16.887 -29.028  -2.621  1.00  0.00     0.183 C 
ENDROOT
BRANCH   1   2
HETATM    2  N2  UNL     1      17.928 -28.802  -1.595  1.00  0.00    -0.346 N 
HETATM    3  C10 UNL     1      19.199 -28.329  -1.896  1.00  0.00     0.248 C 
HETATM    4  O3  UNL     1      19.505 -28.076  -3.079  1.00  0.00    -0.271 OA
ATOM      5  H2  UNL     1      17.702 -29.003  -0.621  1.00  0.00     0.163 HD
BRANCH   3   6
HETATM    6  C4  UNL     1      20.248 -28.106  -0.898  1.00  0.00     0.228 C 
BRANCH   6   7
HETATM    7  C2  UNL     1      19.917 -27.123   0.194  1.00  0.00     0.016 C 
HETATM    8  C1  UNL     1      19.316 -25.849  -0.337  1.00  0.00     0.012 C 
HETATM    9  C3  UNL     1      20.912 -26.848   1.227  1.00  0.00     0.012 C 
ENDBRANCH   6   7
BRANCH   6  10
HETATM   10  O1  UNL     1      21.493 -27.724  -1.504  1.00  0.00    -0.289 OA
BRANCH  10  11
HETATM   11  C5  UNL     1      22.557 -28.606  -1.550  1.00  0.00     0.362 C 
HETATM   12  O2  UNL     1      23.424 -28.466  -0.630  1.00  0.00    -0.238 OA
HETATM   13  N1  UNL     1      22.712 -29.600  -2.526  1.00  0.00    -0.329 N 
ATOM     14  H1  UNL     1      22.006 -29.701  -3.255  1.00  0.00     0.165 HD
BRANCH  13  15
HETATM   15  C6  UNL     1      23.855 -30.483  -2.515  1.00  0.00     0.024 C 
HETATM   16  C7  UNL     1      24.092 -31.128  -1.167  1.00  0.00     0.037 C 
HETATM   17  C8  UNL     1      25.082 -29.731  -3.013  1.00  0.00     0.037 C 
HETATM   18  C9  UNL     1      23.650 -31.647  -3.491  1.00  0.00     0.037 C 
ENDBRANCH  13  15
ENDBRANCH  10  11
ENDBRANCH   6  10
ENDBRANCH   3   6
ENDBRANCH   1   2
BRANCH   1  19
HETATM   19  C12 UNL     1      15.841 -27.994  -2.354  1.00  0.00     0.305 C 
BRANCH  19  20
HETATM   20  N3  UNL     1      15.204 -27.445  -3.515  1.00  0.00     0.092 N 
HETATM   21  C13 UNL     1      15.116 -26.000  -3.339  1.00  0.00     0.274 C 
HETATM   22  C14 UNL     1      13.994 -25.838  -2.373  1.00  0.00     0.057 C 
HETATM   23  C15 UNL     1      12.978 -26.872  -2.874  1.00  0.00     0.116 C 
HETATM   24  C21 UNL     1      13.814 -27.811  -3.666  1.00  0.00     0.297 C 
BRANCH  23  25
HETATM   25  N4  UNL     1      11.951 -26.187  -3.642  1.00  0.00    -0.331 N 
HETATM   26  C16 UNL     1      11.188 -25.105  -3.100  1.00  0.00     0.361 C 
HETATM   27  O4  UNL     1      11.404 -24.722  -1.897  1.00  0.00    -0.238 OA
ATOM     28  H4  UNL     1      11.768 -26.489  -4.599  1.00  0.00     0.165 HD
BRANCH  26  29
HETATM   29  O5  UNL     1      10.230 -24.443  -3.811  1.00  0.00    -0.294 OA
BRANCH  29  30
HETATM   30  C17 UNL     1      10.416 -23.485  -4.812  1.00  0.00     0.061 C 
HETATM   31  C18 UNL     1       9.168 -22.620  -4.871  1.00  0.00     0.046 C 
HETATM   32  C19 UNL     1      11.606 -22.575  -4.583  1.00  0.00     0.046 C 
HETATM   33  C20 UNL     1      10.606 -24.106  -6.177  1.00  0.00     0.046 C 
ENDBRANCH  29  30
ENDBRANCH  26  29
ENDBRANCH  23  25
ENDBRANCH  19  20
ENDBRANCH   1  19
BRANCH   1  34
HETATM   34  C22 UNL     1      16.406 -30.427  -2.512  1.00  0.00     0.158 C 
HETATM   35  O6  UNL     1      16.545 -31.000  -1.448  1.00  0.00    -0.295 OA
BRANCH  34  36
HETATM   36  C23 UNL     1      15.786 -31.159  -3.597  1.00  0.00     0.012 C 
HETATM   37  C24 UNL     1      15.861 -30.482  -4.936  1.00  0.00     0.022 C 
HETATM   38  C25 UNL     1      16.381 -32.564  -3.762  1.00  0.00     0.022 C 
HETATM   39  C26 UNL     1      14.281 -31.310  -3.311  1.00  0.00     0.022 C 
ENDBRANCH  34  36
ENDBRANCH   1  34
TORSDOF 13
ENDMDL
MODEL 2
REMARK VINA RESULT: -8.367875688      0.922      1.486
REMARK  13 active torsions:
REMARK  status: ('A' for Active; 'I' for Inactive)
REMARK    1  A    between atoms: C2_2  and  C4_4 
REMARK    2  A    between atoms: C4_4  and  O1_5 
REMARK    3  A    between atoms: C4_4  and  C10_14 
REMARK    4  A    between atoms: O1_5  and  C5_6 
REMARK       I    between atoms: C5_6  and  N1_8 
REMARK    5  A    between atoms: N1_8  and  C6_10 
REMARK       I    between atoms: C10_14  and  N2_16 
REMARK    6  A    between atoms: N2_16  and  C11_18 
REMARK    7  A    between atoms: C11_18  and  C12_19 
REMARK    8  A    between atoms: C11_18  and  C22_34 
REMARK    9  A    between atoms: C12_19  and  N3_20 
REMARK   10  A    between atoms: C15_23  and  N4_24 
REMARK       I    between atoms: N4_24  and  C16_26 
REMARK   11  A    between atoms: C16_26  and  O5_28 
REMARK   12  A    between atoms: O5_28  and  C17_29 
REMARK   13  A    between atoms: C22_34  and  C23_36 
ROOT
HETATM    1  C11 UNL     1      16.735 -29.399  -2.816  1.00  0.00     0.183 C 
ENDROOT
BRANCH   1   2
HETATM    2  N2  UNL     1      17.886 -29.290  -1.894  1.00  0.00    -0.346 N 
HETATM    3  C10 UNL     1      19.008 -28.517  -2.169  1.00  0.00     0.248 C 
HETATM    4  O3  UNL     1      19.074 -27.874  -3.237  1.00  0.00    -0.271 OA
ATOM      5  H2  UNL     1      17.856 -29.808  -1.016  1.00  0.00     0.163 HD
BRANCH   3   6
HETATM    6  C4  UNL     1      20.163 -28.402  -1.276  1.00  0.00     0.228 C 
BRANCH   6   7
HETATM    7  C2  UNL     1      20.108 -27.280  -0.274  1.00  0.00     0.016 C 
HETATM    8  C1  UNL     1      21.343 -27.211   0.585  1.00  0.00     0.012 C 
HETATM    9  C3  UNL     1      18.898 -27.099   0.526  1.00  0.00     0.012 C 
ENDBRANCH   6   7
BRANCH   6  10
HETATM   10  O1  UNL     1      21.397 -28.315  -2.004  1.00  0.00    -0.289 OA
BRANCH  10  11
HETATM   11  C5  UNL     1      22.188 -29.434  -2.194  1.00  0.00     0.362 C 
HETATM   12  O2  UNL     1      21.565 -30.541  -2.246  1.00  0.00    -0.238 OA
HETATM   13  N1  UNL     1      23.582 -29.397  -2.325  1.00  0.00    -0.329 N 
ATOM     14  H1  UNL     1      24.067 -28.500  -2.284  1.00  0.00     0.165 HD
BRANCH  13  15
HETATM   15  C6  UNL     1      24.345 -30.609  -2.515  1.00  0.00     0.024 C 
HETATM   16  C7  UNL     1      23.751 -31.524  -3.564  1.00  0.00     0.037 C 
HETATM   17  C8  UNL     1      24.522 -31.313  -1.177  1.00  0.00     0.037 C 
HETATM   18  C9  UNL     1      25.759 -30.288  -3.012  1.00  0.00     0.037 C 
ENDBRANCH  13  15
ENDBRANCH  10  11
ENDBRANCH   6  10
ENDBRANCH   3   6
ENDBRANCH   1   2
BRANCH   1  19
HETATM   19  C12 UNL     1      15.800 -28.307  -2.406  1.00  0.00     0.305 C 
BRANCH  19  20
HETATM   20  N3  UNL     1      15.129 -27.632  -3.478  1.00  0.00     0.092 N 
HETATM   21  C13 UNL     1      15.858 -26.402  -3.763  1.00  0.00     0.274 C 
HETATM   22  C14 UNL     1      15.460 -25.498  -2.647  1.00  0.00     0.057 C 
HETATM   23  C15 UNL     1      13.960 -25.790  -2.509  1.00  0.00     0.116 C 
HETATM   24  C21 UNL     1      13.817 -27.128  -3.142  1.00  0.00     0.297 C 
BRANCH  23  25
HETATM   25  N4  UNL     1      13.213 -24.732  -3.168  1.00  0.00    -0.331 N 
HETATM   26  C16 UNL     1      11.851 -24.441  -2.837  1.00  0.00     0.361 C 
HETATM   27  O4  UNL     1      11.259 -25.134  -1.936  1.00  0.00    -0.238 OA
ATOM     28  H4  UNL     1      13.674 -24.178  -3.890  1.00  0.00     0.165 HD
BRANCH  26  29
HETATM   29  O5  UNL     1      11.139 -23.444  -3.436  1.00  0.00    -0.294 OA
BRANCH  29  30
HETATM   30  C17 UNL     1      10.409 -23.509  -4.627  1.00  0.00     0.061 C 
HETATM   31  C18 UNL     1      11.220 -22.819  -5.712  1.00  0.00     0.046 C 
HETATM   32  C19 UNL     1      10.110 -24.920  -5.092  1.00  0.00     0.046 C 
HETATM   33  C20 UNL     1       9.080 -22.796  -4.529  1.00  0.00     0.046 C 
ENDBRANCH  29  30
ENDBRANCH  26  29
ENDBRANCH  23  25
ENDBRANCH  19  20
ENDBRANCH   1  19
BRANCH   1  34
HETATM   34  C22 UNL     1      16.166 -30.764  -2.709  1.00  0.00     0.158 C 
HETATM   35  O6  UNL     1      16.292 -31.358  -1.655  1.00  0.00    -0.295 OA
BRANCH  34  36
HETATM   36  C23 UNL     1      15.472 -31.440  -3.786  1.00  0.00     0.012 C 
HETATM   37  C24 UNL     1      15.634 -30.803  -5.137  1.00  0.00     0.022 C 
HETATM   38  C25 UNL     1      15.902 -32.908  -3.920  1.00  0.00     0.022 C 
HETATM   39  C26 UNL     1      13.958 -31.411  -3.510  1.00  0.00     0.022 C 
ENDBRANCH  34  36
ENDBRANCH   1  34
TORSDOF 13
ENDMDL
MODEL 3
REMARK VINA RESULT: -8.164927261      1.379      3.780
REMARK  13 active torsions:
REMARK  status: ('A' for Active; 'I' for Inactive)
REMARK    1  A    between atoms: C2_2  and  C4_4 
REMARK    2  A    between atoms: C4_4  and  O1_5 
REMARK    3  A    between atoms: C4_4  and  C10_14 
REMARK    4  A    between atoms: O1_5  and  C5_6 
REMARK       I    between atoms: C5_6  and  N1_8 
REMARK    5  A    between atoms: N1_8  and  C6_10 
REMARK       I    between atoms: C10_14  and  N2_16 
REMARK    6  A    between atoms: N2_16  and  C11_18 
REMARK    7  A    between atoms: C11_18  and  C12_19 
REMARK    8  A    between atoms: C11_18  and  C22_34 
REMARK    9  A    between atoms: C12_19  and  N3_20 
REMARK   10  A    between atoms: C15_23  and  N4_24 
REMARK       I    between atoms: N4_24  and  C16_26 
REMARK   11  A    between atoms: C16_26  and  O5_28 
REMARK   12  A    between atoms: O5_28  and  C17_29 
REMARK   13  A    between atoms: C22_34  and  C23_36 
ROOT
HETATM    1  C11 UNL     1      17.050 -29.214  -2.845  1.00  0.00     0.183 C 
ENDROOT
BRANCH   1   2
HETATM    2  N2  UNL     1      18.247 -29.075  -1.988  1.00  0.00    -0.346 N 
HETATM    3  C10 UNL     1      19.388 -28.387  -2.385  1.00  0.00     0.248 C 
HETATM    4  O3  UNL     1      19.432 -27.853  -3.512  1.00  0.00    -0.271 OA
ATOM      5  H2  UNL     1      18.236 -29.505  -1.063  1.00  0.00     0.163 HD
BRANCH   3   6
HETATM    6  C4  UNL     1      20.587 -28.244  -1.557  1.00  0.00     0.228 C 
BRANCH   6   7
HETATM    7  C2  UNL     1      21.535 -29.414  -1.568  1.00  0.00     0.016 C 
HETATM    8  C1  UNL     1      22.919 -29.041  -1.106  1.00  0.00     0.012 C 
HETATM    9  C3  UNL     1      21.585 -30.277  -2.746  1.00  0.00     0.012 C 
ENDBRANCH   6   7
BRANCH   6  10
HETATM   10  O1  UNL     1      20.265 -27.921  -0.195  1.00  0.00    -0.289 OA
BRANCH  10  11
HETATM   11  C5  UNL     1      19.590 -26.754   0.114  1.00  0.00     0.362 C 
HETATM   12  O2  UNL     1      20.178 -25.677  -0.220  1.00  0.00    -0.238 OA
HETATM   13  N1  UNL     1      18.344 -26.713   0.754  1.00  0.00    -0.329 N 
ATOM     14  H1  UNL     1      17.885 -27.586   1.013  1.00  0.00     0.165 HD
BRANCH  13  15
HETATM   15  C6  UNL     1      17.700 -25.455   1.052  1.00  0.00     0.024 C 
HETATM   16  C7  UNL     1      17.031 -24.832  -0.154  1.00  0.00     0.037 C 
HETATM   17  C8  UNL     1      18.705 -24.512   1.700  1.00  0.00     0.037 C 
HETATM   18  C9  UNL     1      16.581 -25.649   2.082  1.00  0.00     0.037 C 
ENDBRANCH  13  15
ENDBRANCH  10  11
ENDBRANCH   6  10
ENDBRANCH   3   6
ENDBRANCH   1   2
BRANCH   1  19
HETATM   19  C12 UNL     1      16.199 -28.027  -2.526  1.00  0.00     0.305 C 
BRANCH  19  20
HETATM   20  N3  UNL     1      15.513 -27.439  -3.639  1.00  0.00     0.092 N 
HETATM   21  C13 UNL     1      15.364 -26.013  -3.374  1.00  0.00     0.274 C 
HETATM   22  C14 UNL     1      14.256 -25.962  -2.380  1.00  0.00     0.057 C 
HETATM   23  C15 UNL     1      13.277 -27.010  -2.926  1.00  0.00     0.116 C 
HETATM   24  C21 UNL     1      14.139 -27.860  -3.789  1.00  0.00     0.297 C 
BRANCH  23  25
HETATM   25  N4  UNL     1      12.205 -26.329  -3.633  1.00  0.00    -0.331 N 
HETATM   26  C16 UNL     1      11.397 -25.326  -3.009  1.00  0.00     0.361 C 
HETATM   27  O4  UNL     1      11.613 -25.015  -1.785  1.00  0.00    -0.238 OA
ATOM     28  H4  UNL     1      12.023 -26.574  -4.606  1.00  0.00     0.165 HD
BRANCH  26  29
HETATM   29  O5  UNL     1      10.396 -24.669  -3.661  1.00  0.00    -0.294 OA
BRANCH  29  30
HETATM   30  C17 UNL     1      10.518 -23.645  -4.606  1.00  0.00     0.061 C 
HETATM   31  C18 UNL     1       9.291 -22.755  -4.495  1.00  0.00     0.046 C 
HETATM   32  C19 UNL     1      11.746 -22.776  -4.420  1.00  0.00     0.046 C 
HETATM   33  C20 UNL     1      10.573 -24.171  -6.022  1.00  0.00     0.046 C 
ENDBRANCH  29  30
ENDBRANCH  26  29
ENDBRANCH  23  25
ENDBRANCH  19  20
ENDBRANCH   1  19
BRANCH   1  34
HETATM   34  C22 UNL     1      16.409 -30.521  -2.560  1.00  0.00     0.158 C 
HETATM   35  O6  UNL     1      16.473 -30.957  -1.426  1.00  0.00    -0.295 OA
BRANCH  34  36
HETATM   36  C23 UNL     1      15.714 -31.317  -3.551  1.00  0.00     0.012 C 
HETATM   37  C24 UNL     1      15.772 -30.771  -4.950  1.00  0.00     0.022 C 
HETATM   38  C25 UNL     1      16.235 -32.760  -3.603  1.00  0.00     0.022 C 
HETATM   39  C26 UNL     1      14.215 -31.364  -3.203  1.00  0.00     0.022 C 
ENDBRANCH  34  36
ENDBRANCH   1  34
TORSDOF 13
ENDMDL
MODEL 4
REMARK VINA RESULT: -8.015723742      1.608      3.984
REMARK  13 active torsions:
REMARK  status: ('A' for Active; 'I' for Inactive)
REMARK    1  A    between atoms: C2_2  and  C4_4 
REMARK    2  A    between atoms: C4_4  and  O1_5 
REMARK    3  A    between atoms: C4_4  and  C10_14 
REMARK    4  A    between atoms: O1_5  and  C5_6 
REMARK       I    between atoms: C5_6  and  N1_8 
REMARK    5  A    between atoms: N1_8  and  C6_10 
REMARK       I    between atoms: C10_14  and  N2_16 
REMARK    6  A    between atoms: N2_16  and  C11_18 
REMARK    7  A    between atoms: C11_18  and  C12_19 
REMARK    8  A    between atoms: C11_18  and  C22_34 
REMARK    9  A    between atoms: C12_19  and  N3_20 
REMARK   10  A    between atoms: C15_23  and  N4_24 
REMARK       I    between atoms: N4_24  and  C16_26 
REMARK   11  A    between atoms: C16_26  and  O5_28 
REMARK   12  A    between atoms: O5_28  and  C17_29 
REMARK   13  A    between atoms: C22_34  and  C23_36 
ROOT
HETATM    1  C11 UNL     1      16.780 -29.319  -2.838  1.00  0.00     0.183 C 
ENDROOT
BRANCH   1   2
HETATM    2  N2  UNL     1      17.969 -29.141  -1.978  1.00  0.00    -0.346 N 
HETATM    3  C10 UNL     1      19.061 -28.362  -2.343  1.00  0.00     0.248 C 
HETATM    4  O3  UNL     1      19.065 -27.775  -3.445  1.00  0.00    -0.271 OA
ATOM      5  H2  UNL     1      17.990 -29.613  -1.074  1.00  0.00     0.163 HD
BRANCH   3   6
HETATM    6  C4  UNL     1      20.252 -28.180  -1.512  1.00  0.00     0.228 C 
BRANCH   6   7
HETATM    7  C2  UNL     1      21.299 -29.256  -1.620  1.00  0.00     0.016 C 
HETATM    8  C1  UNL     1      22.679 -28.757  -1.284  1.00  0.00     0.012 C 
HETATM    9  C3  UNL     1      21.321 -30.110  -2.806  1.00  0.00     0.012 C 
ENDBRANCH   6   7
BRANCH   6  10
HETATM   10  O1  UNL     1      19.918 -27.995  -0.128  1.00  0.00    -0.289 OA
BRANCH  10  11
HETATM   11  C5  UNL     1      19.320 -26.826   0.306  1.00  0.00     0.362 C 
HETATM   12  O2  UNL     1      19.800 -25.753  -0.180  1.00  0.00    -0.238 OA
HETATM   13  N1  UNL     1      18.258 -26.779   1.219  1.00  0.00    -0.329 N 
ATOM     14  H1  UNL     1      17.882 -27.649   1.597  1.00  0.00     0.165 HD
BRANCH  13  15
HETATM   15  C6  UNL     1      17.686 -25.519   1.633  1.00  0.00     0.024 C 
HETATM   16  C7  UNL     1      16.921 -24.824   0.527  1.00  0.00     0.037 C 
HETATM   17  C8  UNL     1      18.779 -24.633   2.216  1.00  0.00     0.037 C 
HETATM   18  C9  UNL     1      16.668 -25.728   2.760  1.00  0.00     0.037 C 
ENDBRANCH  13  15
ENDBRANCH  10  11
ENDBRANCH   6  10
ENDBRANCH   3   6
ENDBRANCH   1   2
BRANCH   1  19
HETATM   19  C12 UNL     1      15.835 -28.234  -2.431  1.00  0.00     0.305 C 
BRANCH  19  20
HETATM   20  N3  UNL     1      15.101 -27.619  -3.498  1.00  0.00     0.092 N 
HETATM   21  C13 UNL     1      15.820 -26.418  -3.905  1.00  0.00     0.274 C 
HETATM   22  C14 UNL     1      15.501 -25.442  -2.825  1.00  0.00     0.057 C 
HETATM   23  C15 UNL     1      14.011 -25.708  -2.573  1.00  0.00     0.116 C 
HETATM   24  C21 UNL     1      13.817 -27.080  -3.111  1.00  0.00     0.297 C 
BRANCH  23  25
HETATM   25  N4  UNL     1      13.230 -24.684  -3.248  1.00  0.00    -0.331 N 
HETATM   26  C16 UNL     1      11.877 -24.395  -2.884  1.00  0.00     0.361 C 
HETATM   27  O4  UNL     1      11.323 -25.058  -1.938  1.00  0.00    -0.238 OA
ATOM     28  H4  UNL     1      13.661 -24.155  -4.006  1.00  0.00     0.165 HD
BRANCH  26  29
HETATM   29  O5  UNL     1      11.134 -23.429  -3.497  1.00  0.00    -0.294 OA
BRANCH  29  30
HETATM   30  C17 UNL     1      10.437 -23.523  -4.706  1.00  0.00     0.061 C 
HETATM   31  C18 UNL     1       9.109 -22.804  -4.539  1.00  0.00     0.046 C 
HETATM   32  C19 UNL     1      11.160 -22.904  -5.886  1.00  0.00     0.046 C 
HETATM   33  C20 UNL     1      10.136 -24.955  -5.088  1.00  0.00     0.046 C 
ENDBRANCH  29  30
ENDBRANCH  26  29
ENDBRANCH  23  25
ENDBRANCH  19  20
ENDBRANCH   1  19
BRANCH   1  34
HETATM   34  C22 UNL     1      16.254 -30.692  -2.647  1.00  0.00     0.158 C 
HETATM   35  O6  UNL     1      16.496 -31.259  -1.598  1.00  0.00    -0.295 OA
BRANCH  34  36
HETATM   36  C23 UNL     1      15.472 -31.407  -3.636  1.00  0.00     0.012 C 
HETATM   37  C24 UNL     1      15.850 -32.851  -3.811  1.00  0.00     0.022 C 
HETATM   38  C25 UNL     1      13.969 -31.362  -3.327  1.00  0.00     0.022 C 
HETATM   39  C26 UNL     1      15.695 -30.767  -5.018  1.00  0.00     0.022 C 
ENDBRANCH  34  36
ENDBRANCH   1  34
TORSDOF 13
ENDMDL
MODEL 5
REMARK VINA RESULT: -7.655846687      2.436     11.030
REMARK  13 active torsions:
REMARK  status: ('A' for Active; 'I' for Inactive)
REMARK    1  A    between atoms: C2_2  and  C4_4 
REMARK    2  A    between atoms: C4_4  and  O1_5 
REMARK    3  A    between atoms: C4_4  and  C10_14 
REMARK    4  A    between atoms: O1_5  and  C5_6 
REMARK       I    between atoms: C5_6  and  N1_8 
REMARK    5  A    between atoms: N1_8  and  C6_10 
REMARK       I    between atoms: C10_14  and  N2_16 
REMARK    6  A    between atoms: N2_16  and  C11_18 
REMARK    7  A    between atoms: C11_18  and  C12_19 
REMARK    8  A    between atoms: C11_18  and  C22_34 
REMARK    9  A    between atoms: C12_19  and  N3_20 
REMARK   10  A    between atoms: C15_23  and  N4_24 
REMARK       I    between atoms: N4_24  and  C16_26 
REMARK   11  A    between atoms: C16_26  and  O5_28 
REMARK   12  A    between atoms: O5_28  and  C17_29 
REMARK   13  A    between atoms: C22_34  and  C23_36 
ROOT
HETATM    1  C11 UNL     1      18.478 -26.723  -0.255  1.00  0.00     0.183 C 
ENDROOT
BRANCH   1   2
HETATM    2  N2  UNL     1      17.156 -26.997  -0.859  1.00  0.00    -0.346 N 
HETATM    3  C10 UNL     1      16.364 -26.009  -1.430  1.00  0.00     0.248 C 
HETATM    4  O3  UNL     1      16.760 -24.826  -1.446  1.00  0.00    -0.271 OA
ATOM      5  H2  UNL     1      16.810 -27.956  -0.856  1.00  0.00     0.163 HD
BRANCH   3   6
HETATM    6  C4  UNL     1      15.049 -26.256  -2.025  1.00  0.00     0.228 C 
BRANCH   6   7
HETATM    7  C2  UNL     1      15.053 -26.947  -3.363  1.00  0.00     0.016 C 
HETATM    8  C1  UNL     1      14.209 -28.194  -3.373  1.00  0.00     0.012 C 
HETATM    9  C3  UNL     1      16.326 -27.164  -4.046  1.00  0.00     0.012 C 
ENDBRANCH   6   7
BRANCH   6  10
HETATM   10  O1  UNL     1      14.270 -25.053  -2.126  1.00  0.00    -0.289 OA
BRANCH  10  11
HETATM   11  C5  UNL     1      12.928 -25.104  -2.456  1.00  0.00     0.362 C 
HETATM   12  O2  UNL     1      12.208 -25.838  -1.707  1.00  0.00    -0.238 OA
HETATM   13  N1  UNL     1      12.358 -24.412  -3.533  1.00  0.00    -0.329 N 
ATOM     14  H1  UNL     1      12.949 -23.826  -4.121  1.00  0.00     0.165 HD
BRANCH  13  15
HETATM   15  C6  UNL     1      10.947 -24.517  -3.823  1.00  0.00     0.024 C 
HETATM   16  C7  UNL     1      10.072 -23.980  -2.710  1.00  0.00     0.037 C 
HETATM   17  C8  UNL     1      10.606 -25.960  -4.171  1.00  0.00     0.037 C 
HETATM   18  C9  UNL     1      10.584 -23.688  -5.060  1.00  0.00     0.037 C 
ENDBRANCH  13  15
ENDBRANCH  10  11
ENDBRANCH   6  10
ENDBRANCH   3   6
ENDBRANCH   1   2
BRANCH   1  19
HETATM   19  C12 UNL     1      19.358 -27.842  -0.710  1.00  0.00     0.305 C 
BRANCH  19  20
HETATM   20  N3  UNL     1      20.519 -27.454  -1.456  1.00  0.00     0.092 N 
HETATM   21  C13 UNL     1      20.426 -28.055  -2.780  1.00  0.00     0.274 C 
HETATM   22  C14 UNL     1      20.785 -29.481  -2.537  1.00  0.00     0.057 C 
HETATM   23  C15 UNL     1      21.951 -29.360  -1.547  1.00  0.00     0.116 C 
HETATM   24  C21 UNL     1      21.761 -28.006  -0.965  1.00  0.00     0.297 C 
BRANCH  23  25
HETATM   25  N4  UNL     1      23.201 -29.533  -2.269  1.00  0.00    -0.331 N 
HETATM   26  C16 UNL     1      24.262 -30.353  -1.770  1.00  0.00     0.361 C 
HETATM   27  O4  UNL     1      24.120 -30.954  -0.647  1.00  0.00    -0.238 OA
ATOM     28  H4  UNL     1      23.325 -29.054  -3.161  1.00  0.00     0.165 HD
BRANCH  26  29
HETATM   29  O5  UNL     1      25.436 -30.536  -2.440  1.00  0.00    -0.294 OA
BRANCH  29  30
HETATM   30  C17 UNL     1      26.627 -29.817  -2.293  1.00  0.00     0.061 C 
HETATM   31  C18 UNL     1      27.386 -29.894  -3.607  1.00  0.00     0.046 C 
HETATM   32  C19 UNL     1      26.427 -28.354  -1.952  1.00  0.00     0.046 C 
HETATM   33  C20 UNL     1      27.519 -30.393  -1.217  1.00  0.00     0.046 C 
ENDBRANCH  29  30
ENDBRANCH  26  29
ENDBRANCH  23  25
ENDBRANCH  19  20
ENDBRANCH   1  19
BRANCH   1  34
HETATM   34  C22 UNL     1      18.320 -26.628   1.217  1.00  0.00     0.158 C 
HETATM   35  O6  UNL     1      18.346 -27.658   1.864  1.00  0.00    -0.295 OA
BRANCH  34  36
HETATM   36  C23 UNL     1      18.130 -25.384   1.935  1.00  0.00     0.012 C 
HETATM   37  C24 UNL     1      18.788 -24.188   1.305  1.00  0.00     0.022 C 
HETATM   38  C25 UNL     1      16.644 -25.043   2.118  1.00  0.00     0.022 C 
HETATM   39  C26 UNL     1      18.768 -25.502   3.330  1.00  0.00     0.022 C 
ENDBRANCH  34  36
ENDBRANCH   1  34
TORSDOF 13
ENDMDL
