MODEL 1
REMARK VINA RESULT: -9.668276504      0.000      0.000
REMARK  8 active torsions:
REMARK  status: ('A' for Active; 'I' for Inactive)
REMARK    1  A    between atoms: C3_8  and  C4_9 
REMARK    2  A    between atoms: C4_9  and  N3_10 
REMARK    3  A    between atoms: C7_13  and  C8_14 
REMARK    4  A    between atoms: C8_14  and  C9_15 
REMARK    5  A    between atoms: C9_15  and  N4_16 
REMARK    6  A    between atoms: N4_16  and  C10_18 
REMARK    7  A    between atoms: C15_23  and  C16_24 
REMARK    8  A    between atoms: C16_24  and  C19_27 
ROOT
HETATM    1  C9  UNL     1      17.269 -27.892  -2.911  1.00  0.00     0.116 C 
ENDROOT
BRANCH   1   2
HETATM    2  C8  UNL     1      16.605 -29.261  -2.706  1.00  0.00     0.026 C 
BRANCH   2   3
HETATM    3  C7  UNL     1      16.188 -29.859  -4.014  1.00  0.00     0.018 C 
HETATM    4  C6  UNL     1      15.427 -28.866  -4.851  1.00  0.00     0.037 C 
HETATM    5  C5  UNL     1      14.092 -28.481  -4.316  1.00  0.00     0.273 C 
HETATM    6  N3  UNL     1      12.981 -29.248  -4.765  1.00  0.00     0.096 N 
HETATM    7  C26 UNL     1      12.574 -30.164  -3.710  1.00  0.00     0.304 C 
HETATM    8  C25 UNL     1      13.479 -31.343  -3.657  1.00  0.00     0.152 A 
HETATM    9  C24 UNL     1      14.434 -31.486  -4.790  1.00  0.00     0.066 A 
HETATM   10  O5  UNL     1      14.525 -31.051  -2.751  1.00  0.00    -0.378 OA
HETATM   11  C23 UNL     1      15.461 -31.136  -3.768  1.00  0.00     0.128 A 
BRANCH   6  12
HETATM   12  C4  UNL     1      11.830 -28.484  -5.113  1.00  0.00     0.333 C 
BRANCH  12  13
HETATM   13  C3  UNL     1      11.726 -27.263  -4.306  1.00  0.00     0.086 A 
HETATM   14  C2  UNL     1      10.934 -26.149  -4.588  1.00  0.00     0.057 A 
HETATM   15  C1  UNL     1      10.030 -26.003  -5.773  1.00  0.00     0.072 C 
HETATM   16  N1  UNL     1      11.150 -25.272  -3.607  1.00  0.00    -0.244 N 
HETATM   17  O1  UNL     1      12.009 -25.798  -2.782  1.00  0.00    -0.157 OA
ATOM     18  H1  UNL     1      10.719 -24.352  -3.520  1.00  0.00     0.196 HD
HETATM   19  N2  UNL     1      12.353 -26.966  -3.182  1.00  0.00    -0.242 N 
ATOM     20  H2  UNL     1      13.014 -27.577  -2.702  1.00  0.00     0.196 HD
ENDBRANCH  12  13
ENDBRANCH   6  12
ENDBRANCH   2   3
ENDBRANCH   1   2
BRANCH   1  21
HETATM   21  N4  UNL     1      18.595 -28.020  -2.375  1.00  0.00    -0.401 N 
ATOM     22  H4  UNL     1      19.369 -28.407  -2.915  1.00  0.00     0.155 HD
BRANCH  21  23
HETATM   23  C10 UNL     1      18.751 -27.567  -1.032  1.00  0.00     0.180 C 
HETATM   24  C11 UNL     1      17.550 -26.811  -0.493  1.00  0.00     0.065 C 
HETATM   25  C12 UNL     1      18.149 -26.249   0.791  1.00  0.00     0.044 C 
HETATM   26  C13 UNL     1      18.343 -27.335   1.821  1.00  0.00     0.020 C 
HETATM   27  C21 UNL     1      17.349 -25.127   1.353  1.00  0.00     0.020 C 
HETATM   28  C22 UNL     1      19.493 -25.812   0.283  1.00  0.00     0.228 C 
HETATM   29  C14 UNL     1      18.582 -26.702   3.200  1.00  0.00     0.007 C 
HETATM   30  C15 UNL     1      17.271 -26.157   3.654  1.00  0.00     0.004 C 
HETATM   31  C20 UNL     1      16.504 -25.511   2.548  1.00  0.00     0.007 C 
HETATM   32  O4  UNL     1      20.188 -24.900   0.765  1.00  0.00    -0.273 OA
HETATM   33  N5  UNL     1      19.809 -26.631  -0.836  1.00  0.00    -0.340 N 
ATOM     34  H5  UNL     1      20.653 -26.560  -1.405  1.00  0.00     0.164 HD
BRANCH  30  35
HETATM   35  C16 UNL     1      17.333 -25.288   4.879  1.00  0.00     0.045 C 
HETATM   36  C17 UNL     1      18.562 -24.408   4.904  1.00  0.00     0.027 C 
HETATM   37  C18 UNL     1      16.124 -24.360   4.840  1.00  0.00     0.027 C 
BRANCH  35  38
HETATM   38  C19 UNL     1      17.263 -26.029   6.138  1.00  0.00     0.181 C 
HETATM   39  O2  UNL     1      16.273 -26.736   6.399  1.00  0.00    -0.647 OA
HETATM   40  O3  UNL     1      18.298 -25.946   7.042  1.00  0.00    -0.647 OA
ENDBRANCH  35  38
ENDBRANCH  30  35
ENDBRANCH  21  23
ENDBRANCH   1  21
TORSDOF 8
ENDMDL
MODEL 2
REMARK VINA RESULT: -9.506510670      1.524      1.807
REMARK  8 active torsions:
REMARK  status: ('A' for Active; 'I' for Inactive)
REMARK    1  A    between atoms: C3_8  and  C4_9 
REMARK    2  A    between atoms: C4_9  and  N3_10 
REMARK    3  A    between atoms: C7_13  and  C8_14 
REMARK    4  A    between atoms: C8_14  and  C9_15 
REMARK    5  A    between atoms: C9_15  and  N4_16 
REMARK    6  A    between atoms: N4_16  and  C10_18 
REMARK    7  A    between atoms: C15_23  and  C16_24 
REMARK    8  A    between atoms: C16_24  and  C19_27 
ROOT
HETATM    1  C9  UNL     1      19.224 -28.882  -2.369  1.00  0.00     0.116 C 
ENDROOT
BRANCH   1   2
HETATM    2  C8  UNL     1      17.710 -29.134  -2.312  1.00  0.00     0.026 C 
BRANCH   2   3
HETATM    3  C7  UNL     1      17.229 -29.808  -3.559  1.00  0.00     0.018 C 
HETATM    4  C6  UNL     1      15.988 -29.146  -4.095  1.00  0.00     0.037 C 
HETATM    5  C5  UNL     1      14.774 -29.299  -3.246  1.00  0.00     0.273 C 
HETATM    6  N3  UNL     1      13.934 -30.411  -3.529  1.00  0.00     0.096 N 
HETATM    7  C26 UNL     1      14.146 -31.441  -2.524  1.00  0.00     0.304 C 
HETATM    8  C25 UNL     1      15.393 -32.201  -2.801  1.00  0.00     0.152 A 
HETATM    9  C24 UNL     1      16.034 -31.948  -4.122  1.00  0.00     0.066 A 
HETATM   10  O5  UNL     1      16.454 -31.567  -2.114  1.00  0.00    -0.378 OA
HETATM   11  C23 UNL     1      17.084 -31.269  -3.311  1.00  0.00     0.128 A 
BRANCH   6  12
HETATM   12  C4  UNL     1      12.540 -30.120  -3.533  1.00  0.00     0.333 C 
BRANCH  12  13
HETATM   13  C3  UNL     1      12.160 -29.304  -4.693  1.00  0.00     0.086 A 
HETATM   14  C2  UNL     1      11.898 -27.934  -4.690  1.00  0.00     0.057 A 
HETATM   15  C1  UNL     1      11.968 -27.037  -3.493  1.00  0.00     0.072 C 
HETATM   16  N1  UNL     1      11.581 -27.607  -5.944  1.00  0.00    -0.244 N 
HETATM   17  O1  UNL     1      11.641 -28.687  -6.667  1.00  0.00    -0.157 OA
ATOM     18  H1  UNL     1      11.336 -26.674  -6.277  1.00  0.00     0.196 HD
HETATM   19  N2  UNL     1      11.979 -29.689  -5.943  1.00  0.00    -0.242 N 
ATOM     20  H2  UNL     1      12.093 -30.644  -6.283  1.00  0.00     0.196 HD
ENDBRANCH  12  13
ENDBRANCH   6  12
ENDBRANCH   2   3
ENDBRANCH   1   2
BRANCH   1  21
HETATM   21  N4  UNL     1      19.396 -27.489  -2.065  1.00  0.00    -0.401 N 
ATOM     22  H4  UNL     1      19.581 -26.791  -2.785  1.00  0.00     0.155 HD
BRANCH  21  23
HETATM   23  C10 UNL     1      19.290 -27.154  -0.683  1.00  0.00     0.180 C 
HETATM   24  C11 UNL     1      18.058 -26.338  -0.339  1.00  0.00     0.065 C 
HETATM   25  C12 UNL     1      18.404 -25.930   1.089  1.00  0.00     0.044 C 
HETATM   26  C13 UNL     1      18.295 -27.103   2.031  1.00  0.00     0.020 C 
HETATM   27  C21 UNL     1      17.583 -24.787   1.572  1.00  0.00     0.020 C 
HETATM   28  C22 UNL     1      19.853 -25.577   0.915  1.00  0.00     0.228 C 
HETATM   29  C14 UNL     1      18.274 -26.601   3.482  1.00  0.00     0.007 C 
HETATM   30  C15 UNL     1      16.938 -25.977   3.701  1.00  0.00     0.004 C 
HETATM   31  C20 UNL     1      16.475 -25.185   2.524  1.00  0.00     0.007 C 
HETATM   32  O4  UNL     1      20.490 -24.768   1.614  1.00  0.00    -0.273 OA
HETATM   33  N5  UNL     1      20.345 -26.333  -0.185  1.00  0.00    -0.340 N 
ATOM     34  H5  UNL     1      21.294 -26.294  -0.556  1.00  0.00     0.164 HD
BRANCH  30  35
HETATM   35  C16 UNL     1      16.796 -25.213   4.987  1.00  0.00     0.045 C 
HETATM   36  C17 UNL     1      17.864 -24.156   5.155  1.00  0.00     0.027 C 
HETATM   37  C18 UNL     1      15.457 -24.486   4.938  1.00  0.00     0.027 C 
BRANCH  35  38
HETATM   38  C19 UNL     1      16.781 -26.055   6.182  1.00  0.00     0.181 C 
HETATM   39  O2  UNL     1      15.786 -26.755   6.448  1.00  0.00    -0.647 OA
HETATM   40  O3  UNL     1      17.873 -26.078   7.020  1.00  0.00    -0.647 OA
ENDBRANCH  35  38
ENDBRANCH  30  35
ENDBRANCH  21  23
ENDBRANCH   1  21
TORSDOF 8
ENDMDL
MODEL 3
REMARK VINA RESULT: -9.496747038      0.967      1.274
REMARK  8 active torsions:
REMARK  status: ('A' for Active; 'I' for Inactive)
REMARK    1  A    between atoms: C3_8  and  C4_9 
REMARK    2  A    between atoms: C4_9  and  N3_10 
REMARK    3  A    between atoms: C7_13  and  C8_14 
REMARK    4  A    between atoms: C8_14  and  C9_15 
REMARK    5  A    between atoms: C9_15  and  N4_16 
REMARK    6  A    between atoms: N4_16  and  C10_18 
REMARK    7  A    between atoms: C15_23  and  C16_24 
REMARK    8  A    between atoms: C16_24  and  C19_27 
ROOT
HETATM    1  C9  UNL     1      18.007 -29.322  -2.511  1.00  0.00     0.116 C 
ENDROOT
BRANCH   1   2
HETATM    2  C8  UNL     1      16.481 -29.406  -2.665  1.00  0.00     0.026 C 
BRANCH   2   3
HETATM    3  C7  UNL     1      16.104 -29.935  -4.014  1.00  0.00     0.018 C 
HETATM    4  C6  UNL     1      15.387 -28.892  -4.829  1.00  0.00     0.037 C 
HETATM    5  C5  UNL     1      14.038 -28.514  -4.324  1.00  0.00     0.273 C 
HETATM    6  N3  UNL     1      12.934 -29.243  -4.848  1.00  0.00     0.096 N 
HETATM    7  C26 UNL     1      12.478 -30.202  -3.854  1.00  0.00     0.304 C 
HETATM    8  C25 UNL     1      13.365 -31.395  -3.825  1.00  0.00     0.152 A 
HETATM    9  C24 UNL     1      14.359 -31.497  -4.930  1.00  0.00     0.066 A 
HETATM   10  O5  UNL     1      14.382 -31.162  -2.870  1.00  0.00    -0.378 OA
HETATM   11  C23 UNL     1      15.353 -31.211  -3.856  1.00  0.00     0.128 A 
BRANCH   6  12
HETATM   12  C4  UNL     1      11.806 -28.447  -5.199  1.00  0.00     0.333 C 
BRANCH  12  13
HETATM   13  C3  UNL     1      11.711 -27.244  -4.364  1.00  0.00     0.086 A 
HETATM   14  C2  UNL     1      10.910 -26.128  -4.609  1.00  0.00     0.057 A 
HETATM   15  C1  UNL     1       9.987 -25.959  -5.775  1.00  0.00     0.072 C 
HETATM   16  N1  UNL     1      11.138 -25.272  -3.612  1.00  0.00    -0.244 N 
HETATM   17  O1  UNL     1      12.011 -25.813  -2.812  1.00  0.00    -0.157 OA
ATOM     18  H1  UNL     1      10.705 -24.356  -3.497  1.00  0.00     0.196 HD
HETATM   19  N2  UNL     1      12.354 -26.970  -3.243  1.00  0.00    -0.242 N 
ATOM     20  H2  UNL     1      13.024 -27.589  -2.788  1.00  0.00     0.196 HD
ENDBRANCH  12  13
ENDBRANCH   6  12
ENDBRANCH   2   3
ENDBRANCH   1   2
BRANCH   1  21
HETATM   21  N4  UNL     1      18.312 -27.921  -2.433  1.00  0.00    -0.401 N 
ATOM     22  H4  UNL     1      18.369 -27.326  -3.260  1.00  0.00     0.155 HD
BRANCH  21  23
HETATM   23  C10 UNL     1      18.528 -27.422  -1.115  1.00  0.00     0.180 C 
HETATM   24  C11 UNL     1      17.400 -26.552  -0.591  1.00  0.00     0.065 C 
HETATM   25  C12 UNL     1      18.066 -25.983   0.656  1.00  0.00     0.044 C 
HETATM   26  C13 UNL     1      18.197 -27.034   1.731  1.00  0.00     0.020 C 
HETATM   27  C21 UNL     1      17.365 -24.778   1.179  1.00  0.00     0.020 C 
HETATM   28  C22 UNL     1      19.429 -25.674   0.106  1.00  0.00     0.228 C 
HETATM   29  C14 UNL     1      18.510 -26.362   3.076  1.00  0.00     0.007 C 
HETATM   30  C15 UNL     1      17.254 -25.697   3.526  1.00  0.00     0.004 C 
HETATM   31  C20 UNL     1      16.517 -25.044   2.404  1.00  0.00     0.007 C 
HETATM   32  O4  UNL     1      20.201 -24.797   0.535  1.00  0.00    -0.273 OA
HETATM   33  N5  UNL     1      19.659 -26.563  -0.979  1.00  0.00    -0.340 N 
ATOM     34  H5  UNL     1      20.494 -26.583  -1.564  1.00  0.00     0.164 HD
BRANCH  30  35
HETATM   35  C16 UNL     1      17.407 -24.782   4.709  1.00  0.00     0.045 C 
HETATM   36  C17 UNL     1      17.601 -25.538   6.004  1.00  0.00     0.027 C 
HETATM   37  C18 UNL     1      18.668 -23.955   4.485  1.00  0.00     0.027 C 
BRANCH  35  38
HETATM   38  C19 UNL     1      16.302 -23.840   4.880  1.00  0.00     0.181 C 
HETATM   39  O2  UNL     1      16.471 -22.625   4.666  1.00  0.00    -0.647 OA
HETATM   40  O3  UNL     1      15.066 -24.295   5.278  1.00  0.00    -0.647 OA
ENDBRANCH  35  38
ENDBRANCH  30  35
ENDBRANCH  21  23
ENDBRANCH   1  21
TORSDOF 8
ENDMDL
MODEL 4
REMARK VINA RESULT: -9.480161381      2.046      2.637
REMARK  8 active torsions:
REMARK  status: ('A' for Active; 'I' for Inactive)
REMARK    1  A    between atoms: C3_8  and  C4_9 
REMARK    2  A    between atoms: C4_9  and  N3_10 
REMARK    3  A    between atoms: C7_13  and  C8_14 
REMARK    4  A    between atoms: C8_14  and  C9_15 
REMARK    5  A    between atoms: C9_15  and  N4_16 
REMARK    6  A    between atoms: N4_16  and  C10_18 
REMARK    7  A    between atoms: C15_23  and  C16_24 
REMARK    8  A    between atoms: C16_24  and  C19_27 
ROOT
HETATM    1  C9  UNL     1      18.210 -27.591  -2.176  1.00  0.00     0.116 C 
ENDROOT
BRANCH   1   2
HETATM    2  C8  UNL     1      17.719 -29.034  -1.988  1.00  0.00     0.026 C 
BRANCH   2   3
HETATM    3  C7  UNL     1      17.318 -29.641  -3.296  1.00  0.00     0.018 C 
HETATM    4  C6  UNL     1      16.069 -28.999  -3.838  1.00  0.00     0.037 C 
HETATM    5  C5  UNL     1      14.832 -29.262  -3.051  1.00  0.00     0.273 C 
HETATM    6  N3  UNL     1      14.055 -30.387  -3.443  1.00  0.00     0.096 N 
HETATM    7  C26 UNL     1      14.275 -31.473  -2.500  1.00  0.00     0.304 C 
HETATM    8  C25 UNL     1      15.566 -32.157  -2.775  1.00  0.00     0.152 A 
HETATM    9  C24 UNL     1      16.245 -31.788  -4.049  1.00  0.00     0.066 A 
HETATM   10  O5  UNL     1      16.570 -31.526  -2.004  1.00  0.00    -0.378 OA
HETATM   11  C23 UNL     1      17.231 -31.121  -3.152  1.00  0.00     0.128 A 
BRANCH   6  12
HETATM   12  C4  UNL     1      12.650 -30.157  -3.485  1.00  0.00     0.333 C 
BRANCH  12  13
HETATM   13  C3  UNL     1      12.261 -29.403  -4.683  1.00  0.00     0.086 A 
HETATM   14  C2  UNL     1      11.972 -28.039  -4.746  1.00  0.00     0.057 A 
HETATM   15  C1  UNL     1      12.019 -27.088  -3.591  1.00  0.00     0.072 C 
HETATM   16  N1  UNL     1      11.656 -27.777  -6.014  1.00  0.00    -0.244 N 
HETATM   17  O1  UNL     1      11.740 -28.889  -6.686  1.00  0.00    -0.157 OA
ATOM     18  H1  UNL     1      11.394 -26.866  -6.391  1.00  0.00     0.196 HD
HETATM   19  N2  UNL     1      12.095 -29.849  -5.915  1.00  0.00    -0.242 N 
ATOM     20  H2  UNL     1      12.229 -30.816  -6.210  1.00  0.00     0.196 HD
ENDBRANCH  12  13
ENDBRANCH   6  12
ENDBRANCH   2   3
ENDBRANCH   1   2
BRANCH   1  21
HETATM   21  N4  UNL     1      19.154 -27.361  -1.119  1.00  0.00    -0.401 N 
ATOM     22  H4  UNL     1      20.070 -27.810  -1.096  1.00  0.00     0.155 HD
BRANCH  21  23
HETATM   23  C10 UNL     1      18.716 -26.462  -0.103  1.00  0.00     0.180 C 
HETATM   24  C11 UNL     1      18.395 -27.133   1.220  1.00  0.00     0.065 C 
HETATM   25  C12 UNL     1      17.714 -25.977   1.942  1.00  0.00     0.044 C 
HETATM   26  C13 UNL     1      18.714 -24.920   2.344  1.00  0.00     0.020 C 
HETATM   27  C21 UNL     1      16.920 -26.425   3.119  1.00  0.00     0.020 C 
HETATM   28  C22 UNL     1      16.859 -25.442   0.829  1.00  0.00     0.228 C 
HETATM   29  C14 UNL     1      18.082 -23.976   3.377  1.00  0.00     0.007 C 
HETATM   30  C15 UNL     1      17.993 -24.737   4.655  1.00  0.00     0.004 C 
HETATM   31  C20 UNL     1      17.589 -26.159   4.449  1.00  0.00     0.007 C 
HETATM   32  O4  UNL     1      15.789 -24.823   0.972  1.00  0.00    -0.273 OA
HETATM   33  N5  UNL     1      17.500 -25.776  -0.395  1.00  0.00    -0.340 N 
ATOM     34  H5  UNL     1      17.149 -25.560  -1.328  1.00  0.00     0.164 HD
BRANCH  30  35
HETATM   35  C16 UNL     1      17.188 -24.073   5.737  1.00  0.00     0.045 C 
HETATM   36  C17 UNL     1      16.734 -25.045   6.802  1.00  0.00     0.027 C 
HETATM   37  C18 UNL     1      18.097 -23.058   6.421  1.00  0.00     0.027 C 
BRANCH  35  38
HETATM   38  C19 UNL     1      16.022 -23.340   5.246  1.00  0.00     0.181 C 
HETATM   39  O2  UNL     1      15.002 -23.951   4.877  1.00  0.00    -0.647 OA
HETATM   40  O3  UNL     1      16.048 -21.965   5.191  1.00  0.00    -0.647 OA
ENDBRANCH  35  38
ENDBRANCH  30  35
ENDBRANCH  21  23
ENDBRANCH   1  21
TORSDOF 8
ENDMDL
MODEL 5
REMARK VINA RESULT: -9.429439886      1.220      1.387
REMARK  8 active torsions:
REMARK  status: ('A' for Active; 'I' for Inactive)
REMARK    1  A    between atoms: C3_8  and  C4_9 
REMARK    2  A    between atoms: C4_9  and  N3_10 
REMARK    3  A    between atoms: C7_13  and  C8_14 
REMARK    4  A    between atoms: C8_14  and  C9_15 
REMARK    5  A    between atoms: C9_15  and  N4_16 
REMARK    6  A    between atoms: N4_16  and  C10_18 
REMARK    7  A    between atoms: C15_23  and  C16_24 
REMARK    8  A    between atoms: C16_24  and  C19_27 
ROOT
HETATM    1  C9  UNL     1      18.636 -29.144  -2.588  1.00  0.00     0.116 C 
ENDROOT
BRANCH   1   2
HETATM    2  C8  UNL     1      17.105 -29.250  -2.534  1.00  0.00     0.026 C 
BRANCH   2   3
HETATM    3  C7  UNL     1      16.492 -28.862  -3.843  1.00  0.00     0.018 C 
HETATM    4  C6  UNL     1      15.815 -27.520  -3.754  1.00  0.00     0.037 C 
HETATM    5  C5  UNL     1      14.603 -27.481  -2.890  1.00  0.00     0.273 C 
HETATM    6  N3  UNL     1      13.356 -27.725  -3.529  1.00  0.00     0.096 N 
HETATM    7  C26 UNL     1      12.913 -29.074  -3.216  1.00  0.00     0.304 C 
HETATM    8  C25 UNL     1      13.635 -30.073  -4.048  1.00  0.00     0.152 A 
HETATM    9  C24 UNL     1      14.456 -29.525  -5.163  1.00  0.00     0.066 A 
HETATM   10  O5  UNL     1      14.788 -30.482  -3.338  1.00  0.00    -0.378 OA
HETATM   11  C23 UNL     1      15.609 -29.961  -4.324  1.00  0.00     0.128 A 
BRANCH   6  12
HETATM   12  C4  UNL     1      12.304 -26.846  -3.142  1.00  0.00     0.333 C 
BRANCH  12  13
HETATM   13  C3  UNL     1      11.432 -26.513  -4.274  1.00  0.00     0.086 A 
HETATM   14  C2  UNL     1      10.524 -25.455  -4.336  1.00  0.00     0.057 A 
HETATM   15  C1  UNL     1      10.282 -24.453  -3.251  1.00  0.00     0.072 C 
HETATM   16  N1  UNL     1       9.938 -25.530  -5.532  1.00  0.00    -0.244 N 
HETATM   17  O1  UNL     1      10.440 -26.552  -6.162  1.00  0.00    -0.157 OA
ATOM     18  H1  UNL     1       9.222 -24.897  -5.889  1.00  0.00     0.196 HD
HETATM   19  N2  UNL     1      11.318 -27.136  -5.433  1.00  0.00    -0.242 N 
ATOM     20  H2  UNL     1      11.851 -27.961  -5.708  1.00  0.00     0.196 HD
ENDBRANCH  12  13
ENDBRANCH   6  12
ENDBRANCH   2   3
ENDBRANCH   1   2
BRANCH   1  21
HETATM   21  N4  UNL     1      18.938 -27.761  -2.352  1.00  0.00    -0.401 N 
ATOM     22  H4  UNL     1      19.108 -27.100  -3.111  1.00  0.00     0.155 HD
BRANCH  21  23
HETATM   23  C10 UNL     1      18.982 -27.377  -0.979  1.00  0.00     0.180 C 
HETATM   24  C11 UNL     1      17.774 -26.579  -0.522  1.00  0.00     0.065 C 
HETATM   25  C12 UNL     1      18.270 -26.110   0.841  1.00  0.00     0.044 C 
HETATM   26  C13 UNL     1      18.304 -27.250   1.829  1.00  0.00     0.020 C 
HETATM   27  C21 UNL     1      17.478 -24.970   1.377  1.00  0.00     0.020 C 
HETATM   28  C22 UNL     1      19.679 -25.727   0.487  1.00  0.00     0.228 C 
HETATM   29  C14 UNL     1      18.436 -26.694   3.254  1.00  0.00     0.007 C 
HETATM   30  C15 UNL     1      17.117 -26.096   3.605  1.00  0.00     0.004 C 
HETATM   31  C20 UNL     1      16.499 -25.360   2.463  1.00  0.00     0.007 C 
HETATM   32  O4  UNL     1      20.369 -24.878   1.080  1.00  0.00    -0.273 OA
HETATM   33  N5  UNL     1      20.062 -26.512  -0.635  1.00  0.00    -0.340 N 
ATOM     34  H5  UNL     1      20.961 -26.464  -1.114  1.00  0.00     0.164 HD
BRANCH  30  35
HETATM   35  C16 UNL     1      17.101 -25.288   4.872  1.00  0.00     0.045 C 
HETATM   36  C17 UNL     1      18.245 -24.302   4.945  1.00  0.00     0.027 C 
HETATM   37  C18 UNL     1      15.812 -24.474   4.877  1.00  0.00     0.027 C 
BRANCH  35  38
HETATM   38  C19 UNL     1      17.102 -26.094   6.093  1.00  0.00     0.181 C 
HETATM   39  O2  UNL     1      16.120 -26.803   6.380  1.00  0.00    -0.647 OA
HETATM   40  O3  UNL     1      18.193 -26.071   6.930  1.00  0.00    -0.647 OA
ENDBRANCH  35  38
ENDBRANCH  30  35
ENDBRANCH  21  23
ENDBRANCH   1  21
TORSDOF 8
ENDMDL
