MODEL 1
REMARK VINA RESULT: -8.294737554      0.000      0.000
REMARK  10 active torsions:
REMARK  status: ('A' for Active; 'I' for Inactive)
REMARK    1  A    between atoms: O1_2  and  C2_3 
REMARK    2  A    between atoms: C2_3  and  C3_4 
REMARK    3  A    between atoms: C3_4  and  C4_5 
REMARK    4  A    between atoms: C4_5  and  C5_6 
REMARK    5  A    between atoms: C5_6  and  C6_7 
REMARK    6  A    between atoms: C6_7  and  C7_8 
REMARK    7  A    between atoms: C7_8  and  N1_9 
REMARK    8  A    between atoms: N1_9  and  C8_11 
REMARK    9  A    between atoms: C17_26  and  O4_27 
REMARK   10  A    between atoms: C18_30  and  C19_31 
ROOT
HETATM    1  C2  UNL     1      15.790 -29.762  -3.509  1.00  0.00     0.211 C 
HETATM    2  O3  UNL     1      15.129 -29.009  -2.530  1.00  0.00    -0.325 OA
HETATM    3  C12 UNL     1      15.762 -28.070  -1.836  1.00  0.00     0.227 C 
HETATM    4  C13 UNL     1      14.792 -26.836  -1.926  1.00  0.00     0.056 C 
HETATM    5  C14 UNL     1      15.191 -26.276  -3.301  1.00  0.00     0.029 C 
HETATM    6  C15 UNL     1      16.579 -26.808  -3.555  1.00  0.00     0.088 C 
HETATM    7  C16 UNL     1      16.733 -27.708  -4.703  1.00  0.00     0.063 C 
HETATM    8  C17 UNL     1      16.047 -29.012  -4.748  1.00  0.00     0.186 C 
HETATM    9  N4  UNL     1      16.902 -27.452  -2.337  1.00  0.00    -0.362 N 
HETATM   10  C18 UNL     1      18.123 -27.363  -1.772  1.00  0.00     0.071 C 
ENDROOT
BRANCH   1  11
HETATM   11  O1  UNL     1      16.977 -30.277  -2.993  1.00  0.00    -0.355 OA
HETATM   12  C1  UNL     1      17.166 -31.629  -3.213  1.00  0.00     0.206 C 
ENDBRANCH   1  11
BRANCH   1  13
HETATM   13  C3  UNL     1      14.850 -30.899  -3.739  1.00  0.00     0.039 C 
BRANCH  13  14
HETATM   14  C4  UNL     1      13.599 -31.092  -3.025  1.00  0.00    -0.025 C 
BRANCH  14  15
HETATM   15  C5  UNL     1      12.351 -30.377  -3.380  1.00  0.00     0.028 C 
BRANCH  15  16
HETATM   16  C6  UNL     1      12.138 -30.528  -4.906  1.00  0.00     0.024 C 
BRANCH  16  17
HETATM   17  C7  UNL     1      11.768 -29.231  -5.545  1.00  0.00     0.138 C 
BRANCH  17  18
HETATM   18  N1  UNL     1      12.105 -28.136  -4.636  1.00  0.00    -0.226 N 
ATOM     19  H1  UNL     1      12.880 -28.265  -3.987  1.00  0.00     0.177 HD
BRANCH  18  20
HETATM   20  C8  UNL     1      11.473 -27.027  -4.618  1.00  0.00     0.680 A 
HETATM   21  N2  UNL     1      10.769 -26.606  -5.660  1.00  0.00    -0.202 N 
HETATM   22  C9  UNL     1      10.111 -25.411  -5.567  1.00  0.00     0.111 A 
ATOM     23  H2  UNL     1      10.719 -27.163  -6.513  1.00  0.00     0.183 HD
HETATM   24  C10 UNL     1      10.168 -24.644  -4.419  1.00  0.00     0.092 A 
HETATM   25  C11 UNL     1      10.915 -25.112  -3.344  1.00  0.00     0.260 A 
HETATM   26  O2  UNL     1      10.962 -24.408  -2.304  1.00  0.00    -0.268 OA
HETATM   27  N3  UNL     1      11.534 -26.281  -3.488  1.00  0.00    -0.156 N 
ATOM     28  H3  UNL     1      12.084 -26.634  -2.706  1.00  0.00     0.187 HD
ENDBRANCH  18  20
ENDBRANCH  17  18
ENDBRANCH  16  17
ENDBRANCH  15  16
ENDBRANCH  14  15
ENDBRANCH  13  14
ENDBRANCH   1  13
BRANCH   8  29
HETATM   29  O4  UNL     1      14.939 -28.890  -5.584  1.00  0.00    -0.390 OA
ATOM     30  H4  UNL     1      15.144 -28.916  -6.512  1.00  0.00     0.210 HD
ENDBRANCH   8  29
BRANCH  10  31
HETATM   31  C19 UNL     1      18.401 -26.558  -0.546  1.00  0.00    -0.007 C 
HETATM   32  C20 UNL     1      17.648 -25.290  -0.407  1.00  0.00     0.019 C 
HETATM   33  C21 UNL     1      17.875 -24.734   1.000  1.00  0.00    -0.013 C 
HETATM   34  C22 UNL     1      17.498 -25.684   2.082  1.00  0.00     0.009 C 
HETATM   35  C26 UNL     1      19.325 -24.323   1.058  1.00  0.00     0.009 C 
HETATM   36  C23 UNL     1      18.371 -26.910   1.953  1.00  0.00    -0.013 C 
HETATM   37  C24 UNL     1      19.825 -26.527   2.078  1.00  0.00     0.009 C 
HETATM   38  C28 UNL     1      18.153 -27.527   0.622  1.00  0.00     0.019 C 
HETATM   39  C25 UNL     1      20.146 -25.602   0.939  1.00  0.00    -0.013 C 
HETATM   40  C27 UNL     1      19.888 -26.190  -0.413  1.00  0.00     0.019 C 
ENDBRANCH  10  31
TORSDOF 10
ENDMDL
MODEL 2
REMARK VINA RESULT: -7.983019541      3.731      6.860
REMARK  10 active torsions:
REMARK  status: ('A' for Active; 'I' for Inactive)
REMARK    1  A    between atoms: O1_2  and  C2_3 
REMARK    2  A    between atoms: C2_3  and  C3_4 
REMARK    3  A    between atoms: C3_4  and  C4_5 
REMARK    4  A    between atoms: C4_5  and  C5_6 
REMARK    5  A    between atoms: C5_6  and  C6_7 
REMARK    6  A    between atoms: C6_7  and  C7_8 
REMARK    7  A    between atoms: C7_8  and  N1_9 
REMARK    8  A    between atoms: N1_9  and  C8_11 
REMARK    9  A    between atoms: C17_26  and  O4_27 
REMARK   10  A    between atoms: C18_30  and  C19_31 
ROOT
HETATM    1  C2  UNL     1      17.542 -25.194   2.145  1.00  0.00     0.211 C 
HETATM    2  O3  UNL     1      17.692 -26.586   2.146  1.00  0.00    -0.325 OA
HETATM    3  C12 UNL     1      18.584 -27.185   2.928  1.00  0.00     0.227 C 
HETATM    4  C13 UNL     1      17.758 -28.338   3.605  1.00  0.00     0.056 C 
HETATM    5  C14 UNL     1      17.085 -27.558   4.746  1.00  0.00     0.029 C 
HETATM    6  C15 UNL     1      17.949 -26.339   4.952  1.00  0.00     0.088 C 
HETATM    7  C16 UNL     1      17.320 -25.040   4.687  1.00  0.00     0.063 C 
HETATM    8  C17 UNL     1      16.850 -24.681   3.337  1.00  0.00     0.186 C 
HETATM    9  N4  UNL     1      19.046 -26.575   4.088  1.00  0.00    -0.362 N 
HETATM   10  C18 UNL     1      20.318 -26.304   4.443  1.00  0.00     0.071 C 
ENDROOT
BRANCH   1  11
HETATM   11  O1  UNL     1      18.784 -24.581   1.998  1.00  0.00    -0.355 OA
HETATM   12  C1  UNL     1      18.774 -23.208   2.159  1.00  0.00     0.206 C 
ENDBRANCH   1  11
BRANCH   1  13
HETATM   13  C3  UNL     1      16.751 -24.949   0.902  1.00  0.00     0.039 C 
BRANCH  13  14
HETATM   14  C4  UNL     1      17.036 -25.555  -0.388  1.00  0.00    -0.025 C 
BRANCH  14  15
HETATM   15  C5  UNL     1      15.990 -25.814  -1.404  1.00  0.00     0.028 C 
BRANCH  15  16
HETATM   16  C6  UNL     1      16.343 -27.142  -2.116  1.00  0.00     0.024 C 
BRANCH  16  17
HETATM   17  C7  UNL     1      15.767 -27.203  -3.492  1.00  0.00     0.138 C 
BRANCH  17  18
HETATM   18  N1  UNL     1      14.310 -27.274  -3.399  1.00  0.00    -0.226 N 
ATOM     19  H1  UNL     1      13.820 -26.543  -2.885  1.00  0.00     0.177 HD
BRANCH  18  20
HETATM   20  C8  UNL     1      13.623 -28.210  -3.931  1.00  0.00     0.680 A 
HETATM   21  N2  UNL     1      12.646 -27.957  -4.791  1.00  0.00    -0.202 N 
HETATM   22  C9  UNL     1      11.956 -29.010  -5.327  1.00  0.00     0.111 A 
ATOM     23  H2  UNL     1      12.413 -26.998  -5.047  1.00  0.00     0.183 HD
HETATM   24  C10 UNL     1      12.259 -30.316  -4.991  1.00  0.00     0.092 A 
HETATM   25  C11 UNL     1      13.289 -30.548  -4.086  1.00  0.00     0.260 A 
HETATM   26  O2  UNL     1      13.556 -31.738  -3.786  1.00  0.00    -0.268 OA
HETATM   27  N3  UNL     1      13.926 -29.488  -3.596  1.00  0.00    -0.156 N 
ATOM     28  H3  UNL     1      14.684 -29.646  -2.932  1.00  0.00     0.187 HD
ENDBRANCH  18  20
ENDBRANCH  17  18
ENDBRANCH  16  17
ENDBRANCH  15  16
ENDBRANCH  14  15
ENDBRANCH  13  14
ENDBRANCH   1  13
BRANCH   8  29
HETATM   29  O4  UNL     1      15.465 -24.835   3.306  1.00  0.00    -0.390 OA
ATOM     30  H4  UNL     1      14.989 -24.200   3.830  1.00  0.00     0.210 HD
ENDBRANCH   8  29
BRANCH  10  31
HETATM   31  C19 UNL     1      21.320 -27.360   4.772  1.00  0.00    -0.007 C 
HETATM   32  C20 UNL     1      22.229 -27.768   3.675  1.00  0.00     0.019 C 
HETATM   33  C21 UNL     1      23.326 -28.664   4.253  1.00  0.00    -0.013 C 
HETATM   34  C22 UNL     1      24.095 -28.025   5.357  1.00  0.00     0.009 C 
HETATM   35  C26 UNL     1      22.644 -29.940   4.676  1.00  0.00     0.009 C 
HETATM   36  C23 UNL     1      23.137 -27.729   6.485  1.00  0.00    -0.013 C 
HETATM   37  C24 UNL     1      22.495 -29.006   6.969  1.00  0.00     0.009 C 
HETATM   38  C28 UNL     1      22.073 -26.817   5.997  1.00  0.00     0.019 C 
HETATM   39  C25 UNL     1      21.708 -29.576   5.823  1.00  0.00    -0.013 C 
HETATM   40  C27 UNL     1      20.661 -28.651   5.285  1.00  0.00     0.019 C 
ENDBRANCH  10  31
TORSDOF 10
ENDMDL
MODEL 3
REMARK VINA RESULT: -7.923709692      3.626      6.635
REMARK  10 active torsions:
REMARK  status: ('A' for Active; 'I' for Inactive)
REMARK    1  A    between atoms: O1_2  and  C2_3 
REMARK    2  A    between atoms: C2_3  and  C3_4 
REMARK    3  A    between atoms: C3_4  and  C4_5 
REMARK    4  A    between atoms: C4_5  and  C5_6 
REMARK    5  A    between atoms: C5_6  and  C6_7 
REMARK    6  A    between atoms: C6_7  and  C7_8 
REMARK    7  A    between atoms: C7_8  and  N1_9 
REMARK    8  A    between atoms: N1_9  and  C8_11 
REMARK    9  A    between atoms: C17_26  and  O4_27 
REMARK   10  A    between atoms: C18_30  and  C19_31 
ROOT
HETATM    1  C2  UNL     1      17.953 -25.506   1.521  1.00  0.00     0.211 C 
HETATM    2  O3  UNL     1      17.962 -26.868   1.848  1.00  0.00    -0.325 OA
HETATM    3  C12 UNL     1      18.728 -27.338   2.827  1.00  0.00     0.227 C 
HETATM    4  C13 UNL     1      17.741 -28.233   3.661  1.00  0.00     0.056 C 
HETATM    5  C14 UNL     1      17.064 -27.157   4.528  1.00  0.00     0.029 C 
HETATM    6  C15 UNL     1      18.027 -25.997   4.538  1.00  0.00     0.088 C 
HETATM    7  C16 UNL     1      17.554 -24.749   3.930  1.00  0.00     0.063 C 
HETATM    8  C17 UNL     1      17.226 -24.677   2.494  1.00  0.00     0.186 C 
HETATM    9  N4  UNL     1      19.158 -26.515   3.861  1.00  0.00    -0.362 N 
HETATM   10  C18 UNL     1      20.420 -26.271   4.268  1.00  0.00     0.071 C 
ENDROOT
BRANCH   1  11
HETATM   11  O1  UNL     1      19.257 -25.045   1.362  1.00  0.00    -0.355 OA
HETATM   12  C1  UNL     1      19.377 -23.672   1.257  1.00  0.00     0.206 C 
ENDBRANCH   1  11
BRANCH   1  13
HETATM   13  C3  UNL     1      17.288 -25.494   0.184  1.00  0.00     0.039 C 
BRANCH  13  14
HETATM   14  C4  UNL     1      17.540 -26.462  -0.870  1.00  0.00    -0.025 C 
BRANCH  14  15
HETATM   15  C5  UNL     1      16.490 -26.923  -1.809  1.00  0.00     0.028 C 
BRANCH  15  16
HETATM   16  C6  UNL     1      15.336 -25.892  -1.769  1.00  0.00     0.024 C 
BRANCH  16  17
HETATM   17  C7  UNL     1      14.123 -26.391  -2.482  1.00  0.00     0.138 C 
BRANCH  17  18
HETATM   18  N1  UNL     1      14.534 -27.316  -3.536  1.00  0.00    -0.226 N 
ATOM     19  H1  UNL     1      15.472 -27.226  -3.924  1.00  0.00     0.177 HD
BRANCH  18  20
HETATM   20  C8  UNL     1      13.771 -28.232  -3.995  1.00  0.00     0.680 A 
HETATM   21  N2  UNL     1      12.743 -27.955  -4.786  1.00  0.00    -0.202 N 
HETATM   22  C9  UNL     1      11.973 -28.987  -5.247  1.00  0.00     0.111 A 
ATOM     23  H2  UNL     1      12.532 -26.991  -5.046  1.00  0.00     0.183 HD
HETATM   24  C10 UNL     1      12.246 -30.298  -4.905  1.00  0.00     0.092 A 
HETATM   25  C11 UNL     1      13.331 -30.556  -4.073  1.00  0.00     0.260 A 
HETATM   26  O2  UNL     1      13.571 -31.751  -3.767  1.00  0.00    -0.268 OA
HETATM   27  N3  UNL     1      14.046 -29.515  -3.656  1.00  0.00    -0.156 N 
ATOM     28  H3  UNL     1      14.843 -29.692  -3.046  1.00  0.00     0.187 HD
ENDBRANCH  18  20
ENDBRANCH  17  18
ENDBRANCH  16  17
ENDBRANCH  15  16
ENDBRANCH  14  15
ENDBRANCH  13  14
ENDBRANCH   1  13
BRANCH   8  29
HETATM   29  O4  UNL     1      15.839 -24.722   2.364  1.00  0.00    -0.390 OA
ATOM     30  H4  UNL     1      15.514 -24.411   1.526  1.00  0.00     0.210 HD
ENDBRANCH   8  29
BRANCH  10  31
HETATM   31  C19 UNL     1      21.283 -27.299   4.921  1.00  0.00    -0.007 C 
HETATM   32  C20 UNL     1      20.589 -28.486   5.471  1.00  0.00     0.019 C 
HETATM   33  C21 UNL     1      21.637 -29.526   5.873  1.00  0.00    -0.013 C 
HETATM   34  C22 UNL     1      22.540 -29.921   4.757  1.00  0.00     0.009 C 
HETATM   35  C26 UNL     1      22.378 -28.940   7.048  1.00  0.00     0.009 C 
HETATM   36  C23 UNL     1      23.296 -28.694   4.310  1.00  0.00    -0.013 C 
HETATM   37  C24 UNL     1      24.100 -28.132   5.457  1.00  0.00     0.009 C 
HETATM   38  C28 UNL     1      22.330 -27.663   3.855  1.00  0.00     0.019 C 
HETATM   39  C25 UNL     1      23.129 -27.720   6.527  1.00  0.00    -0.013 C 
HETATM   40  C27 UNL     1      22.116 -26.716   6.075  1.00  0.00     0.019 C 
ENDBRANCH  10  31
TORSDOF 10
ENDMDL
MODEL 4
REMARK VINA RESULT: -7.885907101      3.681      6.670
REMARK  10 active torsions:
REMARK  status: ('A' for Active; 'I' for Inactive)
REMARK    1  A    between atoms: O1_2  and  C2_3 
REMARK    2  A    between atoms: C2_3  and  C3_4 
REMARK    3  A    between atoms: C3_4  and  C4_5 
REMARK    4  A    between atoms: C4_5  and  C5_6 
REMARK    5  A    between atoms: C5_6  and  C6_7 
REMARK    6  A    between atoms: C6_7  and  C7_8 
REMARK    7  A    between atoms: C7_8  and  N1_9 
REMARK    8  A    between atoms: N1_9  and  C8_11 
REMARK    9  A    between atoms: C17_26  and  O4_27 
REMARK   10  A    between atoms: C18_30  and  C19_31 
ROOT
HETATM    1  C2  UNL     1      18.015 -25.414   1.602  1.00  0.00     0.211 C 
HETATM    2  O3  UNL     1      18.032 -26.794   1.840  1.00  0.00    -0.325 OA
HETATM    3  C12 UNL     1      18.783 -27.320   2.801  1.00  0.00     0.227 C 
HETATM    4  C13 UNL     1      17.790 -28.277   3.556  1.00  0.00     0.056 C 
HETATM    5  C14 UNL     1      17.086 -27.267   4.477  1.00  0.00     0.029 C 
HETATM    6  C15 UNL     1      18.037 -26.101   4.582  1.00  0.00     0.088 C 
HETATM    7  C16 UNL     1      17.562 -24.820   4.047  1.00  0.00     0.063 C 
HETATM    8  C17 UNL     1      17.261 -24.657   2.613  1.00  0.00     0.186 C 
HETATM    9  N4  UNL     1      19.185 -26.562   3.895  1.00  0.00    -0.362 N 
HETATM   10  C18 UNL     1      20.437 -26.334   4.341  1.00  0.00     0.071 C 
ENDROOT
BRANCH   1  11
HETATM   11  O1  UNL     1      19.317 -24.931   1.499  1.00  0.00    -0.355 OA
HETATM   12  C1  UNL     1      19.417 -23.560   1.356  1.00  0.00     0.206 C 
ENDBRANCH   1  11
BRANCH   1  13
HETATM   13  C3  UNL     1      17.375 -25.321   0.256  1.00  0.00     0.039 C 
BRANCH  13  14
HETATM   14  C4  UNL     1      17.362 -26.392  -0.726  1.00  0.00    -0.025 C 
BRANCH  14  15
HETATM   15  C5  UNL     1      16.336 -26.497  -1.790  1.00  0.00     0.028 C 
BRANCH  15  16
HETATM   16  C6  UNL     1      16.668 -27.744  -2.644  1.00  0.00     0.024 C 
BRANCH  16  17
HETATM   17  C7  UNL     1      15.832 -27.808  -3.879  1.00  0.00     0.138 C 
BRANCH  17  18
HETATM   18  N1  UNL     1      15.464 -29.199  -4.137  1.00  0.00    -0.226 N 
ATOM     19  H1  UNL     1      16.168 -29.922  -3.994  1.00  0.00     0.177 HD
BRANCH  18  20
HETATM   20  C8  UNL     1      14.302 -29.550  -4.532  1.00  0.00     0.680 A 
HETATM   21  N2  UNL     1      13.825 -30.768  -4.309  1.00  0.00    -0.202 N 
HETATM   22  C9  UNL     1      12.568 -31.072  -4.756  1.00  0.00     0.111 A 
ATOM     23  H2  UNL     1      14.385 -31.462  -3.814  1.00  0.00     0.183 HD
HETATM   24  C10 UNL     1      11.797 -30.142  -5.427  1.00  0.00     0.092 A 
HETATM   25  C11 UNL     1      12.326 -28.874  -5.646  1.00  0.00     0.260 A 
HETATM   26  O2  UNL     1      11.618 -28.036  -6.258  1.00  0.00    -0.268 OA
HETATM   27  N3  UNL     1      13.551 -28.633  -5.190  1.00  0.00    -0.156 N 
ATOM     28  H3  UNL     1      13.949 -27.706  -5.344  1.00  0.00     0.187 HD
ENDBRANCH  18  20
ENDBRANCH  17  18
ENDBRANCH  16  17
ENDBRANCH  15  16
ENDBRANCH  14  15
ENDBRANCH  13  14
ENDBRANCH   1  13
BRANCH   8  29
HETATM   29  O4  UNL     1      15.877 -24.707   2.453  1.00  0.00    -0.390 OA
ATOM     30  H4  UNL     1      15.387 -24.294   3.155  1.00  0.00     0.210 HD
ENDBRANCH   8  29
BRANCH  10  31
HETATM   31  C19 UNL     1      21.298 -27.394   4.943  1.00  0.00    -0.007 C 
HETATM   32  C20 UNL     1      20.605 -28.618   5.409  1.00  0.00     0.019 C 
HETATM   33  C21 UNL     1      21.654 -29.674   5.762  1.00  0.00    -0.013 C 
HETATM   34  C22 UNL     1      22.576 -29.994   4.638  1.00  0.00     0.009 C 
HETATM   35  C26 UNL     1      22.374 -29.156   6.982  1.00  0.00     0.009 C 
HETATM   36  C23 UNL     1      23.330 -28.736   4.277  1.00  0.00    -0.013 C 
HETATM   37  C24 UNL     1      24.113 -28.241   5.468  1.00  0.00     0.009 C 
HETATM   38  C28 UNL     1      22.363 -27.686   3.873  1.00  0.00     0.019 C 
HETATM   39  C25 UNL     1      23.124 -27.902   6.547  1.00  0.00    -0.013 C 
HETATM   40  C27 UNL     1      22.110 -26.878   6.142  1.00  0.00     0.019 C 
ENDBRANCH  10  31
TORSDOF 10
ENDMDL
MODEL 5
REMARK VINA RESULT: -7.842801032      3.757      6.644
REMARK  10 active torsions:
REMARK  status: ('A' for Active; 'I' for Inactive)
REMARK    1  A    between atoms: O1_2  and  C2_3 
REMARK    2  A    between atoms: C2_3  and  C3_4 
REMARK    3  A    between atoms: C3_4  and  C4_5 
REMARK    4  A    between atoms: C4_5  and  C5_6 
REMARK    5  A    between atoms: C5_6  and  C6_7 
REMARK    6  A    between atoms: C6_7  and  C7_8 
REMARK    7  A    between atoms: C7_8  and  N1_9 
REMARK    8  A    between atoms: N1_9  and  C8_11 
REMARK    9  A    between atoms: C17_26  and  O4_27 
REMARK   10  A    between atoms: C18_30  and  C19_31 
ROOT
HETATM    1  C2  UNL     1      17.503 -25.210   2.261  1.00  0.00     0.211 C 
HETATM    2  O3  UNL     1      17.639 -26.604   2.282  1.00  0.00    -0.325 OA
HETATM    3  C12 UNL     1      18.545 -27.198   3.051  1.00  0.00     0.227 C 
HETATM    4  C13 UNL     1      17.725 -28.331   3.769  1.00  0.00     0.056 C 
HETATM    5  C14 UNL     1      17.090 -27.523   4.913  1.00  0.00     0.029 C 
HETATM    6  C15 UNL     1      17.971 -26.310   5.075  1.00  0.00     0.088 C 
HETATM    7  C16 UNL     1      17.349 -25.010   4.804  1.00  0.00     0.063 C 
HETATM    8  C17 UNL     1      16.847 -24.669   3.461  1.00  0.00     0.186 C 
HETATM    9  N4  UNL     1      19.043 -26.573   4.188  1.00  0.00    -0.362 N 
HETATM   10  C18 UNL     1      20.327 -26.309   4.505  1.00  0.00     0.071 C 
ENDROOT
BRANCH   1  11
HETATM   11  O1  UNL     1      18.746 -24.613   2.071  1.00  0.00    -0.355 OA
HETATM   12  C1  UNL     1      18.765 -23.243   2.255  1.00  0.00     0.206 C 
ENDBRANCH   1  11
BRANCH   1  13
HETATM   13  C3  UNL     1      16.683 -24.979   1.034  1.00  0.00     0.039 C 
BRANCH  13  14
HETATM   14  C4  UNL     1      16.798 -25.750  -0.192  1.00  0.00    -0.025 C 
BRANCH  14  15
HETATM   15  C5  UNL     1      16.150 -25.347  -1.462  1.00  0.00     0.028 C 
BRANCH  15  16
HETATM   16  C6  UNL     1      14.623 -25.296  -1.216  1.00  0.00     0.024 C 
BRANCH  16  17
HETATM   17  C7  UNL     1      13.880 -26.169  -2.173  1.00  0.00     0.138 C 
BRANCH  17  18
HETATM   18  N1  UNL     1      12.449 -25.888  -2.065  1.00  0.00    -0.226 N 
ATOM     19  H1  UNL     1      11.972 -26.125  -1.196  1.00  0.00     0.177 HD
BRANCH  18  20
HETATM   20  C8  UNL     1      11.770 -25.360  -3.008  1.00  0.00     0.680 A 
HETATM   21  N2  UNL     1      10.829 -26.035  -3.655  1.00  0.00    -0.202 N 
HETATM   22  C9  UNL     1      10.135 -25.402  -4.650  1.00  0.00     0.111 A 
ATOM     23  H2  UNL     1      10.627 -27.005  -3.415  1.00  0.00     0.183 HD
HETATM   24  C10 UNL     1      10.396 -24.088  -4.988  1.00  0.00     0.092 A 
HETATM   25  C11 UNL     1      11.389 -23.408  -4.291  1.00  0.00     0.260 A 
HETATM   26  O2  UNL     1      11.620 -22.213  -4.606  1.00  0.00    -0.268 OA
HETATM   27  N3  UNL     1      12.032 -24.070  -3.333  1.00  0.00    -0.156 N 
ATOM     28  H3  UNL     1      12.761 -23.581  -2.816  1.00  0.00     0.187 HD
ENDBRANCH  18  20
ENDBRANCH  17  18
ENDBRANCH  16  17
ENDBRANCH  15  16
ENDBRANCH  14  15
ENDBRANCH  13  14
ENDBRANCH   1  13
BRANCH   8  29
HETATM   29  O4  UNL     1      15.460 -24.809   3.468  1.00  0.00    -0.390 OA
ATOM     30  H4  UNL     1      14.989 -24.057   3.128  1.00  0.00     0.210 HD
ENDBRANCH   8  29
BRANCH  10  31
HETATM   31  C19 UNL     1      21.326 -27.370   4.826  1.00  0.00    -0.007 C 
HETATM   32  C20 UNL     1      22.238 -27.768   3.729  1.00  0.00     0.019 C 
HETATM   33  C21 UNL     1      23.332 -28.671   4.301  1.00  0.00    -0.013 C 
HETATM   34  C22 UNL     1      24.099 -28.044   5.412  1.00  0.00     0.009 C 
HETATM   35  C26 UNL     1      22.647 -29.951   4.709  1.00  0.00     0.009 C 
HETATM   36  C23 UNL     1      23.137 -27.758   6.541  1.00  0.00    -0.013 C 
HETATM   37  C24 UNL     1      22.492 -29.039   7.010  1.00  0.00     0.009 C 
HETATM   38  C28 UNL     1      22.077 -26.840   6.059  1.00  0.00     0.019 C 
HETATM   39  C25 UNL     1      21.708 -29.596   5.856  1.00  0.00    -0.013 C 
HETATM   40  C27 UNL     1      20.664 -28.665   5.325  1.00  0.00     0.019 C 
ENDBRANCH  10  31
TORSDOF 10
ENDMDL
