MODEL 1
REMARK VINA RESULT: -8.549967714      0.000      0.000
REMARK  8 active torsions:
REMARK  status: ('A' for Active; 'I' for Inactive)
REMARK    1  A    between atoms: O1_2  and  C2_3 
REMARK    2  A    between atoms: C2_3  and  C3_5 
REMARK    3  A    between atoms: C6_8  and  N1_9 
REMARK    4  A    between atoms: C7_11  and  C8_12 
REMARK    5  A    between atoms: C8_12  and  C9_13 
REMARK    6  A    between atoms: C9_13  and  C10_14 
REMARK    7  A    between atoms: C10_14  and  C11_15 
REMARK    8  A    between atoms: C23_31  and  O5_32 
ROOT
HETATM    1  C3  UNL     1      19.293 -26.331   3.022  1.00  0.00     0.090 C 
HETATM    2  C4  UNL     1      19.332 -27.235   1.846  1.00  0.00     0.026 C 
HETATM    3  C5  UNL     1      19.983 -26.973   0.565  1.00  0.00     0.027 C 
HETATM    4  C6  UNL     1      19.150 -26.426  -0.613  1.00  0.00     0.085 C 
HETATM    5  C14 UNL     1      18.110 -25.583  -0.016  1.00  0.00     0.008 C 
HETATM    6  C15 UNL     1      16.852 -25.178  -0.691  1.00  0.00     0.009 C 
HETATM    7  C16 UNL     1      16.081 -24.485   0.453  1.00  0.00     0.027 C 
HETATM    8  C17 UNL     1      16.325 -25.015   1.820  1.00  0.00     0.169 C 
HETATM    9  O4  UNL     1      17.317 -24.939   2.568  1.00  0.00    -0.375 OA
HETATM   10  C18 UNL     1      18.548 -25.008   2.864  1.00  0.00     0.096 C 
HETATM   11  C19 UNL     1      19.340 -24.287   1.751  1.00  0.00     0.044 C 
HETATM   12  C20 UNL     1      18.708 -24.311   0.432  1.00  0.00     0.010 C 
HETATM   13  C21 UNL     1      18.786 -24.078   4.052  1.00  0.00     0.011 C 
HETATM   14  C22 UNL     1      18.664 -24.426   5.419  1.00  0.00     0.017 C 
HETATM   15  C23 UNL     1      18.488 -25.770   5.956  1.00  0.00     0.136 C 
HETATM   16  C24 UNL     1      17.682 -26.593   5.006  1.00  0.00     0.061 C 
HETATM   17  C25 UNL     1      18.724 -27.192   4.134  1.00  0.00    -0.014 C 
HETATM   18  C26 UNL     1      18.053 -28.479   3.651  1.00  0.00     0.017 C 
HETATM   19  C27 UNL     1      19.707 -27.617   5.170  1.00  0.00     0.092 C 
HETATM   20  C28 UNL     1      19.678 -26.594   6.216  1.00  0.00     0.165 C 
HETATM   21  O6  UNL     1      20.499 -26.485   7.108  1.00  0.00    -0.294 OA
ENDROOT
BRANCH   4  22
HETATM   22  N1  UNL     1      18.838 -27.365  -1.596  1.00  0.00    -0.394 N 
HETATM   23  C7  UNL     1      18.004 -28.435  -1.445  1.00  0.00     0.083 C 
ATOM     24  H1  UNL     1      19.273 -27.241  -2.510  1.00  0.00     0.159 HD
BRANCH  23  25
HETATM   25  C8  UNL     1      17.903 -29.369  -2.588  1.00  0.00     0.016 C 
BRANCH  25  26
HETATM   26  C9  UNL     1      16.912 -30.402  -2.758  1.00  0.00    -0.002 C 
BRANCH  26  27
HETATM   27  C10 UNL     1      15.514 -30.290  -3.100  1.00  0.00    -0.011 C 
BRANCH  27  28
HETATM   28  C11 UNL     1      14.971 -30.253  -4.464  1.00  0.00     0.118 C 
HETATM   29  C12 UNL     1      15.579 -31.426  -5.304  1.00  0.00     0.140 C 
HETATM   30  N2  UNL     1      14.258 -31.504  -5.895  1.00  0.00    -0.359 N 
HETATM   31  C13 UNL     1      13.721 -31.104  -4.646  1.00  0.00     0.227 C 
ATOM     32  H2  UNL     1      13.878 -31.744  -6.810  1.00  0.00     0.162 HD
HETATM   33  O3  UNL     1      12.679 -31.370  -4.027  1.00  0.00    -0.273 OA
ENDBRANCH  27  28
ENDBRANCH  26  27
ENDBRANCH  25  26
ENDBRANCH  23  25
ENDBRANCH   4  22
BRANCH   1  34
HETATM   34  C2  UNL     1      20.749 -26.109   3.331  1.00  0.00     0.271 C 
HETATM   35  O2  UNL     1      21.608 -27.074   3.238  1.00  0.00    -0.264 OA
BRANCH  34  36
HETATM   36  O1  UNL     1      21.400 -24.998   3.727  1.00  0.00    -0.326 OA
HETATM   37  C1  UNL     1      22.492 -24.864   4.565  1.00  0.00     0.213 C 
ENDBRANCH  34  36
ENDBRANCH   1  34
BRANCH  15  38
HETATM   38  O5  UNL     1      17.785 -25.756   7.192  1.00  0.00    -0.378 OA
ATOM     39  H5  UNL     1      17.223 -26.516   7.285  1.00  0.00     0.211 HD
ENDBRANCH  15  38
TORSDOF 8
ENDMDL
MODEL 2
REMARK VINA RESULT: -8.423244910      1.200      1.411
REMARK  8 active torsions:
REMARK  status: ('A' for Active; 'I' for Inactive)
REMARK    1  A    between atoms: O1_2  and  C2_3 
REMARK    2  A    between atoms: C2_3  and  C3_5 
REMARK    3  A    between atoms: C6_8  and  N1_9 
REMARK    4  A    between atoms: C7_11  and  C8_12 
REMARK    5  A    between atoms: C8_12  and  C9_13 
REMARK    6  A    between atoms: C9_13  and  C10_14 
REMARK    7  A    between atoms: C10_14  and  C11_15 
REMARK    8  A    between atoms: C23_31  and  O5_32 
ROOT
HETATM    1  C3  UNL     1      19.200 -26.441   2.467  1.00  0.00     0.090 C 
HETATM    2  C4  UNL     1      18.870 -27.511   1.494  1.00  0.00     0.026 C 
HETATM    3  C5  UNL     1      19.256 -27.558   0.086  1.00  0.00     0.027 C 
HETATM    4  C6  UNL     1      18.260 -27.074  -0.990  1.00  0.00     0.085 C 
HETATM    5  C14 UNL     1      17.487 -25.994  -0.370  1.00  0.00     0.008 C 
HETATM    6  C15 UNL     1      16.172 -25.504  -0.853  1.00  0.00     0.009 C 
HETATM    7  C16 UNL     1      15.759 -24.529   0.270  1.00  0.00     0.027 C 
HETATM    8  C17 UNL     1      16.227 -24.873   1.638  1.00  0.00     0.169 C 
HETATM    9  O4  UNL     1      17.359 -24.841   2.154  1.00  0.00    -0.375 OA
HETATM   10  C18 UNL     1      18.607 -25.058   2.215  1.00  0.00     0.096 C 
HETATM   11  C19 UNL     1      19.221 -24.653   0.857  1.00  0.00     0.044 C 
HETATM   12  C20 UNL     1      18.321 -24.780  -0.288  1.00  0.00     0.010 C 
HETATM   13  C21 UNL     1      19.210 -24.005   3.143  1.00  0.00     0.011 C 
HETATM   14  C22 UNL     1      19.346 -24.114   4.548  1.00  0.00     0.017 C 
HETATM   15  C23 UNL     1      19.127 -25.313   5.348  1.00  0.00     0.136 C 
HETATM   16  C24 UNL     1      18.038 -26.134   4.739  1.00  0.00     0.061 C 
HETATM   17  C25 UNL     1      18.784 -27.019   3.808  1.00  0.00    -0.014 C 
HETATM   18  C26 UNL     1      17.871 -28.242   3.709  1.00  0.00     0.017 C 
HETATM   19  C27 UNL     1      19.908 -27.429   4.695  1.00  0.00     0.092 C 
HETATM   20  C28 UNL     1      20.234 -26.265   5.521  1.00  0.00     0.165 C 
HETATM   21  O6  UNL     1      21.235 -26.151   6.203  1.00  0.00    -0.294 OA
ENDROOT
BRANCH   4  22
HETATM   22  N1  UNL     1      17.629 -28.092  -1.705  1.00  0.00    -0.394 N 
HETATM   23  C7  UNL     1      17.286 -28.049  -3.025  1.00  0.00     0.083 C 
ATOM     24  H1  UNL     1      17.404 -28.946  -1.195  1.00  0.00     0.159 HD
BRANCH  23  25
HETATM   25  C8  UNL     1      16.521 -29.199  -3.555  1.00  0.00     0.016 C 
BRANCH  25  26
HETATM   26  C9  UNL     1      15.269 -29.134  -4.264  1.00  0.00    -0.002 C 
BRANCH  26  27
HETATM   27  C10 UNL     1      13.980 -28.664  -3.817  1.00  0.00    -0.011 C 
BRANCH  27  28
HETATM   28  C11 UNL     1      12.688 -29.283  -4.140  1.00  0.00     0.118 C 
HETATM   29  C12 UNL     1      12.429 -29.188  -5.681  1.00  0.00     0.140 C 
HETATM   30  N2  UNL     1      11.844 -30.505  -5.525  1.00  0.00    -0.359 N 
HETATM   31  C13 UNL     1      12.792 -30.759  -4.503  1.00  0.00     0.227 C 
ATOM     32  H2  UNL     1      11.083 -31.024  -5.961  1.00  0.00     0.162 HD
HETATM   33  O3  UNL     1      13.405 -31.769  -4.121  1.00  0.00    -0.273 OA
ENDBRANCH  27  28
ENDBRANCH  26  27
ENDBRANCH  25  26
ENDBRANCH  23  25
ENDBRANCH   4  22
BRANCH   1  34
HETATM   34  C2  UNL     1      20.704 -26.409   2.445  1.00  0.00     0.271 C 
HETATM   35  O2  UNL     1      21.397 -27.502   2.404  1.00  0.00    -0.264 OA
BRANCH  34  36
HETATM   36  O1  UNL     1      21.556 -25.366   2.462  1.00  0.00    -0.326 OA
HETATM   37  C1  UNL     1      22.800 -25.250   3.056  1.00  0.00     0.213 C 
ENDBRANCH  34  36
ENDBRANCH   1  34
BRANCH  15  38
HETATM   38  O5  UNL     1      18.716 -24.996   6.671  1.00  0.00    -0.378 OA
ATOM     39  H5  UNL     1      19.322 -25.337   7.319  1.00  0.00     0.211 HD
ENDBRANCH  15  38
TORSDOF 8
ENDMDL
MODEL 3
REMARK VINA RESULT: -8.323675186      3.532      4.450
REMARK  8 active torsions:
REMARK  status: ('A' for Active; 'I' for Inactive)
REMARK    1  A    between atoms: O1_2  and  C2_3 
REMARK    2  A    between atoms: C2_3  and  C3_5 
REMARK    3  A    between atoms: C6_8  and  N1_9 
REMARK    4  A    between atoms: C7_11  and  C8_12 
REMARK    5  A    between atoms: C8_12  and  C9_13 
REMARK    6  A    between atoms: C9_13  and  C10_14 
REMARK    7  A    between atoms: C10_14  and  C11_15 
REMARK    8  A    between atoms: C23_31  and  O5_32 
ROOT
HETATM    1  C3  UNL     1      18.678 -26.133   3.152  1.00  0.00     0.090 C 
HETATM    2  C4  UNL     1      19.276 -27.171   2.277  1.00  0.00     0.026 C 
HETATM    3  C5  UNL     1      20.318 -26.971   1.273  1.00  0.00     0.027 C 
HETATM    4  C6  UNL     1      19.921 -26.779  -0.205  1.00  0.00     0.085 C 
HETATM    5  C14 UNL     1      18.630 -26.086  -0.191  1.00  0.00     0.008 C 
HETATM    6  C15 UNL     1      17.673 -26.046  -1.326  1.00  0.00     0.009 C 
HETATM    7  C16 UNL     1      16.444 -25.365  -0.687  1.00  0.00     0.027 C 
HETATM    8  C17 UNL     1      16.227 -25.632   0.758  1.00  0.00     0.169 C 
HETATM    9  O4  UNL     1      16.847 -25.250   1.768  1.00  0.00    -0.375 OA
HETATM   10  C18 UNL     1      17.874 -25.026   2.477  1.00  0.00     0.096 C 
HETATM   11  C19 UNL     1      18.920 -24.328   1.579  1.00  0.00     0.044 C 
HETATM   12  C20 UNL     1      18.838 -24.669   0.159  1.00  0.00     0.010 C 
HETATM   13  C21 UNL     1      17.522 -23.905   3.453  1.00  0.00     0.011 C 
HETATM   14  C22 UNL     1      16.945 -24.069   4.736  1.00  0.00     0.017 C 
HETATM   15  C23 UNL     1      16.764 -25.329   5.447  1.00  0.00     0.136 C 
HETATM   16  C24 UNL     1      16.492 -26.426   4.471  1.00  0.00     0.061 C 
HETATM   17  C25 UNL     1      17.856 -26.922   4.155  1.00  0.00    -0.014 C 
HETATM   18  C26 UNL     1      17.596 -28.374   3.750  1.00  0.00     0.017 C 
HETATM   19  C27 UNL     1      18.427 -26.986   5.529  1.00  0.00     0.092 C 
HETATM   20  C28 UNL     1      17.870 -25.850   6.265  1.00  0.00     0.165 C 
HETATM   21  O6  UNL     1      18.273 -25.449   7.341  1.00  0.00    -0.294 OA
ENDROOT
BRANCH   4  22
HETATM   22  N1  UNL     1      20.131 -27.894  -1.018  1.00  0.00    -0.394 N 
HETATM   23  C7  UNL     1      21.331 -28.300  -1.524  1.00  0.00     0.083 C 
ATOM     24  H1  UNL     1      19.314 -28.455  -1.255  1.00  0.00     0.159 HD
BRANCH  23  25
HETATM   25  C8  UNL     1      21.309 -29.448  -2.457  1.00  0.00     0.016 C 
BRANCH  25  26
HETATM   26  C9  UNL     1      22.053 -30.674  -2.315  1.00  0.00    -0.002 C 
BRANCH  26  27
HETATM   27  C10 UNL     1      23.019 -31.274  -3.204  1.00  0.00    -0.011 C 
BRANCH  27  28
HETATM   28  C11 UNL     1      23.899 -30.542  -4.124  1.00  0.00     0.118 C 
HETATM   29  C12 UNL     1      25.393 -30.771  -3.718  1.00  0.00     0.140 C 
HETATM   30  N2  UNL     1      25.637 -30.783  -5.147  1.00  0.00    -0.359 N 
HETATM   31  C13 UNL     1      24.359 -31.370  -5.318  1.00  0.00     0.227 C 
ATOM     32  H2  UNL     1      26.397 -30.496  -5.763  1.00  0.00     0.162 HD
HETATM   33  O3  UNL     1      23.885 -32.197  -6.114  1.00  0.00    -0.273 OA
ENDBRANCH  27  28
ENDBRANCH  26  27
ENDBRANCH  25  26
ENDBRANCH  23  25
ENDBRANCH   4  22
BRANCH   1  34
HETATM   34  C2  UNL     1      19.867 -25.580   3.890  1.00  0.00     0.271 C 
HETATM   35  O2  UNL     1      20.808 -26.357   4.322  1.00  0.00    -0.264 OA
BRANCH  34  36
HETATM   36  O1  UNL     1      20.176 -24.312   4.224  1.00  0.00    -0.326 OA
HETATM   37  C1  UNL     1      20.843 -23.828   5.335  1.00  0.00     0.213 C 
ENDBRANCH  34  36
ENDBRANCH   1  34
BRANCH  15  38
HETATM   38  O5  UNL     1      15.655 -25.279   6.334  1.00  0.00    -0.378 OA
ATOM     39  H5  UNL     1      15.557 -26.089   6.821  1.00  0.00     0.211 HD
ENDBRANCH  15  38
TORSDOF 8
ENDMDL
MODEL 4
REMARK VINA RESULT: -8.046278902      3.213      4.527
REMARK  8 active torsions:
REMARK  status: ('A' for Active; 'I' for Inactive)
REMARK    1  A    between atoms: O1_2  and  C2_3 
REMARK    2  A    between atoms: C2_3  and  C3_5 
REMARK    3  A    between atoms: C6_8  and  N1_9 
REMARK    4  A    between atoms: C7_11  and  C8_12 
REMARK    5  A    between atoms: C8_12  and  C9_13 
REMARK    6  A    between atoms: C9_13  and  C10_14 
REMARK    7  A    between atoms: C10_14  and  C11_15 
REMARK    8  A    between atoms: C23_31  and  O5_32 
ROOT
HETATM    1  C3  UNL     1      18.778 -26.089   3.107  1.00  0.00     0.090 C 
HETATM    2  C4  UNL     1      19.253 -27.105   2.136  1.00  0.00     0.026 C 
HETATM    3  C5  UNL     1      20.201 -26.891   1.045  1.00  0.00     0.027 C 
HETATM    4  C6  UNL     1      19.670 -26.622  -0.379  1.00  0.00     0.085 C 
HETATM    5  C14 UNL     1      18.411 -25.892  -0.211  1.00  0.00     0.008 C 
HETATM    6  C15 UNL     1      17.352 -25.773  -1.244  1.00  0.00     0.009 C 
HETATM    7  C16 UNL     1      16.213 -25.084  -0.461  1.00  0.00     0.027 C 
HETATM    8  C17 UNL     1      16.127 -25.409   0.986  1.00  0.00     0.169 C 
HETATM    9  O4  UNL     1      16.853 -25.090   1.946  1.00  0.00    -0.375 OA
HETATM   10  C18 UNL     1      17.951 -24.929   2.560  1.00  0.00     0.096 C 
HETATM   11  C19 UNL     1      18.930 -24.224   1.594  1.00  0.00     0.044 C 
HETATM   12  C20 UNL     1      18.700 -24.498   0.176  1.00  0.00     0.010 C 
HETATM   13  C21 UNL     1      17.733 -23.842   3.611  1.00  0.00     0.011 C 
HETATM   14  C22 UNL     1      17.276 -24.047   4.936  1.00  0.00     0.017 C 
HETATM   15  C23 UNL     1      17.122 -25.331   5.609  1.00  0.00     0.136 C 
HETATM   16  C24 UNL     1      16.720 -26.374   4.619  1.00  0.00     0.061 C 
HETATM   17  C25 UNL     1      18.029 -26.897   4.152  1.00  0.00    -0.014 C 
HETATM   18  C26 UNL     1      17.682 -28.321   3.715  1.00  0.00     0.017 C 
HETATM   19  C27 UNL     1      18.727 -27.039   5.460  1.00  0.00     0.092 C 
HETATM   20  C28 UNL     1      18.282 -25.920   6.293  1.00  0.00     0.165 C 
HETATM   21  O6  UNL     1      18.801 -25.581   7.341  1.00  0.00    -0.294 OA
ENDROOT
BRANCH   4  22
HETATM   22  N1  UNL     1      19.763 -27.705  -1.253  1.00  0.00    -0.394 N 
HETATM   23  C7  UNL     1      20.907 -28.371  -1.584  1.00  0.00     0.083 C 
ATOM     24  H1  UNL     1      18.897 -28.029  -1.684  1.00  0.00     0.159 HD
BRANCH  23  25
HETATM   25  C8  UNL     1      20.794 -29.421  -2.620  1.00  0.00     0.016 C 
BRANCH  25  26
HETATM   26  C9  UNL     1      21.610 -30.604  -2.725  1.00  0.00    -0.002 C 
BRANCH  26  27
HETATM   27  C10 UNL     1      22.839 -30.815  -3.453  1.00  0.00    -0.011 C 
BRANCH  27  28
HETATM   28  C11 UNL     1      24.148 -31.095  -2.850  1.00  0.00     0.118 C 
HETATM   29  C12 UNL     1      25.284 -30.700  -3.853  1.00  0.00     0.140 C 
HETATM   30  N2  UNL     1      25.992 -30.265  -2.665  1.00  0.00    -0.359 N 
HETATM   31  C13 UNL     1      24.742 -29.910  -2.101  1.00  0.00     0.227 C 
ATOM     32  H2  UNL     1      26.966 -30.230  -2.365  1.00  0.00     0.162 HD
HETATM   33  O3  UNL     1      24.362 -29.009  -1.335  1.00  0.00    -0.273 OA
ENDBRANCH  27  28
ENDBRANCH  26  27
ENDBRANCH  25  26
ENDBRANCH  23  25
ENDBRANCH   4  22
BRANCH   1  34
HETATM   34  C2  UNL     1      20.050 -25.605   3.748  1.00  0.00     0.271 C 
HETATM   35  O2  UNL     1      21.013 -26.425   4.029  1.00  0.00    -0.264 OA
BRANCH  34  36
HETATM   36  O1  UNL     1      20.424 -24.367   4.125  1.00  0.00    -0.326 OA
HETATM   37  C1  UNL     1      21.196 -23.966   5.200  1.00  0.00     0.213 C 
ENDBRANCH  34  36
ENDBRANCH   1  34
BRANCH  15  38
HETATM   38  O5  UNL     1      16.105 -25.287   6.601  1.00  0.00    -0.378 OA
ATOM     39  H5  UNL     1      16.086 -26.082   7.121  1.00  0.00     0.211 HD
ENDBRANCH  15  38
TORSDOF 8
ENDMDL
MODEL 5
REMARK VINA RESULT: -7.952378923      3.587      4.741
REMARK  8 active torsions:
REMARK  status: ('A' for Active; 'I' for Inactive)
REMARK    1  A    between atoms: O1_2  and  C2_3 
REMARK    2  A    between atoms: C2_3  and  C3_5 
REMARK    3  A    between atoms: C6_8  and  N1_9 
REMARK    4  A    between atoms: C7_11  and  C8_12 
REMARK    5  A    between atoms: C8_12  and  C9_13 
REMARK    6  A    between atoms: C9_13  and  C10_14 
REMARK    7  A    between atoms: C10_14  and  C11_15 
REMARK    8  A    between atoms: C23_31  and  O5_32 
ROOT
HETATM    1  C3  UNL     1      18.900 -26.120   3.488  1.00  0.00     0.090 C 
HETATM    2  C4  UNL     1      19.872 -27.120   2.982  1.00  0.00     0.026 C 
HETATM    3  C5  UNL     1      21.114 -26.843   2.265  1.00  0.00     0.027 C 
HETATM    4  C6  UNL     1      21.131 -26.905   0.724  1.00  0.00     0.085 C 
HETATM    5  C14 UNL     1      19.800 -26.473   0.287  1.00  0.00     0.008 C 
HETATM    6  C15 UNL     1      19.212 -26.748  -1.048  1.00  0.00     0.009 C 
HETATM    7  C16 UNL     1      17.764 -26.243  -0.873  1.00  0.00     0.027 C 
HETATM    8  C17 UNL     1      17.187 -26.376   0.490  1.00  0.00     0.169 C 
HETATM    9  O4  UNL     1      17.428 -25.768   1.549  1.00  0.00    -0.375 OA
HETATM   10  C18 UNL     1      18.165 -25.271   2.454  1.00  0.00     0.096 C 
HETATM   11  C19 UNL     1      19.306 -24.497   1.757  1.00  0.00     0.044 C 
HETATM   12  C20 UNL     1      19.684 -25.010   0.442  1.00  0.00     0.010 C 
HETATM   13  C21 UNL     1      17.384 -24.132   3.106  1.00  0.00     0.011 C 
HETATM   14  C22 UNL     1      16.497 -24.252   4.204  1.00  0.00     0.017 C 
HETATM   15  C23 UNL     1      16.313 -25.432   5.041  1.00  0.00     0.136 C 
HETATM   16  C24 UNL     1      16.499 -26.667   4.222  1.00  0.00     0.061 C 
HETATM   17  C25 UNL     1      17.954 -26.928   4.358  1.00  0.00    -0.014 C 
HETATM   18  C26 UNL     1      18.042 -28.440   4.144  1.00  0.00     0.017 C 
HETATM   19  C27 UNL     1      18.113 -26.721   5.825  1.00  0.00     0.092 C 
HETATM   20  C28 UNL     1      17.205 -25.634   6.193  1.00  0.00     0.165 C 
HETATM   21  O6  UNL     1      17.220 -25.041   7.256  1.00  0.00    -0.294 OA
ENDROOT
BRANCH   4  22
HETATM   22  N1  UNL     1      21.729 -28.045   0.189  1.00  0.00    -0.394 N 
HETATM   23  C7  UNL     1      22.194 -28.182  -1.087  1.00  0.00     0.083 C 
ATOM     24  H1  UNL     1      21.827 -28.851   0.806  1.00  0.00     0.159 HD
BRANCH  23  25
HETATM   25  C8  UNL     1      22.691 -29.519  -1.478  1.00  0.00     0.016 C 
BRANCH  25  26
HETATM   26  C9  UNL     1      22.084 -30.406  -2.438  1.00  0.00    -0.002 C 
BRANCH  26  27
HETATM   27  C10 UNL     1      22.494 -30.727  -3.784  1.00  0.00    -0.011 C 
BRANCH  27  28
HETATM   28  C11 UNL     1      23.686 -31.504  -4.148  1.00  0.00     0.118 C 
HETATM   29  C12 UNL     1      23.895 -31.451  -5.699  1.00  0.00     0.140 C 
HETATM   30  N2  UNL     1      25.306 -31.399  -5.369  1.00  0.00    -0.359 N 
HETATM   31  C13 UNL     1      24.963 -30.674  -4.201  1.00  0.00     0.227 C 
ATOM     32  H2  UNL     1      26.169 -31.736  -5.793  1.00  0.00     0.162 HD
HETATM   33  O3  UNL     1      25.509 -29.767  -3.553  1.00  0.00    -0.273 OA
ENDBRANCH  27  28
ENDBRANCH  26  27
ENDBRANCH  25  26
ENDBRANCH  23  25
ENDBRANCH   4  22
BRANCH   1  34
HETATM   34  C2  UNL     1      19.732 -25.268   4.408  1.00  0.00     0.271 C 
HETATM   35  O2  UNL     1      20.644 -25.792   5.164  1.00  0.00    -0.264 OA
BRANCH  34  36
HETATM   36  O1  UNL     1      19.714 -23.939   4.625  1.00  0.00    -0.326 OA
HETATM   37  C1  UNL     1      20.050 -23.223   5.760  1.00  0.00     0.213 C 
ENDBRANCH  34  36
ENDBRANCH   1  34
BRANCH  15  38
HETATM   38  O5  UNL     1      15.002 -25.491   5.588  1.00  0.00    -0.378 OA
ATOM     39  H5  UNL     1      14.965 -26.055   6.352  1.00  0.00     0.211 HD
ENDBRANCH  15  38
TORSDOF 8
ENDMDL
