MODEL 1
REMARK VINA RESULT: -9.086327255      0.000      0.000
REMARK  13 active torsions:
REMARK  status: ('A' for Active; 'I' for Inactive)
REMARK    1  A    between atoms: C2_2  and  C3_3 
REMARK    2  A    between atoms: C4_4  and  O1_5 
REMARK    3  A    between atoms: C5_7  and  N1_8 
REMARK    4  A    between atoms: N1_8  and  C6_9 
REMARK    5  A    between atoms: C6_9  and  O2_10 
REMARK    6  A    between atoms: C6_9  and  N2_12 
REMARK    7  A    between atoms: N2_12  and  N3_14 
REMARK    8  A    between atoms: N4_19  and  C10_20 
REMARK    9  A    between atoms: N6_32  and  C20_33 
REMARK   10  A    between atoms: C20_33  and  C21_34 
REMARK   11  A    between atoms: C21_34  and  N7_35 
REMARK   12  A    between atoms: N7_35  and  C22_36 
REMARK   13  A    between atoms: N7_35  and  C24_38 
ROOT
HETATM    1  C6  UNL     1      16.559 -26.783  -1.665  1.00  0.00     0.315 C 
ENDROOT
BRANCH   1   2
HETATM    2  N1  UNL     1      15.810 -27.383  -2.495  1.00  0.00    -0.341 NA
BRANCH   2   3
HETATM    3  C5  UNL     1      15.129 -28.019  -3.258  1.00  0.00     0.232 A 
HETATM    4  C4  UNL     1      15.624 -29.230  -3.824  1.00  0.00     0.137 A 
HETATM    5  C3  UNL     1      14.885 -30.023  -4.645  1.00  0.00     0.049 A 
HETATM    6  C26 UNL     1      13.592 -29.600  -4.925  1.00  0.00     0.271 A 
HETATM    7  N6  UNL     1      13.113 -28.462  -4.403  1.00  0.00    -0.253 N 
HETATM    8  O3  UNL     1      12.901 -30.331  -5.686  1.00  0.00    -0.266 OA
HETATM    9  N5  UNL     1      13.839 -27.708  -3.611  1.00  0.00    -0.267 N 
ATOM     10  H5  UNL     1      13.426 -26.852  -3.241  1.00  0.00     0.190 HD
BRANCH   4  11
HETATM   11  O1  UNL     1      16.919 -29.587  -3.506  1.00  0.00    -0.356 OA
ATOM     12  H1  UNL     1      17.215 -29.541  -2.604  1.00  0.00     0.218 HD
ENDBRANCH   4  11
BRANCH   5  13
HETATM   13  C2  UNL     1      15.458 -31.276  -5.217  1.00  0.00     0.043 C 
HETATM   14  C1  UNL     1      15.441 -32.394  -4.191  1.00  0.00     0.010 C 
ENDBRANCH   5  13
BRANCH   7  15
HETATM   15  C20 UNL     1      11.752 -28.070  -4.696  1.00  0.00     0.183 C 
BRANCH  15  16
HETATM   16  C21 UNL     1      11.534 -26.767  -3.929  1.00  0.00     0.294 C 
BRANCH  16  17
HETATM   17  N7  UNL     1      10.347 -26.083  -4.314  1.00  0.00     0.089 N 
BRANCH  17  18
HETATM   18  C22 UNL     1      10.167 -26.072  -5.764  1.00  0.00     0.268 C 
HETATM   19  C23 UNL     1       9.385 -24.874  -6.177  1.00  0.00     0.037 C 
ENDBRANCH  17  18
BRANCH  17  20
HETATM   20  C24 UNL     1      10.328 -24.695  -3.836  1.00  0.00     0.268 C 
HETATM   21  C25 UNL     1      11.593 -24.285  -3.153  1.00  0.00     0.037 C 
ENDBRANCH  17  20
ENDBRANCH  16  17
ENDBRANCH  15  16
ENDBRANCH   7  15
ENDBRANCH   2   3
ENDBRANCH   1   2
BRANCH   1  22
HETATM   22  O2  UNL     1      16.284 -25.503  -1.396  1.00  0.00    -0.320 OA
ATOM     23  H2  UNL     1      15.800 -25.313  -0.601  1.00  0.00     0.222 HD
ENDBRANCH   1  22
BRANCH   1  24
HETATM   24  N2  UNL     1      17.710 -27.293  -0.928  1.00  0.00    -0.253 N 
ATOM     25  H2  UNL     1      17.708 -27.397   0.086  1.00  0.00     0.191 HD
BRANCH  24  26
HETATM   26  N3  UNL     1      18.802 -27.625  -1.703  1.00  0.00    -0.303 N 
HETATM   27  C7  UNL     1      19.983 -27.627  -1.364  1.00  0.00     0.033 C 
HETATM   28  C8  UNL     1      20.675 -27.299  -0.101  1.00  0.00     0.086 C 
HETATM   29  C19 UNL     1      21.098 -28.088  -2.283  1.00  0.00     0.327 C 
HETATM   30  C9  UNL     1      22.103 -27.885  -0.288  1.00  0.00     0.279 C 
HETATM   31  N4  UNL     1      21.819 -28.915  -1.252  1.00  0.00     0.098 N 
ATOM     32  H3  UNL     1      18.607 -27.900  -2.665  1.00  0.00     0.186 HD
BRANCH  31  33
HETATM   33  C10 UNL     1      22.956 -29.494  -1.940  1.00  0.00     0.223 C 
HETATM   34  C11 UNL     1      23.686 -30.504  -1.123  1.00  0.00     0.036 C 
HETATM   35  C12 UNL     1      25.146 -30.630  -1.374  1.00  0.00     0.002 C 
HETATM   36  C13 UNL     1      25.795 -29.725  -2.354  1.00  0.00     0.000 C 
HETATM   37  C14 UNL     1      25.611 -29.928  -3.787  1.00  0.00     0.000 C 
HETATM   38  C15 UNL     1      25.181 -31.260  -4.269  1.00  0.00     0.000 C 
HETATM   39  C16 UNL     1      23.792 -31.167  -4.872  1.00  0.00     0.000 C 
HETATM   40  C17 UNL     1      22.813 -31.352  -3.707  1.00  0.00     0.002 C 
HETATM   41  C18 UNL     1      22.302 -30.088  -3.179  1.00  0.00     0.036 C 
ENDBRANCH  31  33
ENDBRANCH  24  26
ENDBRANCH   1  24
TORSDOF 13
ENDMDL
MODEL 2
REMARK VINA RESULT: -8.961603184      1.987      4.221
REMARK  13 active torsions:
REMARK  status: ('A' for Active; 'I' for Inactive)
REMARK    1  A    between atoms: C2_2  and  C3_3 
REMARK    2  A    between atoms: C4_4  and  O1_5 
REMARK    3  A    between atoms: C5_7  and  N1_8 
REMARK    4  A    between atoms: N1_8  and  C6_9 
REMARK    5  A    between atoms: C6_9  and  O2_10 
REMARK    6  A    between atoms: C6_9  and  N2_12 
REMARK    7  A    between atoms: N2_12  and  N3_14 
REMARK    8  A    between atoms: N4_19  and  C10_20 
REMARK    9  A    between atoms: N6_32  and  C20_33 
REMARK   10  A    between atoms: C20_33  and  C21_34 
REMARK   11  A    between atoms: C21_34  and  N7_35 
REMARK   12  A    between atoms: N7_35  and  C22_36 
REMARK   13  A    between atoms: N7_35  and  C24_38 
ROOT
HETATM    1  C6  UNL     1      17.881 -25.699  -0.196  1.00  0.00     0.315 C 
ENDROOT
BRANCH   1   2
HETATM    2  N1  UNL     1      16.947 -26.115  -0.947  1.00  0.00    -0.341 NA
BRANCH   2   3
HETATM    3  C5  UNL     1      16.014 -26.509  -1.598  1.00  0.00     0.232 A 
HETATM    4  C4  UNL     1      14.752 -25.852  -1.517  1.00  0.00     0.137 A 
HETATM    5  C3  UNL     1      13.678 -26.211  -2.268  1.00  0.00     0.049 A 
HETATM    6  C26 UNL     1      13.855 -27.273  -3.145  1.00  0.00     0.271 A 
HETATM    7  N6  UNL     1      15.035 -27.904  -3.231  1.00  0.00    -0.253 N 
HETATM    8  O3  UNL     1      12.862 -27.611  -3.845  1.00  0.00    -0.266 OA
HETATM    9  N5  UNL     1      16.063 -27.545  -2.499  1.00  0.00    -0.267 N 
ATOM     10  H5  UNL     1      16.938 -28.058  -2.604  1.00  0.00     0.190 HD
BRANCH   4  11
HETATM   11  O1  UNL     1      14.647 -24.807  -0.621  1.00  0.00    -0.356 OA
ATOM     12  H1  UNL     1      14.987 -24.903   0.261  1.00  0.00     0.218 HD
ENDBRANCH   4  11
BRANCH   5  13
HETATM   13  C2  UNL     1      12.376 -25.493  -2.134  1.00  0.00     0.043 C 
HETATM   14  C1  UNL     1      12.345 -24.264  -3.022  1.00  0.00     0.010 C 
ENDBRANCH   5  13
BRANCH   7  15
HETATM   15  C20 UNL     1      15.188 -28.988  -4.176  1.00  0.00     0.183 C 
BRANCH  15  16
HETATM   16  C21 UNL     1      15.101 -30.265  -3.343  1.00  0.00     0.294 C 
BRANCH  16  17
HETATM   17  N7  UNL     1      14.499 -31.349  -4.041  1.00  0.00     0.089 N 
BRANCH  17  18
HETATM   18  C22 UNL     1      15.495 -32.212  -4.673  1.00  0.00     0.268 C 
HETATM   19  C23 UNL     1      16.619 -32.476  -3.733  1.00  0.00     0.037 C 
ENDBRANCH  17  18
BRANCH  17  20
HETATM   20  C24 UNL     1      13.562 -30.892  -5.075  1.00  0.00     0.268 C 
HETATM   21  C25 UNL     1      12.127 -31.045  -4.685  1.00  0.00     0.037 C 
ENDBRANCH  17  20
ENDBRANCH  16  17
ENDBRANCH  15  16
ENDBRANCH   7  15
ENDBRANCH   2   3
ENDBRANCH   1   2
BRANCH   1  22
HETATM   22  O2  UNL     1      17.853 -24.415   0.176  1.00  0.00    -0.320 OA
ATOM     23  H2  UNL     1      18.483 -23.827  -0.224  1.00  0.00     0.222 HD
ENDBRANCH   1  22
BRANCH   1  24
HETATM   24  N2  UNL     1      19.019 -26.433   0.350  1.00  0.00    -0.253 N 
ATOM     25  H2  UNL     1      19.096 -26.665   1.340  1.00  0.00     0.191 HD
BRANCH  24  26
HETATM   26  N3  UNL     1      19.982 -26.790  -0.570  1.00  0.00    -0.303 N 
HETATM   27  C7  UNL     1      21.088 -27.275  -0.340  1.00  0.00     0.033 C 
HETATM   28  C8  UNL     1      21.794 -27.644   0.903  1.00  0.00     0.086 C 
HETATM   29  C19 UNL     1      22.039 -27.702  -1.442  1.00  0.00     0.327 C 
HETATM   30  C9  UNL     1      22.972 -28.536   0.420  1.00  0.00     0.279 C 
HETATM   31  N4  UNL     1      22.419 -29.019  -0.818  1.00  0.00     0.098 N 
ATOM     32  H3  UNL     1      19.751 -26.633  -1.551  1.00  0.00     0.186 HD
BRANCH  31  33
HETATM   33  C10 UNL     1      23.344 -29.639  -1.746  1.00  0.00     0.223 C 
HETATM   34  C11 UNL     1      24.107 -30.770  -1.149  1.00  0.00     0.036 C 
HETATM   35  C12 UNL     1      25.474 -31.004  -1.683  1.00  0.00     0.002 C 
HETATM   36  C13 UNL     1      26.019 -30.084  -2.711  1.00  0.00     0.000 C 
HETATM   37  C14 UNL     1      25.554 -30.155  -4.092  1.00  0.00     0.000 C 
HETATM   38  C15 UNL     1      24.909 -31.400  -4.565  1.00  0.00     0.000 C 
HETATM   39  C16 UNL     1      23.449 -31.138  -4.883  1.00  0.00     0.000 C 
HETATM   40  C17 UNL     1      22.689 -31.328  -3.565  1.00  0.00     0.002 C 
HETATM   41  C18 UNL     1      22.415 -30.071  -2.871  1.00  0.00     0.036 C 
ENDBRANCH  31  33
ENDBRANCH  24  26
ENDBRANCH   1  24
TORSDOF 13
ENDMDL
MODEL 3
REMARK VINA RESULT: -8.934855614      1.535      1.975
REMARK  13 active torsions:
REMARK  status: ('A' for Active; 'I' for Inactive)
REMARK    1  A    between atoms: C2_2  and  C3_3 
REMARK    2  A    between atoms: C4_4  and  O1_5 
REMARK    3  A    between atoms: C5_7  and  N1_8 
REMARK    4  A    between atoms: N1_8  and  C6_9 
REMARK    5  A    between atoms: C6_9  and  O2_10 
REMARK    6  A    between atoms: C6_9  and  N2_12 
REMARK    7  A    between atoms: N2_12  and  N3_14 
REMARK    8  A    between atoms: N4_19  and  C10_20 
REMARK    9  A    between atoms: N6_32  and  C20_33 
REMARK   10  A    between atoms: C20_33  and  C21_34 
REMARK   11  A    between atoms: C21_34  and  N7_35 
REMARK   12  A    between atoms: N7_35  and  C22_36 
REMARK   13  A    between atoms: N7_35  and  C24_38 
ROOT
HETATM    1  C6  UNL     1      17.855 -25.557  -0.088  1.00  0.00     0.315 C 
ENDROOT
BRANCH   1   2
HETATM    2  N1  UNL     1      16.917 -25.896  -0.872  1.00  0.00    -0.341 NA
BRANCH   2   3
HETATM    3  C5  UNL     1      16.036 -26.289  -1.592  1.00  0.00     0.232 A 
HETATM    4  C4  UNL     1      16.313 -27.253  -2.606  1.00  0.00     0.137 A 
HETATM    5  C3  UNL     1      15.354 -27.780  -3.412  1.00  0.00     0.049 A 
HETATM    6  C26 UNL     1      14.054 -27.333  -3.212  1.00  0.00     0.271 A 
HETATM    7  N6  UNL     1      13.777 -26.425  -2.266  1.00  0.00    -0.253 N 
HETATM    8  O3  UNL     1      13.160 -27.818  -3.957  1.00  0.00    -0.266 OA
HETATM    9  N5  UNL     1      14.715 -25.926  -1.494  1.00  0.00    -0.267 N 
ATOM     10  H5  UNL     1      14.450 -25.238  -0.790  1.00  0.00     0.190 HD
BRANCH   4  11
HETATM   11  O1  UNL     1      17.628 -27.648  -2.751  1.00  0.00    -0.356 OA
ATOM     12  H1  UNL     1      18.025 -27.665  -3.614  1.00  0.00     0.218 HD
ENDBRANCH   4  11
BRANCH   5  13
HETATM   13  C2  UNL     1      15.703 -28.779  -4.464  1.00  0.00     0.043 C 
HETATM   14  C1  UNL     1      15.707 -30.184  -3.892  1.00  0.00     0.010 C 
ENDBRANCH   5  13
BRANCH   7  15
HETATM   15  C20 UNL     1      12.407 -26.006  -2.069  1.00  0.00     0.183 C 
BRANCH  15  16
HETATM   16  C21 UNL     1      12.254 -24.729  -2.893  1.00  0.00     0.294 C 
BRANCH  16  17
HETATM   17  N7  UNL     1      10.946 -24.561  -3.427  1.00  0.00     0.089 N 
BRANCH  17  18
HETATM   18  C22 UNL     1      10.427 -25.799  -4.002  1.00  0.00     0.268 C 
HETATM   19  C23 UNL     1      10.066 -25.592  -5.432  1.00  0.00     0.037 C 
ENDBRANCH  17  18
BRANCH  17  20
HETATM   20  C24 UNL     1      10.899 -23.518  -4.459  1.00  0.00     0.268 C 
HETATM   21  C25 UNL     1      11.999 -22.513  -4.338  1.00  0.00     0.037 C 
ENDBRANCH  17  20
ENDBRANCH  16  17
ENDBRANCH  15  16
ENDBRANCH   7  15
ENDBRANCH   2   3
ENDBRANCH   1   2
BRANCH   1  22
HETATM   22  O2  UNL     1      17.874 -24.293   0.346  1.00  0.00    -0.320 OA
ATOM     23  H2  UNL     1      18.436 -24.089   1.085  1.00  0.00     0.222 HD
ENDBRANCH   1  22
BRANCH   1  24
HETATM   24  N2  UNL     1      18.952 -26.364   0.437  1.00  0.00    -0.253 N 
ATOM     25  H2  UNL     1      19.014 -26.630   1.419  1.00  0.00     0.191 HD
BRANCH  24  26
HETATM   26  N3  UNL     1      19.899 -26.741  -0.492  1.00  0.00    -0.303 N 
HETATM   27  C7  UNL     1      21.016 -27.204  -0.272  1.00  0.00     0.033 C 
HETATM   28  C8  UNL     1      21.755 -27.520   0.967  1.00  0.00     0.086 C 
HETATM   29  C19 UNL     1      21.947 -27.658  -1.380  1.00  0.00     0.327 C 
HETATM   30  C9  UNL     1      22.933 -28.414   0.488  1.00  0.00     0.279 C 
HETATM   31  N4  UNL     1      22.359 -28.947  -0.719  1.00  0.00     0.098 N 
ATOM     32  H3  UNL     1      19.644 -26.622  -1.472  1.00  0.00     0.186 HD
BRANCH  31  33
HETATM   33  C10 UNL     1      23.271 -29.588  -1.647  1.00  0.00     0.223 C 
HETATM   34  C11 UNL     1      24.007 -30.737  -1.049  1.00  0.00     0.036 C 
HETATM   35  C12 UNL     1      25.369 -31.001  -1.581  1.00  0.00     0.002 C 
HETATM   36  C13 UNL     1      25.936 -30.094  -2.609  1.00  0.00     0.000 C 
HETATM   37  C14 UNL     1      25.471 -30.153  -3.990  1.00  0.00     0.000 C 
HETATM   38  C15 UNL     1      24.798 -31.384  -4.464  1.00  0.00     0.000 C 
HETATM   39  C16 UNL     1      23.345 -31.088  -4.783  1.00  0.00     0.000 C 
HETATM   40  C17 UNL     1      22.579 -31.261  -3.466  1.00  0.00     0.002 C 
HETATM   41  C18 UNL     1      22.334 -29.999  -2.773  1.00  0.00     0.036 C 
ENDBRANCH  31  33
ENDBRANCH  24  26
ENDBRANCH   1  24
TORSDOF 13
ENDMDL
MODEL 4
REMARK VINA RESULT: -8.788072837      1.805      4.415
REMARK  13 active torsions:
REMARK  status: ('A' for Active; 'I' for Inactive)
REMARK    1  A    between atoms: C2_2  and  C3_3 
REMARK    2  A    between atoms: C4_4  and  O1_5 
REMARK    3  A    between atoms: C5_7  and  N1_8 
REMARK    4  A    between atoms: N1_8  and  C6_9 
REMARK    5  A    between atoms: C6_9  and  O2_10 
REMARK    6  A    between atoms: C6_9  and  N2_12 
REMARK    7  A    between atoms: N2_12  and  N3_14 
REMARK    8  A    between atoms: N4_19  and  C10_20 
REMARK    9  A    between atoms: N6_32  and  C20_33 
REMARK   10  A    between atoms: C20_33  and  C21_34 
REMARK   11  A    between atoms: C21_34  and  N7_35 
REMARK   12  A    between atoms: N7_35  and  C22_36 
REMARK   13  A    between atoms: N7_35  and  C24_38 
ROOT
HETATM    1  C6  UNL     1      17.401 -26.106  -0.783  1.00  0.00     0.315 C 
ENDROOT
BRANCH   1   2
HETATM    2  N1  UNL     1      16.346 -26.349  -1.446  1.00  0.00    -0.341 NA
BRANCH   2   3
HETATM    3  C5  UNL     1      15.336 -26.642  -2.032  1.00  0.00     0.232 A 
HETATM    4  C4  UNL     1      14.155 -25.862  -1.862  1.00  0.00     0.137 A 
HETATM    5  C3  UNL     1      13.001 -26.105  -2.538  1.00  0.00     0.049 A 
HETATM    6  C26 UNL     1      13.009 -27.173  -3.426  1.00  0.00     0.271 A 
HETATM    7  N6  UNL     1      14.111 -27.918  -3.595  1.00  0.00    -0.253 N 
HETATM    8  O3  UNL     1      11.942 -27.403  -4.057  1.00  0.00    -0.266 OA
HETATM    9  N5  UNL     1      15.218 -27.670  -2.935  1.00  0.00    -0.267 N 
ATOM     10  H5  UNL     1      16.027 -28.268  -3.101  1.00  0.00     0.190 HD
BRANCH   4  11
HETATM   11  O1  UNL     1      14.218 -24.819  -0.960  1.00  0.00    -0.356 OA
ATOM     12  H1  UNL     1      15.037 -24.357  -0.827  1.00  0.00     0.218 HD
ENDBRANCH   4  11
BRANCH   5  13
HETATM   13  C2  UNL     1      11.791 -25.261  -2.314  1.00  0.00     0.043 C 
HETATM   14  C1  UNL     1      11.791 -24.061  -3.241  1.00  0.00     0.010 C 
ENDBRANCH   5  13
BRANCH   7  15
HETATM   15  C20 UNL     1      14.089 -29.004  -4.550  1.00  0.00     0.183 C 
BRANCH  15  16
HETATM   16  C21 UNL     1      15.411 -29.741  -4.353  1.00  0.00     0.294 C 
BRANCH  16  17
HETATM   17  N7  UNL     1      15.247 -31.059  -3.840  1.00  0.00     0.089 N 
BRANCH  17  18
HETATM   18  C22 UNL     1      16.187 -31.346  -2.758  1.00  0.00     0.268 C 
HETATM   19  C23 UNL     1      17.273 -30.328  -2.737  1.00  0.00     0.037 C 
ENDBRANCH  17  18
BRANCH  17  20
HETATM   20  C24 UNL     1      15.414 -32.082  -4.879  1.00  0.00     0.268 C 
HETATM   21  C25 UNL     1      16.058 -33.336  -4.379  1.00  0.00     0.037 C 
ENDBRANCH  17  20
ENDBRANCH  16  17
ENDBRANCH  15  16
ENDBRANCH   7  15
ENDBRANCH   2   3
ENDBRANCH   1   2
BRANCH   1  22
HETATM   22  O2  UNL     1      17.673 -24.829  -0.497  1.00  0.00    -0.320 OA
ATOM     23  H2  UNL     1      17.910 -24.257  -1.218  1.00  0.00     0.222 HD
ENDBRANCH   1  22
BRANCH   1  24
HETATM   24  N2  UNL     1      18.394 -27.039  -0.261  1.00  0.00    -0.253 N 
ATOM     25  H2  UNL     1      18.325 -27.446   0.671  1.00  0.00     0.191 HD
BRANCH  24  26
HETATM   26  N3  UNL     1      19.433 -27.330  -1.120  1.00  0.00    -0.303 N 
HETATM   27  C7  UNL     1      20.604 -27.559  -0.822  1.00  0.00     0.033 C 
HETATM   28  C8  UNL     1      21.331 -27.610   0.462  1.00  0.00     0.086 C 
HETATM   29  C19 UNL     1      21.649 -27.945  -1.851  1.00  0.00     0.327 C 
HETATM   30  C9  UNL     1      22.670 -28.319   0.112  1.00  0.00     0.279 C 
HETATM   31  N4  UNL     1      22.254 -29.065  -1.046  1.00  0.00     0.098 N 
ATOM     32  H3  UNL     1      19.205 -27.358  -2.113  1.00  0.00     0.186 HD
BRANCH  31  33
HETATM   33  C10 UNL     1      23.305 -29.620  -1.876  1.00  0.00     0.223 C 
HETATM   34  C11 UNL     1      24.089 -30.689  -1.195  1.00  0.00     0.036 C 
HETATM   35  C12 UNL     1      25.514 -30.823  -1.596  1.00  0.00     0.002 C 
HETATM   36  C13 UNL     1      26.084 -29.871  -2.581  1.00  0.00     0.000 C 
HETATM   37  C14 UNL     1      25.758 -29.984  -3.998  1.00  0.00     0.000 C 
HETATM   38  C15 UNL     1      25.253 -31.277  -4.513  1.00  0.00     0.000 C 
HETATM   39  C16 UNL     1      23.815 -31.126  -4.969  1.00  0.00     0.000 C 
HETATM   40  C17 UNL     1      22.950 -31.364  -3.726  1.00  0.00     0.002 C 
HETATM   41  C18 UNL     1      22.520 -30.127  -3.077  1.00  0.00     0.036 C 
ENDBRANCH  31  33
ENDBRANCH  24  26
ENDBRANCH   1  24
TORSDOF 13
ENDMDL
MODEL 5
REMARK VINA RESULT: -8.750463869      2.035      4.201
REMARK  13 active torsions:
REMARK  status: ('A' for Active; 'I' for Inactive)
REMARK    1  A    between atoms: C2_2  and  C3_3 
REMARK    2  A    between atoms: C4_4  and  O1_5 
REMARK    3  A    between atoms: C5_7  and  N1_8 
REMARK    4  A    between atoms: N1_8  and  C6_9 
REMARK    5  A    between atoms: C6_9  and  O2_10 
REMARK    6  A    between atoms: C6_9  and  N2_12 
REMARK    7  A    between atoms: N2_12  and  N3_14 
REMARK    8  A    between atoms: N4_19  and  C10_20 
REMARK    9  A    between atoms: N6_32  and  C20_33 
REMARK   10  A    between atoms: C20_33  and  C21_34 
REMARK   11  A    between atoms: C21_34  and  N7_35 
REMARK   12  A    between atoms: N7_35  and  C22_36 
REMARK   13  A    between atoms: N7_35  and  C24_38 
ROOT
HETATM    1  C6  UNL     1      17.964 -25.620  -0.160  1.00  0.00     0.315 C 
ENDROOT
BRANCH   1   2
HETATM    2  N1  UNL     1      17.052 -26.018  -0.947  1.00  0.00    -0.341 NA
BRANCH   2   3
HETATM    3  C5  UNL     1      16.147 -26.418  -1.632  1.00  0.00     0.232 A 
HETATM    4  C4  UNL     1      14.839 -25.870  -1.487  1.00  0.00     0.137 A 
HETATM    5  C3  UNL     1      13.789 -26.236  -2.268  1.00  0.00     0.049 A 
HETATM    6  C26 UNL     1      14.038 -27.194  -3.242  1.00  0.00     0.271 A 
HETATM    7  N6  UNL     1      15.261 -27.722  -3.390  1.00  0.00    -0.253 N 
HETATM    8  O3  UNL     1      13.068 -27.538  -3.971  1.00  0.00    -0.266 OA
HETATM    9  N5  UNL     1      16.266 -27.357  -2.628  1.00  0.00    -0.267 N 
ATOM     10  H5  UNL     1      17.176 -27.790  -2.782  1.00  0.00     0.190 HD
BRANCH   4  11
HETATM   11  O1  UNL     1      14.663 -24.925  -0.495  1.00  0.00    -0.356 OA
ATOM     12  H1  UNL     1      15.412 -24.451  -0.154  1.00  0.00     0.218 HD
ENDBRANCH   4  11
BRANCH   5  13
HETATM   13  C2  UNL     1      12.438 -25.635  -2.065  1.00  0.00     0.043 C 
HETATM   14  C1  UNL     1      12.284 -24.366  -2.881  1.00  0.00     0.010 C 
ENDBRANCH   5  13
BRANCH   7  15
HETATM   15  C20 UNL     1      15.488 -28.696  -4.434  1.00  0.00     0.183 C 
BRANCH  15  16
HETATM   16  C21 UNL     1      15.699 -30.023  -3.708  1.00  0.00     0.294 C 
BRANCH  16  17
HETATM   17  N7  UNL     1      14.860 -31.066  -4.193  1.00  0.00     0.089 N 
BRANCH  17  18
HETATM   18  C22 UNL     1      13.555 -31.068  -3.536  1.00  0.00     0.268 C 
HETATM   19  C23 UNL     1      12.468 -30.995  -4.551  1.00  0.00     0.037 C 
ENDBRANCH  17  18
BRANCH  17  20
HETATM   20  C24 UNL     1      15.467 -32.392  -4.018  1.00  0.00     0.268 C 
HETATM   21  C25 UNL     1      16.876 -32.338  -3.523  1.00  0.00     0.037 C 
ENDBRANCH  17  20
ENDBRANCH  16  17
ENDBRANCH  15  16
ENDBRANCH   7  15
ENDBRANCH   2   3
ENDBRANCH   1   2
BRANCH   1  22
HETATM   22  O2  UNL     1      17.918 -24.349   0.250  1.00  0.00    -0.320 OA
ATOM     23  H2  UNL     1      18.441 -24.110   1.006  1.00  0.00     0.222 HD
ENDBRANCH   1  22
BRANCH   1  24
HETATM   24  N2  UNL     1      19.094 -26.362   0.390  1.00  0.00    -0.253 N 
ATOM     25  H2  UNL     1      19.164 -26.595   1.380  1.00  0.00     0.191 HD
BRANCH  24  26
HETATM   26  N3  UNL     1      20.058 -26.728  -0.526  1.00  0.00    -0.303 N 
HETATM   27  C7  UNL     1      21.149 -27.243  -0.293  1.00  0.00     0.033 C 
HETATM   28  C8  UNL     1      21.833 -27.648   0.951  1.00  0.00     0.086 C 
HETATM   29  C19 UNL     1      22.101 -27.675  -1.392  1.00  0.00     0.327 C 
HETATM   30  C9  UNL     1      22.995 -28.560   0.466  1.00  0.00     0.279 C 
HETATM   31  N4  UNL     1      22.444 -29.010  -0.785  1.00  0.00     0.098 N 
ATOM     32  H3  UNL     1      19.841 -26.550  -1.506  1.00  0.00     0.186 HD
BRANCH  31  33
HETATM   33  C10 UNL     1      23.364 -29.637  -1.714  1.00  0.00     0.223 C 
HETATM   34  C11 UNL     1      24.120 -30.773  -1.116  1.00  0.00     0.036 C 
HETATM   35  C12 UNL     1      25.485 -31.016  -1.652  1.00  0.00     0.002 C 
HETATM   36  C13 UNL     1      26.034 -30.101  -2.682  1.00  0.00     0.000 C 
HETATM   37  C14 UNL     1      25.567 -30.170  -4.062  1.00  0.00     0.000 C 
HETATM   38  C15 UNL     1      24.913 -31.412  -4.532  1.00  0.00     0.000 C 
HETATM   39  C16 UNL     1      23.454 -31.141  -4.848  1.00  0.00     0.000 C 
HETATM   40  C17 UNL     1      22.695 -31.325  -3.529  1.00  0.00     0.002 C 
HETATM   41  C18 UNL     1      22.430 -30.065  -2.837  1.00  0.00     0.036 C 
ENDBRANCH  31  33
ENDBRANCH  24  26
ENDBRANCH   1  24
TORSDOF 13
ENDMDL
