MODEL 1
REMARK VINA RESULT: -6.157196626      0.000      0.000
REMARK  11 active torsions:
REMARK  status: ('A' for Active; 'I' for Inactive)
REMARK    1  A    between atoms: O1_2  and  C2_3 
REMARK    2  A    between atoms: C2_3  and  C3_4 
REMARK    3  A    between atoms: C3_4  and  C4_5 
REMARK    4  A    between atoms: C3_4  and  C5_8 
REMARK    5  A    between atoms: C3_4  and  C6_11 
REMARK    6  A    between atoms: C4_5  and  O2_6 
REMARK    7  A    between atoms: C5_8  and  O3_9 
REMARK    8  A    between atoms: C6_11  and  O4_12 
REMARK    9  A    between atoms: O4_12  and  C7_13 
REMARK   10  A    between atoms: C24_31  and  C25_32 
REMARK   11  A    between atoms: C28_36  and  N1_37 
ROOT
HETATM    1  C7  UNL     1      23.349 -27.563   2.116  1.00  0.00     0.133 C 
HETATM    2  C8  UNL     1      23.268 -27.958   0.695  1.00  0.00     0.025 C 
HETATM    3  C9  UNL     1      22.978 -26.558   0.128  1.00  0.00     0.008 C 
HETATM    4  C10 UNL     1      23.088 -26.638  -1.309  1.00  0.00     0.007 C 
HETATM    5  C11 UNL     1      24.578 -26.791  -1.639  1.00  0.00     0.011 C 
HETATM    6  C12 UNL     1      25.279 -27.829  -0.812  1.00  0.00    -0.029 C 
HETATM    7  C13 UNL     1      26.188 -27.046   0.160  1.00  0.00     0.016 C 
HETATM    8  C14 UNL     1      24.379 -28.659   0.037  1.00  0.00     0.005 C 
HETATM    9  C15 UNL     1      23.737 -29.834  -0.716  1.00  0.00     0.033 C 
HETATM   10  C16 UNL     1      24.440 -30.210  -1.937  1.00  0.00    -0.022 C 
HETATM   11  C17 UNL     1      25.518 -29.665  -2.412  1.00  0.00    -0.068 C 
HETATM   12  C18 UNL     1      26.154 -30.139  -3.676  1.00  0.00     0.113 C 
HETATM   13  C19 UNL     1      27.620 -30.256  -3.279  1.00  0.00     0.130 C 
HETATM   14  O5  UNL     1      28.452 -30.247  -4.138  1.00  0.00    -0.298 OA
HETATM   15  C20 UNL     1      27.853 -30.374  -1.819  1.00  0.00     0.079 C 
HETATM   16  C21 UNL     1      27.471 -29.095  -1.052  1.00  0.00     0.022 C 
HETATM   17  C22 UNL     1      26.210 -28.568  -1.716  1.00  0.00    -0.013 C 
HETATM   18  C23 UNL     1      26.726 -27.526  -2.735  1.00  0.00     0.021 C 
HETATM   19  C24 UNL     1      21.683 -26.325   0.810  1.00  0.00     0.025 C 
HETATM   20  C26 UNL     1      21.322 -24.882   0.843  1.00  0.00     0.020 C 
HETATM   21  C27 UNL     1      21.822 -24.299   2.120  1.00  0.00     0.034 C 
HETATM   22  C28 UNL     1      22.330 -25.428   2.972  1.00  0.00     0.191 C 
HETATM   23  C29 UNL     1      22.064 -26.708   2.255  1.00  0.00     0.061 C 
ENDROOT
BRANCH   1  24
HETATM   24  O4  UNL     1      23.345 -28.602   3.021  1.00  0.00    -0.384 OA
BRANCH  24  25
HETATM   25  C6  UNL     1      24.543 -28.620   3.718  1.00  0.00     0.184 C 
BRANCH  25  26
HETATM   26  C3  UNL     1      25.270 -29.921   3.615  1.00  0.00     0.045 C 
BRANCH  26  27
HETATM   27  C2  UNL     1      26.567 -29.791   2.888  1.00  0.00     0.183 C 
BRANCH  27  28
HETATM   28  O1  UNL     1      26.909 -30.991   2.287  1.00  0.00    -0.395 OA
HETATM   29  C1  UNL     1      28.277 -31.035   2.004  1.00  0.00     0.201 C 
ENDBRANCH  27  28
ENDBRANCH  26  27
BRANCH  26  30
HETATM   30  C4  UNL     1      24.424 -30.995   2.935  1.00  0.00     0.180 C 
BRANCH  30  31
HETATM   31  O2  UNL     1      24.782 -32.214   3.448  1.00  0.00    -0.400 OA
ATOM     32  H2  UNL     1      24.695 -32.863   2.760  1.00  0.00     0.209 HD
ENDBRANCH  30  31
ENDBRANCH  26  30
BRANCH  26  33
HETATM   33  C5  UNL     1      25.502 -30.423   5.038  1.00  0.00     0.180 C 
BRANCH  33  34
HETATM   34  O3  UNL     1      26.791 -30.936   5.175  1.00  0.00    -0.400 OA
ATOM     35  H3  UNL     1      26.869 -31.770   4.727  1.00  0.00     0.209 HD
ENDBRANCH  33  34
ENDBRANCH  26  33
ENDBRANCH  25  26
ENDBRANCH  24  25
ENDBRANCH   1  24
BRANCH  19  36
HETATM   36  C25 UNL     1      20.558 -27.120   0.347  1.00  0.00     0.241 C 
HETATM   37  O6  UNL     1      19.528 -27.345   0.936  1.00  0.00    -0.306 OA
ENDBRANCH  19  36
BRANCH  22  38
HETATM   38  N1  UNL     1      21.704 -25.338   4.260  1.00  0.00    -0.075 N 
ATOM     39  H13 UNL     1      20.806 -25.821   4.295  1.00  0.00     0.274 HD
ATOM     40  H12 UNL     1      22.186 -25.891   4.969  1.00  0.00     0.274 HD
ATOM     41  H11 UNL     1      21.630 -24.353   4.515  1.00  0.00     0.274 HD
ENDBRANCH  22  38
TORSDOF 11
ENDMDL
MODEL 2
REMARK VINA RESULT: -6.083845921      0.461      1.246
REMARK  11 active torsions:
REMARK  status: ('A' for Active; 'I' for Inactive)
REMARK    1  A    between atoms: O1_2  and  C2_3 
REMARK    2  A    between atoms: C2_3  and  C3_4 
REMARK    3  A    between atoms: C3_4  and  C4_5 
REMARK    4  A    between atoms: C3_4  and  C5_8 
REMARK    5  A    between atoms: C3_4  and  C6_11 
REMARK    6  A    between atoms: C4_5  and  O2_6 
REMARK    7  A    between atoms: C5_8  and  O3_9 
REMARK    8  A    between atoms: C6_11  and  O4_12 
REMARK    9  A    between atoms: O4_12  and  C7_13 
REMARK   10  A    between atoms: C24_31  and  C25_32 
REMARK   11  A    between atoms: C28_36  and  N1_37 
ROOT
HETATM    1  C7  UNL     1      23.431 -27.600   2.171  1.00  0.00     0.133 C 
HETATM    2  C8  UNL     1      23.320 -27.986   0.750  1.00  0.00     0.025 C 
HETATM    3  C9  UNL     1      23.021 -26.581   0.198  1.00  0.00     0.008 C 
HETATM    4  C10 UNL     1      23.100 -26.653  -1.242  1.00  0.00     0.007 C 
HETATM    5  C11 UNL     1      24.582 -26.806  -1.604  1.00  0.00     0.011 C 
HETATM    6  C12 UNL     1      25.299 -27.850  -0.798  1.00  0.00    -0.029 C 
HETATM    7  C13 UNL     1      26.230 -27.074   0.159  1.00  0.00     0.016 C 
HETATM    8  C14 UNL     1      24.416 -28.684   0.065  1.00  0.00     0.005 C 
HETATM    9  C15 UNL     1      23.757 -29.853  -0.682  1.00  0.00     0.033 C 
HETATM   10  C16 UNL     1      24.434 -30.223  -1.920  1.00  0.00    -0.022 C 
HETATM   11  C17 UNL     1      25.503 -29.676  -2.414  1.00  0.00    -0.068 C 
HETATM   12  C18 UNL     1      26.111 -30.143  -3.694  1.00  0.00     0.113 C 
HETATM   13  C19 UNL     1      27.585 -30.265  -3.329  1.00  0.00     0.130 C 
HETATM   14  O5  UNL     1      28.399 -30.252  -4.205  1.00  0.00    -0.298 OA
HETATM   15  C20 UNL     1      27.848 -30.392  -1.874  1.00  0.00     0.079 C 
HETATM   16  C21 UNL     1      27.484 -29.117  -1.092  1.00  0.00     0.022 C 
HETATM   17  C22 UNL     1      26.211 -28.584  -1.726  1.00  0.00    -0.013 C 
HETATM   18  C23 UNL     1      26.706 -27.537  -2.749  1.00  0.00     0.021 C 
HETATM   19  C24 UNL     1      21.741 -26.351   0.908  1.00  0.00     0.025 C 
HETATM   20  C26 UNL     1      21.382 -24.908   0.957  1.00  0.00     0.020 C 
HETATM   21  C27 UNL     1      21.910 -24.333   2.227  1.00  0.00     0.034 C 
HETATM   22  C28 UNL     1      22.433 -25.468   3.062  1.00  0.00     0.191 C 
HETATM   23  C29 UNL     1      22.152 -26.743   2.342  1.00  0.00     0.061 C 
ENDROOT
BRANCH   1  24
HETATM   24  O4  UNL     1      23.445 -28.644   3.070  1.00  0.00    -0.384 OA
BRANCH  24  25
HETATM   25  C6  UNL     1      24.659 -28.671   3.738  1.00  0.00     0.184 C 
BRANCH  25  26
HETATM   26  C3  UNL     1      25.382 -29.972   3.606  1.00  0.00     0.045 C 
BRANCH  26  27
HETATM   27  C2  UNL     1      25.889 -30.475   4.916  1.00  0.00     0.183 C 
BRANCH  27  28
HETATM   28  O1  UNL     1      27.064 -31.186   4.740  1.00  0.00    -0.395 OA
HETATM   29  C1  UNL     1      27.288 -32.054   5.813  1.00  0.00     0.201 C 
ENDBRANCH  27  28
ENDBRANCH  26  27
BRANCH  26  30
HETATM   30  C4  UNL     1      26.546 -29.878   2.623  1.00  0.00     0.180 C 
BRANCH  30  31
HETATM   31  O2  UNL     1      26.544 -31.007   1.845  1.00  0.00    -0.400 OA
ATOM     32  H2  UNL     1      27.079 -30.840   1.078  1.00  0.00     0.209 HD
ENDBRANCH  30  31
ENDBRANCH  26  30
BRANCH  26  33
HETATM   33  C5  UNL     1      24.405 -30.970   2.990  1.00  0.00     0.180 C 
BRANCH  33  34
HETATM   34  O3  UNL     1      24.716 -32.270   3.385  1.00  0.00    -0.400 OA
ATOM     35  H3  UNL     1      23.956 -32.697   3.763  1.00  0.00     0.209 HD
ENDBRANCH  33  34
ENDBRANCH  26  33
ENDBRANCH  25  26
ENDBRANCH  24  25
ENDBRANCH   1  24
BRANCH  19  36
HETATM   36  C25 UNL     1      20.605 -27.141   0.464  1.00  0.00     0.241 C 
HETATM   37  O6  UNL     1      19.501 -27.177   0.952  1.00  0.00    -0.306 OA
ENDBRANCH  19  36
BRANCH  22  38
HETATM   38  N1  UNL     1      21.835 -25.385   4.363  1.00  0.00    -0.075 N 
ATOM     39  H13 UNL     1      22.176 -26.108   4.998  1.00  0.00     0.274 HD
ATOM     40  H12 UNL     1      22.157 -24.574   4.891  1.00  0.00     0.274 HD
ATOM     41  H11 UNL     1      20.821 -25.405   4.253  1.00  0.00     0.274 HD
ENDBRANCH  22  38
TORSDOF 11
ENDMDL
MODEL 3
REMARK VINA RESULT: -5.937543915      2.971      5.947
REMARK  11 active torsions:
REMARK  status: ('A' for Active; 'I' for Inactive)
REMARK    1  A    between atoms: O1_2  and  C2_3 
REMARK    2  A    between atoms: C2_3  and  C3_4 
REMARK    3  A    between atoms: C3_4  and  C4_5 
REMARK    4  A    between atoms: C3_4  and  C5_8 
REMARK    5  A    between atoms: C3_4  and  C6_11 
REMARK    6  A    between atoms: C4_5  and  O2_6 
REMARK    7  A    between atoms: C5_8  and  O3_9 
REMARK    8  A    between atoms: C6_11  and  O4_12 
REMARK    9  A    between atoms: O4_12  and  C7_13 
REMARK   10  A    between atoms: C24_31  and  C25_32 
REMARK   11  A    between atoms: C28_36  and  N1_37 
ROOT
HETATM    1  C7  UNL     1      26.628 -26.749   2.113  1.00  0.00     0.133 C 
HETATM    2  C8  UNL     1      27.171 -27.486   0.954  1.00  0.00     0.025 C 
HETATM    3  C9  UNL     1      28.016 -28.494   1.753  1.00  0.00     0.008 C 
HETATM    4  C10 UNL     1      28.479 -29.502   0.830  1.00  0.00     0.007 C 
HETATM    5  C11 UNL     1      27.266 -30.361   0.454  1.00  0.00     0.011 C 
HETATM    6  C12 UNL     1      26.048 -29.564   0.086  1.00  0.00    -0.029 C 
HETATM    7  C13 UNL     1      25.059 -29.743   1.258  1.00  0.00     0.016 C 
HETATM    8  C14 UNL     1      26.281 -28.097  -0.042  1.00  0.00     0.005 C 
HETATM    9  C15 UNL     1      26.846 -27.684  -1.409  1.00  0.00     0.033 C 
HETATM   10  C16 UNL     1      26.625 -28.667  -2.464  1.00  0.00    -0.022 C 
HETATM   11  C17 UNL     1      26.011 -29.804  -2.349  1.00  0.00    -0.068 C 
HETATM   12  C18 UNL     1      25.841 -30.732  -3.505  1.00  0.00     0.113 C 
HETATM   13  C19 UNL     1      24.365 -31.094  -3.419  1.00  0.00     0.130 C 
HETATM   14  O5  UNL     1      23.984 -32.093  -3.954  1.00  0.00    -0.298 OA
HETATM   15  C20 UNL     1      23.540 -30.127  -2.653  1.00  0.00     0.079 C 
HETATM   16  C21 UNL     1      23.895 -30.098  -1.156  1.00  0.00     0.022 C 
HETATM   17  C22 UNL     1      25.405 -30.240  -1.080  1.00  0.00    -0.013 C 
HETATM   18  C23 UNL     1      25.633 -31.754  -0.869  1.00  0.00     0.021 C 
HETATM   19  C24 UNL     1      28.937 -27.526   2.394  1.00  0.00     0.025 C 
HETATM   20  C26 UNL     1      29.612 -28.105   3.586  1.00  0.00     0.020 C 
HETATM   21  C27 UNL     1      28.808 -27.770   4.795  1.00  0.00     0.034 C 
HETATM   22  C28 UNL     1      27.727 -26.814   4.376  1.00  0.00     0.191 C 
HETATM   23  C29 UNL     1      27.919 -26.498   2.931  1.00  0.00     0.061 C 
ENDROOT
BRANCH   1  24
HETATM   24  O4  UNL     1      25.998 -25.560   1.817  1.00  0.00    -0.384 OA
BRANCH  24  25
HETATM   25  C6  UNL     1      24.669 -25.624   2.207  1.00  0.00     0.184 C 
BRANCH  25  26
HETATM   26  C3  UNL     1      23.709 -25.388   1.087  1.00  0.00     0.045 C 
BRANCH  26  27
HETATM   27  C2  UNL     1      22.970 -26.627   0.702  1.00  0.00     0.183 C 
BRANCH  27  28
HETATM   28  O1  UNL     1      22.777 -26.669  -0.669  1.00  0.00    -0.395 OA
HETATM   29  C1  UNL     1      21.535 -27.230  -0.980  1.00  0.00     0.201 C 
ENDBRANCH  27  28
ENDBRANCH  26  27
BRANCH  26  30
HETATM   30  C4  UNL     1      24.404 -24.818  -0.147  1.00  0.00     0.180 C 
BRANCH  30  31
HETATM   31  O2  UNL     1      24.556 -23.467   0.029  1.00  0.00    -0.400 OA
ATOM     32  H2  UNL     1      24.833 -23.088  -0.796  1.00  0.00     0.209 HD
ENDBRANCH  30  31
ENDBRANCH  26  30
BRANCH  26  33
HETATM   33  C5  UNL     1      22.736 -24.305   1.547  1.00  0.00     0.180 C 
BRANCH  33  34
HETATM   34  O3  UNL     1      21.704 -24.147   0.624  1.00  0.00    -0.400 OA
ATOM     35  H3  UNL     1      20.873 -24.031   1.067  1.00  0.00     0.209 HD
ENDBRANCH  33  34
ENDBRANCH  26  33
ENDBRANCH  25  26
ENDBRANCH  24  25
ENDBRANCH   1  24
BRANCH  19  36
HETATM   36  C25 UNL     1      29.907 -26.883   1.523  1.00  0.00     0.241 C 
HETATM   37  O6  UNL     1      30.427 -25.805   1.676  1.00  0.00    -0.306 OA
ENDBRANCH  19  36
BRANCH  22  38
HETATM   38  N1  UNL     1      27.779 -25.667   5.238  1.00  0.00    -0.075 N 
ATOM     39  H13 UNL     1      28.480 -25.761   5.973  1.00  0.00     0.274 HD
ATOM     40  H12 UNL     1      28.170 -24.847   4.775  1.00  0.00     0.274 HD
ATOM     41  H11 UNL     1      26.843 -25.500   5.607  1.00  0.00     0.274 HD
ENDBRANCH  22  38
TORSDOF 11
ENDMDL
MODEL 4
REMARK VINA RESULT: -5.929821730      2.531      6.484
REMARK  11 active torsions:
REMARK  status: ('A' for Active; 'I' for Inactive)
REMARK    1  A    between atoms: O1_2  and  C2_3 
REMARK    2  A    between atoms: C2_3  and  C3_4 
REMARK    3  A    between atoms: C3_4  and  C4_5 
REMARK    4  A    between atoms: C3_4  and  C5_8 
REMARK    5  A    between atoms: C3_4  and  C6_11 
REMARK    6  A    between atoms: C4_5  and  O2_6 
REMARK    7  A    between atoms: C5_8  and  O3_9 
REMARK    8  A    between atoms: C6_11  and  O4_12 
REMARK    9  A    between atoms: O4_12  and  C7_13 
REMARK   10  A    between atoms: C24_31  and  C25_32 
REMARK   11  A    between atoms: C28_36  and  N1_37 
ROOT
HETATM    1  C7  UNL     1      23.627 -28.175   0.052  1.00  0.00     0.133 C 
HETATM    2  C8  UNL     1      23.233 -27.070   0.950  1.00  0.00     0.025 C 
HETATM    3  C9  UNL     1      23.583 -25.918  -0.007  1.00  0.00     0.008 C 
HETATM    4  C10 UNL     1      23.058 -24.701   0.565  1.00  0.00     0.007 C 
HETATM    5  C11 UNL     1      21.533 -24.756   0.420  1.00  0.00     0.011 C 
HETATM    6  C12 UNL     1      20.929 -26.063   0.848  1.00  0.00    -0.029 C 
HETATM    7  C13 UNL     1      20.479 -26.762  -0.454  1.00  0.00     0.016 C 
HETATM    8  C14 UNL     1      21.879 -26.997   1.515  1.00  0.00     0.005 C 
HETATM    9  C15 UNL     1      22.072 -26.708   3.011  1.00  0.00     0.033 C 
HETATM   10  C16 UNL     1      20.998 -25.921   3.606  1.00  0.00    -0.022 C 
HETATM   11  C17 UNL     1      19.938 -25.474   3.005  1.00  0.00    -0.068 C 
HETATM   12  C18 UNL     1      18.899 -24.677   3.721  1.00  0.00     0.113 C 
HETATM   13  C19 UNL     1      17.608 -25.356   3.282  1.00  0.00     0.130 C 
HETATM   14  O5  UNL     1      16.581 -24.750   3.366  1.00  0.00    -0.298 OA
HETATM   15  C20 UNL     1      17.783 -26.743   2.784  1.00  0.00     0.079 C 
HETATM   16  C21 UNL     1      18.578 -26.804   1.468  1.00  0.00     0.022 C 
HETATM   17  C22 UNL     1      19.668 -25.754   1.586  1.00  0.00    -0.013 C 
HETATM   18  C23 UNL     1      19.070 -24.506   0.896  1.00  0.00     0.021 C 
HETATM   19  C24 UNL     1      25.038 -26.176  -0.116  1.00  0.00     0.025 C 
HETATM   20  C26 UNL     1      25.633 -25.523  -1.312  1.00  0.00     0.020 C 
HETATM   21  C27 UNL     1      25.622 -26.500  -2.438  1.00  0.00     0.034 C 
HETATM   22  C28 UNL     1      25.194 -27.831  -1.887  1.00  0.00     0.191 C 
HETATM   23  C29 UNL     1      25.023 -27.691  -0.412  1.00  0.00     0.061 C 
ENDROOT
BRANCH   1  24
HETATM   24  O4  UNL     1      23.711 -29.417   0.642  1.00  0.00    -0.384 OA
BRANCH  24  25
HETATM   25  C6  UNL     1      24.520 -29.347   1.767  1.00  0.00     0.184 C 
BRANCH  25  26
HETATM   26  C3  UNL     1      25.348 -30.571   1.980  1.00  0.00     0.045 C 
BRANCH  26  27
HETATM   27  C2  UNL     1      26.776 -30.247   2.272  1.00  0.00     0.183 C 
BRANCH  27  28
HETATM   28  O1  UNL     1      27.517 -31.408   2.417  1.00  0.00    -0.395 OA
HETATM   29  C1  UNL     1      28.861 -31.183   2.109  1.00  0.00     0.201 C 
ENDBRANCH  27  28
ENDBRANCH  26  27
BRANCH  26  30
HETATM   30  C4  UNL     1      25.287 -31.515   0.781  1.00  0.00     0.180 C 
BRANCH  30  31
HETATM   31  O2  UNL     1      26.115 -31.025  -0.195  1.00  0.00    -0.400 OA
ATOM     32  H2  UNL     1      26.674 -31.733  -0.494  1.00  0.00     0.209 HD
ENDBRANCH  30  31
ENDBRANCH  26  30
BRANCH  26  33
HETATM   33  C5  UNL     1      24.725 -31.342   3.141  1.00  0.00     0.180 C 
BRANCH  33  34
HETATM   34  O3  UNL     1      24.719 -32.710   2.876  1.00  0.00    -0.400 OA
ATOM     35  H3  UNL     1      23.971 -33.128   3.286  1.00  0.00     0.209 HD
ENDBRANCH  33  34
ENDBRANCH  26  33
ENDBRANCH  25  26
ENDBRANCH  24  25
ENDBRANCH   1  24
BRANCH  19  36
HETATM   36  C25 UNL     1      25.834 -25.892   1.067  1.00  0.00     0.241 C 
HETATM   37  O6  UNL     1      26.954 -26.274   1.305  1.00  0.00    -0.306 OA
ENDBRANCH  19  36
BRANCH  22  38
HETATM   38  N1  UNL     1      26.164 -28.814  -2.273  1.00  0.00    -0.075 N 
ATOM     39  H13 UNL     1      25.738 -29.652  -2.670  1.00  0.00     0.274 HD
ATOM     40  H12 UNL     1      26.704 -28.532  -3.092  1.00  0.00     0.274 HD
ATOM     41  H11 UNL     1      26.754 -29.019  -1.466  1.00  0.00     0.274 HD
ENDBRANCH  22  38
TORSDOF 11
ENDMDL
MODEL 5
REMARK VINA RESULT: -5.902546486      1.549      2.811
REMARK  11 active torsions:
REMARK  status: ('A' for Active; 'I' for Inactive)
REMARK    1  A    between atoms: O1_2  and  C2_3 
REMARK    2  A    between atoms: C2_3  and  C3_4 
REMARK    3  A    between atoms: C3_4  and  C4_5 
REMARK    4  A    between atoms: C3_4  and  C5_8 
REMARK    5  A    between atoms: C3_4  and  C6_11 
REMARK    6  A    between atoms: C4_5  and  O2_6 
REMARK    7  A    between atoms: C5_8  and  O3_9 
REMARK    8  A    between atoms: C6_11  and  O4_12 
REMARK    9  A    between atoms: O4_12  and  C7_13 
REMARK   10  A    between atoms: C24_31  and  C25_32 
REMARK   11  A    between atoms: C28_36  and  N1_37 
ROOT
HETATM    1  C7  UNL     1      22.983 -27.438   1.873  1.00  0.00     0.133 C 
HETATM    2  C8  UNL     1      23.020 -27.989   0.504  1.00  0.00     0.025 C 
HETATM    3  C9  UNL     1      22.632 -26.694  -0.230  1.00  0.00     0.008 C 
HETATM    4  C10 UNL     1      22.830 -26.917  -1.642  1.00  0.00     0.007 C 
HETATM    5  C11 UNL     1      24.344 -26.956  -1.885  1.00  0.00     0.011 C 
HETATM    6  C12 UNL     1      25.092 -27.824  -0.915  1.00  0.00    -0.029 C 
HETATM    7  C13 UNL     1      25.867 -26.854   0.003  1.00  0.00     0.016 C 
HETATM    8  C14 UNL     1      24.227 -28.643  -0.020  1.00  0.00     0.005 C 
HETATM    9  C15 UNL     1      23.743 -29.950  -0.665  1.00  0.00     0.033 C 
HETATM   10  C16 UNL     1      24.546 -30.383  -1.802  1.00  0.00    -0.022 C 
HETATM   11  C17 UNL     1      25.593 -29.788  -2.285  1.00  0.00    -0.068 C 
HETATM   12  C18 UNL     1      26.341 -30.329  -3.457  1.00  0.00     0.113 C 
HETATM   13  C19 UNL     1      27.787 -30.256  -2.983  1.00  0.00     0.130 C 
HETATM   14  O5  UNL     1      28.662 -30.257  -3.799  1.00  0.00    -0.298 OA
HETATM   15  C20 UNL     1      27.947 -30.192  -1.509  1.00  0.00     0.079 C 
HETATM   16  C21 UNL     1      27.403 -28.883  -0.910  1.00  0.00     0.022 C 
HETATM   17  C22 UNL     1      26.138 -28.558  -1.686  1.00  0.00    -0.013 C 
HETATM   18  C23 UNL     1      26.610 -27.586  -2.791  1.00  0.00     0.021 C 
HETATM   19  C24 UNL     1      21.285 -26.519   0.361  1.00  0.00     0.025 C 
HETATM   20  C26 UNL     1      20.788 -25.125   0.214  1.00  0.00     0.020 C 
HETATM   21  C27 UNL     1      21.158 -24.361   1.439  1.00  0.00     0.034 C 
HETATM   22  C28 UNL     1      21.720 -25.335   2.436  1.00  0.00     0.191 C 
HETATM   23  C29 UNL     1      21.618 -26.705   1.856  1.00  0.00     0.061 C 
ENDROOT
BRANCH   1  24
HETATM   24  O4  UNL     1      23.025 -28.368   2.888  1.00  0.00    -0.384 OA
BRANCH  24  25
HETATM   25  C6  UNL     1      23.589 -27.801   4.020  1.00  0.00     0.184 C 
BRANCH  25  26
HETATM   26  C3  UNL     1      23.008 -28.316   5.296  1.00  0.00     0.045 C 
BRANCH  26  27
HETATM   27  C2  UNL     1      21.626 -28.850   5.115  1.00  0.00     0.183 C 
BRANCH  27  28
HETATM   28  O1  UNL     1      20.700 -27.821   5.149  1.00  0.00    -0.395 OA
HETATM   29  C1  UNL     1      19.468 -28.242   4.640  1.00  0.00     0.201 C 
ENDBRANCH  27  28
ENDBRANCH  26  27
BRANCH  26  30
HETATM   30  C4  UNL     1      22.990 -27.247   6.386  1.00  0.00     0.180 C 
BRANCH  30  31
HETATM   31  O2  UNL     1      22.938 -26.018   5.783  1.00  0.00    -0.400 OA
ATOM     32  H2  UNL     1      23.656 -25.959   5.164  1.00  0.00     0.209 HD
ENDBRANCH  30  31
ENDBRANCH  26  30
BRANCH  26  33
HETATM   33  C5  UNL     1      23.942 -29.409   5.809  1.00  0.00     0.180 C 
BRANCH  33  34
HETATM   34  O3  UNL     1      24.315 -30.264   4.773  1.00  0.00    -0.400 OA
ATOM     35  H3  UNL     1      23.575 -30.785   4.486  1.00  0.00     0.209 HD
ENDBRANCH  33  34
ENDBRANCH  26  33
ENDBRANCH  25  26
ENDBRANCH  24  25
ENDBRANCH   1  24
BRANCH  19  36
HETATM   36  C25 UNL     1      20.267 -27.468  -0.060  1.00  0.00     0.241 C 
HETATM   37  O6  UNL     1      19.199 -27.676   0.462  1.00  0.00    -0.306 OA
ENDBRANCH  19  36
BRANCH  22  38
HETATM   38  N1  UNL     1      21.017 -25.170   3.676  1.00  0.00    -0.075 N 
ATOM     39  H13 UNL     1      21.638 -24.929   4.449  1.00  0.00     0.274 HD
ATOM     40  H12 UNL     1      20.442 -24.328   3.691  1.00  0.00     0.274 HD
ATOM     41  H11 UNL     1      20.478 -26.017   3.855  1.00  0.00     0.274 HD
ENDBRANCH  22  38
TORSDOF 11
ENDMDL
