MODEL 1
REMARK VINA RESULT: -6.374697260      0.000      0.000
REMARK  11 active torsions:
REMARK  status: ('A' for Active; 'I' for Inactive)
REMARK    1  A    between atoms: C9_10  and  C10_11 
REMARK    2  A    between atoms: C10_11  and  O2_12 
REMARK    3  A    between atoms: C10_11  and  C11_14 
REMARK    4  A    between atoms: C11_14  and  C12_15 
REMARK    5  A    between atoms: C12_15  and  C13_16 
REMARK    6  A    between atoms: C13_16  and  C14_17 
REMARK    7  A    between atoms: C14_17  and  O3_20 
REMARK    8  A    between atoms: C17_22  and  O4_23 
REMARK    9  A    between atoms: O4_23  and  C18_24 
REMARK   10  A    between atoms: C18_24  and  C19_26 
REMARK   11  A    between atoms: C19_26  and  N1_27 
ROOT
HETATM    1  C1  UNL     1      23.611 -22.100   3.502  1.00  0.00     0.020 C 
HETATM    2  C2  UNL     1      23.613 -23.514   2.901  1.00  0.00     0.074 C 
HETATM    3  C3  UNL     1      22.340 -24.151   3.304  1.00  0.00     0.027 C 
HETATM    4  C4  UNL     1      22.091 -25.475   2.574  1.00  0.00     0.067 C 
HETATM    5  C5  UNL     1      23.443 -26.093   2.484  1.00  0.00     0.132 C 
HETATM    6  O1  UNL     1      23.949 -26.431   3.567  1.00  0.00    -0.298 OA
HETATM    7  C6  UNL     1      24.234 -26.347   1.296  1.00  0.00     0.090 C 
HETATM    8  C7  UNL     1      23.311 -26.413   0.092  1.00  0.00    -0.008 C 
HETATM    9  C8  UNL     1      24.242 -26.171  -1.050  1.00  0.00     0.018 C 
HETATM   10  C9  UNL     1      22.506 -27.637   0.106  1.00  0.00     0.055 C 
HETATM   11  C17 UNL     1      20.997 -27.406  -0.088  1.00  0.00     0.147 C 
HETATM   12  C22 UNL     1      20.443 -26.394   0.873  1.00  0.00    -0.010 C 
HETATM   13  C23 UNL     1      19.930 -27.033   2.155  1.00  0.00     0.018 C 
HETATM   14  C24 UNL     1      19.139 -25.863   0.258  1.00  0.00     0.018 C 
HETATM   15  C25 UNL     1      21.398 -25.320   1.275  1.00  0.00    -0.003 C 
HETATM   16  C26 UNL     1      20.599 -24.010   1.284  1.00  0.00     0.019 C 
HETATM   17  C27 UNL     1      22.452 -25.136   0.213  1.00  0.00     0.103 C 
HETATM   18  N2  UNL     1      23.256 -23.968   0.364  1.00  0.00    -0.355 N 
ATOM     19  H2  UNL     1      23.399 -23.456  -0.507  1.00  0.00     0.162 HD
HETATM   20  C28 UNL     1      23.902 -23.369   1.493  1.00  0.00     0.221 C 
HETATM   21  O6  UNL     1      24.858 -22.607   1.219  1.00  0.00    -0.273 OA
ENDROOT
BRANCH  10  22
HETATM   22  C10 UNL     1      22.870 -28.816  -0.698  1.00  0.00     0.125 C 
BRANCH  22  23
HETATM   23  O2  UNL     1      23.101 -28.619  -2.041  1.00  0.00    -0.395 OA
ATOM     24  H2  UNL     1      23.890 -29.000  -2.409  1.00  0.00     0.210 HD
ENDBRANCH  22  23
BRANCH  22  25
HETATM   25  C11 UNL     1      24.042 -29.635  -0.198  1.00  0.00     0.032 C 
BRANCH  25  26
HETATM   26  C12 UNL     1      24.539 -30.590  -1.264  1.00  0.00     0.006 C 
BRANCH  26  27
HETATM   27  C13 UNL     1      26.017 -30.452  -1.486  1.00  0.00     0.037 C 
BRANCH  27  28
HETATM   28  C14 UNL     1      26.297 -29.975  -2.888  1.00  0.00     0.051 C 
HETATM   29  C15 UNL     1      25.604 -30.760  -3.954  1.00  0.00     0.045 C 
HETATM   30  C16 UNL     1      27.780 -30.010  -3.172  1.00  0.00     0.045 C 
BRANCH  28  31
HETATM   31  O3  UNL     1      25.880 -28.632  -2.947  1.00  0.00    -0.391 OA
ATOM     32  H3  UNL     1      26.226 -28.275  -3.757  1.00  0.00     0.210 HD
ENDBRANCH  28  31
ENDBRANCH  27  28
ENDBRANCH  26  27
ENDBRANCH  25  26
ENDBRANCH  22  25
ENDBRANCH  10  22
BRANCH  11  33
HETATM   33  O4  UNL     1      20.557 -27.373  -1.367  1.00  0.00    -0.313 OA
BRANCH  33  34
HETATM   34  C18 UNL     1      19.830 -28.183  -2.148  1.00  0.00     0.287 C 
HETATM   35  O5  UNL     1      20.414 -28.510  -3.199  1.00  0.00    -0.263 OA
BRANCH  34  36
HETATM   36  C19 UNL     1      18.474 -28.689  -1.877  1.00  0.00     0.381 C 
BRANCH  36  37
HETATM   37  N1  UNL     1      17.501 -28.255  -2.827  1.00  0.00     0.089 N 
HETATM   38  C20 UNL     1      16.880 -26.998  -2.553  1.00  0.00     0.310 C 
HETATM   39  C21 UNL     1      16.525 -29.259  -3.153  1.00  0.00     0.310 C 
ENDBRANCH  36  37
ENDBRANCH  34  36
ENDBRANCH  33  34
ENDBRANCH  11  33
TORSDOF 11
ENDMDL
MODEL 2
REMARK VINA RESULT: -6.248177096      1.440      1.806
REMARK  11 active torsions:
REMARK  status: ('A' for Active; 'I' for Inactive)
REMARK    1  A    between atoms: C9_10  and  C10_11 
REMARK    2  A    between atoms: C10_11  and  O2_12 
REMARK    3  A    between atoms: C10_11  and  C11_14 
REMARK    4  A    between atoms: C11_14  and  C12_15 
REMARK    5  A    between atoms: C12_15  and  C13_16 
REMARK    6  A    between atoms: C13_16  and  C14_17 
REMARK    7  A    between atoms: C14_17  and  O3_20 
REMARK    8  A    between atoms: C17_22  and  O4_23 
REMARK    9  A    between atoms: O4_23  and  C18_24 
REMARK   10  A    between atoms: C18_24  and  C19_26 
REMARK   11  A    between atoms: C19_26  and  N1_27 
ROOT
HETATM    1  C1  UNL     1      23.782 -23.541   3.250  1.00  0.00     0.020 C 
HETATM    2  C2  UNL     1      23.447 -24.813   2.455  1.00  0.00     0.074 C 
HETATM    3  C3  UNL     1      22.161 -25.320   2.983  1.00  0.00     0.027 C 
HETATM    4  C4  UNL     1      21.577 -26.444   2.122  1.00  0.00     0.067 C 
HETATM    5  C5  UNL     1      22.772 -27.227   1.699  1.00  0.00     0.132 C 
HETATM    6  O1  UNL     1      23.373 -27.820   2.611  1.00  0.00    -0.298 OA
HETATM    7  C6  UNL     1      23.314 -27.381   0.363  1.00  0.00     0.090 C 
HETATM    8  C7  UNL     1      22.219 -27.101  -0.651  1.00  0.00    -0.008 C 
HETATM    9  C8  UNL     1      22.990 -26.800  -1.893  1.00  0.00     0.018 C 
HETATM   10  C9  UNL     1      21.226 -28.178  -0.673  1.00  0.00     0.055 C 
HETATM   11  C17 UNL     1      19.769 -27.699  -0.555  1.00  0.00     0.147 C 
HETATM   12  C22 UNL     1      19.553 -26.802   0.629  1.00  0.00    -0.010 C 
HETATM   13  C23 UNL     1      19.141 -27.575   1.874  1.00  0.00     0.018 C 
HETATM   14  C24 UNL     1      18.281 -25.988   0.346  1.00  0.00     0.018 C 
HETATM   15  C25 UNL     1      20.730 -25.965   1.007  1.00  0.00    -0.003 C 
HETATM   16  C26 UNL     1      20.180 -24.575   1.353  1.00  0.00     0.019 C 
HETATM   17  C27 UNL     1      21.623 -25.753  -0.189  1.00  0.00     0.103 C 
HETATM   18  N2  UNL     1      22.630 -24.759  -0.015  1.00  0.00    -0.355 N 
ATOM     19  H2  UNL     1      22.724 -24.129  -0.812  1.00  0.00     0.162 HD
HETATM   20  C28 UNL     1      23.536 -24.468   1.056  1.00  0.00     0.221 C 
HETATM   21  O6  UNL     1      24.556 -23.817   0.729  1.00  0.00    -0.273 OA
ENDROOT
BRANCH  10  22
HETATM   22  C10 UNL     1      21.252 -29.237  -1.695  1.00  0.00     0.125 C 
BRANCH  22  23
HETATM   23  O2  UNL     1      21.135 -28.850  -3.012  1.00  0.00    -0.395 OA
ATOM     24  H2  UNL     1      20.259 -28.808  -3.378  1.00  0.00     0.210 HD
ENDBRANCH  22  23
BRANCH  22  25
HETATM   25  C11 UNL     1      22.435 -30.185  -1.651  1.00  0.00     0.032 C 
BRANCH  25  26
HETATM   26  C12 UNL     1      23.129 -30.257  -2.996  1.00  0.00     0.006 C 
BRANCH  26  27
HETATM   27  C13 UNL     1      24.255 -31.251  -2.985  1.00  0.00     0.037 C 
BRANCH  27  28
HETATM   28  C14 UNL     1      25.583 -30.540  -2.975  1.00  0.00     0.051 C 
HETATM   29  C15 UNL     1      25.491 -29.066  -2.750  1.00  0.00     0.045 C 
HETATM   30  C16 UNL     1      26.314 -30.768  -4.277  1.00  0.00     0.045 C 
BRANCH  28  31
HETATM   31  O3  UNL     1      26.346 -31.126  -1.948  1.00  0.00    -0.391 OA
ATOM     32  H3  UNL     1      26.532 -30.437  -1.320  1.00  0.00     0.210 HD
ENDBRANCH  28  31
ENDBRANCH  27  28
ENDBRANCH  26  27
ENDBRANCH  25  26
ENDBRANCH  22  25
ENDBRANCH  10  22
BRANCH  11  33
HETATM   33  O4  UNL     1      19.148 -27.380  -1.715  1.00  0.00    -0.313 OA
BRANCH  33  34
HETATM   34  C18 UNL     1      18.092 -27.847  -2.393  1.00  0.00     0.287 C 
HETATM   35  O5  UNL     1      18.025 -29.091  -2.406  1.00  0.00    -0.263 OA
BRANCH  34  36
HETATM   36  C19 UNL     1      17.065 -27.051  -3.085  1.00  0.00     0.381 C 
BRANCH  36  37
HETATM   37  N1  UNL     1      15.755 -27.213  -2.542  1.00  0.00     0.089 N 
HETATM   38  C20 UNL     1      14.783 -27.784  -3.420  1.00  0.00     0.310 C 
HETATM   39  C21 UNL     1      15.246 -26.032  -1.899  1.00  0.00     0.310 C 
ENDBRANCH  36  37
ENDBRANCH  34  36
ENDBRANCH  33  34
ENDBRANCH  11  33
TORSDOF 11
ENDMDL
MODEL 3
REMARK VINA RESULT: -6.230364793      2.528      5.977
REMARK  11 active torsions:
REMARK  status: ('A' for Active; 'I' for Inactive)
REMARK    1  A    between atoms: C9_10  and  C10_11 
REMARK    2  A    between atoms: C10_11  and  O2_12 
REMARK    3  A    between atoms: C10_11  and  C11_14 
REMARK    4  A    between atoms: C11_14  and  C12_15 
REMARK    5  A    between atoms: C12_15  and  C13_16 
REMARK    6  A    between atoms: C13_16  and  C14_17 
REMARK    7  A    between atoms: C14_17  and  O3_20 
REMARK    8  A    between atoms: C17_22  and  O4_23 
REMARK    9  A    between atoms: O4_23  and  C18_24 
REMARK   10  A    between atoms: C18_24  and  C19_26 
REMARK   11  A    between atoms: C19_26  and  N1_27 
ROOT
HETATM    1  C1  UNL     1      27.655 -27.835  -0.884  1.00  0.00     0.020 C 
HETATM    2  C2  UNL     1      26.166 -28.187  -0.740  1.00  0.00     0.074 C 
HETATM    3  C3  UNL     1      25.735 -27.688   0.585  1.00  0.00     0.027 C 
HETATM    4  C4  UNL     1      24.215 -27.747   0.767  1.00  0.00     0.067 C 
HETATM    5  C5  UNL     1      23.823 -29.013   0.087  1.00  0.00     0.132 C 
HETATM    6  O1  UNL     1      24.236 -30.057   0.620  1.00  0.00    -0.298 OA
HETATM    7  C6  UNL     1      23.024 -29.175  -1.112  1.00  0.00     0.090 C 
HETATM    8  C7  UNL     1      22.164 -27.938  -1.304  1.00  0.00    -0.008 C 
HETATM    9  C8  UNL     1      21.808 -28.007  -2.752  1.00  0.00     0.018 C 
HETATM   10  C9  UNL     1      21.090 -27.875  -0.310  1.00  0.00     0.055 C 
HETATM   11  C17 UNL     1      20.988 -26.531   0.430  1.00  0.00     0.147 C 
HETATM   12  C22 UNL     1      22.295 -26.105   1.032  1.00  0.00    -0.010 C 
HETATM   13  C23 UNL     1      22.461 -26.598   2.463  1.00  0.00     0.018 C 
HETATM   14  C24 UNL     1      22.215 -24.586   1.245  1.00  0.00     0.018 C 
HETATM   15  C25 UNL     1      23.507 -26.543   0.279  1.00  0.00    -0.003 C 
HETATM   16  C26 UNL     1      24.475 -25.352   0.286  1.00  0.00     0.019 C 
HETATM   17  C27 UNL     1      23.164 -26.769  -1.171  1.00  0.00     0.103 C 
HETATM   18  N2  UNL     1      24.289 -26.931  -2.033  1.00  0.00    -0.355 N 
ATOM     19  H2  UNL     1      24.214 -26.406  -2.905  1.00  0.00     0.162 HD
HETATM   20  C28 UNL     1      25.501 -27.685  -1.921  1.00  0.00     0.221 C 
HETATM   21  O6  UNL     1      26.070 -27.947  -3.006  1.00  0.00    -0.273 OA
ENDROOT
BRANCH  10  22
HETATM   22  C10 UNL     1      19.717 -28.304  -0.622  1.00  0.00     0.125 C 
BRANCH  22  23
HETATM   23  O2  UNL     1      18.709 -27.841   0.195  1.00  0.00    -0.395 OA
ATOM     24  H2  UNL     1      18.944 -27.593   1.081  1.00  0.00     0.210 HD
ENDBRANCH  22  23
BRANCH  22  25
HETATM   25  C11 UNL     1      19.240 -28.056  -2.039  1.00  0.00     0.032 C 
BRANCH  25  26
HETATM   26  C12 UNL     1      17.816 -28.537  -2.231  1.00  0.00     0.006 C 
BRANCH  26  27
HETATM   27  C13 UNL     1      17.117 -27.779  -3.321  1.00  0.00     0.037 C 
BRANCH  27  28
HETATM   28  C14 UNL     1      15.836 -28.472  -3.707  1.00  0.00     0.051 C 
HETATM   29  C15 UNL     1      14.597 -27.723  -3.342  1.00  0.00     0.045 C 
HETATM   30  C16 UNL     1      15.761 -29.838  -3.066  1.00  0.00     0.045 C 
BRANCH  28  31
HETATM   31  O3  UNL     1      15.882 -28.655  -5.102  1.00  0.00    -0.391 OA
ATOM     32  H3  UNL     1      16.105 -29.567  -5.250  1.00  0.00     0.210 HD
ENDBRANCH  28  31
ENDBRANCH  27  28
ENDBRANCH  26  27
ENDBRANCH  25  26
ENDBRANCH  22  25
ENDBRANCH  10  22
BRANCH  11  33
HETATM   33  O4  UNL     1      20.222 -25.582  -0.158  1.00  0.00    -0.313 OA
BRANCH  33  34
HETATM   34  C18 UNL     1      19.075 -24.959   0.143  1.00  0.00     0.287 C 
HETATM   35  O5  UNL     1      18.238 -24.993  -0.780  1.00  0.00    -0.263 OA
BRANCH  34  36
HETATM   36  C19 UNL     1      18.745 -24.277   1.406  1.00  0.00     0.381 C 
BRANCH  36  37
HETATM   37  N1  UNL     1      18.344 -25.166   2.448  1.00  0.00     0.089 N 
HETATM   38  C20 UNL     1      16.944 -25.203   2.731  1.00  0.00     0.310 C 
HETATM   39  C21 UNL     1      19.117 -25.028   3.653  1.00  0.00     0.310 C 
ENDBRANCH  36  37
ENDBRANCH  34  36
ENDBRANCH  33  34
ENDBRANCH  11  33
TORSDOF 11
ENDMDL
MODEL 4
REMARK VINA RESULT: -6.159977379      4.164      7.658
REMARK  11 active torsions:
REMARK  status: ('A' for Active; 'I' for Inactive)
REMARK    1  A    between atoms: C9_10  and  C10_11 
REMARK    2  A    between atoms: C10_11  and  O2_12 
REMARK    3  A    between atoms: C10_11  and  C11_14 
REMARK    4  A    between atoms: C11_14  and  C12_15 
REMARK    5  A    between atoms: C12_15  and  C13_16 
REMARK    6  A    between atoms: C13_16  and  C14_17 
REMARK    7  A    between atoms: C14_17  and  O3_20 
REMARK    8  A    between atoms: C17_22  and  O4_23 
REMARK    9  A    between atoms: O4_23  and  C18_24 
REMARK   10  A    between atoms: C18_24  and  C19_26 
REMARK   11  A    between atoms: C19_26  and  N1_27 
ROOT
HETATM    1  C1  UNL     1      21.161 -26.040   4.517  1.00  0.00     0.020 C 
HETATM    2  C2  UNL     1      20.407 -25.544   3.273  1.00  0.00     0.074 C 
HETATM    3  C3  UNL     1      21.091 -26.131   2.098  1.00  0.00     0.027 C 
HETATM    4  C4  UNL     1      20.303 -25.924   0.800  1.00  0.00     0.067 C 
HETATM    5  C5  UNL     1      19.727 -24.558   0.945  1.00  0.00     0.132 C 
HETATM    6  O1  UNL     1      20.552 -23.628   0.954  1.00  0.00    -0.298 OA
HETATM    7  C6  UNL     1      18.333 -24.183   1.075  1.00  0.00     0.090 C 
HETATM    8  C7  UNL     1      17.467 -25.291   0.501  1.00  0.00    -0.008 C 
HETATM    9  C8  UNL     1      16.140 -25.030   1.131  1.00  0.00     0.018 C 
HETATM   10  C9  UNL     1      17.564 -25.340  -0.960  1.00  0.00     0.055 C 
HETATM   11  C17 UNL     1      17.869 -26.736  -1.529  1.00  0.00     0.147 C 
HETATM   12  C22 UNL     1      19.076 -27.364  -0.895  1.00  0.00    -0.010 C 
HETATM   13  C23 UNL     1      20.358 -27.047  -1.652  1.00  0.00     0.018 C 
HETATM   14  C24 UNL     1      18.961 -28.880  -1.121  1.00  0.00     0.018 C 
HETATM   15  C25 UNL     1      19.307 -26.985   0.530  1.00  0.00    -0.003 C 
HETATM   16  C26 UNL     1      19.729 -28.269   1.257  1.00  0.00     0.019 C 
HETATM   17  C27 UNL     1      18.010 -26.570   1.175  1.00  0.00     0.103 C 
HETATM   18  N2  UNL     1      18.061 -26.442   2.594  1.00  0.00    -0.355 N 
ATOM     19  H2  UNL     1      17.263 -26.861   3.071  1.00  0.00     0.162 HD
HETATM   20  C28 UNL     1      19.010 -25.842   3.484  1.00  0.00     0.221 C 
HETATM   21  O6  UNL     1      18.561 -25.531   4.612  1.00  0.00    -0.273 OA
ENDROOT
BRANCH  10  22
HETATM   22  C10 UNL     1      16.541 -24.733  -1.827  1.00  0.00     0.125 C 
BRANCH  22  23
HETATM   23  O2  UNL     1      16.721 -24.840  -3.189  1.00  0.00    -0.395 OA
ATOM     24  H2  UNL     1      15.946 -24.970  -3.722  1.00  0.00     0.210 HD
ENDBRANCH  22  23
BRANCH  22  25
HETATM   25  C11 UNL     1      15.107 -25.150  -1.571  1.00  0.00     0.032 C 
BRANCH  25  26
HETATM   26  C12 UNL     1      14.287 -25.105  -2.843  1.00  0.00     0.006 C 
BRANCH  26  27
HETATM   27  C13 UNL     1      13.057 -25.961  -2.741  1.00  0.00     0.037 C 
BRANCH  27  28
HETATM   28  C14 UNL     1      11.840 -25.188  -3.179  1.00  0.00     0.051 C 
HETATM   29  C15 UNL     1      10.922 -25.946  -4.081  1.00  0.00     0.045 C 
HETATM   30  C16 UNL     1      12.247 -23.918  -3.888  1.00  0.00     0.045 C 
BRANCH  28  31
HETATM   31  O3  UNL     1      11.152 -24.823  -2.007  1.00  0.00    -0.391 OA
ATOM     32  H3  UNL     1      11.057 -23.878  -2.030  1.00  0.00     0.210 HD
ENDBRANCH  28  31
ENDBRANCH  27  28
ENDBRANCH  26  27
ENDBRANCH  25  26
ENDBRANCH  22  25
ENDBRANCH  10  22
BRANCH  11  33
HETATM   33  O4  UNL     1      16.799 -27.527  -1.777  1.00  0.00    -0.313 OA
BRANCH  33  34
HETATM   34  C18 UNL     1      16.340 -28.209  -2.834  1.00  0.00     0.287 C 
HETATM   35  O5  UNL     1      16.498 -27.610  -3.915  1.00  0.00    -0.263 OA
BRANCH  34  36
HETATM   36  C19 UNL     1      15.701 -29.536  -2.820  1.00  0.00     0.381 C 
BRANCH  36  37
HETATM   37  N1  UNL     1      16.362 -30.498  -3.641  1.00  0.00     0.089 N 
HETATM   38  C20 UNL     1      15.615 -30.981  -4.759  1.00  0.00     0.310 C 
HETATM   39  C21 UNL     1      16.953 -31.580  -2.901  1.00  0.00     0.310 C 
ENDBRANCH  36  37
ENDBRANCH  34  36
ENDBRANCH  33  34
ENDBRANCH  11  33
TORSDOF 11
ENDMDL
MODEL 5
REMARK VINA RESULT: -6.001978884      3.802      7.041
REMARK  11 active torsions:
REMARK  status: ('A' for Active; 'I' for Inactive)
REMARK    1  A    between atoms: C9_10  and  C10_11 
REMARK    2  A    between atoms: C10_11  and  O2_12 
REMARK    3  A    between atoms: C10_11  and  C11_14 
REMARK    4  A    between atoms: C11_14  and  C12_15 
REMARK    5  A    between atoms: C12_15  and  C13_16 
REMARK    6  A    between atoms: C13_16  and  C14_17 
REMARK    7  A    between atoms: C14_17  and  O3_20 
REMARK    8  A    between atoms: C17_22  and  O4_23 
REMARK    9  A    between atoms: O4_23  and  C18_24 
REMARK   10  A    between atoms: C18_24  and  C19_26 
REMARK   11  A    between atoms: C19_26  and  N1_27 
ROOT
HETATM    1  C1  UNL     1      25.520 -26.178   3.354  1.00  0.00     0.020 C 
HETATM    2  C2  UNL     1      24.139 -26.091   2.685  1.00  0.00     0.074 C 
HETATM    3  C3  UNL     1      23.302 -27.148   3.295  1.00  0.00     0.027 C 
HETATM    4  C4  UNL     1      21.826 -27.024   2.904  1.00  0.00     0.067 C 
HETATM    5  C5  UNL     1      21.869 -26.591   1.480  1.00  0.00     0.132 C 
HETATM    6  O1  UNL     1      22.329 -27.424   0.681  1.00  0.00    -0.298 OA
HETATM    7  C6  UNL     1      21.443 -25.325   0.916  1.00  0.00     0.090 C 
HETATM    8  C7  UNL     1      20.437 -24.679   1.854  1.00  0.00    -0.008 C 
HETATM    9  C8  UNL     1      20.476 -23.246   1.441  1.00  0.00     0.018 C 
HETATM   10  C9  UNL     1      19.157 -25.391   1.833  1.00  0.00     0.055 C 
HETATM   11  C17 UNL     1      18.614 -25.762   3.223  1.00  0.00     0.147 C 
HETATM   12  C22 UNL     1      19.621 -26.504   4.053  1.00  0.00    -0.010 C 
HETATM   13  C23 UNL     1      19.515 -28.013   3.882  1.00  0.00     0.018 C 
HETATM   14  C24 UNL     1      19.199 -26.338   5.521  1.00  0.00     0.018 C 
HETATM   15  C25 UNL     1      21.044 -26.136   3.793  1.00  0.00    -0.003 C 
HETATM   16  C26 UNL     1      21.731 -26.065   5.164  1.00  0.00     0.019 C 
HETATM   17  C27 UNL     1      21.127 -24.740   3.234  1.00  0.00     0.103 C 
HETATM   18  N2  UNL     1      22.441 -24.187   3.195  1.00  0.00    -0.355 N 
ATOM     19  H2  UNL     1      22.488 -23.221   3.521  1.00  0.00     0.162 HD
HETATM   20  C28 UNL     1      23.709 -24.717   2.790  1.00  0.00     0.221 C 
HETATM   21  O6  UNL     1      24.571 -23.861   2.482  1.00  0.00    -0.273 OA
ENDROOT
BRANCH  10  22
HETATM   22  C10 UNL     1      18.015 -24.913   1.036  1.00  0.00     0.125 C 
BRANCH  22  23
HETATM   23  O2  UNL     1      17.638 -23.598   1.197  1.00  0.00    -0.395 OA
ATOM     24  H2  UNL     1      17.528 -23.075   0.411  1.00  0.00     0.210 HD
ENDBRANCH  22  23
BRANCH  22  25
HETATM   25  C11 UNL     1      18.100 -25.132  -0.461  1.00  0.00     0.032 C 
BRANCH  25  26
HETATM   26  C12 UNL     1      16.975 -26.021  -0.950  1.00  0.00     0.006 C 
BRANCH  26  27
HETATM   27  C13 UNL     1      15.739 -25.228  -1.262  1.00  0.00     0.037 C 
BRANCH  27  28
HETATM   28  C14 UNL     1      15.245 -25.547  -2.650  1.00  0.00     0.051 C 
HETATM   29  C15 UNL     1      13.820 -25.172  -2.897  1.00  0.00     0.045 C 
HETATM   30  C16 UNL     1      15.397 -27.022  -2.939  1.00  0.00     0.045 C 
BRANCH  28  31
HETATM   31  O3  UNL     1      16.078 -24.848  -3.544  1.00  0.00    -0.391 OA
ATOM     32  H3  UNL     1      15.527 -24.564  -4.264  1.00  0.00     0.210 HD
ENDBRANCH  28  31
ENDBRANCH  27  28
ENDBRANCH  26  27
ENDBRANCH  25  26
ENDBRANCH  22  25
ENDBRANCH  10  22
BRANCH  11  33
HETATM   33  O4  UNL     1      17.852 -24.827   3.837  1.00  0.00    -0.313 OA
BRANCH  33  34
HETATM   34  C18 UNL     1      16.570 -24.736   4.212  1.00  0.00     0.287 C 
HETATM   35  O5  UNL     1      15.768 -25.054   3.312  1.00  0.00    -0.263 OA
BRANCH  34  36
HETATM   36  C19 UNL     1      16.062 -24.315   5.528  1.00  0.00     0.381 C 
BRANCH  36  37
HETATM   37  N1  UNL     1      15.047 -23.314   5.456  1.00  0.00     0.089 N 
HETATM   38  C20 UNL     1      15.508 -21.961   5.421  1.00  0.00     0.310 C 
HETATM   39  C21 UNL     1      13.999 -23.483   6.426  1.00  0.00     0.310 C 
ENDBRANCH  36  37
ENDBRANCH  34  36
ENDBRANCH  33  34
ENDBRANCH  11  33
TORSDOF 11
ENDMDL
