MODEL 1
REMARK VINA RESULT: -5.801533588      0.000      0.000
REMARK  5 active torsions:
REMARK  status: ('A' for Active; 'I' for Inactive)
REMARK    1  A    between atoms: N1_2  and  N2_3 
REMARK    2  A    between atoms: N1_2  and  N3_7 
REMARK    3  A    between atoms: N2_3  and  O1_5 
REMARK       I    between atoms: N4_9  and  C2_11 
REMARK       I    between atoms: C2_11  and  N5_13 
REMARK    4  A    between atoms: N5_13  and  N6_15 
REMARK    5  A    between atoms: N6_15  and  C3_16 
ROOT
HETATM    1  N3  UNL     1      27.824   0.295  43.866  1.00  0.00    -0.221 N 
ATOM      2  H3  UNL     1      27.803   1.314  43.890  1.00  0.00     0.210 HD
HETATM    3  N4  UNL     1      27.447  -0.331  42.838  1.00  0.00    -0.235 N 
ATOM      4  H4  UNL     1      27.463  -1.351  42.800  1.00  0.00     0.193 HD
HETATM    5  C2  UNL     1      26.999   0.444  41.735  1.00  0.00     0.351 C 
HETATM    6  O2  UNL     1      26.125  -0.092  41.012  1.00  0.00    -0.244 OA
HETATM    7  N5  UNL     1      27.548   1.718  41.531  1.00  0.00    -0.254 N 
ATOM      8  H5  UNL     1      28.254   2.022  42.202  1.00  0.00     0.187 HD
ENDROOT
BRANCH   1   9
HETATM    9  N1  UNL     1      28.269  -0.429  44.966  1.00  0.00    -0.205 N 
HETATM   10  C1  UNL     1      27.334  -1.183  45.758  1.00  0.00     0.203 C 
BRANCH   9  11
HETATM   11  N2  UNL     1      29.642  -0.399  45.273  1.00  0.00    -0.193 N 
ATOM     12  H2  UNL     1      30.316  -0.909  44.701  1.00  0.00     0.217 HD
BRANCH  11  13
HETATM   13  O1  UNL     1      30.017   0.269  46.262  1.00  0.00    -0.273 OA
ATOM     14  H1  UNL     1      29.876  -0.090  47.130  1.00  0.00     0.246 HD
ENDBRANCH  11  13
ENDBRANCH   9  11
ENDBRANCH   1   9
BRANCH   7  15
HETATM   15  N6  UNL     1      27.233   2.612  40.513  1.00  0.00    -0.132 NA
BRANCH  15  16
HETATM   16  C3  UNL     1      28.323   3.545  40.358  1.00  0.00     0.099 A 
HETATM   17  C4  UNL     1      28.093   4.748  39.450  1.00  0.00     0.025 A 
HETATM   18  C5  UNL     1      28.166   4.914  40.935  1.00  0.00     0.025 A 
ENDBRANCH  15  16
ENDBRANCH   7  15
TORSDOF 5
ENDMDL
MODEL 2
REMARK VINA RESULT: -5.800309620      6.493      8.471
REMARK  5 active torsions:
REMARK  status: ('A' for Active; 'I' for Inactive)
REMARK    1  A    between atoms: N1_2  and  N2_3 
REMARK    2  A    between atoms: N1_2  and  N3_7 
REMARK    3  A    between atoms: N2_3  and  O1_5 
REMARK       I    between atoms: N4_9  and  C2_11 
REMARK       I    between atoms: C2_11  and  N5_13 
REMARK    4  A    between atoms: N5_13  and  N6_15 
REMARK    5  A    between atoms: N6_15  and  C3_16 
ROOT
HETATM    1  N3  UNL     1      28.477   7.073  39.683  1.00  0.00    -0.221 N 
ATOM      2  H3  UNL     1      28.417   7.981  40.145  1.00  0.00     0.210 HD
HETATM    3  N4  UNL     1      29.030   6.963  38.555  1.00  0.00    -0.235 N 
ATOM      4  H4  UNL     1      29.097   6.061  38.081  1.00  0.00     0.193 HD
HETATM    5  C2  UNL     1      29.556   8.146  37.972  1.00  0.00     0.351 C 
HETATM    6  O2  UNL     1      29.553   8.184  36.718  1.00  0.00    -0.244 OA
HETATM    7  N5  UNL     1      30.033   9.164  38.811  1.00  0.00    -0.254 N 
ATOM      8  H5  UNL     1      29.973   8.992  39.815  1.00  0.00     0.187 HD
ENDROOT
BRANCH   1   9
HETATM    9  N1  UNL     1      27.950   5.937  40.285  1.00  0.00    -0.205 N 
HETATM   10  C1  UNL     1      28.046   4.662  39.625  1.00  0.00     0.203 C 
BRANCH   9  11
HETATM   11  N2  UNL     1      27.331   6.075  41.541  1.00  0.00    -0.193 N 
ATOM     12  H2  UNL     1      27.441   5.358  42.259  1.00  0.00     0.217 HD
BRANCH  11  13
HETATM   13  O1  UNL     1      26.643   7.096  41.758  1.00  0.00    -0.273 OA
ATOM     14  H1  UNL     1      26.764   7.558  42.579  1.00  0.00     0.246 HD
ENDBRANCH  11  13
ENDBRANCH   9  11
ENDBRANCH   1   9
BRANCH   7  15
HETATM   15  N6  UNL     1      30.577  10.383  38.422  1.00  0.00    -0.132 NA
BRANCH  15  16
HETATM   16  C3  UNL     1      32.011  10.248  38.335  1.00  0.00     0.099 A 
HETATM   17  C4  UNL     1      32.685  10.717  37.051  1.00  0.00     0.025 A 
HETATM   18  C5  UNL     1      32.837  11.493  38.321  1.00  0.00     0.025 A 
ENDBRANCH  15  16
ENDBRANCH   7  15
TORSDOF 5
ENDMDL
MODEL 3
REMARK VINA RESULT: -5.791817587      2.462      2.635
REMARK  5 active torsions:
REMARK  status: ('A' for Active; 'I' for Inactive)
REMARK    1  A    between atoms: N1_2  and  N2_3 
REMARK    2  A    between atoms: N1_2  and  N3_7 
REMARK    3  A    between atoms: N2_3  and  O1_5 
REMARK       I    between atoms: N4_9  and  C2_11 
REMARK       I    between atoms: C2_11  and  N5_13 
REMARK    4  A    between atoms: N5_13  and  N6_15 
REMARK    5  A    between atoms: N6_15  and  C3_16 
ROOT
HETATM    1  N3  UNL     1      28.926   2.311  44.687  1.00  0.00    -0.221 N 
ATOM      2  H3  UNL     1      28.700   3.306  44.682  1.00  0.00     0.210 HD
HETATM    3  N4  UNL     1      29.335   1.742  43.638  1.00  0.00    -0.235 N 
ATOM      4  H4  UNL     1      29.565   0.747  43.628  1.00  0.00     0.193 HD
HETATM    5  C2  UNL     1      29.462   2.542  42.473  1.00  0.00     0.351 C 
HETATM    6  O2  UNL     1      29.282   1.949  41.382  1.00  0.00    -0.244 OA
HETATM    7  N5  UNL     1      29.771   3.903  42.611  1.00  0.00    -0.254 N 
ATOM      8  H5  UNL     1      29.891   4.247  43.564  1.00  0.00     0.187 HD
ENDROOT
BRANCH   1   9
HETATM    9  N1  UNL     1      28.790   1.561  45.848  1.00  0.00    -0.205 N 
HETATM   10  C1  UNL     1      27.529   1.531  46.542  1.00  0.00     0.203 C 
BRANCH   9  11
HETATM   11  N2  UNL     1      29.907   0.844  46.314  1.00  0.00    -0.193 N 
ATOM     12  H2  UNL     1      30.510   1.231  47.041  1.00  0.00     0.217 HD
BRANCH  11  13
HETATM   13  O1  UNL     1      30.145  -0.279  45.817  1.00  0.00    -0.273 OA
ATOM     14  H1  UNL     1      30.921  -0.381  45.279  1.00  0.00     0.246 HD
ENDBRANCH  11  13
ENDBRANCH   9  11
ENDBRANCH   1   9
BRANCH   7  15
HETATM   15  N6  UNL     1      29.932   4.834  41.590  1.00  0.00    -0.132 NA
BRANCH  15  16
HETATM   16  C3  UNL     1      28.652   5.433  41.299  1.00  0.00     0.099 A 
HETATM   17  C4  UNL     1      28.627   6.580  40.295  1.00  0.00     0.025 A 
HETATM   18  C5  UNL     1      28.077   5.237  39.935  1.00  0.00     0.025 A 
ENDBRANCH  15  16
ENDBRANCH   7  15
TORSDOF 5
ENDMDL
MODEL 4
REMARK VINA RESULT: -5.777686351      6.665      8.723
REMARK  5 active torsions:
REMARK  status: ('A' for Active; 'I' for Inactive)
REMARK    1  A    between atoms: N1_2  and  N2_3 
REMARK    2  A    between atoms: N1_2  and  N3_7 
REMARK    3  A    between atoms: N2_3  and  O1_5 
REMARK       I    between atoms: N4_9  and  C2_11 
REMARK       I    between atoms: C2_11  and  N5_13 
REMARK    4  A    between atoms: N5_13  and  N6_15 
REMARK    5  A    between atoms: N6_15  and  C3_16 
ROOT
HETATM    1  N3  UNL     1      28.145   8.116  39.898  1.00  0.00    -0.221 N 
ATOM      2  H3  UNL     1      28.152   9.136  39.853  1.00  0.00     0.210 HD
HETATM    3  N4  UNL     1      28.858   7.434  39.112  1.00  0.00    -0.235 N 
ATOM      4  H4  UNL     1      28.861   6.414  39.147  1.00  0.00     0.193 HD
HETATM    5  C2  UNL     1      29.655   8.146  38.178  1.00  0.00     0.351 C 
HETATM    6  O2  UNL     1      29.871   7.561  37.088  1.00  0.00    -0.244 OA
HETATM    7  N5  UNL     1      30.137   9.417  38.522  1.00  0.00    -0.254 N 
ATOM      8  H5  UNL     1      29.882   9.765  39.447  1.00  0.00     0.187 HD
ENDROOT
BRANCH   1   9
HETATM    9  N1  UNL     1      27.351   7.456  40.828  1.00  0.00    -0.205 N 
HETATM   10  C1  UNL     1      26.541   8.210  41.748  1.00  0.00     0.203 C 
BRANCH   9  11
HETATM   11  N2  UNL     1      27.367   6.049  40.838  1.00  0.00    -0.193 N 
ATOM     12  H2  UNL     1      27.275   5.519  39.971  1.00  0.00     0.217 HD
BRANCH  11  13
HETATM   13  O1  UNL     1      27.497   5.462  41.935  1.00  0.00    -0.273 OA
ATOM     14  H1  UNL     1      28.031   4.677  41.969  1.00  0.00     0.246 HD
ENDBRANCH  11  13
ENDBRANCH   9  11
ENDBRANCH   1   9
BRANCH   7  15
HETATM   15  N6  UNL     1      30.926  10.254  37.740  1.00  0.00    -0.132 NA
BRANCH  15  16
HETATM   16  C3  UNL     1      32.192  10.456  38.402  1.00  0.00     0.099 A 
HETATM   17  C4  UNL     1      33.352  10.969  37.557  1.00  0.00     0.025 A 
HETATM   18  C5  UNL     1      32.688  11.856  38.562  1.00  0.00     0.025 A 
ENDBRANCH  15  16
ENDBRANCH   7  15
TORSDOF 5
ENDMDL
MODEL 5
REMARK VINA RESULT: -5.757276720      2.860      2.990
REMARK  5 active torsions:
REMARK  status: ('A' for Active; 'I' for Inactive)
REMARK    1  A    between atoms: N1_2  and  N2_3 
REMARK    2  A    between atoms: N1_2  and  N3_7 
REMARK    3  A    between atoms: N2_3  and  O1_5 
REMARK       I    between atoms: N4_9  and  C2_11 
REMARK       I    between atoms: C2_11  and  N5_13 
REMARK    4  A    between atoms: N5_13  and  N6_15 
REMARK    5  A    between atoms: N6_15  and  C3_16 
ROOT
HETATM    1  N3  UNL     1      29.188   2.128  44.273  1.00  0.00    -0.221 N 
ATOM      2  H3  UNL     1      29.581   3.069  44.297  1.00  0.00     0.210 HD
HETATM    3  N4  UNL     1      29.179   1.462  43.202  1.00  0.00    -0.235 N 
ATOM      4  H4  UNL     1      28.789   0.519  43.164  1.00  0.00     0.193 HD
HETATM    5  C2  UNL     1      29.735   2.079  42.051  1.00  0.00     0.351 C 
HETATM    6  O2  UNL     1      29.233   1.737  40.953  1.00  0.00    -0.244 OA
HETATM    7  N5  UNL     1      30.778   3.003  42.210  1.00  0.00    -0.254 N 
ATOM      8  H5  UNL     1      31.085   3.182  43.166  1.00  0.00     0.187 HD
ENDROOT
BRANCH   1   9
HETATM    9  N1  UNL     1      28.653   1.557  45.422  1.00  0.00    -0.205 N 
HETATM   10  C1  UNL     1      27.254   1.715  45.720  1.00  0.00     0.203 C 
BRANCH   9  11
HETATM   11  N2  UNL     1      29.512   0.831  46.268  1.00  0.00    -0.193 N 
ATOM     12  H2  UNL     1      29.666   1.126  47.233  1.00  0.00     0.217 HD
BRANCH  11  13
HETATM   13  O1  UNL     1      30.082  -0.184  45.811  1.00  0.00    -0.273 OA
ATOM     14  H1  UNL     1      30.959  -0.090  45.459  1.00  0.00     0.246 HD
ENDBRANCH  11  13
ENDBRANCH   9  11
ENDBRANCH   1   9
BRANCH   7  15
HETATM   15  N6  UNL     1      31.439   3.702  41.205  1.00  0.00    -0.132 NA
BRANCH  15  16
HETATM   16  C3  UNL     1      31.318   5.116  41.463  1.00  0.00     0.099 A 
HETATM   17  C4  UNL     1      31.706   6.070  40.339  1.00  0.00     0.025 A 
HETATM   18  C5  UNL     1      30.272   5.881  40.720  1.00  0.00     0.025 A 
ENDBRANCH  15  16
ENDBRANCH   7  15
TORSDOF 5
ENDMDL
