MODEL 1
REMARK VINA RESULT: -4.947525515      0.000      0.000
REMARK  4 active torsions:
REMARK  status: ('A' for Active; 'I' for Inactive)
REMARK    1  A    between atoms: C2_2  and  C3_3 
REMARK    2  A    between atoms: C2_2  and  S1_5 
REMARK    3  A    between atoms: S1_5  and  C4_6 
REMARK    4  A    between atoms: C4_6  and  C5_7 
ROOT
HETATM    1  C5  UNL     1      28.680  -0.171  45.015  1.00  0.00     0.220 C 
HETATM    2  C6  UNL     1      28.704   1.354  45.024  1.00  0.00     0.266 C 
HETATM    3  N2  UNL     1      28.596   1.873  46.367  1.00  0.00    -0.072 N 
ATOM      4  H21 UNL     1      28.647   2.892  46.391  1.00  0.00     0.277 HD
ATOM      5  H22 UNL     1      29.425   1.672  46.925  1.00  0.00     0.277 HD
HETATM    6  C7  UNL     1      27.389   1.374  46.988  1.00  0.00     0.259 C 
HETATM    7  C8  UNL     1      27.400  -0.144  46.943  1.00  0.00     0.260 C 
HETATM    8  N3  UNL     1      27.359  -0.514  45.539  1.00  0.00    -0.067 N 
ATOM      9  H31 UNL     1      27.091  -1.485  45.376  1.00  0.00     0.277 HD
ATOM     10  H32 UNL     1      26.588  -0.090  45.023  1.00  0.00     0.277 HD
ENDROOT
BRANCH   1  11
HETATM   11  C4  UNL     1      28.837  -0.577  43.572  1.00  0.00     0.110 C 
BRANCH  11  12
HETATM   12  S1  UNL     1      29.154   0.820  42.476  1.00  0.00    -0.148 SA
BRANCH  12  13
HETATM   13  C2  UNL     1      28.511   0.555  40.817  1.00  0.00     0.150 C 
HETATM   14  C1  UNL     1      29.512  -0.152  39.917  1.00  0.00     0.037 C 
BRANCH  13  15
HETATM   15  C3  UNL     1      27.250  -0.201  40.821  1.00  0.00     0.074 C 
HETATM   16  N1  UNL     1      26.162  -0.616  40.884  1.00  0.00    -0.196 NA
ENDBRANCH  13  15
ENDBRANCH  12  13
ENDBRANCH  11  12
ENDBRANCH   1  11
TORSDOF 4
ENDMDL
MODEL 2
REMARK VINA RESULT: -4.887680645      8.415     10.122
REMARK  4 active torsions:
REMARK  status: ('A' for Active; 'I' for Inactive)
REMARK    1  A    between atoms: C2_2  and  C3_3 
REMARK    2  A    between atoms: C2_2  and  S1_5 
REMARK    3  A    between atoms: S1_5  and  C4_6 
REMARK    4  A    between atoms: C4_6  and  C5_7 
ROOT
HETATM    1  C5  UNL     1      30.461   8.231  38.393  1.00  0.00     0.220 C 
HETATM    2  C6  UNL     1      29.925   8.118  36.969  1.00  0.00     0.266 C 
HETATM    3  N2  UNL     1      30.752   8.850  36.038  1.00  0.00    -0.072 N 
ATOM      4  H21 UNL     1      30.425   8.753  35.077  1.00  0.00     0.277 HD
ATOM      5  H22 UNL     1      31.671   8.424  35.924  1.00  0.00     0.277 HD
HETATM    6  C7  UNL     1      30.841  10.234  36.446  1.00  0.00     0.259 C 
HETATM    7  C8  UNL     1      31.363  10.297  37.871  1.00  0.00     0.260 C 
HETATM    8  N3  UNL     1      30.361   9.656  38.705  1.00  0.00    -0.067 N 
ATOM      9  H31 UNL     1      30.455   9.868  39.698  1.00  0.00     0.277 HD
ATOM     10  H32 UNL     1      29.423  10.038  38.590  1.00  0.00     0.277 HD
ENDROOT
BRANCH   1  11
HETATM   11  C4  UNL     1      29.537   7.401  39.248  1.00  0.00     0.110 C 
BRANCH  11  12
HETATM   12  S1  UNL     1      29.252   5.750  38.580  1.00  0.00    -0.148 SA
BRANCH  12  13
HETATM   13  C2  UNL     1      30.657   4.654  38.829  1.00  0.00     0.150 C 
HETATM   14  C1  UNL     1      30.351   3.540  39.817  1.00  0.00     0.037 C 
BRANCH  13  15
HETATM   15  C3  UNL     1      31.133   4.062  37.569  1.00  0.00     0.074 C 
HETATM   16  N1  UNL     1      31.702   3.592  36.666  1.00  0.00    -0.196 NA
ENDBRANCH  13  15
ENDBRANCH  12  13
ENDBRANCH  11  12
ENDBRANCH   1  11
TORSDOF 4
ENDMDL
MODEL 3
REMARK VINA RESULT: -4.799314167      8.442     10.093
REMARK  4 active torsions:
REMARK  status: ('A' for Active; 'I' for Inactive)
REMARK    1  A    between atoms: C2_2  and  C3_3 
REMARK    2  A    between atoms: C2_2  and  S1_5 
REMARK    3  A    between atoms: S1_5  and  C4_6 
REMARK    4  A    between atoms: C4_6  and  C5_7 
ROOT
HETATM    1  C5  UNL     1      30.946   8.157  38.392  1.00  0.00     0.220 C 
HETATM    2  C6  UNL     1      31.716   9.450  38.138  1.00  0.00     0.266 C 
HETATM    3  N2  UNL     1      30.905  10.412  37.429  1.00  0.00    -0.072 N 
ATOM      4  H21 UNL     1      31.396  11.295  37.285  1.00  0.00     0.277 HD
ATOM      5  H22 UNL     1      30.137  10.763  38.001  1.00  0.00     0.277 HD
HETATM    6  C7  UNL     1      30.440   9.838  36.186  1.00  0.00     0.259 C 
HETATM    7  C8  UNL     1      29.695   8.549  36.486  1.00  0.00     0.260 C 
HETATM    8  N3  UNL     1      30.668   7.634  37.056  1.00  0.00    -0.067 N 
ATOM      9  H31 UNL     1      30.370   6.658  37.049  1.00  0.00     0.277 HD
ATOM     10  H32 UNL     1      31.501   7.507  36.481  1.00  0.00     0.277 HD
ENDROOT
BRANCH   1  11
HETATM   11  C4  UNL     1      31.885   7.264  39.163  1.00  0.00     0.110 C 
BRANCH  11  12
HETATM   12  S1  UNL     1      31.026   6.122  40.264  1.00  0.00    -0.148 SA
BRANCH  12  13
HETATM   13  C2  UNL     1      30.222   4.780  39.374  1.00  0.00     0.150 C 
HETATM   14  C1  UNL     1      28.786   5.113  39.004  1.00  0.00     0.037 C 
BRANCH  13  15
HETATM   15  C3  UNL     1      30.956   4.398  38.158  1.00  0.00     0.074 C 
HETATM   16  N1  UNL     1      31.456   4.275  37.112  1.00  0.00    -0.196 NA
ENDBRANCH  13  15
ENDBRANCH  12  13
ENDBRANCH  11  12
ENDBRANCH   1  11
TORSDOF 4
ENDMDL
MODEL 4
REMARK VINA RESULT: -4.798289523      8.455     10.140
REMARK  4 active torsions:
REMARK  status: ('A' for Active; 'I' for Inactive)
REMARK    1  A    between atoms: C2_2  and  C3_3 
REMARK    2  A    between atoms: C2_2  and  S1_5 
REMARK    3  A    between atoms: S1_5  and  C4_6 
REMARK    4  A    between atoms: C4_6  and  C5_7 
ROOT
HETATM    1  C5  UNL     1      31.075   8.092  38.396  1.00  0.00     0.220 C 
HETATM    2  C6  UNL     1      30.530   7.733  37.018  1.00  0.00     0.266 C 
HETATM    3  N2  UNL     1      30.759   8.798  36.069  1.00  0.00    -0.072 N 
ATOM      4  H21 UNL     1      30.432   8.556  35.134  1.00  0.00     0.277 HD
ATOM      5  H22 UNL     1      31.749   8.913  35.853  1.00  0.00     0.277 HD
HETATM    6  C7  UNL     1      30.163  10.023  36.555  1.00  0.00     0.259 C 
HETATM    7  C8  UNL     1      30.722  10.332  37.933  1.00  0.00     0.260 C 
HETATM    8  N3  UNL     1      30.288   9.254  38.805  1.00  0.00    -0.067 N 
ATOM      9  H31 UNL     1      30.361   9.473  39.799  1.00  0.00     0.277 HD
ATOM     10  H32 UNL     1      29.281   9.095  38.793  1.00  0.00     0.277 HD
ENDROOT
BRANCH   1  11
HETATM   11  C4  UNL     1      30.806   6.893  39.270  1.00  0.00     0.110 C 
BRANCH  11  12
HETATM   12  S1  UNL     1      29.527   5.809  38.606  1.00  0.00    -0.148 SA
BRANCH  12  13
HETATM   13  C2  UNL     1      28.058   5.760  39.644  1.00  0.00     0.150 C 
HETATM   14  C1  UNL     1      28.186   4.756  40.778  1.00  0.00     0.037 C 
BRANCH  13  15
HETATM   15  C3  UNL     1      27.726   7.079  40.205  1.00  0.00     0.074 C 
HETATM   16  N1  UNL     1      27.664   8.175  40.596  1.00  0.00    -0.196 NA
ENDBRANCH  13  15
ENDBRANCH  12  13
ENDBRANCH  11  12
ENDBRANCH   1  11
TORSDOF 4
ENDMDL
MODEL 5
REMARK VINA RESULT: -4.786690192      8.761      9.899
REMARK  4 active torsions:
REMARK  status: ('A' for Active; 'I' for Inactive)
REMARK    1  A    between atoms: C2_2  and  C3_3 
REMARK    2  A    between atoms: C2_2  and  S1_5 
REMARK    3  A    between atoms: S1_5  and  C4_6 
REMARK    4  A    between atoms: C4_6  and  C5_7 
ROOT
HETATM    1  C5  UNL     1      28.811   7.114  38.568  1.00  0.00     0.220 C 
HETATM    2  C6  UNL     1      28.859   5.695  39.124  1.00  0.00     0.266 C 
HETATM    3  N2  UNL     1      27.711   5.417  39.956  1.00  0.00    -0.072 N 
ATOM      4  H21 UNL     1      27.713   4.459  40.305  1.00  0.00     0.277 HD
ATOM      5  H22 UNL     1      26.848   5.374  39.416  1.00  0.00     0.277 HD
HETATM    6  C7  UNL     1      27.637   6.387  41.026  1.00  0.00     0.259 C 
HETATM    7  C8  UNL     1      27.606   7.782  40.428  1.00  0.00     0.260 C 
HETATM    8  N3  UNL     1      28.878   7.969  39.752  1.00  0.00    -0.067 N 
ATOM      9  H31 UNL     1      29.096   8.944  39.545  1.00  0.00     0.277 HD
ATOM     10  H32 UNL     1      29.689   7.790  40.344  1.00  0.00     0.277 HD
ENDROOT
BRANCH   1  11
HETATM   11  C4  UNL     1      30.034   7.258  37.699  1.00  0.00     0.110 C 
BRANCH  11  12
HETATM   12  S1  UNL     1      31.295   8.322  38.426  1.00  0.00    -0.148 SA
BRANCH  12  13
HETATM   13  C2  UNL     1      31.128  10.039  37.914  1.00  0.00     0.150 C 
HETATM   14  C1  UNL     1      32.469  10.679  37.595  1.00  0.00     0.037 C 
BRANCH  13  15
HETATM   15  C3  UNL     1      30.234  10.192  36.756  1.00  0.00     0.074 C 
HETATM   16  N1  UNL     1      29.375  10.351  35.985  1.00  0.00    -0.196 NA
ENDBRANCH  13  15
ENDBRANCH  12  13
ENDBRANCH  11  12
ENDBRANCH   1  11
TORSDOF 4
ENDMDL
