MODEL 1
REMARK VINA RESULT: -8.933359905      0.000      0.000
REMARK  5 active torsions:
REMARK  status: ('A' for Active; 'I' for Inactive)
REMARK    1  A    between atoms: C5_5  and  C6_6 
REMARK    2  A    between atoms: C6_6  and  N1_7 
REMARK    3  A    between atoms: C10_11  and  C11_12 
REMARK    4  A    between atoms: N2_13  and  N3_15 
REMARK    5  A    between atoms: N3_15  and  C12_17 
ROOT
HETATM    1  N3  UNL     1       8.824  36.525  76.325  1.00  0.00    -0.299 N 
ATOM      2  H3  UNL     1       9.510  37.064  76.853  1.00  0.00     0.187 HD
ENDROOT
BRANCH   1   3
HETATM    3  N2  UNL     1       9.035  35.282  76.592  1.00  0.00    -0.309 N 
HETATM    4  C11 UNL     1       8.463  34.165  76.522  1.00  0.00     0.136 C 
ATOM      5  H2  UNL     1       9.968  35.168  76.989  1.00  0.00     0.186 HD
BRANCH   4   6
HETATM    6  C10 UNL     1       7.124  33.913  76.011  1.00  0.00     0.051 A 
HETATM    7  N1  UNL     1       6.669  34.053  74.759  1.00  0.00    -0.351 N 
HETATM    8  C7  UNL     1       5.377  33.688  74.722  1.00  0.00     0.091 A 
HETATM    9  C8  UNL     1       4.999  33.310  75.975  1.00  0.00     0.020 A 
HETATM   10  C9  UNL     1       6.091  33.447  76.800  1.00  0.00     0.032 A 
BRANCH   7  11
HETATM   11  C6  UNL     1       7.464  34.541  73.658  1.00  0.00     0.167 C 
BRANCH  11  12
HETATM   12  C5  UNL     1       8.404  33.541  73.102  1.00  0.00    -0.040 A 
HETATM   13  C4  UNL     1       9.774  33.679  73.229  1.00  0.00     0.009 A 
HETATM   14  C3  UNL     1      10.635  32.752  72.704  1.00  0.00     0.007 A 
HETATM   15  C2  UNL     1      10.193  31.637  72.024  1.00  0.00    -0.062 A 
HETATM   16  C1  UNL     1      11.167  30.666  71.475  1.00  0.00     0.048 C 
HETATM   17  C26 UNL     1       8.833  31.511  71.904  1.00  0.00     0.007 A 
HETATM   18  C25 UNL     1       7.934  32.441  72.429  1.00  0.00     0.009 A 
ENDBRANCH  11  12
ENDBRANCH   7  11
ENDBRANCH   4   6
ENDBRANCH   1   3
BRANCH   1  19
HETATM   19  C12 UNL     1       8.135  37.335  75.694  1.00  0.00     0.073 A 
HETATM   20  C13 UNL     1       8.629  37.855  74.468  1.00  0.00     0.020 A 
HETATM   21  C14 UNL     1       9.869  37.437  74.023  1.00  0.00     0.016 A 
HETATM   22  C18 UNL     1       7.930  38.742  73.728  1.00  0.00     0.045 A 
HETATM   23  C15 UNL     1      10.410  37.903  72.843  1.00  0.00     0.001 A 
HETATM   24  C16 UNL     1       9.697  38.819  72.069  1.00  0.00     0.002 A 
HETATM   25  C17 UNL     1       8.470  39.210  72.543  1.00  0.00     0.030 A 
HETATM   26  N4  UNL     1       6.727  39.163  74.136  1.00  0.00    -0.355 N 
HETATM   27  C19 UNL     1       6.189  38.714  75.290  1.00  0.00     0.045 A 
ATOM     28  H4  UNL     1       6.209  39.833  73.568  1.00  0.00     0.166 HD
HETATM   29  C20 UNL     1       4.938  39.204  75.638  1.00  0.00     0.030 A 
HETATM   30  C24 UNL     1       6.876  37.816  76.061  1.00  0.00     0.020 A 
HETATM   31  C21 UNL     1       4.381  38.757  76.810  1.00  0.00     0.002 A 
HETATM   32  C22 UNL     1       5.037  37.853  77.616  1.00  0.00     0.001 A 
HETATM   33  C23 UNL     1       6.293  37.385  77.231  1.00  0.00     0.016 A 
ENDBRANCH   1  19
TORSDOF 5
ENDMDL
MODEL 2
REMARK VINA RESULT: -8.927042705      0.084      3.253
REMARK  5 active torsions:
REMARK  status: ('A' for Active; 'I' for Inactive)
REMARK    1  A    between atoms: C5_5  and  C6_6 
REMARK    2  A    between atoms: C6_6  and  N1_7 
REMARK    3  A    between atoms: C10_11  and  C11_12 
REMARK    4  A    between atoms: N2_13  and  N3_15 
REMARK    5  A    between atoms: N3_15  and  C12_17 
ROOT
HETATM    1  N3  UNL     1       8.730  36.540  76.406  1.00  0.00    -0.299 N 
ATOM      2  H3  UNL     1       9.175  37.078  77.149  1.00  0.00     0.187 HD
ENDROOT
BRANCH   1   3
HETATM    3  N2  UNL     1       8.987  35.297  76.634  1.00  0.00    -0.309 N 
HETATM    4  C11 UNL     1       8.446  34.166  76.556  1.00  0.00     0.136 C 
ATOM      5  H2  UNL     1       9.937  35.202  76.994  1.00  0.00     0.186 HD
BRANCH   4   6
HETATM    6  C10 UNL     1       7.097  33.886  76.087  1.00  0.00     0.051 A 
HETATM    7  N1  UNL     1       6.601  34.014  74.849  1.00  0.00    -0.351 N 
HETATM    8  C7  UNL     1       5.316  33.623  74.852  1.00  0.00     0.091 A 
HETATM    9  C8  UNL     1       4.985  33.239  76.116  1.00  0.00     0.020 A 
HETATM   10  C9  UNL     1       6.099  33.400  76.908  1.00  0.00     0.032 A 
BRANCH   7  11
HETATM   11  C6  UNL     1       7.352  34.517  73.723  1.00  0.00     0.167 C 
BRANCH  11  12
HETATM   12  C5  UNL     1       8.315  33.544  73.157  1.00  0.00    -0.040 A 
HETATM   13  C4  UNL     1       9.680  33.703  73.301  1.00  0.00     0.009 A 
HETATM   14  C3  UNL     1      10.563  32.802  72.767  1.00  0.00     0.007 A 
HETATM   15  C2  UNL     1      10.147  31.693  72.059  1.00  0.00    -0.062 A 
HETATM   16  C1  UNL     1      11.144  30.751  71.502  1.00  0.00     0.048 C 
HETATM   17  C26 UNL     1       8.791  31.547  71.923  1.00  0.00     0.007 A 
HETATM   18  C25 UNL     1       7.871  32.451  72.457  1.00  0.00     0.009 A 
ENDBRANCH  11  12
ENDBRANCH   7  11
ENDBRANCH   4   6
ENDBRANCH   1   3
BRANCH   1  19
HETATM   19  C12 UNL     1       8.167  37.350  75.660  1.00  0.00     0.073 A 
HETATM   20  C13 UNL     1       6.886  37.846  76.020  1.00  0.00     0.020 A 
HETATM   21  C14 UNL     1       6.311  37.403  77.196  1.00  0.00     0.016 A 
HETATM   22  C18 UNL     1       6.215  38.733  75.254  1.00  0.00     0.045 A 
HETATM   23  C15 UNL     1       5.069  37.842  77.606  1.00  0.00     0.001 A 
HETATM   24  C16 UNL     1       4.366  38.758  76.822  1.00  0.00     0.002 A 
HETATM   25  C17 UNL     1       4.969  39.175  75.663  1.00  0.00     0.030 A 
HETATM   26  N4  UNL     1       6.749  39.177  74.110  1.00  0.00    -0.355 N 
HETATM   27  C19 UNL     1       7.963  38.753  73.700  1.00  0.00     0.045 A 
ATOM     28  H4  UNL     1       6.232  39.847  73.541  1.00  0.00     0.166 HD
HETATM   29  C20 UNL     1       8.441  39.264  72.501  1.00  0.00     0.030 A 
HETATM   30  C24 UNL     1       8.665  37.854  74.456  1.00  0.00     0.020 A 
HETATM   31  C21 UNL     1       9.673  38.840  72.073  1.00  0.00     0.002 A 
HETATM   32  C22 UNL     1      10.414  37.937  72.802  1.00  0.00     0.001 A 
HETATM   33  C23 UNL     1       9.899  37.446  74.002  1.00  0.00     0.016 A 
ENDBRANCH   1  19
TORSDOF 5
ENDMDL
MODEL 3
REMARK VINA RESULT: -8.873068261      1.006      1.659
REMARK  5 active torsions:
REMARK  status: ('A' for Active; 'I' for Inactive)
REMARK    1  A    between atoms: C5_5  and  C6_6 
REMARK    2  A    between atoms: C6_6  and  N1_7 
REMARK    3  A    between atoms: C10_11  and  C11_12 
REMARK    4  A    between atoms: N2_13  and  N3_15 
REMARK    5  A    between atoms: N3_15  and  C12_17 
ROOT
HETATM    1  N3  UNL     1       8.606  36.303  76.128  1.00  0.00    -0.299 N 
ATOM      2  H3  UNL     1       9.489  36.688  76.462  1.00  0.00     0.187 HD
ENDROOT
BRANCH   1   3
HETATM    3  N2  UNL     1       8.574  35.066  76.488  1.00  0.00    -0.309 N 
HETATM    4  C11 UNL     1       8.141  33.953  76.097  1.00  0.00     0.136 C 
ATOM      5  H2  UNL     1       9.056  34.954  77.381  1.00  0.00     0.186 HD
BRANCH   4   6
HETATM    6  C10 UNL     1       7.403  33.700  74.868  1.00  0.00     0.051 A 
HETATM    7  N1  UNL     1       7.596  32.731  73.963  1.00  0.00    -0.351 N 
HETATM    8  C7  UNL     1       6.674  32.850  72.994  1.00  0.00     0.091 A 
HETATM    9  C8  UNL     1       5.876  33.915  73.286  1.00  0.00     0.020 A 
HETATM   10  C9  UNL     1       6.324  34.462  74.465  1.00  0.00     0.032 A 
BRANCH   7  11
HETATM   11  C6  UNL     1       8.652  31.750  74.039  1.00  0.00     0.167 C 
BRANCH  11  12
HETATM   12  C5  UNL     1       9.732  31.946  73.045  1.00  0.00    -0.040 A 
HETATM   13  C4  UNL     1      10.033  30.984  72.098  1.00  0.00     0.009 A 
HETATM   14  C3  UNL     1      11.039  31.172  71.187  1.00  0.00     0.007 A 
HETATM   15  C2  UNL     1      11.805  32.319  71.160  1.00  0.00    -0.062 A 
HETATM   16  C1  UNL     1      12.881  32.469  70.155  1.00  0.00     0.048 C 
HETATM   17  C26 UNL     1      11.497  33.264  72.104  1.00  0.00     0.007 A 
HETATM   18  C25 UNL     1      10.477  33.098  73.043  1.00  0.00     0.009 A 
ENDBRANCH  11  12
ENDBRANCH   7  11
ENDBRANCH   4   6
ENDBRANCH   1   3
BRANCH   1  19
HETATM   19  C12 UNL     1       8.010  37.216  75.544  1.00  0.00     0.073 A 
HETATM   20  C13 UNL     1       8.590  37.785  74.379  1.00  0.00     0.020 A 
HETATM   21  C14 UNL     1       9.806  37.298  73.939  1.00  0.00     0.016 A 
HETATM   22  C18 UNL     1       7.995  38.784  73.692  1.00  0.00     0.045 A 
HETATM   23  C15 UNL     1      10.426  37.806  72.816  1.00  0.00     0.001 A 
HETATM   24  C16 UNL     1       9.821  38.837  72.098  1.00  0.00     0.002 A 
HETATM   25  C17 UNL     1       8.615  39.295  72.566  1.00  0.00     0.030 A 
HETATM   26  N4  UNL     1       6.817  39.274  74.098  1.00  0.00    -0.355 N 
HETATM   27  C19 UNL     1       6.202  38.785  75.196  1.00  0.00     0.045 A 
ATOM     28  H4  UNL     1       6.378  40.028  73.570  1.00  0.00     0.166 HD
HETATM   29  C20 UNL     1       4.985  39.352  75.545  1.00  0.00     0.030 A 
HETATM   30  C24 UNL     1       6.783  37.774  75.911  1.00  0.00     0.020 A 
HETATM   31  C21 UNL     1       4.350  38.865  76.659  1.00  0.00     0.002 A 
HETATM   32  C22 UNL     1       4.898  37.848  77.409  1.00  0.00     0.001 A 
HETATM   33  C23 UNL     1       6.124  37.304  77.025  1.00  0.00     0.016 A 
ENDBRANCH   1  19
TORSDOF 5
ENDMDL
MODEL 4
REMARK VINA RESULT: -8.824509976      1.047      3.630
REMARK  5 active torsions:
REMARK  status: ('A' for Active; 'I' for Inactive)
REMARK    1  A    between atoms: C5_5  and  C6_6 
REMARK    2  A    between atoms: C6_6  and  N1_7 
REMARK    3  A    between atoms: C10_11  and  C11_12 
REMARK    4  A    between atoms: N2_13  and  N3_15 
REMARK    5  A    between atoms: N3_15  and  C12_17 
ROOT
HETATM    1  N3  UNL     1       8.153  36.294  76.486  1.00  0.00    -0.299 N 
ATOM      2  H3  UNL     1       8.762  36.710  77.191  1.00  0.00     0.187 HD
ENDROOT
BRANCH   1   3
HETATM    3  N2  UNL     1       8.052  35.040  76.766  1.00  0.00    -0.309 N 
HETATM    4  C11 UNL     1       7.662  33.961  76.254  1.00  0.00     0.136 C 
ATOM      5  H2  UNL     1       8.401  34.868  77.709  1.00  0.00     0.186 HD
BRANCH   4   6
HETATM    6  C10 UNL     1       7.101  33.793  74.922  1.00  0.00     0.051 A 
HETATM    7  N1  UNL     1       7.439  32.902  73.980  1.00  0.00    -0.351 N 
HETATM    8  C7  UNL     1       6.651  33.082  72.907  1.00  0.00     0.091 A 
HETATM    9  C8  UNL     1       5.794  34.108  73.168  1.00  0.00     0.020 A 
HETATM   10  C9  UNL     1       6.066  34.568  74.436  1.00  0.00     0.032 A 
BRANCH   7  11
HETATM   11  C6  UNL     1       8.501  31.935  74.124  1.00  0.00     0.167 C 
BRANCH  11  12
HETATM   12  C5  UNL     1       9.603  32.098  73.148  1.00  0.00    -0.040 A 
HETATM   13  C4  UNL     1       9.887  31.132  72.202  1.00  0.00     0.009 A 
HETATM   14  C3  UNL     1      10.915  31.289  71.309  1.00  0.00     0.007 A 
HETATM   15  C2  UNL     1      11.719  32.410  71.301  1.00  0.00    -0.062 A 
HETATM   16  C1  UNL     1      12.817  32.528  70.314  1.00  0.00     0.048 C 
HETATM   17  C26 UNL     1      11.428  33.360  72.244  1.00  0.00     0.007 A 
HETATM   18  C25 UNL     1      10.387  33.224  73.165  1.00  0.00     0.009 A 
ENDBRANCH  11  12
ENDBRANCH   7  11
ENDBRANCH   4   6
ENDBRANCH   1   3
BRANCH   1  19
HETATM   19  C12 UNL     1       7.818  37.203  75.717  1.00  0.00     0.073 A 
HETATM   20  C13 UNL     1       6.595  37.888  75.949  1.00  0.00     0.020 A 
HETATM   21  C14 UNL     1       5.819  37.511  77.028  1.00  0.00     0.016 A 
HETATM   22  C18 UNL     1       6.168  38.890  75.150  1.00  0.00     0.045 A 
HETATM   23  C15 UNL     1       4.621  38.133  77.311  1.00  0.00     0.001 A 
HETATM   24  C16 UNL     1       4.169  39.170  76.493  1.00  0.00     0.002 A 
HETATM   25  C17 UNL     1       4.967  39.515  75.431  1.00  0.00     0.030 A 
HETATM   26  N4  UNL     1       6.901  39.273  74.097  1.00  0.00    -0.355 N 
HETATM   27  C19 UNL     1       8.075  38.671  73.812  1.00  0.00     0.045 A 
ATOM     28  H4  UNL     1       6.567  40.031  73.502  1.00  0.00     0.166 HD
HETATM   29  C20 UNL     1       8.768  39.131  72.701  1.00  0.00     0.030 A 
HETATM   30  C24 UNL     1       8.531  37.653  74.603  1.00  0.00     0.020 A 
HETATM   31  C21 UNL     1       9.962  38.527  72.399  1.00  0.00     0.002 A 
HETATM   32  C22 UNL     1      10.460  37.499  73.168  1.00  0.00     0.001 A 
HETATM   33  C23 UNL     1       9.732  37.065  74.277  1.00  0.00     0.016 A 
ENDBRANCH   1  19
TORSDOF 5
ENDMDL
MODEL 5
REMARK VINA RESULT: -8.727639397      3.054      6.215
REMARK  5 active torsions:
REMARK  status: ('A' for Active; 'I' for Inactive)
REMARK    1  A    between atoms: C5_5  and  C6_6 
REMARK    2  A    between atoms: C6_6  and  N1_7 
REMARK    3  A    between atoms: C10_11  and  C11_12 
REMARK    4  A    between atoms: N2_13  and  N3_15 
REMARK    5  A    between atoms: N3_15  and  C12_17 
ROOT
HETATM    1  N3  UNL     1       4.443  38.312  77.511  1.00  0.00    -0.299 N 
ATOM      2  H3  UNL     1       4.467  38.106  76.512  1.00  0.00     0.187 HD
ENDROOT
BRANCH   1   3
HETATM    3  N2  UNL     1       5.513  37.811  78.025  1.00  0.00    -0.309 N 
HETATM    4  C11 UNL     1       6.307  36.850  77.867  1.00  0.00     0.136 C 
ATOM      5  H2  UNL     1       5.814  38.380  78.818  1.00  0.00     0.186 HD
BRANCH   4   6
HETATM    6  C10 UNL     1       6.219  35.820  76.843  1.00  0.00     0.051 A 
HETATM    7  N1  UNL     1       7.192  35.337  76.059  1.00  0.00    -0.351 N 
HETATM    8  C7  UNL     1       6.681  34.378  75.271  1.00  0.00     0.091 A 
HETATM    9  C8  UNL     1       5.355  34.246  75.554  1.00  0.00     0.020 A 
HETATM   10  C9  UNL     1       5.048  35.150  76.545  1.00  0.00     0.032 A 
BRANCH   7  11
HETATM   11  C6  UNL     1       8.555  35.812  76.075  1.00  0.00     0.167 C 
BRANCH  11  12
HETATM   12  C5  UNL     1       8.873  36.770  74.990  1.00  0.00    -0.040 A 
HETATM   13  C4  UNL     1       7.963  37.721  74.569  1.00  0.00     0.009 A 
HETATM   14  C3  UNL     1       8.265  38.597  73.559  1.00  0.00     0.007 A 
HETATM   15  C2  UNL     1       9.481  38.582  72.909  1.00  0.00    -0.062 A 
HETATM   16  C1  UNL     1       9.755  39.551  71.824  1.00  0.00     0.048 C 
HETATM   17  C26 UNL     1      10.375  37.634  73.336  1.00  0.00     0.007 A 
HETATM   18  C25 UNL     1      10.092  36.730  74.362  1.00  0.00     0.009 A 
ENDBRANCH  11  12
ENDBRANCH   7  11
ENDBRANCH   4   6
ENDBRANCH   1   3
BRANCH   1  19
HETATM   19  C12 UNL     1       3.398  38.938  77.726  1.00  0.00     0.073 A 
HETATM   20  C13 UNL     1       2.264  38.240  78.221  1.00  0.00     0.020 A 
HETATM   21  C14 UNL     1       2.368  36.880  78.442  1.00  0.00     0.016 A 
HETATM   22  C18 UNL     1       1.093  38.861  78.479  1.00  0.00     0.045 A 
HETATM   23  C15 UNL     1       1.306  36.141  78.920  1.00  0.00     0.001 A 
HETATM   24  C16 UNL     1       0.090  36.771  79.191  1.00  0.00     0.002 A 
HETATM   25  C17 UNL     1       0.026  38.122  78.959  1.00  0.00     0.030 A 
HETATM   26  N4  UNL     1       0.966  40.178  78.273  1.00  0.00    -0.355 N 
HETATM   27  C19 UNL     1       1.999  40.910  77.805  1.00  0.00     0.045 A 
ATOM     28  H4  UNL     1       0.076  40.634  78.472  1.00  0.00     0.166 HD
HETATM   29  C20 UNL     1       1.779  42.267  77.619  1.00  0.00     0.030 A 
HETATM   30  C24 UNL     1       3.197  40.307  77.534  1.00  0.00     0.020 A 
HETATM   31  C21 UNL     1       2.821  43.023  77.143  1.00  0.00     0.002 A 
HETATM   32  C22 UNL     1       4.044  42.458  76.857  1.00  0.00     0.001 A 
HETATM   33  C23 UNL     1       4.224  41.089  77.057  1.00  0.00     0.016 A 
ENDBRANCH   1  19
TORSDOF 5
ENDMDL
