MODEL 1
REMARK VINA RESULT: -9.963156490      0.000      0.000
REMARK  5 active torsions:
REMARK  status: ('A' for Active; 'I' for Inactive)
REMARK    1  A    between atoms: C4_4  and  C5_5 
REMARK    2  A    between atoms: C11_15  and  N3_16 
REMARK    3  A    between atoms: N3_16  and  C12_18 
REMARK    4  A    between atoms: C12_18  and  C13_19 
REMARK    5  A    between atoms: C12_18  and  C19_25 
ROOT
HETATM    1  C5  UNL     1       4.288  39.260  76.920  1.00  0.00     0.118 A 
HETATM    2  N1  UNL     1       4.006  38.367  77.887  1.00  0.00    -0.327 N 
ATOM      3  H1  UNL     1       3.413  38.670  78.660  1.00  0.00     0.169 HD
HETATM    4  C6  UNL     1       4.455  37.104  77.897  1.00  0.00     0.120 A 
HETATM    5  N2  UNL     1       4.136  36.248  78.900  1.00  0.00    -0.351 N 
ATOM      6  H2  UNL     1       3.543  36.550  79.673  1.00  0.00     0.166 HD
HETATM    7  C7  UNL     1       4.624  34.974  78.853  1.00  0.00     0.090 A 
HETATM    8  C8  UNL     1       5.420  34.551  77.821  1.00  0.00     0.018 A 
HETATM    9  C9  UNL     1       5.731  35.433  76.817  1.00  0.00     0.020 A 
HETATM   10  C10 UNL     1       5.252  36.736  76.833  1.00  0.00     0.052 A 
HETATM   11  C11 UNL     1       5.571  37.620  75.813  1.00  0.00     0.117 A 
HETATM   12  N4  UNL     1       5.068  38.864  75.903  1.00  0.00    -0.327 N 
ATOM     13  H4  UNL     1       5.288  39.534  75.166  1.00  0.00     0.169 HD
ENDROOT
BRANCH  11  14
HETATM   14  N3  UNL     1       6.307  37.184  74.885  1.00  0.00    -0.363 N 
ATOM     15  H3  UNL     1       5.849  37.084  73.979  1.00  0.00     0.162 HD
BRANCH  14  16
HETATM   16  C12 UNL     1       7.679  36.813  74.914  1.00  0.00     0.149 C 
BRANCH  16  17
HETATM   17  C13 UNL     1       7.774  35.423  74.339  1.00  0.00    -0.031 A 
HETATM   18  C14 UNL     1       8.691  34.503  74.805  1.00  0.00     0.009 A 
HETATM   19  C15 UNL     1       8.784  33.231  74.285  1.00  0.00     0.001 A 
HETATM   20  C16 UNL     1       7.928  32.840  73.250  1.00  0.00     0.000 A 
HETATM   21  C17 UNL     1       7.006  33.757  72.777  1.00  0.00     0.001 A 
HETATM   22  C18 UNL     1       6.929  35.030  73.312  1.00  0.00     0.009 A 
ENDBRANCH  16  17
BRANCH  16  23
HETATM   23  C19 UNL     1       8.488  37.676  73.980  1.00  0.00    -0.031 A 
HETATM   24  C20 UNL     1       7.923  38.716  73.274  1.00  0.00     0.009 A 
HETATM   25  C21 UNL     1       8.651  39.515  72.414  1.00  0.00     0.001 A 
HETATM   26  C22 UNL     1       9.993  39.260  72.256  1.00  0.00     0.000 A 
HETATM   27  C23 UNL     1      10.599  38.231  72.942  1.00  0.00     0.001 A 
HETATM   28  C24 UNL     1       9.836  37.447  73.799  1.00  0.00     0.009 A 
ENDBRANCH  16  23
ENDBRANCH  14  16
ENDBRANCH  11  14
BRANCH   1  29
HETATM   29  C4  UNL     1       3.731  40.594  77.044  1.00  0.00     0.008 A 
HETATM   30  C3  UNL     1       2.401  40.777  77.370  1.00  0.00     0.015 A 
HETATM   31  C2  UNL     1       1.855  42.046  77.491  1.00  0.00     0.001 A 
HETATM   32  C1  UNL     1       2.621  43.174  77.291  1.00  0.00     0.000 A 
HETATM   33  C26 UNL     1       3.946  42.996  76.967  1.00  0.00     0.001 A 
HETATM   34  C25 UNL     1       4.502  41.715  76.843  1.00  0.00     0.015 A 
ENDBRANCH   1  29
TORSDOF 5
ENDMDL
MODEL 2
REMARK VINA RESULT: -9.903615651      0.654      3.351
REMARK  5 active torsions:
REMARK  status: ('A' for Active; 'I' for Inactive)
REMARK    1  A    between atoms: C4_4  and  C5_5 
REMARK    2  A    between atoms: C11_15  and  N3_16 
REMARK    3  A    between atoms: N3_16  and  C12_18 
REMARK    4  A    between atoms: C12_18  and  C13_19 
REMARK    5  A    between atoms: C12_18  and  C19_25 
ROOT
HETATM    1  C5  UNL     1       4.216  39.251  77.074  1.00  0.00     0.118 A 
HETATM    2  N1  UNL     1       3.782  38.280  77.899  1.00  0.00    -0.327 N 
ATOM      3  H1  UNL     1       3.035  38.508  78.554  1.00  0.00     0.169 HD
HETATM    4  C6  UNL     1       4.271  37.032  77.913  1.00  0.00     0.120 A 
HETATM    5  N2  UNL     1       3.792  36.095  78.770  1.00  0.00    -0.351 N 
ATOM      6  H2  UNL     1       3.045  36.322  79.425  1.00  0.00     0.166 HD
HETATM    7  C7  UNL     1       4.332  34.841  78.735  1.00  0.00     0.090 A 
HETATM    8  C8  UNL     1       5.336  34.519  77.861  1.00  0.00     0.018 A 
HETATM    9  C9  UNL     1       5.806  35.481  77.004  1.00  0.00     0.020 A 
HETATM   10  C10 UNL     1       5.280  36.766  77.011  1.00  0.00     0.052 A 
HETATM   11  C11 UNL     1       5.762  37.732  76.141  1.00  0.00     0.117 A 
HETATM   12  N4  UNL     1       5.200  38.953  76.211  1.00  0.00    -0.327 N 
ATOM     13  H4  UNL     1       5.537  39.682  75.582  1.00  0.00     0.169 HD
ENDROOT
BRANCH  11  14
HETATM   14  N3  UNL     1       6.687  37.388  75.354  1.00  0.00    -0.363 N 
ATOM     15  H3  UNL     1       7.610  37.307  75.780  1.00  0.00     0.162 HD
BRANCH  14  16
HETATM   16  C12 UNL     1       6.633  37.097  73.964  1.00  0.00     0.149 C 
BRANCH  16  17
HETATM   17  C13 UNL     1       7.838  37.743  73.330  1.00  0.00    -0.031 A 
HETATM   18  C14 UNL     1       9.098  37.637  73.883  1.00  0.00     0.009 A 
HETATM   19  C15 UNL     1      10.204  38.225  73.309  1.00  0.00     0.001 A 
HETATM   20  C16 UNL     1      10.065  38.958  72.127  1.00  0.00     0.000 A 
HETATM   21  C17 UNL     1       8.805  39.069  71.567  1.00  0.00     0.001 A 
HETATM   22  C18 UNL     1       7.707  38.472  72.157  1.00  0.00     0.009 A 
ENDBRANCH  16  17
BRANCH  16  23
HETATM   23  C19 UNL     1       6.810  35.621  73.718  1.00  0.00    -0.031 A 
HETATM   24  C20 UNL     1       8.027  34.994  73.881  1.00  0.00     0.009 A 
HETATM   25  C21 UNL     1       8.204  33.642  73.660  1.00  0.00     0.001 A 
HETATM   26  C22 UNL     1       7.122  32.893  73.259  1.00  0.00     0.000 A 
HETATM   27  C23 UNL     1       5.888  33.478  73.084  1.00  0.00     0.001 A 
HETATM   28  C24 UNL     1       5.745  34.841  73.316  1.00  0.00     0.009 A 
ENDBRANCH  16  23
ENDBRANCH  14  16
ENDBRANCH  11  14
BRANCH   1  29
HETATM   29  C4  UNL     1       3.591  40.557  77.173  1.00  0.00     0.008 A 
HETATM   30  C3  UNL     1       4.318  41.708  76.934  1.00  0.00     0.015 A 
HETATM   31  C2  UNL     1       3.734  42.962  77.026  1.00  0.00     0.001 A 
HETATM   32  C1  UNL     1       2.405  43.107  77.359  1.00  0.00     0.000 A 
HETATM   33  C26 UNL     1       1.678  41.963  77.597  1.00  0.00     0.001 A 
HETATM   34  C25 UNL     1       2.264  40.693  77.505  1.00  0.00     0.015 A 
ENDBRANCH   1  29
TORSDOF 5
ENDMDL
MODEL 3
REMARK VINA RESULT: -9.864084628      0.649      3.366
REMARK  5 active torsions:
REMARK  status: ('A' for Active; 'I' for Inactive)
REMARK    1  A    between atoms: C4_4  and  C5_5 
REMARK    2  A    between atoms: C11_15  and  N3_16 
REMARK    3  A    between atoms: N3_16  and  C12_18 
REMARK    4  A    between atoms: C12_18  and  C13_19 
REMARK    5  A    between atoms: C12_18  and  C19_25 
ROOT
HETATM    1  C5  UNL     1       4.212  39.292  77.057  1.00  0.00     0.118 A 
HETATM    2  N1  UNL     1       3.772  38.319  77.877  1.00  0.00    -0.327 N 
ATOM      3  H1  UNL     1       3.023  38.547  78.530  1.00  0.00     0.169 HD
HETATM    4  C6  UNL     1       4.257  37.069  77.887  1.00  0.00     0.120 A 
HETATM    5  N2  UNL     1       3.773  36.129  78.737  1.00  0.00    -0.351 N 
ATOM      6  H2  UNL     1       3.024  36.356  79.391  1.00  0.00     0.166 HD
HETATM    7  C7  UNL     1       4.308  34.874  78.698  1.00  0.00     0.090 A 
HETATM    8  C8  UNL     1       5.314  34.553  77.826  1.00  0.00     0.018 A 
HETATM    9  C9  UNL     1       5.790  35.518  76.975  1.00  0.00     0.020 A 
HETATM   10  C10 UNL     1       5.269  36.805  76.986  1.00  0.00     0.052 A 
HETATM   11  C11 UNL     1       5.756  37.773  76.123  1.00  0.00     0.117 A 
HETATM   12  N4  UNL     1       5.198  38.995  76.196  1.00  0.00    -0.327 N 
ATOM     13  H4  UNL     1       5.539  39.726  75.572  1.00  0.00     0.169 HD
ENDROOT
BRANCH  11  14
HETATM   14  N3  UNL     1       6.683  37.429  75.338  1.00  0.00    -0.363 N 
ATOM     15  H3  UNL     1       7.608  37.359  75.763  1.00  0.00     0.162 HD
BRANCH  14  16
HETATM   16  C12 UNL     1       6.630  37.125  73.950  1.00  0.00     0.149 C 
BRANCH  16  17
HETATM   17  C13 UNL     1       7.832  37.769  73.310  1.00  0.00    -0.031 A 
HETATM   18  C14 UNL     1       7.735  38.490  72.137  1.00  0.00     0.009 A 
HETATM   19  C15 UNL     1       8.829  39.082  71.545  1.00  0.00     0.001 A 
HETATM   20  C16 UNL     1      10.090  38.958  72.138  1.00  0.00     0.000 A 
HETATM   21  C17 UNL     1      10.195  38.236  73.314  1.00  0.00     0.001 A 
HETATM   22  C18 UNL     1       9.085  37.650  73.892  1.00  0.00     0.009 A 
ENDBRANCH  16  17
BRANCH  16  23
HETATM   23  C19 UNL     1       6.810  35.648  73.717  1.00  0.00    -0.031 A 
HETATM   24  C20 UNL     1       5.775  34.845  73.288  1.00  0.00     0.009 A 
HETATM   25  C21 UNL     1       5.925  33.489  73.070  1.00  0.00     0.001 A 
HETATM   26  C22 UNL     1       7.157  32.919  73.292  1.00  0.00     0.000 A 
HETATM   27  C23 UNL     1       8.219  33.684  73.721  1.00  0.00     0.001 A 
HETATM   28  C24 UNL     1       8.032  35.045  73.930  1.00  0.00     0.009 A 
ENDBRANCH  16  23
ENDBRANCH  14  16
ENDBRANCH  11  14
BRANCH   1  29
HETATM   29  C4  UNL     1       3.591  40.599  77.160  1.00  0.00     0.008 A 
HETATM   30  C3  UNL     1       4.321  41.749  76.923  1.00  0.00     0.015 A 
HETATM   31  C2  UNL     1       3.740  43.005  77.019  1.00  0.00     0.001 A 
HETATM   32  C1  UNL     1       2.413  43.152  77.354  1.00  0.00     0.000 A 
HETATM   33  C26 UNL     1       1.683  42.011  77.591  1.00  0.00     0.001 A 
HETATM   34  C25 UNL     1       2.265  40.739  77.496  1.00  0.00     0.015 A 
ENDBRANCH   1  29
TORSDOF 5
ENDMDL
MODEL 4
REMARK VINA RESULT: -9.718574376      4.304      8.843
REMARK  5 active torsions:
REMARK  status: ('A' for Active; 'I' for Inactive)
REMARK    1  A    between atoms: C4_4  and  C5_5 
REMARK    2  A    between atoms: C11_15  and  N3_16 
REMARK    3  A    between atoms: N3_16  and  C12_18 
REMARK    4  A    between atoms: C12_18  and  C13_19 
REMARK    5  A    between atoms: C12_18  and  C19_25 
ROOT
HETATM    1  C5  UNL     1      10.330  32.164  72.297  1.00  0.00     0.118 A 
HETATM    2  N1  UNL     1       9.418  31.197  72.506  1.00  0.00    -0.327 N 
ATOM      3  H1  UNL     1       9.591  30.280  72.095  1.00  0.00     0.169 HD
HETATM    4  C6  UNL     1       8.296  31.364  73.221  1.00  0.00     0.120 A 
HETATM    5  N2  UNL     1       7.413  30.349  73.397  1.00  0.00    -0.351 N 
ATOM      6  H2  UNL     1       7.585  29.432  72.987  1.00  0.00     0.166 HD
HETATM    7  C7  UNL     1       6.289  30.582  74.136  1.00  0.00     0.090 A 
HETATM    8  C8  UNL     1       6.042  31.808  74.696  1.00  0.00     0.018 A 
HETATM    9  C9  UNL     1       6.949  32.821  74.505  1.00  0.00     0.020 A 
HETATM   10  C10 UNL     1       8.102  32.619  73.759  1.00  0.00     0.052 A 
HETATM   11  C11 UNL     1       9.012  33.648  73.571  1.00  0.00     0.117 A 
HETATM   12  N4  UNL     1      10.105  33.372  72.836  1.00  0.00    -0.327 N 
ATOM     13  H4  UNL     1      10.789  34.112  72.683  1.00  0.00     0.169 HD
ENDROOT
BRANCH  11  14
HETATM   14  N3  UNL     1       8.742  34.759  74.106  1.00  0.00    -0.363 N 
ATOM     15  H3  UNL     1       7.748  34.987  74.154  1.00  0.00     0.162 HD
BRANCH  14  16
HETATM   16  C12 UNL     1       9.615  35.740  74.651  1.00  0.00     0.149 C 
BRANCH  16  17
HETATM   17  C13 UNL     1       9.408  37.005  73.859  1.00  0.00    -0.031 A 
HETATM   18  C14 UNL     1      10.456  37.659  73.244  1.00  0.00     0.009 A 
HETATM   19  C15 UNL     1      10.276  38.816  72.518  1.00  0.00     0.001 A 
HETATM   20  C16 UNL     1       8.995  39.362  72.389  1.00  0.00     0.000 A 
HETATM   21  C17 UNL     1       7.939  38.712  73.004  1.00  0.00     0.001 A 
HETATM   22  C18 UNL     1       8.141  37.552  73.728  1.00  0.00     0.009 A 
ENDBRANCH  16  17
BRANCH  16  23
HETATM   23  C19 UNL     1       9.212  36.093  76.059  1.00  0.00    -0.031 A 
HETATM   24  C20 UNL     1       9.888  37.043  76.795  1.00  0.00     0.009 A 
HETATM   25  C21 UNL     1       9.531  37.378  78.086  1.00  0.00     0.001 A 
HETATM   26  C22 UNL     1       8.459  36.735  78.661  1.00  0.00     0.000 A 
HETATM   27  C23 UNL     1       7.755  35.780  77.962  1.00  0.00     0.001 A 
HETATM   28  C24 UNL     1       8.141  35.468  76.664  1.00  0.00     0.009 A 
ENDBRANCH  16  23
ENDBRANCH  14  16
ENDBRANCH  11  14
BRANCH   1  29
HETATM   29  C4  UNL     1      11.498  31.837  71.500  1.00  0.00     0.008 A 
HETATM   30  C3  UNL     1      11.377  31.090  70.343  1.00  0.00     0.015 A 
HETATM   31  C2  UNL     1      12.484  30.769  69.573  1.00  0.00     0.001 A 
HETATM   32  C1  UNL     1      13.747  31.184  69.932  1.00  0.00     0.000 A 
HETATM   33  C26 UNL     1      13.872  31.928  71.082  1.00  0.00     0.001 A 
HETATM   34  C25 UNL     1      12.756  32.255  71.865  1.00  0.00     0.015 A 
ENDBRANCH   1  29
TORSDOF 5
ENDMDL
MODEL 5
REMARK VINA RESULT: -9.712275402      4.288      8.854
REMARK  5 active torsions:
REMARK  status: ('A' for Active; 'I' for Inactive)
REMARK    1  A    between atoms: C4_4  and  C5_5 
REMARK    2  A    between atoms: C11_15  and  N3_16 
REMARK    3  A    between atoms: N3_16  and  C12_18 
REMARK    4  A    between atoms: C12_18  and  C13_19 
REMARK    5  A    between atoms: C12_18  and  C19_25 
ROOT
HETATM    1  C5  UNL     1      10.335  32.164  72.317  1.00  0.00     0.118 A 
HETATM    2  N1  UNL     1       9.427  31.195  72.539  1.00  0.00    -0.327 N 
ATOM      3  H1  UNL     1       9.604  30.274  72.139  1.00  0.00     0.169 HD
HETATM    4  C6  UNL     1       8.305  31.366  73.252  1.00  0.00     0.120 A 
HETATM    5  N2  UNL     1       7.426  30.350  73.442  1.00  0.00    -0.351 N 
ATOM      6  H2  UNL     1       7.602  29.429  73.042  1.00  0.00     0.166 HD
HETATM    7  C7  UNL     1       6.302  30.588  74.179  1.00  0.00     0.090 A 
HETATM    8  C8  UNL     1       6.050  31.820  74.723  1.00  0.00     0.018 A 
HETATM    9  C9  UNL     1       6.952  32.833  74.519  1.00  0.00     0.020 A 
HETATM   10  C10 UNL     1       8.106  32.627  73.776  1.00  0.00     0.052 A 
HETATM   11  C11 UNL     1       9.012  33.658  73.575  1.00  0.00     0.117 A 
HETATM   12  N4  UNL     1      10.105  33.377  72.843  1.00  0.00    -0.327 N 
ATOM     13  H4  UNL     1      10.787  34.118  72.680  1.00  0.00     0.169 HD
ENDROOT
BRANCH  11  14
HETATM   14  N3  UNL     1       8.737  34.774  74.096  1.00  0.00    -0.363 N 
ATOM     15  H3  UNL     1       7.744  35.007  74.125  1.00  0.00     0.162 HD
BRANCH  14  16
HETATM   16  C12 UNL     1       9.605  35.755  74.649  1.00  0.00     0.149 C 
BRANCH  16  17
HETATM   17  C13 UNL     1       9.398  37.023  73.861  1.00  0.00    -0.031 A 
HETATM   18  C14 UNL     1       8.155  37.613  73.743  1.00  0.00     0.009 A 
HETATM   19  C15 UNL     1       7.957  38.772  73.025  1.00  0.00     0.001 A 
HETATM   20  C16 UNL     1       9.040  39.386  72.388  1.00  0.00     0.000 A 
HETATM   21  C17 UNL     1      10.289  38.801  72.502  1.00  0.00     0.001 A 
HETATM   22  C18 UNL     1      10.467  37.638  73.227  1.00  0.00     0.009 A 
ENDBRANCH  16  17
BRANCH  16  23
HETATM   23  C19 UNL     1       9.196  36.101  76.057  1.00  0.00    -0.031 A 
HETATM   24  C20 UNL     1       8.113  35.507  76.669  1.00  0.00     0.009 A 
HETATM   25  C21 UNL     1       7.727  35.813  77.959  1.00  0.00     0.001 A 
HETATM   26  C22 UNL     1       8.451  36.750  78.659  1.00  0.00     0.000 A 
HETATM   27  C23 UNL     1       9.540  37.368  78.086  1.00  0.00     0.001 A 
HETATM   28  C24 UNL     1       9.902  37.035  76.786  1.00  0.00     0.009 A 
ENDBRANCH  16  23
ENDBRANCH  14  16
ENDBRANCH  11  14
BRANCH   1  29
HETATM   29  C4  UNL     1      11.504  31.831  71.524  1.00  0.00     0.008 A 
HETATM   30  C3  UNL     1      11.383  31.087  70.366  1.00  0.00     0.015 A 
HETATM   31  C2  UNL     1      12.491  30.762  69.598  1.00  0.00     0.001 A 
HETATM   32  C1  UNL     1      13.755  31.169  69.963  1.00  0.00     0.000 A 
HETATM   33  C26 UNL     1      13.880  31.910  71.115  1.00  0.00     0.001 A 
HETATM   34  C25 UNL     1      12.763  32.242  71.894  1.00  0.00     0.015 A 
ENDBRANCH   1  29
TORSDOF 5
ENDMDL
