MODEL 1
REMARK VINA RESULT: -8.978016241      0.000      0.000
REMARK  4 active torsions:
REMARK  status: ('A' for Active; 'I' for Inactive)
REMARK    1  A    between atoms: C3_6  and  C4_7 
REMARK    2  A    between atoms: C4_7  and  C5_8 
REMARK    3  A    between atoms: N4_26  and  C18_27 
REMARK    4  A    between atoms: C18_27  and  C19_28 
ROOT
HETATM    1  O1  UNL     1      12.012  33.615  71.178  1.00  0.00    -0.247 OA
HETATM    2  C1  UNL     1      11.033  33.149  71.855  1.00  0.00     0.323 C 
HETATM    3  N1  UNL     1      10.452  33.915  72.897  1.00  0.00    -0.306 N 
ATOM      4  H1  UNL     1      10.820  34.841  73.117  1.00  0.00     0.171 HD
HETATM    5  C2  UNL     1       9.356  33.390  73.636  1.00  0.00     0.074 A 
HETATM    6  C3  UNL     1       8.836  34.099  74.689  1.00  0.00     0.057 A 
HETATM    7  N2  UNL     1       7.815  33.497  75.389  1.00  0.00    -0.299 N 
ATOM      8  H2  UNL     1       7.401  33.991  76.179  1.00  0.00     0.186 HD
HETATM    9  N3  UNL     1       7.353  32.303  75.074  1.00  0.00    -0.266 N 
ATOM     10  H3  UNL     1       6.594  31.912  75.631  1.00  0.00     0.190 HD
HETATM   11  C15 UNL     1       7.833  31.586  74.060  1.00  0.00     0.270 A 
HETATM   12  O2  UNL     1       7.386  30.429  73.758  1.00  0.00    -0.266 OA
HETATM   13  C16 UNL     1       8.874  32.133  73.297  1.00  0.00     0.058 A 
HETATM   14  C17 UNL     1       9.297  31.402  72.110  1.00  0.00     0.174 C 
HETATM   15  N4  UNL     1      10.533  31.863  71.557  1.00  0.00    -0.325 N 
ENDROOT
BRANCH   6  16
HETATM   16  C4  UNL     1       9.341  35.372  75.183  1.00  0.00     0.100 C 
BRANCH  16  17
HETATM   17  C5  UNL     1       8.519  36.466  74.561  1.00  0.00    -0.041 A 
HETATM   18  C6  UNL     1       7.180  36.541  74.944  1.00  0.00     0.008 A 
HETATM   19  C7  UNL     1       6.320  37.510  74.506  1.00  0.00     0.001 A 
HETATM   20  C8  UNL     1       6.784  38.473  73.644  1.00  0.00     0.012 A 
HETATM   21  C9  UNL     1       8.108  38.420  73.253  1.00  0.00    -0.025 A 
HETATM   22  C10 UNL     1       8.622  39.354  72.376  1.00  0.00     0.012 A 
HETATM   23  C14 UNL     1       8.982  37.416  73.708  1.00  0.00    -0.019 A 
HETATM   24  C11 UNL     1       9.922  39.355  71.928  1.00  0.00     0.001 A 
HETATM   25  C12 UNL     1      10.732  38.348  72.402  1.00  0.00     0.001 A 
HETATM   26  C13 UNL     1      10.287  37.387  73.275  1.00  0.00     0.013 A 
ENDBRANCH  16  17
ENDBRANCH   6  16
BRANCH  15  27
HETATM   27  C18 UNL     1      11.248  30.944  70.672  1.00  0.00     0.166 C 
BRANCH  27  28
HETATM   28  C19 UNL     1      12.596  30.585  71.144  1.00  0.00    -0.040 A 
HETATM   29  C20 UNL     1      12.832  30.251  72.489  1.00  0.00     0.009 A 
HETATM   30  C21 UNL     1      14.091  29.937  72.913  1.00  0.00     0.001 A 
HETATM   31  C22 UNL     1      15.184  29.931  72.048  1.00  0.00     0.000 A 
HETATM   32  C23 UNL     1      14.937  30.263  70.730  1.00  0.00     0.001 A 
HETATM   33  C24 UNL     1      13.658  30.587  70.280  1.00  0.00     0.009 A 
ENDBRANCH  27  28
ENDBRANCH  15  27
TORSDOF 4
ENDMDL
MODEL 2
REMARK VINA RESULT: -8.556104956      2.118      7.028
REMARK  4 active torsions:
REMARK  status: ('A' for Active; 'I' for Inactive)
REMARK    1  A    between atoms: C3_6  and  C4_7 
REMARK    2  A    between atoms: C4_7  and  C5_8 
REMARK    3  A    between atoms: N4_26  and  C18_27 
REMARK    4  A    between atoms: C18_27  and  C19_28 
ROOT
HETATM    1  O1  UNL     1       9.424  35.819  76.241  1.00  0.00    -0.247 OA
HETATM    2  C1  UNL     1       8.682  35.149  75.445  1.00  0.00     0.323 C 
HETATM    3  N1  UNL     1       8.915  33.765  75.241  1.00  0.00    -0.306 N 
ATOM      4  H1  UNL     1       9.682  33.299  75.725  1.00  0.00     0.171 HD
HETATM    5  C2  UNL     1       8.075  33.028  74.360  1.00  0.00     0.074 A 
HETATM    6  C3  UNL     1       8.338  31.706  74.108  1.00  0.00     0.057 A 
HETATM    7  N2  UNL     1       7.514  31.078  73.201  1.00  0.00    -0.299 N 
ATOM      8  H2  UNL     1       7.677  30.095  72.986  1.00  0.00     0.186 HD
HETATM    9  N3  UNL     1       6.522  31.705  72.601  1.00  0.00    -0.266 N 
ATOM     10  H3  UNL     1       5.947  31.184  71.939  1.00  0.00     0.190 HD
HETATM   11  C15 UNL     1       6.237  32.987  72.820  1.00  0.00     0.270 A 
HETATM   12  O2  UNL     1       5.277  33.592  72.236  1.00  0.00    -0.266 OA
HETATM   13  C16 UNL     1       7.030  33.694  73.734  1.00  0.00     0.058 A 
HETATM   14  C17 UNL     1       6.627  35.053  74.068  1.00  0.00     0.174 C 
HETATM   15  N4  UNL     1       7.626  35.798  74.769  1.00  0.00    -0.325 N 
ENDROOT
BRANCH   6  16
HETATM   16  C4  UNL     1       9.468  30.953  74.635  1.00  0.00     0.100 C 
BRANCH  16  17
HETATM   17  C5  UNL     1      10.257  30.429  73.468  1.00  0.00    -0.041 A 
HETATM   18  C6  UNL     1      10.260  29.047  73.281  1.00  0.00     0.008 A 
HETATM   19  C7  UNL     1      10.888  28.426  72.236  1.00  0.00     0.001 A 
HETATM   20  C8  UNL     1      11.554  29.189  71.310  1.00  0.00     0.012 A 
HETATM   21  C9  UNL     1      11.564  30.560  71.474  1.00  0.00    -0.025 A 
HETATM   22  C10 UNL     1      12.232  31.374  70.581  1.00  0.00     0.012 A 
HETATM   23  C14 UNL     1      10.916  31.188  72.555  1.00  0.00    -0.019 A 
HETATM   24  C11 UNL     1      12.300  32.742  70.688  1.00  0.00     0.001 A 
HETATM   25  C12 UNL     1      11.652  33.303  71.767  1.00  0.00     0.001 A 
HETATM   26  C13 UNL     1      10.970  32.555  72.693  1.00  0.00     0.013 A 
ENDBRANCH  16  17
ENDBRANCH   6  16
BRANCH  15  27
HETATM   27  C18 UNL     1       7.502  37.255  74.752  1.00  0.00     0.166 C 
BRANCH  27  28
HETATM   28  C19 UNL     1       8.346  37.916  73.741  1.00  0.00    -0.040 A 
HETATM   29  C20 UNL     1       9.681  37.525  73.539  1.00  0.00     0.009 A 
HETATM   30  C21 UNL     1      10.455  38.160  72.610  1.00  0.00     0.001 A 
HETATM   31  C22 UNL     1       9.966  39.207  71.831  1.00  0.00     0.000 A 
HETATM   32  C23 UNL     1       8.653  39.581  72.041  1.00  0.00     0.001 A 
HETATM   33  C24 UNL     1       7.849  38.944  72.986  1.00  0.00     0.009 A 
ENDBRANCH  27  28
ENDBRANCH  15  27
TORSDOF 4
ENDMDL
MODEL 3
REMARK VINA RESULT: -8.506123391      2.211      7.573
REMARK  4 active torsions:
REMARK  status: ('A' for Active; 'I' for Inactive)
REMARK    1  A    between atoms: C3_6  and  C4_7 
REMARK    2  A    between atoms: C4_7  and  C5_8 
REMARK    3  A    between atoms: N4_26  and  C18_27 
REMARK    4  A    between atoms: C18_27  and  C19_28 
ROOT
HETATM    1  O1  UNL     1       9.709  35.657  76.124  1.00  0.00    -0.247 OA
HETATM    2  C1  UNL     1       8.884  35.067  75.346  1.00  0.00     0.323 C 
HETATM    3  N1  UNL     1       9.036  33.688  75.052  1.00  0.00    -0.306 N 
ATOM      4  H1  UNL     1       9.811  33.162  75.455  1.00  0.00     0.171 HD
HETATM    5  C2  UNL     1       8.106  33.040  74.193  1.00  0.00     0.074 A 
HETATM    6  C3  UNL     1       8.288  31.724  73.852  1.00  0.00     0.057 A 
HETATM    7  N2  UNL     1       7.376  31.186  72.971  1.00  0.00    -0.299 N 
ATOM      8  H2  UNL     1       7.478  30.210  72.693  1.00  0.00     0.186 HD
HETATM    9  N3  UNL     1       6.378  31.889  72.476  1.00  0.00    -0.266 N 
ATOM     10  H3  UNL     1       5.736  31.432  71.828  1.00  0.00     0.190 HD
HETATM   11  C15 UNL     1       6.169  33.167  72.784  1.00  0.00     0.270 A 
HETATM   12  O2  UNL     1       5.202  33.847  72.301  1.00  0.00    -0.266 OA
HETATM   13  C16 UNL     1       7.054  33.786  73.677  1.00  0.00     0.058 A 
HETATM   14  C17 UNL     1       6.739  35.140  74.111  1.00  0.00     0.174 C 
HETATM   15  N4  UNL     1       7.818  35.799  74.780  1.00  0.00    -0.325 N 
ENDROOT
BRANCH   6  16
HETATM   16  C4  UNL     1       9.413  30.893  74.258  1.00  0.00     0.100 C 
BRANCH  16  17
HETATM   17  C5  UNL     1      10.370  30.815  73.101  1.00  0.00    -0.041 A 
HETATM   18  C6  UNL     1      10.919  32.018  72.658  1.00  0.00     0.008 A 
HETATM   19  C7  UNL     1      11.842  32.104  71.653  1.00  0.00     0.001 A 
HETATM   20  C8  UNL     1      12.265  30.952  71.036  1.00  0.00     0.012 A 
HETATM   21  C9  UNL     1      11.735  29.749  71.459  1.00  0.00    -0.025 A 
HETATM   22  C10 UNL     1      12.113  28.563  70.863  1.00  0.00     0.012 A 
HETATM   23  C14 UNL     1      10.784  29.674  72.493  1.00  0.00    -0.019 A 
HETATM   24  C11 UNL     1      11.617  27.331  71.216  1.00  0.00     0.001 A 
HETATM   25  C12 UNL     1      10.686  27.316  72.231  1.00  0.00     0.001 A 
HETATM   26  C13 UNL     1      10.265  28.456  72.868  1.00  0.00     0.013 A 
ENDBRANCH  16  17
ENDBRANCH   6  16
BRANCH  15  27
HETATM   27  C18 UNL     1       7.762  37.258  74.850  1.00  0.00     0.166 C 
BRANCH  27  28
HETATM   28  C19 UNL     1       8.512  37.939  73.780  1.00  0.00    -0.040 A 
HETATM   29  C20 UNL     1       9.856  37.620  73.517  1.00  0.00     0.009 A 
HETATM   30  C21 UNL     1      10.541  38.273  72.532  1.00  0.00     0.001 A 
HETATM   31  C22 UNL     1       9.951  39.266  71.753  1.00  0.00     0.000 A 
HETATM   32  C23 UNL     1       8.630  39.569  72.024  1.00  0.00     0.001 A 
HETATM   33  C24 UNL     1       7.916  38.913  73.027  1.00  0.00     0.009 A 
ENDBRANCH  27  28
ENDBRANCH  15  27
TORSDOF 4
ENDMDL
MODEL 4
REMARK VINA RESULT: -8.266634201      1.973      7.242
REMARK  4 active torsions:
REMARK  status: ('A' for Active; 'I' for Inactive)
REMARK    1  A    between atoms: C3_6  and  C4_7 
REMARK    2  A    between atoms: C4_7  and  C5_8 
REMARK    3  A    between atoms: N4_26  and  C18_27 
REMARK    4  A    between atoms: C18_27  and  C19_28 
ROOT
HETATM    1  O1  UNL     1       9.685  35.494  76.243  1.00  0.00    -0.247 OA
HETATM    2  C1  UNL     1       8.839  34.948  75.455  1.00  0.00     0.323 C 
HETATM    3  N1  UNL     1       8.930  33.566  75.150  1.00  0.00    -0.306 N 
ATOM      4  H1  UNL     1       9.678  33.002  75.554  1.00  0.00     0.171 HD
HETATM    5  C2  UNL     1       7.977  32.969  74.279  1.00  0.00     0.074 A 
HETATM    6  C3  UNL     1       8.101  31.649  73.928  1.00  0.00     0.057 A 
HETATM    7  N2  UNL     1       7.172  31.161  73.037  1.00  0.00    -0.299 N 
ATOM      8  H2  UNL     1       7.230  30.183  72.751  1.00  0.00     0.186 HD
HETATM    9  N3  UNL     1       6.210  31.913  72.541  1.00  0.00    -0.266 N 
ATOM     10  H3  UNL     1       5.552  31.491  71.886  1.00  0.00     0.190 HD
HETATM   11  C15 UNL     1       6.058  33.197  72.858  1.00  0.00     0.270 A 
HETATM   12  O2  UNL     1       5.127  33.924  72.375  1.00  0.00    -0.266 OA
HETATM   13  C16 UNL     1       6.965  33.766  73.763  1.00  0.00     0.058 A 
HETATM   14  C17 UNL     1       6.709  35.130  74.206  1.00  0.00     0.174 C 
HETATM   15  N4  UNL     1       7.812  35.733  74.888  1.00  0.00    -0.325 N 
ENDROOT
BRANCH   6  16
HETATM   16  C4  UNL     1       9.183  30.764  74.335  1.00  0.00     0.100 C 
BRANCH  16  17
HETATM   17  C5  UNL     1      10.324  30.960  73.376  1.00  0.00    -0.041 A 
HETATM   18  C6  UNL     1      10.057  31.700  72.224  1.00  0.00     0.008 A 
HETATM   19  C7  UNL     1      11.002  32.008  71.285  1.00  0.00     0.001 A 
HETATM   20  C8  UNL     1      12.292  31.575  71.471  1.00  0.00     0.012 A 
HETATM   21  C9  UNL     1      12.581  30.841  72.605  1.00  0.00    -0.025 A 
HETATM   22  C10 UNL     1      13.857  30.368  72.833  1.00  0.00     0.012 A 
HETATM   23  C14 UNL     1      11.598  30.529  73.563  1.00  0.00    -0.019 A 
HETATM   24  C11 UNL     1      14.216  29.617  73.928  1.00  0.00     0.001 A 
HETATM   25  C12 UNL     1      13.214  29.338  74.831  1.00  0.00     0.001 A 
HETATM   26  C13 UNL     1      11.924  29.776  74.667  1.00  0.00     0.013 A 
ENDBRANCH  16  17
ENDBRANCH   6  16
BRANCH  15  27
HETATM   27  C18 UNL     1       7.823  37.193  74.970  1.00  0.00     0.166 C 
BRANCH  27  28
HETATM   28  C19 UNL     1       8.552  37.849  73.871  1.00  0.00    -0.040 A 
HETATM   29  C20 UNL     1       9.880  37.502  73.569  1.00  0.00     0.009 A 
HETATM   30  C21 UNL     1      10.546  38.132  72.557  1.00  0.00     0.001 A 
HETATM   31  C22 UNL     1       9.952  39.132  71.789  1.00  0.00     0.000 A 
HETATM   32  C23 UNL     1       8.647  39.463  72.099  1.00  0.00     0.001 A 
HETATM   33  C24 UNL     1       7.952  38.830  73.129  1.00  0.00     0.009 A 
ENDBRANCH  27  28
ENDBRANCH  15  27
TORSDOF 4
ENDMDL
MODEL 5
REMARK VINA RESULT: -8.253410546      1.176      1.421
REMARK  4 active torsions:
REMARK  status: ('A' for Active; 'I' for Inactive)
REMARK    1  A    between atoms: C3_6  and  C4_7 
REMARK    2  A    between atoms: C4_7  and  C5_8 
REMARK    3  A    between atoms: N4_26  and  C18_27 
REMARK    4  A    between atoms: C18_27  and  C19_28 
ROOT
HETATM    1  O1  UNL     1      10.895  33.310  71.824  1.00  0.00    -0.247 OA
HETATM    2  C1  UNL     1      10.080  33.075  72.780  1.00  0.00     0.323 C 
HETATM    3  N1  UNL     1       9.770  34.086  73.725  1.00  0.00    -0.306 N 
ATOM      4  H1  UNL     1      10.204  35.006  73.649  1.00  0.00     0.171 HD
HETATM    5  C2  UNL     1       8.853  33.814  74.778  1.00  0.00     0.074 A 
HETATM    6  C3  UNL     1       8.603  34.768  75.732  1.00  0.00     0.057 A 
HETATM    7  N2  UNL     1       7.748  34.408  76.750  1.00  0.00    -0.299 N 
ATOM      8  H2  UNL     1       7.537  35.088  77.479  1.00  0.00     0.186 HD
HETATM    9  N3  UNL     1       7.194  33.214  76.814  1.00  0.00    -0.266 N 
ATOM     10  H3  UNL     1       6.568  33.009  77.593  1.00  0.00     0.190 HD
HETATM   11  C15 UNL     1       7.413  32.264  75.907  1.00  0.00     0.270 A 
HETATM   12  O2  UNL     1       6.876  31.107  75.972  1.00  0.00    -0.266 OA
HETATM   13  C16 UNL     1       8.271  32.556  74.838  1.00  0.00     0.058 A 
HETATM   14  C17 UNL     1       8.396  31.560  73.782  1.00  0.00     0.174 C 
HETATM   15  N4  UNL     1       9.488  31.797  72.890  1.00  0.00    -0.325 N 
ENDROOT
BRANCH   6  16
HETATM   16  C4  UNL     1       9.243  36.073  75.811  1.00  0.00     0.100 C 
BRANCH  16  17
HETATM   17  C5  UNL     1       8.445  37.029  74.968  1.00  0.00    -0.041 A 
HETATM   18  C6  UNL     1       7.116  37.235  75.338  1.00  0.00     0.008 A 
HETATM   19  C7  UNL     1       6.280  38.111  74.702  1.00  0.00     0.001 A 
HETATM   20  C8  UNL     1       6.760  38.839  73.641  1.00  0.00     0.012 A 
HETATM   21  C9  UNL     1       8.073  38.653  73.258  1.00  0.00    -0.025 A 
HETATM   22  C10 UNL     1       8.602  39.346  72.188  1.00  0.00     0.012 A 
HETATM   23  C14 UNL     1       8.923  37.746  73.919  1.00  0.00    -0.019 A 
HETATM   24  C11 UNL     1       9.892  39.202  71.738  1.00  0.00     0.001 A 
HETATM   25  C12 UNL     1      10.678  38.298  72.418  1.00  0.00     0.001 A 
HETATM   26  C13 UNL     1      10.219  37.574  73.490  1.00  0.00     0.013 A 
ENDBRANCH  16  17
ENDBRANCH   6  16
BRANCH  15  27
HETATM   27  C18 UNL     1       9.959  30.660  72.101  1.00  0.00     0.166 C 
BRANCH  27  28
HETATM   28  C19 UNL     1      11.313  30.202  72.459  1.00  0.00    -0.040 A 
HETATM   29  C20 UNL     1      11.691  30.028  73.801  1.00  0.00     0.009 A 
HETATM   30  C21 UNL     1      12.955  29.618  74.116  1.00  0.00     0.001 A 
HETATM   31  C22 UNL     1      13.914  29.357  73.139  1.00  0.00     0.000 A 
HETATM   32  C23 UNL     1      13.528  29.533  71.824  1.00  0.00     0.001 A 
HETATM   33  C24 UNL     1      12.242  29.951  71.485  1.00  0.00     0.009 A 
ENDBRANCH  27  28
ENDBRANCH  15  27
TORSDOF 4
ENDMDL
