MODEL 1
REMARK VINA RESULT: -7.541224820      0.000      0.000
REMARK  5 active torsions:
REMARK  status: ('A' for Active; 'I' for Inactive)
REMARK    1  A    between atoms: C3_5  and  C4_6 
REMARK    2  A    between atoms: C13_15  and  C14_16 
REMARK    3  A    between atoms: C14_16  and  C15_17 
REMARK    4  A    between atoms: C16_18  and  C17_19 
REMARK    5  A    between atoms: C20_22  and  O1_23 
ROOT
HETATM    1  C15 UNL     1       5.529  34.678  75.702  1.00  0.00     0.063 A 
HETATM    2  C16 UNL     1       5.933  35.988  75.663  1.00  0.00     0.074 A 
HETATM    3  N2  UNL     1       5.180  36.647  76.579  1.00  0.00    -0.296 N 
ATOM      4  H2  UNL     1       5.244  37.644  76.785  1.00  0.00     0.187 HD
HETATM    5  N3  UNL     1       4.355  35.805  77.160  1.00  0.00    -0.265 N 
ATOM      6  H3  UNL     1       3.685  36.059  77.887  1.00  0.00     0.190 HD
HETATM    7  C24 UNL     1       4.513  34.580  76.673  1.00  0.00     0.272 A 
HETATM    8  O2  UNL     1       3.890  33.528  76.999  1.00  0.00    -0.266 OA
ENDROOT
BRANCH   1   9
HETATM    9  C14 UNL     1       6.013  33.549  74.965  1.00  0.00     0.033 C 
BRANCH   9  10
HETATM   10  C13 UNL     1       7.099  33.219  74.352  1.00  0.00    -0.003 A 
HETATM   11  C2  UNL     1       8.338  33.050  74.869  1.00  0.00     0.034 A 
HETATM   12  C1  UNL     1       8.633  33.141  76.121  1.00  0.00     0.044 C 
HETATM   13  N1  UNL     1       9.405  32.734  74.057  1.00  0.00    -0.355 N 
HETATM   14  C3  UNL     1       9.326  32.569  72.738  1.00  0.00     0.043 A 
ATOM     15  H1  UNL     1      10.318  32.618  74.496  1.00  0.00     0.166 HD
HETATM   16  C10 UNL     1       8.091  32.729  72.178  1.00  0.00     0.038 A 
HETATM   17  C11 UNL     1       6.999  33.045  72.943  1.00  0.00    -0.047 A 
HETATM   18  C12 UNL     1       5.693  33.200  72.252  1.00  0.00     0.049 C 
BRANCH  14  19
HETATM   19  C4  UNL     1      10.521  32.231  71.942  1.00  0.00    -0.009 A 
HETATM   20  C5  UNL     1      11.742  32.824  72.228  1.00  0.00     0.013 A 
HETATM   21  C6  UNL     1      12.855  32.511  71.488  1.00  0.00     0.001 A 
HETATM   22  C7  UNL     1      12.797  31.607  70.451  1.00  0.00     0.000 A 
HETATM   23  C8  UNL     1      11.591  31.013  70.158  1.00  0.00     0.001 A 
HETATM   24  C9  UNL     1      10.456  31.334  70.915  1.00  0.00     0.013 A 
ENDBRANCH  14  19
ENDBRANCH   9  10
ENDBRANCH   1   9
BRANCH   2  25
HETATM   25  C17 UNL     1       6.947  36.656  74.827  1.00  0.00    -0.007 A 
HETATM   26  C18 UNL     1       8.240  36.773  75.343  1.00  0.00     0.016 A 
HETATM   27  C19 UNL     1       9.224  37.364  74.589  1.00  0.00     0.037 A 
HETATM   28  C20 UNL     1       9.011  37.858  73.330  1.00  0.00     0.068 A 
HETATM   29  C22 UNL     1       7.751  37.751  72.815  1.00  0.00     0.037 A 
HETATM   30  C23 UNL     1       6.744  37.148  73.581  1.00  0.00     0.016 A 
BRANCH  28  31
HETATM   31  O1  UNL     1      10.026  38.451  72.591  1.00  0.00    -0.356 OA
HETATM   32  C21 UNL     1       9.713  39.568  71.770  1.00  0.00     0.210 C 
ENDBRANCH  28  31
ENDBRANCH   2  25
TORSDOF 5
ENDMDL
MODEL 2
REMARK VINA RESULT: -7.520774416      1.001      1.380
REMARK  5 active torsions:
REMARK  status: ('A' for Active; 'I' for Inactive)
REMARK    1  A    between atoms: C3_5  and  C4_6 
REMARK    2  A    between atoms: C13_15  and  C14_16 
REMARK    3  A    between atoms: C14_16  and  C15_17 
REMARK    4  A    between atoms: C16_18  and  C17_19 
REMARK    5  A    between atoms: C20_22  and  O1_23 
ROOT
HETATM    1  C15 UNL     1       5.833  33.588  75.096  1.00  0.00     0.063 A 
HETATM    2  C16 UNL     1       6.222  34.889  75.286  1.00  0.00     0.074 A 
HETATM    3  N2  UNL     1       5.361  35.415  76.193  1.00  0.00    -0.296 N 
ATOM      4  H2  UNL     1       5.388  36.372  76.542  1.00  0.00     0.187 HD
HETATM    5  N3  UNL     1       4.487  34.502  76.553  1.00  0.00    -0.265 N 
ATOM      6  H3  UNL     1       3.735  34.653  77.227  1.00  0.00     0.190 HD
HETATM    7  C24 UNL     1       4.715  33.357  75.921  1.00  0.00     0.272 A 
HETATM    8  O2  UNL     1       4.073  32.271  76.023  1.00  0.00    -0.266 OA
ENDROOT
BRANCH   1   9
HETATM    9  C14 UNL     1       6.413  32.572  74.268  1.00  0.00     0.033 C 
BRANCH   9  10
HETATM   10  C13 UNL     1       7.554  32.350  73.707  1.00  0.00    -0.003 A 
HETATM   11  C2  UNL     1       8.726  32.008  74.291  1.00  0.00     0.034 A 
HETATM   12  C1  UNL     1       8.883  31.785  75.551  1.00  0.00     0.044 C 
HETATM   13  N1  UNL     1       9.869  31.848  73.540  1.00  0.00    -0.355 N 
HETATM   14  C3  UNL     1       9.932  32.007  72.219  1.00  0.00     0.043 A 
ATOM     15  H1  UNL     1      10.726  31.591  74.029  1.00  0.00     0.166 HD
HETATM   16  C10 UNL     1       8.769  32.351  71.592  1.00  0.00     0.038 A 
HETATM   17  C11 UNL     1       7.606  32.522  72.295  1.00  0.00    -0.047 A 
HETATM   18  C12 UNL     1       6.386  32.895  71.533  1.00  0.00     0.049 C 
BRANCH  14  19
HETATM   19  C4  UNL     1      11.201  31.816  71.491  1.00  0.00    -0.009 A 
HETATM   20  C5  UNL     1      12.378  32.358  71.985  1.00  0.00     0.013 A 
HETATM   21  C6  UNL     1      13.560  32.182  71.309  1.00  0.00     0.001 A 
HETATM   22  C7  UNL     1      13.614  31.469  70.132  1.00  0.00     0.000 A 
HETATM   23  C8  UNL     1      12.452  30.927  69.633  1.00  0.00     0.001 A 
HETATM   24  C9  UNL     1      11.247  31.108  70.325  1.00  0.00     0.013 A 
ENDBRANCH  14  19
ENDBRANCH   9  10
ENDBRANCH   1   9
BRANCH   2  25
HETATM   25  C17 UNL     1       7.315  35.665  74.673  1.00  0.00    -0.007 A 
HETATM   26  C18 UNL     1       6.994  36.514  73.611  1.00  0.00     0.016 A 
HETATM   27  C19 UNL     1       7.975  37.277  73.027  1.00  0.00     0.037 A 
HETATM   28  C20 UNL     1       9.283  37.258  73.433  1.00  0.00     0.068 A 
HETATM   29  C22 UNL     1       9.609  36.432  74.470  1.00  0.00     0.037 A 
HETATM   30  C23 UNL     1       8.611  35.652  75.068  1.00  0.00     0.016 A 
BRANCH  28  31
HETATM   31  O1  UNL     1      10.254  38.041  72.823  1.00  0.00    -0.356 OA
HETATM   32  C21 UNL     1       9.843  39.087  71.954  1.00  0.00     0.210 C 
ENDBRANCH  28  31
ENDBRANCH   2  25
TORSDOF 5
ENDMDL
MODEL 3
REMARK VINA RESULT: -7.478648975      1.274      2.364
REMARK  5 active torsions:
REMARK  status: ('A' for Active; 'I' for Inactive)
REMARK    1  A    between atoms: C3_5  and  C4_6 
REMARK    2  A    between atoms: C13_15  and  C14_16 
REMARK    3  A    between atoms: C14_16  and  C15_17 
REMARK    4  A    between atoms: C16_18  and  C17_19 
REMARK    5  A    between atoms: C20_22  and  O1_23 
ROOT
HETATM    1  C15 UNL     1       5.931  33.334  74.928  1.00  0.00     0.063 A 
HETATM    2  C16 UNL     1       6.210  34.670  75.056  1.00  0.00     0.074 A 
HETATM    3  N2  UNL     1       5.195  35.204  75.782  1.00  0.00    -0.296 N 
ATOM      4  H2  UNL     1       5.113  36.185  76.046  1.00  0.00     0.187 HD
HETATM    5  N3  UNL     1       4.333  34.262  76.094  1.00  0.00    -0.265 N 
ATOM      6  H3  UNL     1       3.483  34.412  76.638  1.00  0.00     0.190 HD
HETATM    7  C24 UNL     1       4.719  33.090  75.604  1.00  0.00     0.272 A 
HETATM    8  O2  UNL     1       4.135  31.973  75.709  1.00  0.00    -0.266 OA
ENDROOT
BRANCH   1   9
HETATM    9  C14 UNL     1       6.685  32.301  74.284  1.00  0.00     0.033 C 
BRANCH   9  10
HETATM   10  C13 UNL     1       7.714  32.228  73.509  1.00  0.00    -0.003 A 
HETATM   11  C2  UNL     1       7.782  32.459  72.177  1.00  0.00     0.034 A 
HETATM   12  C1  UNL     1       6.796  32.860  71.448  1.00  0.00     0.044 C 
HETATM   13  N1  UNL     1       8.964  32.294  71.490  1.00  0.00    -0.355 N 
HETATM   14  C3  UNL     1      10.111  31.908  72.045  1.00  0.00     0.043 A 
ATOM     15  H1  UNL     1       8.960  32.480  70.487  1.00  0.00     0.166 HD
HETATM   16  C10 UNL     1      10.085  31.667  73.390  1.00  0.00     0.038 A 
HETATM   17  C11 UNL     1       8.934  31.816  74.116  1.00  0.00    -0.047 A 
HETATM   18  C12 UNL     1       8.995  31.533  75.574  1.00  0.00     0.049 C 
BRANCH  14  19
HETATM   19  C4  UNL     1      11.334  31.755  71.235  1.00  0.00    -0.009 A 
HETATM   20  C5  UNL     1      11.294  31.062  70.035  1.00  0.00     0.013 A 
HETATM   21  C6  UNL     1      12.431  30.918  69.278  1.00  0.00     0.001 A 
HETATM   22  C7  UNL     1      13.634  31.453  69.682  1.00  0.00     0.000 A 
HETATM   23  C8  UNL     1      13.685  32.144  70.871  1.00  0.00     0.001 A 
HETATM   24  C9  UNL     1      12.523  32.289  71.641  1.00  0.00     0.013 A 
ENDBRANCH  14  19
ENDBRANCH   9  10
ENDBRANCH   1   9
BRANCH   2  25
HETATM   25  C17 UNL     1       7.334  35.472  74.538  1.00  0.00    -0.007 A 
HETATM   26  C18 UNL     1       7.060  36.400  73.530  1.00  0.00     0.016 A 
HETATM   27  C19 UNL     1       8.071  37.189  73.037  1.00  0.00     0.037 A 
HETATM   28  C20 UNL     1       9.363  37.120  73.484  1.00  0.00     0.068 A 
HETATM   29  C22 UNL     1       9.643  36.216  74.468  1.00  0.00     0.037 A 
HETATM   30  C23 UNL     1       8.615  35.410  74.974  1.00  0.00     0.016 A 
BRANCH  28  31
HETATM   31  O1  UNL     1      10.365  37.930  72.965  1.00  0.00    -0.356 OA
HETATM   32  C21 UNL     1      10.004  38.993  72.095  1.00  0.00     0.210 C 
ENDBRANCH  28  31
ENDBRANCH   2  25
TORSDOF 5
ENDMDL
MODEL 4
REMARK VINA RESULT: -7.471138285      1.646      2.113
REMARK  5 active torsions:
REMARK  status: ('A' for Active; 'I' for Inactive)
REMARK    1  A    between atoms: C3_5  and  C4_6 
REMARK    2  A    between atoms: C13_15  and  C14_16 
REMARK    3  A    between atoms: C14_16  and  C15_17 
REMARK    4  A    between atoms: C16_18  and  C17_19 
REMARK    5  A    between atoms: C20_22  and  O1_23 
ROOT
HETATM    1  C15 UNL     1       6.524  33.651  75.420  1.00  0.00     0.063 A 
HETATM    2  C16 UNL     1       5.835  34.789  75.088  1.00  0.00     0.074 A 
HETATM    3  N2  UNL     1       4.550  34.582  75.471  1.00  0.00    -0.296 N 
ATOM      4  H2  UNL     1       3.788  35.250  75.357  1.00  0.00     0.187 HD
HETATM    5  N3  UNL     1       4.437  33.390  76.012  1.00  0.00    -0.265 N 
ATOM      6  H3  UNL     1       3.569  33.001  76.380  1.00  0.00     0.190 HD
HETATM    7  C24 UNL     1       5.607  32.762  76.015  1.00  0.00     0.272 A 
HETATM    8  O2  UNL     1       5.867  31.605  76.455  1.00  0.00    -0.266 OA
ENDROOT
BRANCH   1   9
HETATM    9  C14 UNL     1       7.915  33.347  75.266  1.00  0.00     0.033 C 
BRANCH   9  10
HETATM   10  C13 UNL     1       8.694  32.946  74.318  1.00  0.00    -0.003 A 
HETATM   11  C2  UNL     1       8.758  31.722  73.744  1.00  0.00     0.034 A 
HETATM   12  C1  UNL     1       7.979  30.734  74.026  1.00  0.00     0.044 C 
HETATM   13  N1  UNL     1       9.685  31.450  72.762  1.00  0.00    -0.355 N 
HETATM   14  C3  UNL     1      10.573  32.328  72.300  1.00  0.00     0.043 A 
ATOM     15  H1  UNL     1       9.692  30.512  72.362  1.00  0.00     0.166 HD
HETATM   16  C10 UNL     1      10.540  33.576  72.853  1.00  0.00     0.038 A 
HETATM   17  C11 UNL     1       9.636  33.895  73.833  1.00  0.00    -0.047 A 
HETATM   18  C12 UNL     1       9.669  35.277  74.379  1.00  0.00     0.049 C 
BRANCH  14  19
HETATM   19  C4  UNL     1      11.534  31.953  71.245  1.00  0.00    -0.009 A 
HETATM   20  C5  UNL     1      12.838  32.420  71.289  1.00  0.00     0.013 A 
HETATM   21  C6  UNL     1      13.734  32.073  70.308  1.00  0.00     0.001 A 
HETATM   22  C7  UNL     1      13.370  31.257  69.261  1.00  0.00     0.000 A 
HETATM   23  C8  UNL     1      12.078  30.787  69.207  1.00  0.00     0.001 A 
HETATM   24  C9  UNL     1      11.166  31.143  70.209  1.00  0.00     0.013 A 
ENDBRANCH  14  19
ENDBRANCH   9  10
ENDBRANCH   1   9
BRANCH   2  25
HETATM   25  C17 UNL     1       6.287  36.030  74.431  1.00  0.00    -0.007 A 
HETATM   26  C18 UNL     1       6.510  37.148  75.238  1.00  0.00     0.016 A 
HETATM   27  C19 UNL     1       6.959  38.317  74.674  1.00  0.00     0.037 A 
HETATM   28  C20 UNL     1       7.206  38.458  73.335  1.00  0.00     0.068 A 
HETATM   29  C22 UNL     1       6.991  37.373  72.536  1.00  0.00     0.037 A 
HETATM   30  C23 UNL     1       6.535  36.178  73.107  1.00  0.00     0.016 A 
BRANCH  28  31
HETATM   31  O1  UNL     1       7.659  39.654  72.793  1.00  0.00    -0.356 OA
HETATM   32  C21 UNL     1       8.863  39.652  72.039  1.00  0.00     0.210 C 
ENDBRANCH  28  31
ENDBRANCH   2  25
TORSDOF 5
ENDMDL
MODEL 5
REMARK VINA RESULT: -7.445056492      0.581      1.576
REMARK  5 active torsions:
REMARK  status: ('A' for Active; 'I' for Inactive)
REMARK    1  A    between atoms: C3_5  and  C4_6 
REMARK    2  A    between atoms: C13_15  and  C14_16 
REMARK    3  A    between atoms: C14_16  and  C15_17 
REMARK    4  A    between atoms: C16_18  and  C17_19 
REMARK    5  A    between atoms: C20_22  and  O1_23 
ROOT
HETATM    1  C15 UNL     1       5.527  34.944  75.980  1.00  0.00     0.063 A 
HETATM    2  C16 UNL     1       5.907  36.253  75.832  1.00  0.00     0.074 A 
HETATM    3  N2  UNL     1       5.129  36.973  76.679  1.00  0.00    -0.296 N 
ATOM      4  H2  UNL     1       5.171  37.985  76.799  1.00  0.00     0.187 HD
HETATM    5  N3  UNL     1       4.313  36.168  77.321  1.00  0.00    -0.265 N 
ATOM      6  H3  UNL     1       3.629  36.470  78.015  1.00  0.00     0.190 HD
HETATM    7  C24 UNL     1       4.501  34.909  76.944  1.00  0.00     0.272 A 
HETATM    8  O2  UNL     1       3.894  33.877  77.352  1.00  0.00    -0.266 OA
ENDROOT
BRANCH   1   9
HETATM    9  C14 UNL     1       6.043  33.766  75.348  1.00  0.00     0.033 C 
BRANCH   9  10
HETATM   10  C13 UNL     1       6.971  33.481  74.499  1.00  0.00    -0.003 A 
HETATM   11  C2  UNL     1       6.872  33.353  73.155  1.00  0.00     0.034 A 
HETATM   12  C1  UNL     1       5.797  33.559  72.473  1.00  0.00     0.044 C 
HETATM   13  N1  UNL     1       7.966  33.000  72.397  1.00  0.00    -0.355 N 
HETATM   14  C3  UNL     1       9.180  32.761  72.889  1.00  0.00     0.043 A 
ATOM     15  H1  UNL     1       7.837  32.917  71.388  1.00  0.00     0.166 HD
HETATM   16  C10 UNL     1       9.322  32.882  74.242  1.00  0.00     0.038 A 
HETATM   17  C11 UNL     1       8.264  33.230  75.039  1.00  0.00    -0.047 A 
HETATM   18  C12 UNL     1       8.508  33.339  76.501  1.00  0.00     0.049 C 
BRANCH  14  19
HETATM   19  C4  UNL     1      10.298  32.388  72.003  1.00  0.00    -0.009 A 
HETATM   20  C5  UNL     1      11.467  33.134  72.000  1.00  0.00     0.013 A 
HETATM   21  C6  UNL     1      12.509  32.789  71.176  1.00  0.00     0.001 A 
HETATM   22  C7  UNL     1      12.430  31.702  70.336  1.00  0.00     0.000 A 
HETATM   23  C8  UNL     1      11.275  30.953  70.330  1.00  0.00     0.001 A 
HETATM   24  C9  UNL     1      10.213  31.308  71.172  1.00  0.00     0.013 A 
ENDBRANCH  14  19
ENDBRANCH   9  10
ENDBRANCH   1   9
BRANCH   2  25
HETATM   25  C17 UNL     1       6.919  36.868  74.953  1.00  0.00    -0.007 A 
HETATM   26  C18 UNL     1       8.236  36.922  75.417  1.00  0.00     0.016 A 
HETATM   27  C19 UNL     1       9.217  37.460  74.622  1.00  0.00     0.037 A 
HETATM   28  C20 UNL     1       8.979  37.960  73.370  1.00  0.00     0.068 A 
HETATM   29  C22 UNL     1       7.696  37.914  72.905  1.00  0.00     0.037 A 
HETATM   30  C23 UNL     1       6.692  37.365  73.713  1.00  0.00     0.016 A 
BRANCH  28  31
HETATM   31  O1  UNL     1       9.992  38.499  72.588  1.00  0.00    -0.356 OA
HETATM   32  C21 UNL     1       9.683  39.575  71.713  1.00  0.00     0.210 C 
ENDBRANCH  28  31
ENDBRANCH   2  25
TORSDOF 5
ENDMDL
