MODEL 1
REMARK VINA RESULT: -9.396344538      0.000      0.000
REMARK  5 active torsions:
REMARK  status: ('A' for Active; 'I' for Inactive)
REMARK    1  A    between atoms: C3_5  and  C4_6 
REMARK    2  A    between atoms: C4_6  and  C5_7 
REMARK    3  A    between atoms: N2_17  and  C15_18 
REMARK    4  A    between atoms: C15_18  and  C16_19 
REMARK    5  A    between atoms: C24_29  and  C25_30 
ROOT
HETATM    1  C5  UNL     1      12.009  32.465  71.633  1.00  0.00    -0.030 A 
HETATM    2  C6  UNL     1      11.204  31.517  71.038  1.00  0.00     0.012 A 
HETATM    3  C7  UNL     1       9.834  31.548  71.279  1.00  0.00     0.015 A 
HETATM    4  C8  UNL     1       9.290  32.511  72.098  1.00  0.00     0.003 A 
HETATM    5  C9  UNL     1       8.003  32.782  72.511  1.00  0.00     0.003 A 
HETATM    6  C10 UNL     1       6.800  32.137  72.215  1.00  0.00     0.014 A 
HETATM    7  C11 UNL     1       5.606  32.573  72.743  1.00  0.00     0.001 A 
HETATM    8  C12 UNL     1       5.606  33.668  73.579  1.00  0.00     0.002 A 
HETATM    9  C13 UNL     1       6.797  34.299  73.866  1.00  0.00     0.030 A 
HETATM   10  C14 UNL     1       8.011  33.890  73.355  1.00  0.00     0.046 A 
HETATM   11  N2  UNL     1       9.290  34.286  73.451  1.00  0.00    -0.341 N 
HETATM   12  C22 UNL     1      10.077  33.485  72.714  1.00  0.00     0.047 A 
HETATM   13  C23 UNL     1      11.439  33.423  72.451  1.00  0.00     0.042 A 
ENDROOT
BRANCH   1  14
HETATM   14  C4  UNL     1      13.436  32.444  71.392  1.00  0.00     0.060 C 
BRANCH  14  15
HETATM   15  C3  UNL     1      14.155  31.319  71.501  1.00  0.00     0.107 A 
HETATM   16  N1  UNL     1      14.439  30.679  72.643  1.00  0.00    -0.341 N 
HETATM   17  C2  UNL     1      15.190  29.573  72.386  1.00  0.00     0.056 A 
ATOM     18  H1  UNL     1      14.137  30.977  73.570  1.00  0.00     0.167 HD
HETATM   19  C1  UNL     1      15.605  28.763  73.350  1.00  0.00     0.045 C 
HETATM   20  C24 UNL     1      15.374  29.530  71.036  1.00  0.00     0.125 A 
HETATM   21  N3  UNL     1      14.728  30.613  70.524  1.00  0.00    -0.337 N 
ATOM     22  H3  UNL     1      14.688  30.852  69.533  1.00  0.00     0.168 HD
BRANCH  20  23
HETATM   23  C25 UNL     1      16.110  28.531  70.298  1.00  0.00     0.283 C 
HETATM   24  N4  UNL     1      15.735  27.160  70.356  1.00  0.00    -0.056 NA
HETATM   25  O1  UNL     1      17.084  28.835  69.595  1.00  0.00    -0.269 OA
ENDBRANCH  20  23
ENDBRANCH  14  15
ENDBRANCH   1  14
BRANCH  11  26
HETATM   26  C15 UNL     1       9.756  35.406  74.234  1.00  0.00     0.168 C 
BRANCH  26  27
HETATM   27  C16 UNL     1       9.613  36.714  73.586  1.00  0.00    -0.040 A 
HETATM   28  C17 UNL     1      10.666  37.314  72.952  1.00  0.00     0.009 A 
HETATM   29  C18 UNL     1      10.516  38.536  72.349  1.00  0.00     0.001 A 
HETATM   30  C19 UNL     1       9.307  39.197  72.361  1.00  0.00     0.000 A 
HETATM   31  C20 UNL     1       8.235  38.618  72.990  1.00  0.00     0.001 A 
HETATM   32  C21 UNL     1       8.402  37.373  73.599  1.00  0.00     0.009 A 
ENDBRANCH  26  27
ENDBRANCH  11  26
TORSDOF 5
ENDMDL
MODEL 2
REMARK VINA RESULT: -9.303246924      1.439      1.902
REMARK  5 active torsions:
REMARK  status: ('A' for Active; 'I' for Inactive)
REMARK    1  A    between atoms: C3_5  and  C4_6 
REMARK    2  A    between atoms: C4_6  and  C5_7 
REMARK    3  A    between atoms: N2_17  and  C15_18 
REMARK    4  A    between atoms: C15_18  and  C16_19 
REMARK    5  A    between atoms: C24_29  and  C25_30 
ROOT
HETATM    1  C5  UNL     1      11.098  32.838  71.745  1.00  0.00    -0.030 A 
HETATM    2  C6  UNL     1      10.191  31.825  71.514  1.00  0.00     0.012 A 
HETATM    3  C7  UNL     1       8.952  31.873  72.145  1.00  0.00     0.015 A 
HETATM    4  C8  UNL     1       8.635  32.915  72.986  1.00  0.00     0.003 A 
HETATM    5  C9  UNL     1       7.517  33.220  73.732  1.00  0.00     0.003 A 
HETATM    6  C10 UNL     1       6.306  32.538  73.872  1.00  0.00     0.014 A 
HETATM    7  C11 UNL     1       5.303  33.020  74.683  1.00  0.00     0.001 A 
HETATM    8  C12 UNL     1       5.506  34.199  75.366  1.00  0.00     0.002 A 
HETATM    9  C13 UNL     1       6.703  34.866  75.222  1.00  0.00     0.030 A 
HETATM   10  C14 UNL     1       7.730  34.413  74.419  1.00  0.00     0.046 A 
HETATM   11  N2  UNL     1       8.963  34.825  74.092  1.00  0.00    -0.341 N 
HETATM   12  C22 UNL     1       9.530  33.956  73.240  1.00  0.00     0.047 A 
HETATM   13  C23 UNL     1      10.756  33.874  72.594  1.00  0.00     0.042 A 
ENDROOT
BRANCH   1  14
HETATM   14  C4  UNL     1      12.391  32.801  71.096  1.00  0.00     0.060 C 
BRANCH  14  15
HETATM   15  C3  UNL     1      13.267  31.812  71.321  1.00  0.00     0.107 A 
HETATM   16  N1  UNL     1      14.053  31.238  70.402  1.00  0.00    -0.341 N 
HETATM   17  C2  UNL     1      14.817  30.269  70.979  1.00  0.00     0.056 A 
ATOM     18  H1  UNL     1      14.077  31.489  69.414  1.00  0.00     0.167 HD
HETATM   19  C1  UNL     1      15.684  29.547  70.281  1.00  0.00     0.045 C 
HETATM   20  C24 UNL     1      14.489  30.248  72.301  1.00  0.00     0.125 A 
HETATM   21  N3  UNL     1      13.537  31.204  72.479  1.00  0.00    -0.337 N 
ATOM     22  H3  UNL     1      13.093  31.424  73.370  1.00  0.00     0.168 HD
BRANCH  20  23
HETATM   23  C25 UNL     1      15.044  29.379  73.313  1.00  0.00     0.283 C 
HETATM   24  N4  UNL     1      15.921  29.889  74.310  1.00  0.00    -0.056 NA
HETATM   25  O1  UNL     1      14.775  28.170  73.343  1.00  0.00    -0.269 OA
ENDBRANCH  20  23
ENDBRANCH  14  15
ENDBRANCH   1  14
BRANCH  11  26
HETATM   26  C15 UNL     1       9.595  36.027  74.584  1.00  0.00     0.168 C 
BRANCH  26  27
HETATM   27  C16 UNL     1       9.443  37.203  73.721  1.00  0.00    -0.040 A 
HETATM   28  C17 UNL     1      10.483  37.675  72.970  1.00  0.00     0.009 A 
HETATM   29  C18 UNL     1      10.325  38.774  72.166  1.00  0.00     0.001 A 
HETATM   30  C19 UNL     1       9.118  39.436  72.088  1.00  0.00     0.000 A 
HETATM   31  C20 UNL     1       8.058  38.984  72.831  1.00  0.00     0.001 A 
HETATM   32  C21 UNL     1       8.235  37.864  73.645  1.00  0.00     0.009 A 
ENDBRANCH  26  27
ENDBRANCH  11  26
TORSDOF 5
ENDMDL
MODEL 3
REMARK VINA RESULT: -9.203427587      1.039      1.153
REMARK  5 active torsions:
REMARK  status: ('A' for Active; 'I' for Inactive)
REMARK    1  A    between atoms: C3_5  and  C4_6 
REMARK    2  A    between atoms: C4_6  and  C5_7 
REMARK    3  A    between atoms: N2_17  and  C15_18 
REMARK    4  A    between atoms: C15_18  and  C16_19 
REMARK    5  A    between atoms: C24_29  and  C25_30 
ROOT
HETATM    1  C5  UNL     1      11.205  32.777  71.755  1.00  0.00    -0.030 A 
HETATM    2  C6  UNL     1      10.302  31.773  71.482  1.00  0.00     0.012 A 
HETATM    3  C7  UNL     1       9.035  31.831  72.055  1.00  0.00     0.015 A 
HETATM    4  C8  UNL     1       8.689  32.876  72.881  1.00  0.00     0.003 A 
HETATM    5  C9  UNL     1       7.540  33.189  73.574  1.00  0.00     0.003 A 
HETATM    6  C10 UNL     1       6.318  32.518  73.657  1.00  0.00     0.014 A 
HETATM    7  C11 UNL     1       5.282  33.009  74.421  1.00  0.00     0.001 A 
HETATM    8  C12 UNL     1       5.464  34.186  75.114  1.00  0.00     0.002 A 
HETATM    9  C13 UNL     1       6.672  34.843  75.026  1.00  0.00     0.030 A 
HETATM   10  C14 UNL     1       7.731  34.380  74.272  1.00  0.00     0.046 A 
HETATM   11  N2  UNL     1       8.982  34.783  74.002  1.00  0.00    -0.341 N 
HETATM   12  C22 UNL     1       9.580  33.908  73.177  1.00  0.00     0.047 A 
HETATM   13  C23 UNL     1      10.834  33.816  72.588  1.00  0.00     0.042 A 
ENDROOT
BRANCH   1  14
HETATM   14  C4  UNL     1      12.527  32.729  71.167  1.00  0.00     0.060 C 
BRANCH  14  15
HETATM   15  C3  UNL     1      13.395  31.752  71.458  1.00  0.00     0.107 A 
HETATM   16  N1  UNL     1      13.530  31.152  72.648  1.00  0.00    -0.341 N 
HETATM   17  C2  UNL     1      14.507  30.205  72.587  1.00  0.00     0.056 A 
ATOM     18  H1  UNL     1      12.981  31.372  73.478  1.00  0.00     0.167 HD
HETATM   19  C1  UNL     1      14.838  29.466  73.637  1.00  0.00     0.045 C 
HETATM   20  C24 UNL     1      14.991  30.223  71.313  1.00  0.00     0.125 A 
HETATM   21  N3  UNL     1      14.290  31.180  70.647  1.00  0.00    -0.337 N 
ATOM     22  H3  UNL     1      14.428  31.427  69.667  1.00  0.00     0.168 HD
BRANCH  20  23
HETATM   23  C25 UNL     1      16.041  29.388  70.778  1.00  0.00     0.283 C 
HETATM   24  N4  UNL     1      17.383  29.855  70.718  1.00  0.00    -0.056 NA
HETATM   25  O1  UNL     1      15.807  28.246  70.358  1.00  0.00    -0.269 OA
ENDBRANCH  20  23
ENDBRANCH  14  15
ENDBRANCH   1  14
BRANCH  11  26
HETATM   26  C15 UNL     1       9.600  35.979  74.523  1.00  0.00     0.168 C 
BRANCH  26  27
HETATM   27  C16 UNL     1       9.447  37.171  73.683  1.00  0.00    -0.040 A 
HETATM   28  C17 UNL     1      10.488  37.661  72.945  1.00  0.00     0.009 A 
HETATM   29  C18 UNL     1      10.328  38.776  72.162  1.00  0.00     0.001 A 
HETATM   30  C19 UNL     1       9.119  39.434  72.093  1.00  0.00     0.000 A 
HETATM   31  C20 UNL     1       8.058  38.963  72.823  1.00  0.00     0.001 A 
HETATM   32  C21 UNL     1       8.236  37.828  73.615  1.00  0.00     0.009 A 
ENDBRANCH  26  27
ENDBRANCH  11  26
TORSDOF 5
ENDMDL
MODEL 4
REMARK VINA RESULT: -8.835509967      5.491     10.045
REMARK  5 active torsions:
REMARK  status: ('A' for Active; 'I' for Inactive)
REMARK    1  A    between atoms: C3_5  and  C4_6 
REMARK    2  A    between atoms: C4_6  and  C5_7 
REMARK    3  A    between atoms: N2_17  and  C15_18 
REMARK    4  A    between atoms: C15_18  and  C16_19 
REMARK    5  A    between atoms: C24_29  and  C25_30 
ROOT
HETATM    1  C5  UNL     1       4.925  35.591  76.511  1.00  0.00    -0.030 A 
HETATM    2  C6  UNL     1       4.317  34.461  76.007  1.00  0.00     0.012 A 
HETATM    3  C7  UNL     1       5.015  33.662  75.107  1.00  0.00     0.015 A 
HETATM    4  C8  UNL     1       6.295  33.995  74.725  1.00  0.00     0.003 A 
HETATM    5  C9  UNL     1       7.207  33.413  73.872  1.00  0.00     0.003 A 
HETATM    6  C10 UNL     1       7.113  32.255  73.096  1.00  0.00     0.014 A 
HETATM    7  C11 UNL     1       8.155  31.843  72.295  1.00  0.00     0.001 A 
HETATM    8  C12 UNL     1       9.310  32.594  72.265  1.00  0.00     0.002 A 
HETATM    9  C13 UNL     1       9.395  33.735  73.034  1.00  0.00     0.030 A 
HETATM   10  C14 UNL     1       8.371  34.177  73.846  1.00  0.00     0.046 A 
HETATM   11  N2  UNL     1       8.167  35.210  74.678  1.00  0.00    -0.341 N 
HETATM   12  C22 UNL     1       6.939  35.132  75.217  1.00  0.00     0.047 A 
HETATM   13  C23 UNL     1       6.211  35.904  76.112  1.00  0.00     0.042 A 
ENDROOT
BRANCH   1  14
HETATM   14  C4  UNL     1       4.209  36.431  77.447  1.00  0.00     0.060 C 
BRANCH  14  15
HETATM   15  C3  UNL     1       3.850  37.684  77.141  1.00  0.00     0.107 A 
HETATM   16  N1  UNL     1       2.680  38.261  77.446  1.00  0.00    -0.341 N 
HETATM   17  C2  UNL     1       2.654  39.541  76.981  1.00  0.00     0.056 A 
ATOM     18  H1  UNL     1       1.920  37.807  77.952  1.00  0.00     0.167 HD
HETATM   19  C1  UNL     1       1.603  40.331  77.153  1.00  0.00     0.045 C 
HETATM   20  C24 UNL     1       3.852  39.760  76.369  1.00  0.00     0.125 A 
HETATM   21  N3  UNL     1       4.561  38.604  76.484  1.00  0.00    -0.337 N 
ATOM     22  H3  UNL     1       5.503  38.461  76.119  1.00  0.00     0.168 HD
BRANCH  20  23
HETATM   23  C25 UNL     1       4.280  40.979  75.725  1.00  0.00     0.283 C 
HETATM   24  N4  UNL     1       4.194  42.228  76.401  1.00  0.00    -0.056 NA
HETATM   25  O1  UNL     1       4.734  40.976  74.573  1.00  0.00    -0.269 OA
ENDBRANCH  20  23
ENDBRANCH  14  15
ENDBRANCH   1  14
BRANCH  11  26
HETATM   26  C15 UNL     1       9.122  36.257  74.952  1.00  0.00     0.168 C 
BRANCH  26  27
HETATM   27  C16 UNL     1       9.172  37.326  73.949  1.00  0.00    -0.040 A 
HETATM   28  C17 UNL     1       8.099  38.144  73.725  1.00  0.00     0.009 A 
HETATM   29  C18 UNL     1       8.163  39.141  72.785  1.00  0.00     0.001 A 
HETATM   30  C19 UNL     1       9.304  39.352  72.041  1.00  0.00     0.000 A 
HETATM   31  C20 UNL     1      10.395  38.547  72.247  1.00  0.00     0.001 A 
HETATM   32  C21 UNL     1      10.315  37.536  73.206  1.00  0.00     0.009 A 
ENDBRANCH  26  27
ENDBRANCH  11  26
TORSDOF 5
ENDMDL
MODEL 5
REMARK VINA RESULT: -8.777764128      2.069      3.250
REMARK  5 active torsions:
REMARK  status: ('A' for Active; 'I' for Inactive)
REMARK    1  A    between atoms: C3_5  and  C4_6 
REMARK    2  A    between atoms: C4_6  and  C5_7 
REMARK    3  A    between atoms: N2_17  and  C15_18 
REMARK    4  A    between atoms: C15_18  and  C16_19 
REMARK    5  A    between atoms: C24_29  and  C25_30 
ROOT
HETATM    1  C5  UNL     1       8.453  32.559  72.447  1.00  0.00    -0.030 A 
HETATM    2  C6  UNL     1       7.220  32.006  72.719  1.00  0.00     0.012 A 
HETATM    3  C7  UNL     1       6.399  32.617  73.662  1.00  0.00     0.015 A 
HETATM    4  C8  UNL     1       6.811  33.759  74.312  1.00  0.00     0.003 A 
HETATM    5  C9  UNL     1       6.229  34.561  75.270  1.00  0.00     0.003 A 
HETATM    6  C10 UNL     1       4.989  34.463  75.905  1.00  0.00     0.014 A 
HETATM    7  C11 UNL     1       4.595  35.382  76.851  1.00  0.00     0.001 A 
HETATM    8  C12 UNL     1       5.446  36.417  77.171  1.00  0.00     0.002 A 
HETATM    9  C13 UNL     1       6.668  36.507  76.540  1.00  0.00     0.030 A 
HETATM   10  C14 UNL     1       7.096  35.604  75.588  1.00  0.00     0.046 A 
HETATM   11  N2  UNL     1       8.190  35.435  74.830  1.00  0.00    -0.341 N 
HETATM   12  C22 UNL     1       8.052  34.344  74.059  1.00  0.00     0.047 A 
HETATM   13  C23 UNL     1       8.844  33.706  73.113  1.00  0.00     0.042 A 
ENDROOT
BRANCH   1  14
HETATM   14  C4  UNL     1       9.317  31.933  71.470  1.00  0.00     0.060 C 
BRANCH  14  15
HETATM   15  C3  UNL     1      10.577  31.582  71.762  1.00  0.00     0.107 A 
HETATM   16  N1  UNL     1      10.964  30.874  72.832  1.00  0.00    -0.341 N 
HETATM   17  C2  UNL     1      12.315  30.701  72.814  1.00  0.00     0.056 A 
ATOM     18  H1  UNL     1      10.339  30.517  73.554  1.00  0.00     0.167 HD
HETATM   19  C1  UNL     1      12.952  30.032  73.765  1.00  0.00     0.045 C 
HETATM   20  C24 UNL     1      12.775  31.324  71.692  1.00  0.00     0.125 A 
HETATM   21  N3  UNL     1      11.686  31.853  71.071  1.00  0.00    -0.337 N 
ATOM     22  H3  UNL     1      11.714  32.383  70.200  1.00  0.00     0.168 HD
BRANCH  20  23
HETATM   23  C25 UNL     1      14.148  31.405  71.253  1.00  0.00     0.283 C 
HETATM   24  N4  UNL     1      14.663  30.484  70.299  1.00  0.00    -0.056 NA
HETATM   25  O1  UNL     1      14.915  32.273  71.691  1.00  0.00    -0.269 OA
ENDBRANCH  20  23
ENDBRANCH  14  15
ENDBRANCH   1  14
BRANCH  11  26
HETATM   26  C15 UNL     1       9.349  36.295  74.842  1.00  0.00     0.168 C 
BRANCH  26  27
HETATM   27  C16 UNL     1       9.332  37.369  73.843  1.00  0.00    -0.040 A 
HETATM   28  C17 UNL     1      10.438  37.662  73.094  1.00  0.00     0.009 A 
HETATM   29  C18 UNL     1      10.405  38.667  72.162  1.00  0.00     0.001 A 
HETATM   30  C19 UNL     1       9.264  39.411  71.950  1.00  0.00     0.000 A 
HETATM   31  C20 UNL     1       8.141  39.137  72.688  1.00  0.00     0.001 A 
HETATM   32  C21 UNL     1       8.189  38.111  73.633  1.00  0.00     0.009 A 
ENDBRANCH  26  27
ENDBRANCH  11  26
TORSDOF 5
ENDMDL
