MODEL 1
REMARK VINA RESULT: -9.440115234      0.000      0.000
REMARK  4 active torsions:
REMARK  status: ('A' for Active; 'I' for Inactive)
REMARK       I    between atoms: C1_2  and  N1_3 
REMARK    1  A    between atoms: C1_2  and  C15_21 
REMARK    2  A    between atoms: N1_3  and  C2_4 
REMARK    3  A    between atoms: C18_24  and  C19_25 
REMARK    4  A    between atoms: C19_25  and  C20_26 
ROOT
HETATM    1  C2  UNL     1       5.798  38.482  74.577  1.00  0.00     0.303 A 
HETATM    2  N2  UNL     1       6.855  38.824  73.641  1.00  0.00    -0.353 N 
ATOM      3  H2  UNL     1       6.509  39.516  72.975  1.00  0.00     0.163 HD
HETATM    4  C3  UNL     1       8.044  38.555  73.379  1.00  0.00     0.057 A 
HETATM    5  C4  UNL     1       8.536  39.266  72.269  1.00  0.00     0.031 A 
HETATM    6  C5  UNL     1       9.820  39.100  71.811  1.00  0.00     0.002 A 
HETATM    7  C6  UNL     1      10.641  38.213  72.460  1.00  0.00     0.002 A 
HETATM    8  C7  UNL     1      10.150  37.510  73.560  1.00  0.00     0.032 A 
HETATM    9  C8  UNL     1       8.870  37.665  74.031  1.00  0.00     0.059 A 
HETATM   10  N3  UNL     1       8.603  36.954  75.081  1.00  0.00    -0.354 N 
ATOM     11  H3  UNL     1       9.363  36.354  75.401  1.00  0.00     0.166 HD
HETATM   12  C9  UNL     1       7.413  36.884  75.852  1.00  0.00     0.043 A 
HETATM   13  C10 UNL     1       7.546  36.030  76.949  1.00  0.00     0.030 A 
HETATM   14  C11 UNL     1       6.509  35.827  77.829  1.00  0.00     0.002 A 
HETATM   15  C12 UNL     1       5.311  36.471  77.634  1.00  0.00     0.001 A 
HETATM   16  C13 UNL     1       5.184  37.309  76.554  1.00  0.00     0.014 A 
HETATM   17  C14 UNL     1       6.239  37.524  75.649  1.00  0.00     0.023 A 
ENDROOT
BRANCH   1  18
HETATM   18  N1  UNL     1       5.129  39.561  75.055  1.00  0.00    -0.379 NA
HETATM   19  C1  UNL     1       4.439  40.675  75.547  1.00  0.00     0.323 C 
HETATM   20  O1  UNL     1       4.684  41.859  75.237  1.00  0.00    -0.251 OA
BRANCH  19  21
HETATM   21  C15 UNL     1       3.321  40.484  76.513  1.00  0.00     0.046 A 
HETATM   22  C16 UNL     1       2.684  41.601  76.993  1.00  0.00     0.018 A 
HETATM   23  C17 UNL     1       1.630  41.447  77.904  1.00  0.00     0.008 A 
HETATM   24  C18 UNL     1       1.240  40.196  78.311  1.00  0.00    -0.052 A 
HETATM   25  C24 UNL     1       1.896  39.094  77.815  1.00  0.00     0.008 A 
HETATM   26  C25 UNL     1       2.915  39.249  76.933  1.00  0.00     0.018 A 
BRANCH  24  27
HETATM   27  C19 UNL     1       0.127  39.989  79.273  1.00  0.00     0.095 C 
BRANCH  27  28
HETATM   28  C20 UNL     1       0.349  40.712  80.549  1.00  0.00     0.013 A 
HETATM   29  C21 UNL     1       1.271  40.335  81.507  1.00  0.00     0.026 A 
HETATM   30  C22 UNL     1       1.190  41.240  82.544  1.00  0.00     0.019 A 
HETATM   31  C23 UNL     1       0.232  42.152  82.216  1.00  0.00     0.088 A 
HETATM   32  N4  UNL     1      -0.265  41.815  81.006  1.00  0.00    -0.369 N 
ATOM     33  H4  UNL     1      -0.999  42.323  80.512  1.00  0.00     0.165 HD
ENDBRANCH  27  28
ENDBRANCH  24  27
ENDBRANCH  19  21
ENDBRANCH   1  18
TORSDOF 4
ENDMDL
MODEL 2
REMARK VINA RESULT: -9.133841995      5.557     11.680
REMARK  4 active torsions:
REMARK  status: ('A' for Active; 'I' for Inactive)
REMARK       I    between atoms: C1_2  and  N1_3 
REMARK    1  A    between atoms: C1_2  and  C15_21 
REMARK    2  A    between atoms: N1_3  and  C2_4 
REMARK    3  A    between atoms: C18_24  and  C19_25 
REMARK    4  A    between atoms: C19_25  and  C20_26 
ROOT
HETATM    1  C2  UNL     1       9.056  35.118  74.778  1.00  0.00     0.303 A 
HETATM    2  N2  UNL     1       9.558  36.132  73.866  1.00  0.00    -0.353 N 
ATOM      3  H2  UNL     1      10.458  35.833  73.488  1.00  0.00     0.163 HD
HETATM    4  C3  UNL     1       9.258  37.244  73.391  1.00  0.00     0.057 A 
HETATM    5  C4  UNL     1      10.228  37.743  72.502  1.00  0.00     0.031 A 
HETATM    6  C5  UNL     1      10.090  38.961  71.884  1.00  0.00     0.002 A 
HETATM    7  C6  UNL     1       8.971  39.709  72.146  1.00  0.00     0.002 A 
HETATM    8  C7  UNL     1       8.010  39.212  73.028  1.00  0.00     0.032 A 
HETATM    9  C8  UNL     1       8.133  37.996  73.653  1.00  0.00     0.059 A 
HETATM   10  N3  UNL     1       7.127  37.688  74.410  1.00  0.00    -0.354 N 
ATOM     11  H3  UNL     1       6.395  38.396  74.467  1.00  0.00     0.166 HD
HETATM   12  C9  UNL     1       6.892  36.514  75.174  1.00  0.00     0.043 A 
HETATM   13  C10 UNL     1       5.653  36.544  75.816  1.00  0.00     0.030 A 
HETATM   14  C11 UNL     1       5.227  35.498  76.602  1.00  0.00     0.002 A 
HETATM   15  C12 UNL     1       6.031  34.396  76.766  1.00  0.00     0.001 A 
HETATM   16  C13 UNL     1       7.249  34.371  76.133  1.00  0.00     0.014 A 
HETATM   17  C14 UNL     1       7.692  35.435  75.327  1.00  0.00     0.023 A 
ENDROOT
BRANCH   1  18
HETATM   18  N1  UNL     1       9.167  33.855  74.296  1.00  0.00    -0.379 NA
HETATM   19  C1  UNL     1       9.281  32.552  73.798  1.00  0.00     0.323 C 
HETATM   20  O1  UNL     1       8.573  31.588  74.158  1.00  0.00    -0.251 OA
BRANCH  19  21
HETATM   21  C15 UNL     1      10.305  32.242  72.762  1.00  0.00     0.046 A 
HETATM   22  C16 UNL     1      11.099  33.267  72.311  1.00  0.00     0.018 A 
HETATM   23  C17 UNL     1      12.069  32.999  71.335  1.00  0.00     0.008 A 
HETATM   24  C18 UNL     1      12.223  31.730  70.837  1.00  0.00    -0.052 A 
HETATM   25  C24 UNL     1      11.414  30.722  71.306  1.00  0.00     0.008 A 
HETATM   26  C25 UNL     1      10.477  30.987  72.251  1.00  0.00     0.018 A 
BRANCH  24  27
HETATM   27  C19 UNL     1      13.240  31.406  69.804  1.00  0.00     0.095 C 
BRANCH  27  28
HETATM   28  C20 UNL     1      14.458  30.795  70.392  1.00  0.00     0.013 A 
HETATM   29  C21 UNL     1      15.088  31.256  71.532  1.00  0.00     0.026 A 
HETATM   30  C22 UNL     1      16.175  30.442  71.767  1.00  0.00     0.019 A 
HETATM   31  C23 UNL     1      16.201  29.501  70.782  1.00  0.00     0.088 A 
HETATM   32  N4  UNL     1      15.155  29.732  69.960  1.00  0.00    -0.369 N 
ATOM     33  H4  UNL     1      14.927  29.180  69.132  1.00  0.00     0.165 HD
ENDBRANCH  27  28
ENDBRANCH  24  27
ENDBRANCH  19  21
ENDBRANCH   1  18
TORSDOF 4
ENDMDL
MODEL 3
REMARK VINA RESULT: -8.996526171      5.370     11.350
REMARK  4 active torsions:
REMARK  status: ('A' for Active; 'I' for Inactive)
REMARK       I    between atoms: C1_2  and  N1_3 
REMARK    1  A    between atoms: C1_2  and  C15_21 
REMARK    2  A    between atoms: N1_3  and  C2_4 
REMARK    3  A    between atoms: C18_24  and  C19_25 
REMARK    4  A    between atoms: C19_25  and  C20_26 
ROOT
HETATM    1  C2  UNL     1       8.958  35.588  75.056  1.00  0.00     0.303 A 
HETATM    2  N2  UNL     1       9.489  36.449  74.013  1.00  0.00    -0.353 N 
ATOM      3  H2  UNL     1      10.354  36.048  73.649  1.00  0.00     0.163 HD
HETATM    4  C3  UNL     1       9.242  37.513  73.414  1.00  0.00     0.057 A 
HETATM    5  C4  UNL     1      10.209  37.835  72.443  1.00  0.00     0.031 A 
HETATM    6  C5  UNL     1      10.125  38.976  71.684  1.00  0.00     0.002 A 
HETATM    7  C6  UNL     1       9.065  39.823  71.883  1.00  0.00     0.002 A 
HETATM    8  C7  UNL     1       8.107  39.501  72.847  1.00  0.00     0.032 A 
HETATM    9  C8  UNL     1       8.176  38.364  73.613  1.00  0.00     0.059 A 
HETATM   10  N3  UNL     1       7.182  38.217  74.430  1.00  0.00    -0.354 N 
ATOM     11  H3  UNL     1       6.498  38.974  74.420  1.00  0.00     0.166 HD
HETATM   12  C9  UNL     1       6.901  37.162  75.338  1.00  0.00     0.043 A 
HETATM   13  C10 UNL     1       5.690  37.352  76.007  1.00  0.00     0.030 A 
HETATM   14  C11 UNL     1       5.229  36.440  76.927  1.00  0.00     0.002 A 
HETATM   15  C12 UNL     1       5.967  35.315  77.203  1.00  0.00     0.001 A 
HETATM   16  C13 UNL     1       7.157  35.132  76.543  1.00  0.00     0.014 A 
HETATM   17  C14 UNL     1       7.637  36.059  75.601  1.00  0.00     0.023 A 
ENDROOT
BRANCH   1  18
HETATM   18  N1  UNL     1       8.972  34.271  74.730  1.00  0.00    -0.379 NA
HETATM   19  C1  UNL     1       8.986  32.913  74.394  1.00  0.00     0.323 C 
HETATM   20  O1  UNL     1       8.387  32.017  75.025  1.00  0.00    -0.251 OA
BRANCH  19  21
HETATM   21  C15 UNL     1       9.756  32.453  73.204  1.00  0.00     0.046 A 
HETATM   22  C16 UNL     1       9.369  31.285  72.596  1.00  0.00     0.018 A 
HETATM   23  C17 UNL     1      10.079  30.832  71.475  1.00  0.00     0.008 A 
HETATM   24  C18 UNL     1      11.147  31.547  70.994  1.00  0.00    -0.052 A 
HETATM   25  C24 UNL     1      11.514  32.713  71.622  1.00  0.00     0.008 A 
HETATM   26  C25 UNL     1      10.822  33.147  72.706  1.00  0.00     0.018 A 
BRANCH  24  27
HETATM   27  C19 UNL     1      11.924  31.102  69.808  1.00  0.00     0.095 C 
BRANCH  27  28
HETATM   28  C20 UNL     1      13.119  30.309  70.187  1.00  0.00     0.013 A 
HETATM   29  C21 UNL     1      14.417  30.653  69.863  1.00  0.00     0.026 A 
HETATM   30  C22 UNL     1      15.248  29.684  70.382  1.00  0.00     0.019 A 
HETATM   31  C23 UNL     1      14.462  28.766  71.012  1.00  0.00     0.088 A 
HETATM   32  N4  UNL     1      13.177  29.161  70.882  1.00  0.00    -0.369 N 
ATOM     33  H4  UNL     1      12.370  28.662  71.257  1.00  0.00     0.165 HD
ENDBRANCH  27  28
ENDBRANCH  24  27
ENDBRANCH  19  21
ENDBRANCH   1  18
TORSDOF 4
ENDMDL
MODEL 4
REMARK VINA RESULT: -8.776074859      1.470      2.031
REMARK  4 active torsions:
REMARK  status: ('A' for Active; 'I' for Inactive)
REMARK       I    between atoms: C1_2  and  N1_3 
REMARK    1  A    between atoms: C1_2  and  C15_21 
REMARK    2  A    between atoms: N1_3  and  C2_4 
REMARK    3  A    between atoms: C18_24  and  C19_25 
REMARK    4  A    between atoms: C19_25  and  C20_26 
ROOT
HETATM    1  C2  UNL     1       5.857  38.494  74.569  1.00  0.00     0.303 A 
HETATM    2  N2  UNL     1       6.880  38.851  73.600  1.00  0.00    -0.353 N 
ATOM      3  H2  UNL     1       6.500  39.532  72.941  1.00  0.00     0.163 HD
HETATM    4  C3  UNL     1       8.065  38.604  73.304  1.00  0.00     0.057 A 
HETATM    5  C4  UNL     1       8.510  39.319  72.176  1.00  0.00     0.031 A 
HETATM    6  C5  UNL     1       9.782  39.175  71.681  1.00  0.00     0.002 A 
HETATM    7  C6  UNL     1      10.640  38.309  72.309  1.00  0.00     0.002 A 
HETATM    8  C7  UNL     1      10.196  37.602  73.428  1.00  0.00     0.032 A 
HETATM    9  C8  UNL     1       8.927  37.734  73.935  1.00  0.00     0.059 A 
HETATM   10  N3  UNL     1       8.706  37.024  74.996  1.00  0.00    -0.354 N 
ATOM     11  H3  UNL     1       9.487  36.440  75.297  1.00  0.00     0.166 HD
HETATM   12  C9  UNL     1       7.541  36.934  75.803  1.00  0.00     0.043 A 
HETATM   13  C10 UNL     1       7.724  36.090  76.899  1.00  0.00     0.030 A 
HETATM   14  C11 UNL     1       6.717  35.871  77.811  1.00  0.00     0.002 A 
HETATM   15  C12 UNL     1       5.502  36.490  77.649  1.00  0.00     0.001 A 
HETATM   16  C13 UNL     1       5.326  37.319  76.568  1.00  0.00     0.014 A 
HETATM   17  C14 UNL     1       6.349  37.550  75.631  1.00  0.00     0.023 A 
ENDROOT
BRANCH   1  18
HETATM   18  N1  UNL     1       5.182  39.562  75.061  1.00  0.00    -0.379 NA
HETATM   19  C1  UNL     1       4.484  40.664  75.569  1.00  0.00     0.323 C 
HETATM   20  O1  UNL     1       4.775  41.857  75.340  1.00  0.00    -0.251 OA
BRANCH  19  21
HETATM   21  C15 UNL     1       3.301  40.450  76.448  1.00  0.00     0.046 A 
HETATM   22  C16 UNL     1       3.021  39.170  76.854  1.00  0.00     0.018 A 
HETATM   23  C17 UNL     1       1.912  38.944  77.682  1.00  0.00     0.008 A 
HETATM   24  C18 UNL     1       1.117  39.990  78.080  1.00  0.00    -0.052 A 
HETATM   25  C24 UNL     1       1.421  41.262  77.658  1.00  0.00     0.008 A 
HETATM   26  C25 UNL     1       2.496  41.475  76.858  1.00  0.00     0.018 A 
BRANCH  24  27
HETATM   27  C19 UNL     1      -0.065  39.793  78.958  1.00  0.00     0.095 C 
BRANCH  27  28
HETATM   28  C20 UNL     1      -0.103  38.432  79.547  1.00  0.00     0.013 A 
HETATM   29  C21 UNL     1       0.475  38.088  80.754  1.00  0.00     0.026 A 
HETATM   30  C22 UNL     1       0.233  36.749  80.967  1.00  0.00     0.019 A 
HETATM   31  C23 UNL     1      -0.484  36.289  79.904  1.00  0.00     0.088 A 
HETATM   32  N4  UNL     1      -0.677  37.321  79.056  1.00  0.00    -0.369 N 
ATOM     33  H4  UNL     1      -1.183  37.267  78.172  1.00  0.00     0.165 HD
ENDBRANCH  27  28
ENDBRANCH  24  27
ENDBRANCH  19  21
ENDBRANCH   1  18
TORSDOF 4
ENDMDL
MODEL 5
REMARK VINA RESULT: -8.674921952      7.205     10.931
REMARK  4 active torsions:
REMARK  status: ('A' for Active; 'I' for Inactive)
REMARK       I    between atoms: C1_2  and  N1_3 
REMARK    1  A    between atoms: C1_2  and  C15_21 
REMARK    2  A    between atoms: N1_3  and  C2_4 
REMARK    3  A    between atoms: C18_24  and  C19_25 
REMARK    4  A    between atoms: C19_25  and  C20_26 
ROOT
HETATM    1  C2  UNL     1      10.599  30.363  72.693  1.00  0.00     0.303 A 
HETATM    2  N2  UNL     1      10.414  28.925  72.783  1.00  0.00    -0.353 N 
ATOM      3  H2  UNL     1       9.749  28.713  73.528  1.00  0.00     0.163 HD
HETATM    4  C3  UNL     1      10.795  27.862  72.254  1.00  0.00     0.057 A 
HETATM    5  C4  UNL     1      10.211  26.720  72.832  1.00  0.00     0.031 A 
HETATM    6  C5  UNL     1      10.513  25.452  72.400  1.00  0.00     0.002 A 
HETATM    7  C6  UNL     1      11.409  25.302  71.374  1.00  0.00     0.002 A 
HETATM    8  C7  UNL     1      11.987  26.437  70.802  1.00  0.00     0.032 A 
HETATM    9  C8  UNL     1      11.695  27.711  71.221  1.00  0.00     0.059 A 
HETATM   10  N3  UNL     1      12.302  28.639  70.551  1.00  0.00    -0.354 N 
ATOM     11  H3  UNL     1      12.934  28.306  69.824  1.00  0.00     0.166 HD
HETATM   12  C9  UNL     1      12.218  30.052  70.677  1.00  0.00     0.043 A 
HETATM   13  C10 UNL     1      12.994  30.711  69.721  1.00  0.00     0.030 A 
HETATM   14  C11 UNL     1      13.048  32.084  69.665  1.00  0.00     0.002 A 
HETATM   15  C12 UNL     1      12.328  32.833  70.564  1.00  0.00     0.001 A 
HETATM   16  C13 UNL     1      11.567  32.181  71.502  1.00  0.00     0.014 A 
HETATM   17  C14 UNL     1      11.505  30.777  71.567  1.00  0.00     0.023 A 
ENDROOT
BRANCH   1  18
HETATM   18  N1  UNL     1       9.437  31.062  72.741  1.00  0.00    -0.379 NA
HETATM   19  C1  UNL     1       8.238  31.782  72.790  1.00  0.00     0.323 C 
HETATM   20  O1  UNL     1       7.117  31.320  72.491  1.00  0.00    -0.251 OA
BRANCH  19  21
HETATM   21  C15 UNL     1       8.248  33.207  73.227  1.00  0.00     0.046 A 
HETATM   22  C16 UNL     1       9.291  33.636  74.008  1.00  0.00     0.018 A 
HETATM   23  C17 UNL     1       9.321  34.972  74.432  1.00  0.00     0.008 A 
HETATM   24  C18 UNL     1       8.321  35.838  74.070  1.00  0.00    -0.052 A 
HETATM   25  C24 UNL     1       7.288  35.382  73.287  1.00  0.00     0.008 A 
HETATM   26  C25 UNL     1       7.264  34.088  72.879  1.00  0.00     0.018 A 
BRANCH  24  27
HETATM   27  C19 UNL     1       8.318  37.262  74.496  1.00  0.00     0.095 C 
BRANCH  27  28
HETATM   28  C20 UNL     1       8.791  38.168  73.421  1.00  0.00     0.013 A 
HETATM   29  C21 UNL     1      10.058  38.130  72.871  1.00  0.00     0.026 A 
HETATM   30  C22 UNL     1      10.126  39.114  71.910  1.00  0.00     0.019 A 
HETATM   31  C23 UNL     1       8.916  39.740  71.879  1.00  0.00     0.088 A 
HETATM   32  N4  UNL     1       8.122  39.153  72.801  1.00  0.00    -0.369 N 
ATOM     33  H4  UNL     1       7.157  39.419  72.997  1.00  0.00     0.165 HD
ENDBRANCH  27  28
ENDBRANCH  24  27
ENDBRANCH  19  21
ENDBRANCH   1  18
TORSDOF 4
ENDMDL
