MODEL 1
REMARK VINA RESULT: -5.475827841      0.000      0.000
REMARK  1 active torsions:
REMARK  status: ('A' for Active; 'I' for Inactive)
REMARK    1  A    between atoms: C4_5  and  O2_6 
ROOT
HETATM    1  C1  UNL     1      29.528  10.211  36.478  1.00  0.00     0.042 C 
HETATM    2  C2  UNL     1      30.562   9.751  37.479  1.00  0.00     0.150 C 
HETATM    3  O1  UNL     1      30.016   9.460  38.752  1.00  0.00    -0.373 OA
HETATM    4  C3  UNL     1      29.536   8.277  38.186  1.00  0.00     0.182 C 
HETATM    5  C4  UNL     1      29.569   7.075  39.096  1.00  0.00     0.160 C 
HETATM    6  C5  UNL     1      30.782   7.186  39.957  1.00  0.00     0.096 C 
HETATM    7  C6  UNL     1      31.477   5.921  40.333  1.00  0.00     0.183 C 
HETATM    8  O3  UNL     1      32.486   6.247  39.420  1.00  0.00    -0.360 OA
HETATM    9  C7  UNL     1      31.984   7.552  39.198  1.00  0.00     0.269 C 
HETATM   10  O4  UNL     1      31.892   7.806  37.893  1.00  0.00    -0.350 OA
HETATM   11  C8  UNL     1      30.762   8.237  37.332  1.00  0.00     0.184 C 
ENDROOT
BRANCH   5  12
HETATM   12  O2  UNL     1      28.399   6.856  39.774  1.00  0.00    -0.392 OA
ATOM     13  H2  UNL     1      28.491   6.874  40.720  1.00  0.00     0.210 HD
ENDBRANCH   5  12
TORSDOF 1
ENDMDL
MODEL 2
REMARK VINA RESULT: -5.348099543      1.265      1.365
REMARK  1 active torsions:
REMARK  status: ('A' for Active; 'I' for Inactive)
REMARK    1  A    between atoms: C4_5  and  O2_6 
ROOT
HETATM    1  C1  UNL     1      30.002   9.831  36.523  1.00  0.00     0.042 C 
HETATM    2  C2  UNL     1      30.569   9.168  37.755  1.00  0.00     0.150 C 
HETATM    3  O1  UNL     1      29.717   9.260  38.882  1.00  0.00    -0.373 OA
HETATM    4  C3  UNL     1      28.947   8.262  38.278  1.00  0.00     0.182 C 
HETATM    5  C4  UNL     1      28.346   7.257  39.230  1.00  0.00     0.160 C 
HETATM    6  C5  UNL     1      29.318   7.041  40.340  1.00  0.00     0.096 C 
HETATM    7  C6  UNL     1      29.397   5.672  40.926  1.00  0.00     0.183 C 
HETATM    8  O3  UNL     1      30.612   5.494  40.256  1.00  0.00    -0.360 OA
HETATM    9  C7  UNL     1      30.693   6.852  39.861  1.00  0.00     0.269 C 
HETATM   10  O4  UNL     1      30.960   6.949  38.559  1.00  0.00    -0.350 OA
HETATM   11  C8  UNL     1      30.209   7.677  37.733  1.00  0.00     0.184 C 
ENDROOT
BRANCH   5  12
HETATM   12  O2  UNL     1      27.072   7.560  39.630  1.00  0.00    -0.392 OA
ATOM     13  H2  UNL     1      27.025   8.004  40.469  1.00  0.00     0.210 HD
ENDBRANCH   5  12
TORSDOF 1
ENDMDL
MODEL 3
REMARK VINA RESULT: -5.330224685      1.444      3.882
REMARK  1 active torsions:
REMARK  status: ('A' for Active; 'I' for Inactive)
REMARK    1  A    between atoms: C4_5  and  O2_6 
ROOT
HETATM    1  C1  UNL     1      31.931   6.240  40.237  1.00  0.00     0.042 C 
HETATM    2  C2  UNL     1      30.940   6.574  39.148  1.00  0.00     0.150 C 
HETATM    3  O1  UNL     1      30.094   7.661  39.476  1.00  0.00    -0.373 OA
HETATM    4  C3  UNL     1      31.190   8.487  39.211  1.00  0.00     0.182 C 
HETATM    5  C4  UNL     1      30.853   9.798  38.545  1.00  0.00     0.160 C 
HETATM    6  C5  UNL     1      29.710   9.560  37.616  1.00  0.00     0.096 C 
HETATM    7  C6  UNL     1      29.678  10.347  36.350  1.00  0.00     0.183 C 
HETATM    8  O3  UNL     1      30.062   9.190  35.664  1.00  0.00    -0.360 OA
HETATM    9  C7  UNL     1      29.889   8.356  36.795  1.00  0.00     0.269 C 
HETATM   10  O4  UNL     1      30.958   7.582  36.978  1.00  0.00    -0.350 OA
HETATM   11  C8  UNL     1      31.603   7.527  38.143  1.00  0.00     0.184 C 
ENDROOT
BRANCH   5  12
HETATM   12  O2  UNL     1      30.678  10.838  39.418  1.00  0.00    -0.392 OA
ATOM     13  H2  UNL     1      30.167  10.616  40.188  1.00  0.00     0.210 HD
ENDBRANCH   5  12
TORSDOF 1
ENDMDL
MODEL 4
REMARK VINA RESULT: -5.288541201      1.658      2.796
REMARK  1 active torsions:
REMARK  status: ('A' for Active; 'I' for Inactive)
REMARK    1  A    between atoms: C4_5  and  O2_6 
ROOT
HETATM    1  C1  UNL     1      31.727  10.815  38.143  1.00  0.00     0.042 C 
HETATM    2  C2  UNL     1      30.393  10.114  38.225  1.00  0.00     0.150 C 
HETATM    3  O1  UNL     1      30.237   9.094  37.255  1.00  0.00    -0.373 OA
HETATM    4  C3  UNL     1      31.083   8.319  38.053  1.00  0.00     0.182 C 
HETATM    5  C4  UNL     1      30.736   6.852  38.114  1.00  0.00     0.160 C 
HETATM    6  C5  UNL     1      29.250   6.731  38.065  1.00  0.00     0.096 C 
HETATM    7  C6  UNL     1      28.625   5.626  38.846  1.00  0.00     0.183 C 
HETATM    8  O3  UNL     1      28.198   6.576  39.780  1.00  0.00    -0.360 OA
HETATM    9  C7  UNL     1      28.575   7.672  38.966  1.00  0.00     0.269 C 
HETATM   10  O4  UNL     1      29.293   8.552  39.665  1.00  0.00    -0.350 OA
HETATM   11  C8  UNL     1      30.487   8.979  39.254  1.00  0.00     0.184 C 
ENDROOT
BRANCH   5  12
HETATM   12  O2  UNL     1      31.407   6.083  37.201  1.00  0.00    -0.392 OA
ATOM     13  H2  UNL     1      32.192   5.671  37.545  1.00  0.00     0.210 HD
ENDBRANCH   5  12
TORSDOF 1
ENDMDL
MODEL 5
REMARK VINA RESULT: -5.246271032      1.006      1.006
REMARK  1 active torsions:
REMARK  status: ('A' for Active; 'I' for Inactive)
REMARK    1  A    between atoms: C4_5  and  O2_6 
ROOT
HETATM    1  C1  UNL     1      29.994   9.760  35.961  1.00  0.00     0.042 C 
HETATM    2  C2  UNL     1      30.930   8.967  36.841  1.00  0.00     0.150 C 
HETATM    3  O1  UNL     1      30.806   9.282  38.216  1.00  0.00    -0.373 OA
HETATM    4  C3  UNL     1      29.629   8.530  38.199  1.00  0.00     0.182 C 
HETATM    5  C4  UNL     1      29.370   7.721  39.446  1.00  0.00     0.160 C 
HETATM    6  C5  UNL     1      30.686   7.248  39.965  1.00  0.00     0.096 C 
HETATM    7  C6  UNL     1      30.726   5.906  40.616  1.00  0.00     0.183 C 
HETATM    8  O3  UNL     1      31.360   5.410  39.472  1.00  0.00    -0.360 OA
HETATM    9  C7  UNL     1      31.547   6.698  38.911  1.00  0.00     0.269 C 
HETATM   10  O4  UNL     1      31.139   6.722  37.643  1.00  0.00    -0.350 OA
HETATM   11  C8  UNL     1      30.269   7.627  37.195  1.00  0.00     0.184 C 
ENDROOT
BRANCH   5  12
HETATM   12  O2  UNL     1      28.581   8.355  40.368  1.00  0.00    -0.392 OA
ATOM     13  H2  UNL     1      29.053   8.672  41.129  1.00  0.00     0.210 HD
ENDBRANCH   5  12
TORSDOF 1
ENDMDL
