MODEL 1
REMARK VINA RESULT: -5.745332820      0.000      0.000
REMARK  0 active torsions:
REMARK  status: ('A' for Active; 'I' for Inactive)
ROOT
HETATM    1  C1  UNL     1      29.669  10.134  36.475  1.00  0.00     0.035 C 
HETATM    2  C2  UNL     1      30.335  10.528  37.748  1.00  0.00     0.239 C 
HETATM    3  N1  UNL     1      30.923   9.374  38.343  1.00  0.00    -0.015 N 
ATOM      4  H11 UNL     1      30.761   9.330  39.349  1.00  0.00     0.283 HD
ATOM      5  H12 UNL     1      31.942   9.424  38.366  1.00  0.00     0.283 HD
HETATM    6  C3  UNL     1      30.448   8.206  37.660  1.00  0.00     0.363 C 
HETATM    7  C4  UNL     1      29.551   8.643  36.545  1.00  0.00     0.105 C 
HETATM    8  O1  UNL     1      29.660   7.429  38.538  1.00  0.00    -0.326 OA
HETATM    9  C5  UNL     1      29.572   6.166  37.905  1.00  0.00     0.247 C 
HETATM   10  C6  UNL     1      30.955   5.549  38.065  1.00  0.00     0.241 A 
HETATM   11  C7  UNL     1      31.131   4.193  38.341  1.00  0.00     0.245 A 
HETATM   12  O2  UNL     1      31.329   4.649  36.962  1.00  0.00    -0.344 OA
HETATM   13  O3  UNL     1      31.857   6.568  38.175  1.00  0.00    -0.191 OA
HETATM   14  O4  UNL     1      31.543   7.472  37.241  1.00  0.00    -0.166 OA
ENDROOT
TORSDOF 0
ENDMDL
MODEL 2
REMARK VINA RESULT: -5.632925867      1.932      4.172
REMARK  0 active torsions:
REMARK  status: ('A' for Active; 'I' for Inactive)
ROOT
HETATM    1  C1  UNL     1      31.403   5.299  40.766  1.00  0.00     0.035 C 
HETATM    2  C2  UNL     1      31.588   4.331  39.649  1.00  0.00     0.239 C 
HETATM    3  N1  UNL     1      31.466   5.021  38.408  1.00  0.00    -0.015 N 
ATOM      4  H11 UNL     1      30.907   4.505  37.729  1.00  0.00     0.283 HD
ATOM      5  H12 UNL     1      32.342   5.040  37.885  1.00  0.00     0.283 HD
HETATM    6  C3  UNL     1      30.949   6.335  38.657  1.00  0.00     0.363 C 
HETATM    7  C4  UNL     1      30.780   6.505  40.133  1.00  0.00     0.105 C 
HETATM    8  O1  UNL     1      29.665   6.459  38.081  1.00  0.00    -0.326 OA
HETATM    9  C5  UNL     1      29.426   7.854  38.051  1.00  0.00     0.247 C 
HETATM   10  C6  UNL     1      30.336   8.385  36.952  1.00  0.00     0.241 A 
HETATM   11  C7  UNL     1      29.924   9.387  36.073  1.00  0.00     0.245 A 
HETATM   12  O2  UNL     1      30.801   9.761  37.186  1.00  0.00    -0.344 OA
HETATM   13  O3  UNL     1      31.399   7.534  36.842  1.00  0.00    -0.191 OA
HETATM   14  O4  UNL     1      31.809   7.256  38.084  1.00  0.00    -0.166 OA
ENDROOT
TORSDOF 0
ENDMDL
MODEL 3
REMARK VINA RESULT: -5.527344563      2.882      4.532
REMARK  0 active torsions:
REMARK  status: ('A' for Active; 'I' for Inactive)
ROOT
HETATM    1  C1  UNL     1      29.183   4.540  42.185  1.00  0.00     0.035 C 
HETATM    2  C2  UNL     1      27.800   5.021  41.914  1.00  0.00     0.239 C 
HETATM    3  N1  UNL     1      27.787   5.732  40.678  1.00  0.00    -0.015 N 
ATOM      4  H11 UNL     1      27.240   6.592  40.729  1.00  0.00     0.283 HD
ATOM      5  H12 UNL     1      27.237   5.258  39.961  1.00  0.00     0.283 HD
HETATM    6  C3  UNL     1      29.139   5.967  40.264  1.00  0.00     0.363 C 
HETATM    7  C4  UNL     1      30.055   5.331  41.260  1.00  0.00     0.105 C 
HETATM    8  O1  UNL     1      29.410   7.353  40.284  1.00  0.00    -0.326 OA
HETATM    9  C5  UNL     1      30.592   7.491  39.518  1.00  0.00     0.247 C 
HETATM   10  C6  UNL     1      30.157   7.258  38.077  1.00  0.00     0.241 A 
HETATM   11  C7  UNL     1      30.672   8.009  37.021  1.00  0.00     0.245 A 
HETATM   12  O2  UNL     1      31.205   6.661  37.236  1.00  0.00    -0.344 OA
HETATM   13  O3  UNL     1      29.049   6.460  38.099  1.00  0.00    -0.191 OA
HETATM   14  O4  UNL     1      29.290   5.479  38.977  1.00  0.00    -0.166 OA
ENDROOT
TORSDOF 0
ENDMDL
MODEL 4
REMARK VINA RESULT: -5.446944902      2.208      2.480
REMARK  0 active torsions:
REMARK  status: ('A' for Active; 'I' for Inactive)
ROOT
HETATM    1  C1  UNL     1      30.080   9.788  36.915  1.00  0.00     0.035 C 
HETATM    2  C2  UNL     1      30.766  10.384  38.095  1.00  0.00     0.239 C 
HETATM    3  N1  UNL     1      30.635   9.501  39.207  1.00  0.00    -0.015 N 
ATOM      4  H11 UNL     1      30.406   9.994  40.070  1.00  0.00     0.283 HD
ATOM      5  H12 UNL     1      31.529   9.109  39.501  1.00  0.00     0.283 HD
HETATM    6  C3  UNL     1      29.673   8.488  38.884  1.00  0.00     0.363 C 
HETATM    7  C4  UNL     1      29.207   8.711  37.480  1.00  0.00     0.105 C 
HETATM    8  O1  UNL     1      28.540   8.623  39.717  1.00  0.00    -0.326 OA
HETATM    9  C5  UNL     1      27.857   7.391  39.583  1.00  0.00     0.247 C 
HETATM   10  C6  UNL     1      28.710   6.384  40.342  1.00  0.00     0.241 A 
HETATM   11  C7  UNL     1      28.144   5.378  41.125  1.00  0.00     0.245 A 
HETATM   12  O2  UNL     1      28.640   5.021  39.793  1.00  0.00    -0.344 OA
HETATM   13  O3  UNL     1      29.999   6.837  40.332  1.00  0.00    -0.191 OA
HETATM   14  O4  UNL     1      30.259   7.252  39.088  1.00  0.00    -0.166 OA
ENDROOT
TORSDOF 0
ENDMDL
MODEL 5
REMARK VINA RESULT: -5.405540689      1.956      4.295
REMARK  0 active torsions:
REMARK  status: ('A' for Active; 'I' for Inactive)
ROOT
HETATM    1  C1  UNL     1      29.271   5.782  37.999  1.00  0.00     0.035 C 
HETATM    2  C2  UNL     1      30.683   5.366  37.767  1.00  0.00     0.239 C 
HETATM    3  N1  UNL     1      31.545   6.472  38.028  1.00  0.00    -0.015 N 
ATOM      4  H11 UNL     1      32.276   6.570  37.324  1.00  0.00     0.283 HD
ATOM      5  H12 UNL     1      32.146   6.313  38.836  1.00  0.00     0.283 HD
HETATM    6  C3  UNL     1      30.750   7.658  38.161  1.00  0.00     0.363 C 
HETATM    7  C4  UNL     1      29.309   7.278  38.026  1.00  0.00     0.105 C 
HETATM    8  O1  UNL     1      31.040   8.547  37.103  1.00  0.00    -0.326 OA
HETATM    9  C5  UNL     1      30.511   9.788  37.532  1.00  0.00     0.247 C 
HETATM   10  C6  UNL     1      31.456  10.259  38.631  1.00  0.00     0.241 A 
HETATM   11  C7  UNL     1      31.826  11.597  38.762  1.00  0.00     0.245 A 
HETATM   12  O2  UNL     1      30.797  11.071  39.665  1.00  0.00    -0.344 OA
HETATM   13  O3  UNL     1      32.032   9.153  39.189  1.00  0.00    -0.191 OA
HETATM   14  O4  UNL     1      31.058   8.254  39.371  1.00  0.00    -0.166 OA
ENDROOT
TORSDOF 0
ENDMDL
