MODEL 1
REMARK VINA RESULT: -5.194828483      0.000      0.000
REMARK  1 active torsions:
REMARK  status: ('A' for Active; 'I' for Inactive)
REMARK    1  A    between atoms: O1_1  and  C1_3 
ROOT
HETATM    1  C1  UNL     1      28.209   7.039  40.048  1.00  0.00     0.289 C 
HETATM    2  O2  UNL     1      28.569   5.928  39.306  1.00  0.00    -0.329 OA
HETATM    3  C2  UNL     1      29.118   6.248  38.079  1.00  0.00     0.447 C 
HETATM    4  N1  UNL     1      30.366   6.991  38.196  1.00  0.00     0.153 N 
HETATM    5  C3  UNL     1      30.596   7.169  39.642  1.00  0.00     0.316 C 
HETATM    6  C4  UNL     1      29.367   8.038  39.956  1.00  0.00     0.208 C 
HETATM    7  O3  UNL     1      29.200   8.847  38.821  1.00  0.00    -0.337 OA
HETATM    8  C5  UNL     1      30.050   8.374  37.861  1.00  0.00     0.306 C 
HETATM    9  C6  UNL     1      29.748   8.659  36.440  1.00  0.00     0.242 C 
HETATM   10  O4  UNL     1      31.141   8.739  36.202  1.00  0.00    -0.381 OA
HETATM   11  C7  UNL     1      31.248   9.223  37.527  1.00  0.00     0.242 C 
ENDROOT
BRANCH   1  12
HETATM   12  O1  UNL     1      27.016   7.597  39.624  1.00  0.00    -0.368 OA
ATOM     13  H1  UNL     1      27.024   8.546  39.659  1.00  0.00     0.212 HD
ENDBRANCH   1  12
TORSDOF 1
ENDMDL
MODEL 2
REMARK VINA RESULT: -5.120881841      1.368      3.661
REMARK  1 active torsions:
REMARK  status: ('A' for Active; 'I' for Inactive)
REMARK    1  A    between atoms: O1_1  and  C1_3 
ROOT
HETATM    1  C1  UNL     1      31.546   8.849  37.795  1.00  0.00     0.289 C 
HETATM    2  O2  UNL     1      31.483   7.587  37.231  1.00  0.00    -0.329 OA
HETATM    3  C2  UNL     1      30.648   6.726  37.917  1.00  0.00     0.447 C 
HETATM    4  N1  UNL     1      29.259   7.165  37.913  1.00  0.00     0.153 N 
HETATM    5  C3  UNL     1      29.239   8.439  37.170  1.00  0.00     0.316 C 
HETATM    6  C4  UNL     1      30.110   9.268  38.129  1.00  0.00     0.208 C 
HETATM    7  O3  UNL     1      29.773   8.804  39.411  1.00  0.00    -0.337 OA
HETATM    8  C5  UNL     1      28.993   7.694  39.245  1.00  0.00     0.306 C 
HETATM    9  C6  UNL     1      28.917   6.707  40.346  1.00  0.00     0.242 C 
HETATM   10  O4  UNL     1      27.569   6.470  39.985  1.00  0.00    -0.381 OA
HETATM   11  C7  UNL     1      27.532   7.825  39.583  1.00  0.00     0.242 C 
ENDROOT
BRANCH   1  12
HETATM   12  O1  UNL     1      32.365   8.893  38.910  1.00  0.00    -0.368 OA
ATOM     13  H1  UNL     1      32.201   9.655  39.453  1.00  0.00     0.212 HD
ENDBRANCH   1  12
TORSDOF 1
ENDMDL
MODEL 3
REMARK VINA RESULT: -5.069441321      4.861      6.165
REMARK  1 active torsions:
REMARK  status: ('A' for Active; 'I' for Inactive)
REMARK    1  A    between atoms: O1_1  and  C1_3 
ROOT
HETATM    1  C1  UNL     1      26.616   2.432  44.010  1.00  0.00     0.289 C 
HETATM    2  O2  UNL     1      26.334   1.900  42.765  1.00  0.00    -0.329 OA
HETATM    3  C2  UNL     1      26.726   2.718  41.723  1.00  0.00     0.447 C 
HETATM    4  N1  UNL     1      28.168   2.925  41.680  1.00  0.00     0.153 N 
HETATM    5  C3  UNL     1      28.717   2.179  42.828  1.00  0.00     0.316 C 
HETATM    6  C4  UNL     1      28.046   2.981  43.955  1.00  0.00     0.208 C 
HETATM    7  O3  UNL     1      28.022   4.305  43.488  1.00  0.00    -0.337 OA
HETATM    8  C5  UNL     1      28.401   4.276  42.176  1.00  0.00     0.306 C 
HETATM    9  C6  UNL     1      27.986   5.387  41.290  1.00  0.00     0.242 C 
HETATM   10  O4  UNL     1      29.213   5.243  40.601  1.00  0.00    -0.381 OA
HETATM   11  C7  UNL     1      29.758   4.836  41.841  1.00  0.00     0.242 C 
ENDROOT
BRANCH   1  12
HETATM   12  O1  UNL     1      25.708   3.405  44.391  1.00  0.00    -0.368 OA
ATOM     13  H1  UNL     1      25.556   4.049  43.709  1.00  0.00     0.212 HD
ENDBRANCH   1  12
TORSDOF 1
ENDMDL
MODEL 4
REMARK VINA RESULT: -5.053110230      1.610      3.776
REMARK  1 active torsions:
REMARK  status: ('A' for Active; 'I' for Inactive)
REMARK    1  A    between atoms: O1_1  and  C1_3 
ROOT
HETATM    1  C1  UNL     1      31.258  10.725  38.284  1.00  0.00     0.289 C 
HETATM    2  O2  UNL     1      32.440  10.008  38.307  1.00  0.00    -0.329 OA
HETATM    3  C2  UNL     1      32.293   8.734  38.821  1.00  0.00     0.447 C 
HETATM    4  N1  UNL     1      31.411   7.899  38.016  1.00  0.00     0.153 N 
HETATM    5  C3  UNL     1      30.947   8.754  36.907  1.00  0.00     0.316 C 
HETATM    6  C4  UNL     1      30.173   9.792  37.736  1.00  0.00     0.208 C 
HETATM    7  O3  UNL     1      29.608   9.058  38.793  1.00  0.00    -0.337 OA
HETATM    8  C5  UNL     1      30.155   7.806  38.750  1.00  0.00     0.306 C 
HETATM    9  C6  UNL     1      30.170   6.994  39.988  1.00  0.00     0.242 C 
HETATM   10  O4  UNL     1      29.984   5.843  39.186  1.00  0.00    -0.381 OA
HETATM   11  C7  UNL     1      29.257   6.681  38.309  1.00  0.00     0.242 C 
ENDROOT
BRANCH   1  12
HETATM   12  O1  UNL     1      30.919  11.231  39.527  1.00  0.00    -0.368 OA
ATOM     13  H1  UNL     1      29.987  11.174  39.703  1.00  0.00     0.212 HD
ENDBRANCH   1  12
TORSDOF 1
ENDMDL
MODEL 5
REMARK VINA RESULT: -5.021806792      1.784      2.842
REMARK  1 active torsions:
REMARK  status: ('A' for Active; 'I' for Inactive)
REMARK    1  A    between atoms: O1_1  and  C1_3 
ROOT
HETATM    1  C1  UNL     1      31.214   5.604  39.057  1.00  0.00     0.289 C 
HETATM    2  O2  UNL     1      30.567   6.342  40.032  1.00  0.00    -0.329 OA
HETATM    3  C2  UNL     1      30.475   7.686  39.724  1.00  0.00     0.447 C 
HETATM    4  N1  UNL     1      29.679   7.938  38.530  1.00  0.00     0.153 N 
HETATM    5  C3  UNL     1      29.260   6.612  38.037  1.00  0.00     0.316 C 
HETATM    6  C4  UNL     1      30.651   6.049  37.703  1.00  0.00     0.208 C 
HETATM    7  O3  UNL     1      31.381   7.153  37.232  1.00  0.00    -0.337 OA
HETATM    8  C5  UNL     1      30.626   8.266  37.471  1.00  0.00     0.306 C 
HETATM    9  C6  UNL     1      31.304   9.578  37.572  1.00  0.00     0.242 C 
HETATM   10  O4  UNL     1      30.166  10.168  36.973  1.00  0.00    -0.381 OA
HETATM   11  C7  UNL     1      30.011   8.947  36.276  1.00  0.00     0.242 C 
ENDROOT
BRANCH   1  12
HETATM   12  O1  UNL     1      32.590   5.743  39.110  1.00  0.00    -0.368 OA
ATOM     13  H1  UNL     1      32.901   5.967  39.979  1.00  0.00     0.212 HD
ENDBRANCH   1  12
TORSDOF 1
ENDMDL
