MODEL 1
REMARK VINA RESULT: -7.734704862      0.000      0.000
REMARK  10 active torsions:
REMARK  status: ('A' for Active; 'I' for Inactive)
REMARK    1  A    between atoms: C2_2  and  C3_3 
REMARK    2  A    between atoms: C4_5  and  N1_6 
REMARK       I    between atoms: N1_6  and  C5_8 
REMARK    3  A    between atoms: C5_8  and  O3_10 
REMARK    4  A    between atoms: O3_10  and  C6_11 
REMARK    5  A    between atoms: C10_15  and  C11_16 
REMARK    6  A    between atoms: C11_16  and  O4_17 
REMARK    7  A    between atoms: C12_19  and  C13_20 
REMARK    8  A    between atoms: C15_22  and  O5_23 
REMARK    9  A    between atoms: C16_25  and  O6_26 
REMARK   10  A    between atoms: C19_29  and  O7_30 
ROOT
HETATM    1  C3  UNL     1      -3.567 -23.224  20.943  1.00  0.00     0.133 C 
HETATM    2  O1  UNL     1      -4.813 -22.797  21.418  1.00  0.00    -0.360 OA
HETATM    3  C4  UNL     1      -4.626 -21.538  21.959  1.00  0.00     0.232 C 
HETATM    4  C10 UNL     1      -3.515 -20.888  21.179  1.00  0.00     0.069 C 
HETATM    5  C12 UNL     1      -2.646 -22.090  20.856  1.00  0.00     0.061 C 
ENDROOT
BRANCH   5   6
HETATM    6  C13 UNL     1      -1.843 -21.907  19.662  1.00  0.00    -0.015 A 
HETATM    7  C14 UNL     1      -2.272 -21.481  18.428  1.00  0.00     0.049 A 
HETATM    8  C15 UNL     1      -1.418 -21.329  17.340  1.00  0.00     0.099 A 
HETATM    9  C16 UNL     1      -0.085 -21.611  17.478  1.00  0.00     0.103 A 
HETATM   10  C18 UNL     1       0.370 -22.038  18.699  1.00  0.00     0.076 A 
HETATM   11  C19 UNL     1      -0.484 -22.184  19.766  1.00  0.00     0.077 A 
BRANCH   8  12
HETATM   12  O5  UNL     1      -1.975 -20.890  16.144  1.00  0.00    -0.358 OA
ATOM     13  H5  UNL     1      -1.907 -21.466  15.391  1.00  0.00     0.217 HD
ENDBRANCH   8  12
BRANCH   9  14
HETATM   14  O6  UNL     1       0.760 -21.462  16.405  1.00  0.00    -0.353 OA
HETATM   15  C17 UNL     1       1.549 -20.312  16.179  1.00  0.00     0.210 C 
ENDBRANCH   9  14
BRANCH  11  16
HETATM   16  O7  UNL     1       0.050 -22.618  20.958  1.00  0.00    -0.355 OA
HETATM   17  C20 UNL     1       0.617 -23.871  21.172  1.00  0.00     0.210 C 
ENDBRANCH  11  16
ENDBRANCH   5   6
BRANCH   1  18
HETATM   18  C2  UNL     1      -3.084 -24.220  22.012  1.00  0.00     0.028 C 
HETATM   19  C1  UNL     1      -4.205 -24.984  22.636  1.00  0.00     0.007 C 
ENDBRANCH   1  18
BRANCH   4  20
HETATM   20  C11 UNL     1      -4.002 -20.165  19.963  1.00  0.00     0.173 C 
BRANCH  20  21
HETATM   21  O4  UNL     1      -4.238 -18.821  20.176  1.00  0.00    -0.400 OA
ATOM     22  H4  UNL     1      -5.112 -18.634  20.496  1.00  0.00     0.209 HD
ENDBRANCH  20  21
ENDBRANCH   4  20
BRANCH   3  23
HETATM   23  N1  UNL     1      -5.874 -20.821  21.888  1.00  0.00    -0.310 N 
HETATM   24  C5  UNL     1      -7.058 -21.278  22.536  1.00  0.00     0.363 C 
HETATM   25  O2  UNL     1      -7.068 -22.344  23.209  1.00  0.00    -0.238 OA
ATOM     26  H1  UNL     1      -5.911 -19.953  21.353  1.00  0.00     0.167 HD
BRANCH  24  27
HETATM   27  O3  UNL     1      -8.257 -20.587  22.466  1.00  0.00    -0.294 OA
BRANCH  27  28
HETATM   28  C6  UNL     1      -8.701 -19.975  21.270  1.00  0.00     0.061 C 
HETATM   29  C7  UNL     1     -10.187 -20.241  21.178  1.00  0.00     0.046 C 
HETATM   30  C8  UNL     1      -8.040 -20.482  20.039  1.00  0.00     0.046 C 
HETATM   31  C9  UNL     1      -8.526 -18.474  21.319  1.00  0.00     0.046 C 
ENDBRANCH  27  28
ENDBRANCH  24  27
ENDBRANCH   3  23
TORSDOF 10
ENDMDL
MODEL 2
REMARK VINA RESULT: -7.574087131      0.989      1.038
REMARK  10 active torsions:
REMARK  status: ('A' for Active; 'I' for Inactive)
REMARK    1  A    between atoms: C2_2  and  C3_3 
REMARK    2  A    between atoms: C4_5  and  N1_6 
REMARK       I    between atoms: N1_6  and  C5_8 
REMARK    3  A    between atoms: C5_8  and  O3_10 
REMARK    4  A    between atoms: O3_10  and  C6_11 
REMARK    5  A    between atoms: C10_15  and  C11_16 
REMARK    6  A    between atoms: C11_16  and  O4_17 
REMARK    7  A    between atoms: C12_19  and  C13_20 
REMARK    8  A    between atoms: C15_22  and  O5_23 
REMARK    9  A    between atoms: C16_25  and  O6_26 
REMARK   10  A    between atoms: C19_29  and  O7_30 
ROOT
HETATM    1  C3  UNL     1      -3.971 -23.561  21.029  1.00  0.00     0.133 C 
HETATM    2  O1  UNL     1      -5.170 -22.935  21.389  1.00  0.00    -0.360 OA
HETATM    3  C4  UNL     1      -4.831 -21.805  22.109  1.00  0.00     0.232 C 
HETATM    4  C10 UNL     1      -3.510 -21.324  21.573  1.00  0.00     0.069 C 
HETATM    5  C12 UNL     1      -2.847 -22.640  21.212  1.00  0.00     0.061 C 
ENDROOT
BRANCH   5   6
HETATM    6  C13 UNL     1      -1.851 -22.508  20.167  1.00  0.00    -0.015 A 
HETATM    7  C14 UNL     1      -2.061 -22.523  18.810  1.00  0.00     0.049 A 
HETATM    8  C15 UNL     1      -1.033 -22.379  17.882  1.00  0.00     0.099 A 
HETATM    9  C16 UNL     1       0.255 -22.214  18.315  1.00  0.00     0.103 A 
HETATM   10  C18 UNL     1       0.493 -22.196  19.666  1.00  0.00     0.076 A 
HETATM   11  C19 UNL     1      -0.530 -22.339  20.571  1.00  0.00     0.077 A 
BRANCH   8  12
HETATM   12  O5  UNL     1      -1.376 -22.412  16.535  1.00  0.00    -0.358 OA
ATOM     13  H5  UNL     1      -2.269 -22.653  16.316  1.00  0.00     0.217 HD
ENDBRANCH   8  12
BRANCH   9  14
HETATM   14  O6  UNL     1       1.271 -22.072  17.402  1.00  0.00    -0.353 OA
HETATM   15  C17 UNL     1       2.011 -23.154  16.873  1.00  0.00     0.210 C 
ENDBRANCH   9  14
BRANCH  11  16
HETATM   16  O7  UNL     1      -0.209 -22.309  21.910  1.00  0.00    -0.355 OA
HETATM   17  C20 UNL     1       0.830 -23.023  22.500  1.00  0.00     0.210 C 
ENDBRANCH  11  16
ENDBRANCH   5   6
BRANCH   1  18
HETATM   18  C2  UNL     1      -3.858 -24.740  22.012  1.00  0.00     0.028 C 
HETATM   19  C1  UNL     1      -2.664 -24.634  22.903  1.00  0.00     0.007 C 
ENDBRANCH   1  18
BRANCH   4  20
HETATM   20  C11 UNL     1      -3.656 -20.395  20.409  1.00  0.00     0.173 C 
BRANCH  20  21
HETATM   21  O4  UNL     1      -3.581 -19.059  20.754  1.00  0.00    -0.400 OA
ATOM     22  H4  UNL     1      -3.067 -18.538  20.149  1.00  0.00     0.209 HD
ENDBRANCH  20  21
ENDBRANCH   4  20
BRANCH   3  23
HETATM   23  N1  UNL     1      -5.893 -20.839  21.971  1.00  0.00    -0.310 N 
HETATM   24  C5  UNL     1      -7.196 -21.051  22.510  1.00  0.00     0.363 C 
HETATM   25  O2  UNL     1      -7.482 -22.105  23.140  1.00  0.00    -0.238 OA
ATOM     26  H1  UNL     1      -5.706 -19.972  21.467  1.00  0.00     0.167 HD
BRANCH  24  27
HETATM   27  O3  UNL     1      -8.215 -20.122  22.375  1.00  0.00    -0.294 OA
BRANCH  27  28
HETATM   28  C6  UNL     1      -8.851 -19.882  21.135  1.00  0.00     0.061 C 
HETATM   29  C7  UNL     1     -10.295 -20.301  21.304  1.00  0.00     0.046 C 
HETATM   30  C8  UNL     1      -8.261 -20.622  19.988  1.00  0.00     0.046 C 
HETATM   31  C9  UNL     1      -8.859 -18.408  20.794  1.00  0.00     0.046 C 
ENDBRANCH  27  28
ENDBRANCH  24  27
ENDBRANCH   3  23
TORSDOF 10
ENDMDL
MODEL 3
REMARK VINA RESULT: -7.317767609      2.649      5.910
REMARK  10 active torsions:
REMARK  status: ('A' for Active; 'I' for Inactive)
REMARK    1  A    between atoms: C2_2  and  C3_3 
REMARK    2  A    between atoms: C4_5  and  N1_6 
REMARK       I    between atoms: N1_6  and  C5_8 
REMARK    3  A    between atoms: C5_8  and  O3_10 
REMARK    4  A    between atoms: O3_10  and  C6_11 
REMARK    5  A    between atoms: C10_15  and  C11_16 
REMARK    6  A    between atoms: C11_16  and  O4_17 
REMARK    7  A    between atoms: C12_19  and  C13_20 
REMARK    8  A    between atoms: C15_22  and  O5_23 
REMARK    9  A    between atoms: C16_25  and  O6_26 
REMARK   10  A    between atoms: C19_29  and  O7_30 
ROOT
HETATM    1  C3  UNL     1      -2.950 -22.682  21.738  1.00  0.00     0.133 C 
HETATM    2  O1  UNL     1      -3.513 -21.499  21.246  1.00  0.00    -0.360 OA
HETATM    3  C4  UNL     1      -4.648 -21.856  20.543  1.00  0.00     0.232 C 
HETATM    4  C10 UNL     1      -5.199 -23.092  21.201  1.00  0.00     0.069 C 
HETATM    5  C12 UNL     1      -3.921 -23.775  21.652  1.00  0.00     0.061 C 
ENDROOT
BRANCH   5   6
HETATM    6  C13 UNL     1      -4.116 -24.653  22.790  1.00  0.00    -0.015 A 
HETATM    7  C14 UNL     1      -5.310 -25.095  23.304  1.00  0.00     0.049 A 
HETATM    8  C15 UNL     1      -5.393 -25.948  24.402  1.00  0.00     0.099 A 
HETATM    9  C16 UNL     1      -4.247 -26.378  25.016  1.00  0.00     0.103 A 
HETATM   10  C18 UNL     1      -3.041 -25.950  24.523  1.00  0.00     0.076 A 
HETATM   11  C19 UNL     1      -2.973 -25.109  23.438  1.00  0.00     0.077 A 
BRANCH   8  12
HETATM   12  O5  UNL     1      -6.662 -26.325  24.826  1.00  0.00    -0.358 OA
ATOM     13  H5  UNL     1      -6.759 -27.192  25.201  1.00  0.00     0.217 HD
ENDBRANCH   8  12
BRANCH   9  14
HETATM   14  O6  UNL     1      -4.326 -27.219  26.099  1.00  0.00    -0.353 OA
HETATM   15  C17 UNL     1      -3.325 -28.155  26.444  1.00  0.00     0.210 C 
ENDBRANCH   9  14
BRANCH  11  16
HETATM   16  O7  UNL     1      -1.724 -24.725  23.005  1.00  0.00    -0.355 OA
HETATM   17  C20 UNL     1      -0.524 -25.040  23.637  1.00  0.00     0.210 C 
ENDBRANCH  11  16
ENDBRANCH   5   6
BRANCH   1  18
HETATM   18  C2  UNL     1      -1.764 -22.950  20.794  1.00  0.00     0.028 C 
HETATM   19  C1  UNL     1      -0.854 -21.774  20.666  1.00  0.00     0.007 C 
ENDBRANCH   1  18
BRANCH   4  20
HETATM   20  C11 UNL     1      -6.136 -22.785  22.326  1.00  0.00     0.173 C 
BRANCH  20  21
HETATM   21  O4  UNL     1      -5.820 -21.627  23.009  1.00  0.00    -0.400 OA
ATOM     22  H4  UNL     1      -5.689 -21.759  23.941  1.00  0.00     0.209 HD
ENDBRANCH  20  21
ENDBRANCH   4  20
BRANCH   3  23
HETATM   23  N1  UNL     1      -5.563 -20.742  20.555  1.00  0.00    -0.310 N 
HETATM   24  C5  UNL     1      -6.527 -20.532  19.526  1.00  0.00     0.363 C 
HETATM   25  O2  UNL     1      -6.624 -21.319  18.546  1.00  0.00    -0.238 OA
ATOM     26  H1  UNL     1      -5.519 -20.079  21.329  1.00  0.00     0.167 HD
BRANCH  24  27
HETATM   27  O3  UNL     1      -7.404 -19.460  19.540  1.00  0.00    -0.294 OA
BRANCH  27  28
HETATM   28  C6  UNL     1      -8.648 -19.517  20.211  1.00  0.00     0.061 C 
HETATM   29  C7  UNL     1      -8.593 -18.474  21.307  1.00  0.00     0.046 C 
HETATM   30  C8  UNL     1      -8.960 -20.839  20.815  1.00  0.00     0.046 C 
HETATM   31  C9  UNL     1      -9.788 -19.132  19.296  1.00  0.00     0.046 C 
ENDBRANCH  27  28
ENDBRANCH  24  27
ENDBRANCH   3  23
TORSDOF 10
ENDMDL
MODEL 4
REMARK VINA RESULT: -7.309253267      1.193      1.438
REMARK  10 active torsions:
REMARK  status: ('A' for Active; 'I' for Inactive)
REMARK    1  A    between atoms: C2_2  and  C3_3 
REMARK    2  A    between atoms: C4_5  and  N1_6 
REMARK       I    between atoms: N1_6  and  C5_8 
REMARK    3  A    between atoms: C5_8  and  O3_10 
REMARK    4  A    between atoms: O3_10  and  C6_11 
REMARK    5  A    between atoms: C10_15  and  C11_16 
REMARK    6  A    between atoms: C11_16  and  O4_17 
REMARK    7  A    between atoms: C12_19  and  C13_20 
REMARK    8  A    between atoms: C15_22  and  O5_23 
REMARK    9  A    between atoms: C16_25  and  O6_26 
REMARK   10  A    between atoms: C19_29  and  O7_30 
ROOT
HETATM    1  C3  UNL     1      -3.516 -23.279  21.184  1.00  0.00     0.133 C 
HETATM    2  O1  UNL     1      -4.762 -22.726  21.498  1.00  0.00    -0.360 OA
HETATM    3  C4  UNL     1      -4.528 -21.445  21.962  1.00  0.00     0.232 C 
HETATM    4  C10 UNL     1      -3.300 -20.942  21.253  1.00  0.00     0.069 C 
HETATM    5  C12 UNL     1      -2.502 -22.225  21.108  1.00  0.00     0.061 C 
ENDROOT
BRANCH   5   6
HETATM    6  C13 UNL     1      -1.578 -22.198  19.991  1.00  0.00    -0.015 A 
HETATM    7  C14 UNL     1      -1.875 -22.370  18.661  1.00  0.00     0.049 A 
HETATM    8  C15 UNL     1      -0.912 -22.317  17.657  1.00  0.00     0.099 A 
HETATM    9  C16 UNL     1       0.398 -22.086  17.982  1.00  0.00     0.103 A 
HETATM   10  C18 UNL     1       0.722 -21.911  19.304  1.00  0.00     0.076 A 
HETATM   11  C19 UNL     1      -0.238 -21.965  20.285  1.00  0.00     0.077 A 
BRANCH   8  12
HETATM   12  O5  UNL     1      -1.340 -22.508  16.348  1.00  0.00    -0.358 OA
ATOM     13  H5  UNL     1      -0.888 -23.163  15.829  1.00  0.00     0.217 HD
ENDBRANCH   8  12
BRANCH   9  14
HETATM   14  O6  UNL     1       1.349 -22.035  16.993  1.00  0.00    -0.353 OA
HETATM   15  C17 UNL     1       2.162 -23.131  16.625  1.00  0.00     0.210 C 
ENDBRANCH   9  14
BRANCH  11  16
HETATM   16  O7  UNL     1       0.168 -21.780  21.588  1.00  0.00    -0.355 OA
HETATM   17  C20 UNL     1       1.042 -22.613  22.280  1.00  0.00     0.210 C 
ENDBRANCH  11  16
ENDBRANCH   5   6
BRANCH   1  18
HETATM   18  C2  UNL     1      -3.218 -24.218  22.366  1.00  0.00     0.028 C 
HETATM   19  C1  UNL     1      -4.378 -25.090  22.716  1.00  0.00     0.007 C 
ENDBRANCH   1  18
BRANCH   4  20
HETATM   20  C11 UNL     1      -3.609 -20.285  19.944  1.00  0.00     0.173 C 
BRANCH  20  21
HETATM   21  O4  UNL     1      -4.058 -18.985  20.070  1.00  0.00    -0.400 OA
ATOM     22  H4  UNL     1      -4.945 -18.857  19.756  1.00  0.00     0.209 HD
ENDBRANCH  20  21
ENDBRANCH   4  20
BRANCH   3  23
HETATM   23  N1  UNL     1      -5.702 -20.647  21.713  1.00  0.00    -0.310 N 
HETATM   24  C5  UNL     1      -6.702 -21.029  20.770  1.00  0.00     0.363 C 
HETATM   25  O2  UNL     1      -6.603 -22.093  20.104  1.00  0.00    -0.238 OA
ATOM     26  H1  UNL     1      -5.822 -19.776  22.230  1.00  0.00     0.167 HD
BRANCH  24  27
HETATM   27  O3  UNL     1      -7.829 -20.259  20.533  1.00  0.00    -0.294 OA
BRANCH  27  28
HETATM   28  C6  UNL     1      -8.862 -20.126  21.490  1.00  0.00     0.061 C 
HETATM   29  C7  UNL     1      -8.748 -18.726  22.054  1.00  0.00     0.046 C 
HETATM   30  C8  UNL     1      -8.796 -21.106  22.606  1.00  0.00     0.046 C 
HETATM   31  C9  UNL     1     -10.227 -20.229  20.847  1.00  0.00     0.046 C 
ENDBRANCH  27  28
ENDBRANCH  24  27
ENDBRANCH   3  23
TORSDOF 10
ENDMDL
MODEL 5
REMARK VINA RESULT: -7.239005753      2.380      7.996
REMARK  10 active torsions:
REMARK  status: ('A' for Active; 'I' for Inactive)
REMARK    1  A    between atoms: C2_2  and  C3_3 
REMARK    2  A    between atoms: C4_5  and  N1_6 
REMARK       I    between atoms: N1_6  and  C5_8 
REMARK    3  A    between atoms: C5_8  and  O3_10 
REMARK    4  A    between atoms: O3_10  and  C6_11 
REMARK    5  A    between atoms: C10_15  and  C11_16 
REMARK    6  A    between atoms: C11_16  and  O4_17 
REMARK    7  A    between atoms: C12_19  and  C13_20 
REMARK    8  A    between atoms: C15_22  and  O5_23 
REMARK    9  A    between atoms: C16_25  and  O6_26 
REMARK   10  A    between atoms: C19_29  and  O7_30 
ROOT
HETATM    1  C3  UNL     1      -5.507 -22.824  19.804  1.00  0.00     0.133 C 
HETATM    2  O1  UNL     1      -4.592 -22.749  18.747  1.00  0.00    -0.360 OA
HETATM    3  C4  UNL     1      -3.420 -22.235  19.268  1.00  0.00     0.232 C 
HETATM    4  C10 UNL     1      -3.341 -22.688  20.700  1.00  0.00     0.069 C 
HETATM    5  C12 UNL     1      -4.810 -22.692  21.084  1.00  0.00     0.061 C 
ENDROOT
BRANCH   5   6
HETATM    6  C13 UNL     1      -5.113 -23.611  22.165  1.00  0.00    -0.015 A 
HETATM    7  C14 UNL     1      -4.452 -24.773  22.479  1.00  0.00     0.049 A 
HETATM    8  C15 UNL     1      -4.817 -25.587  23.548  1.00  0.00     0.099 A 
HETATM    9  C16 UNL     1      -5.880 -25.237  24.337  1.00  0.00     0.103 A 
HETATM   10  C18 UNL     1      -6.558 -24.080  24.044  1.00  0.00     0.076 A 
HETATM   11  C19 UNL     1      -6.187 -23.286  22.987  1.00  0.00     0.077 A 
BRANCH   8  12
HETATM   12  O5  UNL     1      -4.068 -26.738  23.762  1.00  0.00    -0.358 OA
ATOM     13  H5  UNL     1      -4.123 -27.144  24.619  1.00  0.00     0.217 HD
ENDBRANCH   8  12
BRANCH   9  14
HETATM   14  O6  UNL     1      -6.242 -26.038  25.391  1.00  0.00    -0.353 OA
HETATM   15  C17 UNL     1      -5.826 -25.822  26.724  1.00  0.00     0.210 C 
ENDBRANCH   9  14
BRANCH  11  16
HETATM   16  O7  UNL     1      -6.919 -22.142  22.760  1.00  0.00    -0.355 OA
HETATM   17  C20 UNL     1      -8.051 -21.760  23.474  1.00  0.00     0.210 C 
ENDBRANCH  11  16
ENDBRANCH   5   6
BRANCH   1  18
HETATM   18  C2  UNL     1      -6.436 -21.618  19.578  1.00  0.00     0.028 C 
HETATM   19  C1  UNL     1      -5.963 -20.388  20.280  1.00  0.00     0.007 C 
ENDBRANCH   1  18
BRANCH   4  20
HETATM   20  C11 UNL     1      -2.685 -24.024  20.854  1.00  0.00     0.173 C 
BRANCH  20  21
HETATM   21  O4  UNL     1      -1.308 -23.959  20.933  1.00  0.00    -0.400 OA
ATOM     22  H4  UNL     1      -0.864 -24.563  20.350  1.00  0.00     0.209 HD
ENDBRANCH  20  21
ENDBRANCH   4  20
BRANCH   3  23
HETATM   23  N1  UNL     1      -2.319 -22.695  18.458  1.00  0.00    -0.310 N 
HETATM   24  C5  UNL     1      -1.544 -21.815  17.648  1.00  0.00     0.363 C 
HETATM   25  O2  UNL     1      -1.788 -20.580  17.601  1.00  0.00    -0.238 OA
ATOM     26  H1  UNL     1      -2.087 -23.689  18.465  1.00  0.00     0.167 HD
BRANCH  24  27
HETATM   27  O3  UNL     1      -0.487 -22.261  16.870  1.00  0.00    -0.294 OA
BRANCH  27  28
HETATM   28  C6  UNL     1       0.860 -22.090  17.266  1.00  0.00     0.061 C 
HETATM   29  C7  UNL     1       1.626 -23.266  16.700  1.00  0.00     0.046 C 
HETATM   30  C8  UNL     1       1.067 -22.040  18.737  1.00  0.00     0.046 C 
HETATM   31  C9  UNL     1       1.460 -20.842  16.659  1.00  0.00     0.046 C 
ENDBRANCH  27  28
ENDBRANCH  24  27
ENDBRANCH   3  23
TORSDOF 10
ENDMDL
