MODEL 1
REMARK VINA RESULT: -7.971734399      0.000      0.000
REMARK  11 active torsions:
REMARK  status: ('A' for Active; 'I' for Inactive)
REMARK    1  A    between atoms: C2_2  and  C3_3 
REMARK    2  A    between atoms: C8_11  and  C9_12 
REMARK    3  A    between atoms: C8_11  and  C16_20 
REMARK    4  A    between atoms: C9_12  and  C10_13 
REMARK    5  A    between atoms: C11_14  and  C12_15 
REMARK    6  A    between atoms: C13_16  and  C14_17 
REMARK    7  A    between atoms: C16_20  and  C17_21 
REMARK    8  A    between atoms: C17_21  and  C18_22 
REMARK    9  A    between atoms: C20_24  and  O5_26 
REMARK   10  A    between atoms: C22_28  and  O6_29 
REMARK   11  A    between atoms: C22_28  and  O7_31 
ROOT
HETATM    1  C3  UNL     1      -8.162 -20.730  22.004  1.00  0.00     0.081 A 
HETATM    2  C4  UNL     1      -8.242 -20.145  20.759  1.00  0.00     0.092 A 
HETATM    3  C5  UNL     1      -7.168 -20.172  19.858  1.00  0.00     0.191 A 
HETATM    4  O1  UNL     1      -7.303 -19.626  18.753  1.00  0.00    -0.287 OA
HETATM    5  C6  UNL     1      -6.006 -20.805  20.245  1.00  0.00     0.115 A 
HETATM    6  C7  UNL     1      -5.999 -21.367  21.501  1.00  0.00     0.202 A 
HETATM    7  O2  UNL     1      -7.023 -21.320  22.311  1.00  0.00    -0.287 OA
HETATM    8  O3  UNL     1      -4.873 -22.000  21.920  1.00  0.00    -0.315 OA
HETATM    9  C8  UNL     1      -3.670 -22.183  21.204  1.00  0.00     0.109 C 
HETATM   10  C20 UNL     1      -3.579 -21.298  20.014  1.00  0.00     0.147 C 
HETATM   11  C21 UNL     1      -2.657 -21.801  18.922  1.00  0.00     0.055 C 
HETATM   12  C22 UNL     1      -4.844 -20.874  19.362  1.00  0.00     0.232 C 
ENDROOT
BRANCH   9  13
HETATM   13  C9  UNL     1      -3.515 -23.652  20.989  1.00  0.00     0.069 C 
BRANCH  13  14
HETATM   14  C10 UNL     1      -3.274 -24.491  22.149  1.00  0.00    -0.015 C 
HETATM   15  C11 UNL     1      -4.258 -25.104  22.769  1.00  0.00     0.061 C 
BRANCH  15  16
HETATM   16  C12 UNL     1      -4.082 -25.943  23.918  1.00  0.00    -0.070 C 
HETATM   17  C13 UNL     1      -3.923 -26.658  24.889  1.00  0.00    -0.025 C 
BRANCH  17  18
HETATM   18  C14 UNL     1      -3.744 -27.483  26.051  1.00  0.00     0.198 C 
HETATM   19  C15 UNL     1      -2.935 -28.729  26.039  1.00  0.00     0.106 C 
HETATM   20  O4  UNL     1      -4.312 -27.101  27.106  1.00  0.00    -0.284 OA
ENDBRANCH  17  18
ENDBRANCH  15  16
ENDBRANCH  13  14
ENDBRANCH   9  13
BRANCH   9  21
HETATM   21  C16 UNL     1      -2.568 -21.759  22.160  1.00  0.00     0.042 C 
BRANCH  21  22
HETATM   22  C17 UNL     1      -1.442 -22.695  22.324  1.00  0.00     0.003 C 
BRANCH  22  23
HETATM   23  C18 UNL     1      -0.269 -22.117  21.509  1.00  0.00    -0.004 C 
HETATM   24  C19 UNL     1       0.333 -23.190  20.648  1.00  0.00     0.005 C 
ENDBRANCH  22  23
ENDBRANCH  21  22
ENDBRANCH   9  21
BRANCH  10  25
HETATM   25  O5  UNL     1      -2.966 -20.085  20.447  1.00  0.00    -0.381 OA
ATOM     26  H5  UNL     1      -3.648 -19.424  20.466  1.00  0.00     0.211 HD
ENDBRANCH  10  25
BRANCH  12  27
HETATM   27  O6  UNL     1      -5.162 -21.610  18.195  1.00  0.00    -0.359 OA
ATOM     28  H6  UNL     1      -5.465 -21.024  17.511  1.00  0.00     0.213 HD
ENDBRANCH  12  27
BRANCH  12  29
HETATM   29  O7  UNL     1      -4.687 -19.560  18.840  1.00  0.00    -0.359 OA
ATOM     30  H7  UNL     1      -4.711 -18.983  19.594  1.00  0.00     0.213 HD
ENDBRANCH  12  29
BRANCH   1  31
HETATM   31  C2  UNL     1      -9.247 -20.728  22.970  1.00  0.00     0.027 C 
HETATM   32  C1  UNL     1     -10.384 -21.314  22.746  1.00  0.00     0.014 C 
ENDBRANCH   1  31
TORSDOF 11
ENDMDL
MODEL 2
REMARK VINA RESULT: -7.862657708      2.437      6.547
REMARK  11 active torsions:
REMARK  status: ('A' for Active; 'I' for Inactive)
REMARK    1  A    between atoms: C2_2  and  C3_3 
REMARK    2  A    between atoms: C8_11  and  C9_12 
REMARK    3  A    between atoms: C8_11  and  C16_20 
REMARK    4  A    between atoms: C9_12  and  C10_13 
REMARK    5  A    between atoms: C11_14  and  C12_15 
REMARK    6  A    between atoms: C13_16  and  C14_17 
REMARK    7  A    between atoms: C16_20  and  C17_21 
REMARK    8  A    between atoms: C17_21  and  C18_22 
REMARK    9  A    between atoms: C20_24  and  O5_26 
REMARK   10  A    between atoms: C22_28  and  O6_29 
REMARK   11  A    between atoms: C22_28  and  O7_31 
ROOT
HETATM    1  C3  UNL     1      -4.672 -25.507  23.559  1.00  0.00     0.081 A 
HETATM    2  C4  UNL     1      -3.498 -25.867  24.185  1.00  0.00     0.092 A 
HETATM    3  C5  UNL     1      -2.258 -25.342  23.793  1.00  0.00     0.191 A 
HETATM    4  O1  UNL     1      -1.239 -25.708  24.396  1.00  0.00    -0.287 OA
HETATM    5  C6  UNL     1      -2.232 -24.442  22.749  1.00  0.00     0.115 A 
HETATM    6  C7  UNL     1      -3.441 -24.129  22.173  1.00  0.00     0.202 A 
HETATM    7  O2  UNL     1      -4.575 -24.641  22.570  1.00  0.00    -0.287 OA
HETATM    8  O3  UNL     1      -3.457 -23.246  21.141  1.00  0.00    -0.315 OA
HETATM    9  C8  UNL     1      -2.358 -22.566  20.571  1.00  0.00     0.109 C 
HETATM   10  C20 UNL     1      -1.056 -23.159  20.971  1.00  0.00     0.147 C 
HETATM   11  C21 UNL     1       0.121 -22.208  20.895  1.00  0.00     0.055 C 
HETATM   12  C22 UNL     1      -0.979 -23.853  22.282  1.00  0.00     0.232 C 
ENDROOT
BRANCH   9  13
HETATM   13  C9  UNL     1      -2.568 -21.112  20.837  1.00  0.00     0.069 C 
BRANCH  13  14
HETATM   14  C10 UNL     1      -3.897 -20.672  21.220  1.00  0.00    -0.015 C 
HETATM   15  C11 UNL     1      -4.843 -20.488  20.326  1.00  0.00     0.061 C 
BRANCH  15  16
HETATM   16  C12 UNL     1      -6.172 -20.056  20.644  1.00  0.00    -0.070 C 
HETATM   17  C13 UNL     1      -7.300 -19.682  20.909  1.00  0.00    -0.025 C 
BRANCH  17  18
HETATM   18  C14 UNL     1      -8.638 -19.263  21.217  1.00  0.00     0.198 C 
HETATM   19  C15 UNL     1      -9.807 -19.601  20.365  1.00  0.00     0.106 C 
HETATM   20  O4  UNL     1      -8.788 -18.582  22.264  1.00  0.00    -0.284 OA
ENDBRANCH  17  18
ENDBRANCH  15  16
ENDBRANCH  13  14
ENDBRANCH   9  13
BRANCH   9  21
HETATM   21  C16 UNL     1      -2.498 -22.766  19.072  1.00  0.00     0.042 C 
BRANCH  21  22
HETATM   22  C17 UNL     1      -2.145 -21.618  18.219  1.00  0.00     0.003 C 
BRANCH  22  23
HETATM   23  C18 UNL     1      -1.045 -22.108  17.257  1.00  0.00    -0.004 C 
HETATM   24  C19 UNL     1      -0.134 -20.969  16.899  1.00  0.00     0.005 C 
ENDBRANCH  22  23
ENDBRANCH  21  22
ENDBRANCH   9  21
BRANCH  10  25
HETATM   25  O5  UNL     1      -0.746 -24.164  20.007  1.00  0.00    -0.381 OA
ATOM     26  H5  UNL     1       0.109 -24.509  20.234  1.00  0.00     0.211 HD
ENDBRANCH  10  25
BRANCH  12  27
HETATM   27  O6  UNL     1      -0.394 -23.073  23.309  1.00  0.00    -0.359 OA
ATOM     28  H6  UNL     1       0.318 -22.551  22.959  1.00  0.00     0.213 HD
ENDBRANCH  12  27
BRANCH  12  29
HETATM   29  O7  UNL     1      -0.062 -24.937  22.187  1.00  0.00    -0.359 OA
ATOM     30  H7  UNL     1       0.683 -24.597  21.706  1.00  0.00     0.213 HD
ENDBRANCH  12  29
BRANCH   1  31
HETATM   31  C2  UNL     1      -5.978 -26.023  23.931  1.00  0.00     0.027 C 
HETATM   32  C1  UNL     1      -7.010 -25.255  24.105  1.00  0.00     0.014 C 
ENDBRANCH   1  31
TORSDOF 11
ENDMDL
MODEL 3
REMARK VINA RESULT: -7.406877571      2.848      7.448
REMARK  11 active torsions:
REMARK  status: ('A' for Active; 'I' for Inactive)
REMARK    1  A    between atoms: C2_2  and  C3_3 
REMARK    2  A    between atoms: C8_11  and  C9_12 
REMARK    3  A    between atoms: C8_11  and  C16_20 
REMARK    4  A    between atoms: C9_12  and  C10_13 
REMARK    5  A    between atoms: C11_14  and  C12_15 
REMARK    6  A    between atoms: C13_16  and  C14_17 
REMARK    7  A    between atoms: C16_20  and  C17_21 
REMARK    8  A    between atoms: C17_21  and  C18_22 
REMARK    9  A    between atoms: C20_24  and  O5_26 
REMARK   10  A    between atoms: C22_28  and  O6_29 
REMARK   11  A    between atoms: C22_28  and  O7_31 
ROOT
HETATM    1  C3  UNL     1       1.954 -23.405  23.488  1.00  0.00     0.081 A 
HETATM    2  C4  UNL     1       2.510 -23.163  22.251  1.00  0.00     0.092 A 
HETATM    3  C5  UNL     1       1.719 -22.941  21.114  1.00  0.00     0.191 A 
HETATM    4  O1  UNL     1       2.280 -22.730  20.029  1.00  0.00    -0.287 OA
HETATM    5  C6  UNL     1       0.348 -22.972  21.257  1.00  0.00     0.115 A 
HETATM    6  C7  UNL     1      -0.136 -23.219  22.521  1.00  0.00     0.202 A 
HETATM    7  O2  UNL     1       0.637 -23.420  23.555  1.00  0.00    -0.287 OA
HETATM    8  O3  UNL     1      -1.481 -23.257  22.703  1.00  0.00    -0.315 OA
HETATM    9  C8  UNL     1      -2.488 -23.050  21.735  1.00  0.00     0.109 C 
HETATM   10  C20 UNL     1      -1.963 -23.121  20.347  1.00  0.00     0.147 C 
HETATM   11  C21 UNL     1      -2.791 -22.377  19.319  1.00  0.00     0.055 C 
HETATM   12  C22 UNL     1      -0.542 -22.752  20.119  1.00  0.00     0.232 C 
ENDROOT
BRANCH   9  13
HETATM   13  C9  UNL     1      -3.223 -21.813  22.135  1.00  0.00     0.069 C 
BRANCH  13  14
HETATM   14  C10 UNL     1      -4.627 -21.709  21.783  1.00  0.00    -0.015 C 
HETATM   15  C11 UNL     1      -5.514 -21.234  22.629  1.00  0.00     0.061 C 
BRANCH  15  16
HETATM   16  C12 UNL     1      -6.911 -21.108  22.338  1.00  0.00    -0.070 C 
HETATM   17  C13 UNL     1      -8.100 -21.008  22.096  1.00  0.00    -0.025 C 
BRANCH  17  18
HETATM   18  C14 UNL     1      -9.501 -20.866  21.814  1.00  0.00     0.198 C 
HETATM   19  C15 UNL     1     -10.016 -20.092  20.655  1.00  0.00     0.106 C 
HETATM   20  O4  UNL     1     -10.296 -21.436  22.604  1.00  0.00    -0.284 OA
ENDBRANCH  17  18
ENDBRANCH  15  16
ENDBRANCH  13  14
ENDBRANCH   9  13
BRANCH   9  21
HETATM   21  C16 UNL     1      -3.452 -24.212  21.907  1.00  0.00     0.042 C 
BRANCH  21  22
HETATM   22  C17 UNL     1      -3.372 -24.951  23.178  1.00  0.00     0.003 C 
BRANCH  22  23
HETATM   23  C18 UNL     1      -4.695 -25.730  23.317  1.00  0.00    -0.004 C 
HETATM   24  C19 UNL     1      -5.819 -24.781  23.618  1.00  0.00     0.005 C 
ENDBRANCH  22  23
ENDBRANCH  21  22
ENDBRANCH   9  21
BRANCH  10  25
HETATM   25  O5  UNL     1      -2.056 -24.485  19.939  1.00  0.00    -0.381 OA
ATOM     26  H5  UNL     1      -1.714 -24.531  19.054  1.00  0.00     0.211 HD
ENDBRANCH  10  25
BRANCH  12  27
HETATM   27  O6  UNL     1      -0.366 -21.443  19.608  1.00  0.00    -0.359 OA
ATOM     28  H6  UNL     1      -0.575 -21.423  18.682  1.00  0.00     0.213 HD
ENDBRANCH  12  27
BRANCH  12  29
HETATM   29  O7  UNL     1      -0.013 -23.546  19.065  1.00  0.00    -0.359 OA
ATOM     30  H7  UNL     1      -0.149 -24.447  19.333  1.00  0.00     0.213 HD
ENDBRANCH  12  29
BRANCH   1  31
HETATM   31  C2  UNL     1       2.732 -23.639  24.693  1.00  0.00     0.027 C 
HETATM   32  C1  UNL     1       2.840 -22.756  25.638  1.00  0.00     0.014 C 
ENDBRANCH   1  31
TORSDOF 11
ENDMDL
MODEL 4
REMARK VINA RESULT: -7.392277603      3.075      7.856
REMARK  11 active torsions:
REMARK  status: ('A' for Active; 'I' for Inactive)
REMARK    1  A    between atoms: C2_2  and  C3_3 
REMARK    2  A    between atoms: C8_11  and  C9_12 
REMARK    3  A    between atoms: C8_11  and  C16_20 
REMARK    4  A    between atoms: C9_12  and  C10_13 
REMARK    5  A    between atoms: C11_14  and  C12_15 
REMARK    6  A    between atoms: C13_16  and  C14_17 
REMARK    7  A    between atoms: C16_20  and  C17_21 
REMARK    8  A    between atoms: C17_21  and  C18_22 
REMARK    9  A    between atoms: C20_24  and  O5_26 
REMARK   10  A    between atoms: C22_28  and  O6_29 
REMARK   11  A    between atoms: C22_28  and  O7_31 
ROOT
HETATM    1  C3  UNL     1       0.615 -25.457  24.884  1.00  0.00     0.081 A 
HETATM    2  C4  UNL     1       1.605 -25.349  23.932  1.00  0.00     0.092 A 
HETATM    3  C5  UNL     1       1.349 -24.836  22.652  1.00  0.00     0.191 A 
HETATM    4  O1  UNL     1       2.283 -24.766  21.840  1.00  0.00    -0.287 OA
HETATM    5  C6  UNL     1       0.064 -24.434  22.356  1.00  0.00     0.115 A 
HETATM    6  C7  UNL     1      -0.872 -24.571  23.355  1.00  0.00     0.202 A 
HETATM    7  O2  UNL     1      -0.591 -25.054  24.536  1.00  0.00    -0.287 OA
HETATM    8  O3  UNL     1      -2.149 -24.185  23.102  1.00  0.00    -0.315 OA
HETATM    9  C8  UNL     1      -2.661 -23.625  21.912  1.00  0.00     0.109 C 
HETATM   10  C20 UNL     1      -1.736 -23.797  20.761  1.00  0.00     0.147 C 
HETATM   11  C21 UNL     1      -1.915 -22.782  19.650  1.00  0.00     0.055 C 
HETATM   12  C22 UNL     1      -0.281 -23.891  21.044  1.00  0.00     0.232 C 
ENDROOT
BRANCH   9  13
HETATM   13  C9  UNL     1      -3.102 -22.237  22.244  1.00  0.00     0.069 C 
BRANCH  13  14
HETATM   14  C10 UNL     1      -4.212 -21.676  21.495  1.00  0.00    -0.015 C 
HETATM   15  C11 UNL     1      -5.270 -21.184  22.101  1.00  0.00     0.061 C 
BRANCH  15  16
HETATM   16  C12 UNL     1      -6.394 -20.618  21.416  1.00  0.00    -0.070 C 
HETATM   17  C13 UNL     1      -7.344 -20.130  20.832  1.00  0.00    -0.025 C 
BRANCH  17  18
HETATM   18  C14 UNL     1      -8.470 -19.577  20.132  1.00  0.00     0.198 C 
HETATM   19  C15 UNL     1      -9.859 -19.651  20.653  1.00  0.00     0.106 C 
HETATM   20  O4  UNL     1      -8.228 -19.011  19.035  1.00  0.00    -0.284 OA
ENDBRANCH  17  18
ENDBRANCH  15  16
ENDBRANCH  13  14
ENDBRANCH   9  13
BRANCH   9  21
HETATM   21  C16 UNL     1      -3.915 -24.424  21.600  1.00  0.00     0.042 C 
BRANCH  21  22
HETATM   22  C17 UNL     1      -4.425 -25.293  22.674  1.00  0.00     0.003 C 
BRANCH  22  23
HETATM   23  C18 UNL     1      -5.684 -24.603  23.236  1.00  0.00    -0.004 C 
HETATM   24  C19 UNL     1      -6.438 -25.554  24.119  1.00  0.00     0.005 C 
ENDBRANCH  22  23
ENDBRANCH  21  22
ENDBRANCH   9  21
BRANCH  10  25
HETATM   25  O5  UNL     1      -2.070 -25.040  20.146  1.00  0.00    -0.381 OA
ATOM     26  H5  UNL     1      -1.306 -25.599  20.224  1.00  0.00     0.211 HD
ENDBRANCH  10  25
BRANCH  12  27
HETATM   27  O6  UNL     1       0.425 -22.685  20.814  1.00  0.00    -0.359 OA
ATOM     28  H6  UNL     1       1.356 -22.822  20.945  1.00  0.00     0.213 HD
ENDBRANCH  12  27
BRANCH  12  29
HETATM   29  O7  UNL     1       0.326 -24.764  20.100  1.00  0.00    -0.359 OA
ATOM     30  H7  UNL     1       0.452 -24.242  19.317  1.00  0.00     0.213 HD
ENDBRANCH  12  29
BRANCH   1  31
HETATM   31  C2  UNL     1       0.833 -25.982  26.222  1.00  0.00     0.027 C 
HETATM   32  C1  UNL     1      -0.111 -26.541  26.917  1.00  0.00     0.014 C 
ENDBRANCH   1  31
TORSDOF 11
ENDMDL
MODEL 5
REMARK VINA RESULT: -7.226628606      2.502      5.832
REMARK  11 active torsions:
REMARK  status: ('A' for Active; 'I' for Inactive)
REMARK    1  A    between atoms: C2_2  and  C3_3 
REMARK    2  A    between atoms: C8_11  and  C9_12 
REMARK    3  A    between atoms: C8_11  and  C16_20 
REMARK    4  A    between atoms: C9_12  and  C10_13 
REMARK    5  A    between atoms: C11_14  and  C12_15 
REMARK    6  A    between atoms: C13_16  and  C14_17 
REMARK    7  A    between atoms: C16_20  and  C17_21 
REMARK    8  A    between atoms: C17_21  and  C18_22 
REMARK    9  A    between atoms: C20_24  and  O5_26 
REMARK   10  A    between atoms: C22_28  and  O6_29 
REMARK   11  A    between atoms: C22_28  and  O7_31 
ROOT
HETATM    1  C3  UNL     1      -7.369 -23.703  24.471  1.00  0.00     0.081 A 
HETATM    2  C4  UNL     1      -8.654 -23.208  24.440  1.00  0.00     0.092 A 
HETATM    3  C5  UNL     1      -9.066 -22.275  23.477  1.00  0.00     0.191 A 
HETATM    4  O1  UNL     1     -10.236 -21.867  23.504  1.00  0.00    -0.287 OA
HETATM    5  C6  UNL     1      -8.144 -21.852  22.544  1.00  0.00     0.115 A 
HETATM    6  C7  UNL     1      -6.881 -22.389  22.636  1.00  0.00     0.202 A 
HETATM    7  O2  UNL     1      -6.539 -23.257  23.549  1.00  0.00    -0.287 OA
HETATM    8  O3  UNL     1      -5.944 -21.997  21.734  1.00  0.00    -0.315 OA
HETATM    9  C8  UNL     1      -6.105 -21.092  20.662  1.00  0.00     0.109 C 
HETATM   10  C20 UNL     1      -7.347 -20.286  20.783  1.00  0.00     0.147 C 
HETATM   11  C21 UNL     1      -7.876 -19.741  19.472  1.00  0.00     0.055 C 
HETATM   12  C22 UNL     1      -8.497 -20.881  21.510  1.00  0.00     0.232 C 
ENDROOT
BRANCH   9  13
HETATM   13  C9  UNL     1      -5.906 -21.873  19.405  1.00  0.00     0.069 C 
BRANCH  13  14
HETATM   14  C10 UNL     1      -4.661 -21.693  18.679  1.00  0.00    -0.015 C 
HETATM   15  C11 UNL     1      -3.621 -22.466  18.900  1.00  0.00     0.061 C 
BRANCH  15  16
HETATM   16  C12 UNL     1      -2.368 -22.337  18.216  1.00  0.00    -0.070 C 
HETATM   17  C13 UNL     1      -1.305 -22.217  17.634  1.00  0.00    -0.025 C 
BRANCH  17  18
HETATM   18  C14 UNL     1      -0.041 -22.092  16.965  1.00  0.00     0.198 C 
HETATM   19  C15 UNL     1       1.113 -22.984  17.245  1.00  0.00     0.106 C 
HETATM   20  O4  UNL     1       0.054 -21.175  16.109  1.00  0.00    -0.284 OA
ENDBRANCH  17  18
ENDBRANCH  15  16
ENDBRANCH  13  14
ENDBRANCH   9  13
BRANCH   9  21
HETATM   21  C16 UNL     1      -4.935 -20.129  20.773  1.00  0.00     0.042 C 
BRANCH  21  22
HETATM   22  C17 UNL     1      -4.078 -20.269  21.963  1.00  0.00     0.003 C 
BRANCH  22  23
HETATM   23  C18 UNL     1      -2.670 -20.628  21.450  1.00  0.00    -0.004 C 
HETATM   24  C19 UNL     1      -2.190 -21.888  22.111  1.00  0.00     0.005 C 
ENDBRANCH  22  23
ENDBRANCH  21  22
ENDBRANCH   9  21
BRANCH  10  25
HETATM   25  O5  UNL     1      -7.010 -19.116  21.527  1.00  0.00    -0.381 OA
ATOM     26  H5  UNL     1      -6.233 -19.326  22.031  1.00  0.00     0.211 HD
ENDBRANCH  10  25
BRANCH  12  27
HETATM   27  O6  UNL     1      -9.497 -21.414  20.661  1.00  0.00    -0.359 OA
ATOM     28  H6  UNL     1      -9.313 -22.326  20.472  1.00  0.00     0.213 HD
ENDBRANCH  12  27
BRANCH  12  29
HETATM   29  O7  UNL     1      -9.211 -19.852  22.184  1.00  0.00    -0.359 OA
ATOM     30  H7  UNL     1      -9.818 -20.300  22.760  1.00  0.00     0.213 HD
ENDBRANCH  12  29
BRANCH   1  31
HETATM   31  C2  UNL     1      -6.898 -24.670  25.448  1.00  0.00     0.027 C 
HETATM   32  C1  UNL     1      -6.147 -25.679  25.127  1.00  0.00     0.014 C 
ENDBRANCH   1  31
TORSDOF 11
ENDMDL
