MODEL 1
REMARK VINA RESULT: -8.260086149      0.000      0.000
REMARK  8 active torsions:
REMARK  status: ('A' for Active; 'I' for Inactive)
REMARK    1  A    between atoms: N2_5  and  C3_6 
REMARK    2  A    between atoms: C3_6  and  C4_7 
REMARK    3  A    between atoms: C4_7  and  C5_8 
REMARK    4  A    between atoms: C5_8  and  O1_9 
REMARK    5  A    between atoms: C7_13  and  C8_14 
REMARK    6  A    between atoms: C8_14  and  C9_16 
REMARK    7  A    between atoms: C9_16  and  N3_17 
REMARK    8  A    between atoms: C12_21  and  N4_22 
ROOT
HETATM    1  N3  UNL     1      -7.484 -22.287  23.406  1.00  0.00    -0.322 N 
HETATM    2  C10 UNL     1      -7.417 -21.498  22.326  1.00  0.00     0.036 A 
HETATM    3  C11 UNL     1      -8.580 -20.888  21.945  1.00  0.00     0.018 A 
HETATM    4  S1  UNL     1      -9.716 -21.427  23.091  1.00  0.00    -0.056 SA
HETATM    5  C12 UNL     1      -8.672 -22.400  24.000  1.00  0.00     0.145 A 
HETATM    6  C13 UNL     1      -8.763 -19.992  20.757  1.00  0.00    -0.012 C 
HETATM    7  C14 UNL     1     -10.177 -20.131  20.276  1.00  0.00     0.021 C 
HETATM    8  C15 UNL     1      -8.496 -18.546  21.078  1.00  0.00     0.021 C 
HETATM    9  C16 UNL     1      -7.743 -20.463  19.725  1.00  0.00     0.015 C 
HETATM   10  C17 UNL     1      -6.436 -20.249  20.410  1.00  0.00     0.016 C 
HETATM   11  C18 UNL     1      -6.185 -21.259  21.474  1.00  0.00    -0.004 C 
HETATM   12  C19 UNL     1      -5.780 -22.542  20.774  1.00  0.00     0.021 C 
HETATM   13  C20 UNL     1      -5.021 -20.699  22.284  1.00  0.00     0.021 C 
ENDROOT
BRANCH   1  14
HETATM   14  C9  UNL     1      -6.355 -23.038  24.040  1.00  0.00     0.215 C 
BRANCH  14  15
HETATM   15  C8  UNL     1      -6.522 -24.478  23.882  1.00  0.00     0.185 C 
HETATM   16  O3  UNL     1      -7.582 -24.967  23.465  1.00  0.00    -0.290 OA
BRANCH  15  17
HETATM   17  C7  UNL     1      -5.434 -25.371  24.212  1.00  0.00     0.104 A 
HETATM   18  C2  UNL     1      -4.318 -25.620  23.402  1.00  0.00     0.041 A 
HETATM   19  C1  UNL     1      -4.086 -24.998  22.091  1.00  0.00     0.071 C 
HETATM   20  N1  UNL     1      -3.502 -26.503  23.998  1.00  0.00    -0.299 N 
HETATM   21  N2  UNL     1      -4.035 -26.846  25.168  1.00  0.00    -0.257 N 
ATOM     22  H1  UNL     1      -2.622 -26.853  23.619  1.00  0.00     0.187 HD
HETATM   23  C6  UNL     1      -5.212 -26.164  25.313  1.00  0.00     0.278 A 
HETATM   24  O2  UNL     1      -5.957 -26.266  26.307  1.00  0.00    -0.265 OA
BRANCH  21  25
HETATM   25  C3  UNL     1      -3.428 -27.782  26.062  1.00  0.00     0.154 C 
BRANCH  25  26
HETATM   26  C4  UNL     1      -2.563 -27.104  27.079  1.00  0.00     0.048 C 
BRANCH  26  27
HETATM   27  C5  UNL     1      -3.122 -27.125  28.465  1.00  0.00     0.165 C 
BRANCH  27  28
HETATM   28  O1  UNL     1      -4.389 -27.734  28.426  1.00  0.00    -0.401 OA
ATOM     29  H1  UNL     1      -4.792 -27.647  29.282  1.00  0.00     0.209 HD
ENDBRANCH  27  28
ENDBRANCH  26  27
ENDBRANCH  25  26
ENDBRANCH  21  25
ENDBRANCH  15  17
ENDBRANCH  14  15
ENDBRANCH   1  14
BRANCH   5  30
HETATM   30  N4  UNL     1      -8.970 -23.117  25.068  1.00  0.00    -0.379 N 
ATOM     31  H42 UNL     1      -9.491 -22.814  25.892  1.00  0.00     0.158 HD
ATOM     32  H41 UNL     1      -8.729 -24.092  25.247  1.00  0.00     0.158 HD
ENDBRANCH   5  30
TORSDOF 8
ENDMDL
MODEL 2
REMARK VINA RESULT: -8.005208399      4.048      5.756
REMARK  8 active torsions:
REMARK  status: ('A' for Active; 'I' for Inactive)
REMARK    1  A    between atoms: N2_5  and  C3_6 
REMARK    2  A    between atoms: C3_6  and  C4_7 
REMARK    3  A    between atoms: C4_7  and  C5_8 
REMARK    4  A    between atoms: C5_8  and  O1_9 
REMARK    5  A    between atoms: C7_13  and  C8_14 
REMARK    6  A    between atoms: C8_14  and  C9_16 
REMARK    7  A    between atoms: C9_16  and  N3_17 
REMARK    8  A    between atoms: C12_21  and  N4_22 
ROOT
HETATM    1  N3  UNL     1      -6.026 -22.351  21.837  1.00  0.00    -0.322 N 
HETATM    2  C10 UNL     1      -6.782 -21.421  21.239  1.00  0.00     0.036 A 
HETATM    3  C11 UNL     1      -7.928 -21.057  21.890  1.00  0.00     0.018 A 
HETATM    4  S1  UNL     1      -7.915 -22.010  23.299  1.00  0.00    -0.056 SA
HETATM    5  C12 UNL     1      -6.463 -22.828  23.003  1.00  0.00     0.145 A 
HETATM    6  C13 UNL     1      -8.945 -20.068  21.406  1.00  0.00    -0.012 C 
HETATM    7  C14 UNL     1     -10.285 -20.469  21.949  1.00  0.00     0.021 C 
HETATM    8  C15 UNL     1      -8.640 -18.663  21.848  1.00  0.00     0.021 C 
HETATM    9  C16 UNL     1      -8.887 -20.129  19.883  1.00  0.00     0.015 C 
HETATM   10  C17 UNL     1      -7.489 -19.712  19.575  1.00  0.00     0.016 C 
HETATM   11  C18 UNL     1      -6.499 -20.775  19.895  1.00  0.00    -0.004 C 
HETATM   12  C19 UNL     1      -6.595 -21.810  18.791  1.00  0.00     0.021 C 
HETATM   13  C20 UNL     1      -5.144 -20.077  19.862  1.00  0.00     0.021 C 
ENDROOT
BRANCH   1  14
HETATM   14  C9  UNL     1      -4.719 -22.895  21.350  1.00  0.00     0.215 C 
BRANCH  14  15
HETATM   15  C8  UNL     1      -3.597 -22.129  21.878  1.00  0.00     0.185 C 
HETATM   16  O3  UNL     1      -3.756 -21.251  22.738  1.00  0.00    -0.290 OA
BRANCH  15  17
HETATM   17  C7  UNL     1      -2.257 -22.390  21.400  1.00  0.00     0.104 A 
HETATM   18  C2  UNL     1      -1.376 -23.337  21.938  1.00  0.00     0.041 A 
HETATM   19  C1  UNL     1      -1.692 -24.218  23.071  1.00  0.00     0.071 C 
HETATM   20  N1  UNL     1      -0.213 -23.320  21.269  1.00  0.00    -0.299 N 
HETATM   21  N2  UNL     1      -0.292 -22.399  20.312  1.00  0.00    -0.257 N 
ATOM     22  H1  UNL     1       0.594 -23.912  21.461  1.00  0.00     0.187 HD
HETATM   23  C6  UNL     1      -1.531 -21.824  20.379  1.00  0.00     0.278 A 
HETATM   24  O2  UNL     1      -1.920 -20.919  19.614  1.00  0.00    -0.265 OA
BRANCH  21  25
HETATM   25  C3  UNL     1       0.781 -22.108  19.413  1.00  0.00     0.154 C 
BRANCH  25  26
HETATM   26  C4  UNL     1       0.675 -22.895  18.143  1.00  0.00     0.048 C 
BRANCH  26  27
HETATM   27  C5  UNL     1       0.088 -22.130  17.000  1.00  0.00     0.165 C 
BRANCH  27  28
HETATM   28  O1  UNL     1      -1.292 -22.394  16.948  1.00  0.00    -0.401 OA
ATOM     29  H1  UNL     1      -1.484 -22.832  16.127  1.00  0.00     0.209 HD
ENDBRANCH  27  28
ENDBRANCH  26  27
ENDBRANCH  25  26
ENDBRANCH  21  25
ENDBRANCH  15  17
ENDBRANCH  14  15
ENDBRANCH   1  14
BRANCH   5  30
HETATM   30  N4  UNL     1      -5.888 -23.742  23.763  1.00  0.00    -0.379 N 
ATOM     31  H42 UNL     1      -4.973 -23.688  24.212  1.00  0.00     0.158 HD
ATOM     32  H41 UNL     1      -6.262 -24.654  24.026  1.00  0.00     0.158 HD
ENDBRANCH   5  30
TORSDOF 8
ENDMDL
MODEL 3
REMARK VINA RESULT: -7.974766706      4.562      8.491
REMARK  8 active torsions:
REMARK  status: ('A' for Active; 'I' for Inactive)
REMARK    1  A    between atoms: N2_5  and  C3_6 
REMARK    2  A    between atoms: C3_6  and  C4_7 
REMARK    3  A    between atoms: C4_7  and  C5_8 
REMARK    4  A    between atoms: C5_8  and  O1_9 
REMARK    5  A    between atoms: C7_13  and  C8_14 
REMARK    6  A    between atoms: C8_14  and  C9_16 
REMARK    7  A    between atoms: C9_16  and  N3_17 
REMARK    8  A    between atoms: C12_21  and  N4_22 
ROOT
HETATM    1  N3  UNL     1      -3.128 -22.225  19.855  1.00  0.00    -0.322 N 
HETATM    2  C10 UNL     1      -1.880 -22.654  20.090  1.00  0.00     0.036 A 
HETATM    3  C11 UNL     1      -0.926 -22.274  19.187  1.00  0.00     0.018 A 
HETATM    4  S1  UNL     1      -1.787 -21.341  18.054  1.00  0.00    -0.056 SA
HETATM    5  C12 UNL     1      -3.315 -21.474  18.770  1.00  0.00     0.145 A 
HETATM    6  C13 UNL     1       0.523 -22.655  19.218  1.00  0.00    -0.012 C 
HETATM    7  C14 UNL     1       1.029 -22.691  17.806  1.00  0.00     0.021 C 
HETATM    8  C15 UNL     1       1.358 -21.686  20.011  1.00  0.00     0.021 C 
HETATM    9  C16 UNL     1       0.576 -24.020  19.896  1.00  0.00     0.015 C 
HETATM   10  C17 UNL     1       0.024 -23.751  21.255  1.00  0.00     0.016 C 
HETATM   11  C18 UNL     1      -1.450 -23.550  21.236  1.00  0.00    -0.004 C 
HETATM   12  C19 UNL     1      -2.077 -24.922  21.086  1.00  0.00     0.021 C 
HETATM   13  C20 UNL     1      -1.785 -22.950  22.597  1.00  0.00     0.021 C 
ENDROOT
BRANCH   1  14
HETATM   14  C9  UNL     1      -4.337 -22.475  20.701  1.00  0.00     0.215 C 
BRANCH  14  15
HETATM   15  C8  UNL     1      -4.673 -21.304  21.503  1.00  0.00     0.185 C 
HETATM   16  O3  UNL     1      -3.800 -20.630  22.067  1.00  0.00    -0.290 OA
BRANCH  15  17
HETATM   17  C7  UNL     1      -6.055 -20.904  21.650  1.00  0.00     0.104 A 
HETATM   18  C2  UNL     1      -6.948 -21.413  22.601  1.00  0.00     0.041 A 
HETATM   19  C1  UNL     1      -6.606 -22.433  23.603  1.00  0.00     0.071 C 
HETATM   20  N1  UNL     1      -8.152 -20.836  22.462  1.00  0.00    -0.299 N 
HETATM   21  N2  UNL     1      -8.087 -19.966  21.457  1.00  0.00    -0.257 N 
ATOM     22  H1  UNL     1      -8.976 -21.030  23.029  1.00  0.00     0.187 HD
HETATM   23  C6  UNL     1      -6.816 -19.996  20.952  1.00  0.00     0.278 A 
HETATM   24  O2  UNL     1      -6.430 -19.293  19.997  1.00  0.00    -0.265 OA
BRANCH  21  25
HETATM   25  C3  UNL     1      -9.201 -19.179  21.028  1.00  0.00     0.154 C 
BRANCH  25  26
HETATM   26  C4  UNL     1      -9.965 -19.847  19.926  1.00  0.00     0.048 C 
BRANCH  26  27
HETATM   27  C5  UNL     1      -9.978 -19.081  18.643  1.00  0.00     0.165 C 
BRANCH  27  28
HETATM   28  O1  UNL     1      -8.858 -18.231  18.619  1.00  0.00    -0.401 OA
ATOM     29  H1  UNL     1      -9.114 -17.406  18.223  1.00  0.00     0.209 HD
ENDBRANCH  27  28
ENDBRANCH  26  27
ENDBRANCH  25  26
ENDBRANCH  21  25
ENDBRANCH  15  17
ENDBRANCH  14  15
ENDBRANCH   1  14
BRANCH   5  30
HETATM   30  N4  UNL     1      -4.448 -20.947  18.344  1.00  0.00    -0.379 N 
ATOM     31  H42 UNL     1      -4.815 -20.017  18.549  1.00  0.00     0.158 HD
ATOM     32  H41 UNL     1      -5.146 -21.382  17.740  1.00  0.00     0.158 HD
ENDBRANCH   5  30
TORSDOF 8
ENDMDL
MODEL 4
REMARK VINA RESULT: -7.849537676      3.611      4.447
REMARK  8 active torsions:
REMARK  status: ('A' for Active; 'I' for Inactive)
REMARK    1  A    between atoms: N2_5  and  C3_6 
REMARK    2  A    between atoms: C3_6  and  C4_7 
REMARK    3  A    between atoms: C4_7  and  C5_8 
REMARK    4  A    between atoms: C5_8  and  O1_9 
REMARK    5  A    between atoms: C7_13  and  C8_14 
REMARK    6  A    between atoms: C8_14  and  C9_16 
REMARK    7  A    between atoms: C9_16  and  N3_17 
REMARK    8  A    between atoms: C12_21  and  N4_22 
ROOT
HETATM    1  N3  UNL     1      -5.984 -22.430  21.726  1.00  0.00    -0.322 N 
HETATM    2  C10 UNL     1      -6.729 -21.480  21.145  1.00  0.00     0.036 A 
HETATM    3  C11 UNL     1      -7.849 -21.085  21.822  1.00  0.00     0.018 A 
HETATM    4  S1  UNL     1      -7.828 -22.038  23.232  1.00  0.00    -0.056 SA
HETATM    5  C12 UNL     1      -6.406 -22.894  22.902  1.00  0.00     0.145 A 
HETATM    6  C13 UNL     1      -8.850 -20.070  21.362  1.00  0.00    -0.012 C 
HETATM    7  C14 UNL     1     -10.187 -20.434  21.937  1.00  0.00     0.021 C 
HETATM    8  C15 UNL     1      -8.497 -18.672  21.795  1.00  0.00     0.021 C 
HETATM    9  C16 UNL     1      -8.830 -20.133  19.838  1.00  0.00     0.015 C 
HETATM   10  C17 UNL     1      -7.429 -19.753  19.496  1.00  0.00     0.016 C 
HETATM   11  C18 UNL     1      -6.461 -20.843  19.794  1.00  0.00    -0.004 C 
HETATM   12  C19 UNL     1      -6.610 -21.875  18.694  1.00  0.00     0.021 C 
HETATM   13  C20 UNL     1      -5.089 -20.181  19.728  1.00  0.00     0.021 C 
ENDROOT
BRANCH   1  14
HETATM   14  C9  UNL     1      -4.704 -23.009  21.209  1.00  0.00     0.215 C 
BRANCH  14  15
HETATM   15  C8  UNL     1      -3.548 -22.411  21.867  1.00  0.00     0.185 C 
HETATM   16  O3  UNL     1      -3.659 -21.417  22.599  1.00  0.00    -0.290 OA
BRANCH  15  17
HETATM   17  C7  UNL     1      -2.234 -22.984  21.676  1.00  0.00     0.104 A 
HETATM   18  C2  UNL     1      -1.307 -22.575  20.710  1.00  0.00     0.041 A 
HETATM   19  C1  UNL     1      -1.533 -21.490  19.745  1.00  0.00     0.071 C 
HETATM   20  N1  UNL     1      -0.191 -23.316  20.796  1.00  0.00    -0.299 N 
HETATM   21  N2  UNL     1      -0.346 -24.196  21.782  1.00  0.00    -0.257 N 
ATOM     22  H1  UNL     1       0.636 -23.221  20.207  1.00  0.00     0.187 HD
HETATM   23  C6  UNL     1      -1.586 -24.006  22.327  1.00  0.00     0.278 A 
HETATM   24  O2  UNL     1      -2.039 -24.677  23.276  1.00  0.00    -0.265 OA
BRANCH  21  25
HETATM   25  C3  UNL     1       0.652 -25.155  22.142  1.00  0.00     0.154 C 
BRANCH  25  26
HETATM   26  C4  UNL     1       1.133 -25.932  20.956  1.00  0.00     0.048 C 
BRANCH  26  27
HETATM   27  C5  UNL     1       1.503 -27.347  21.266  1.00  0.00     0.165 C 
BRANCH  27  28
HETATM   28  O1  UNL     1       0.733 -28.198  20.452  1.00  0.00    -0.401 OA
ATOM     29  H1  UNL     1       0.018 -28.547  20.973  1.00  0.00     0.209 HD
ENDBRANCH  27  28
ENDBRANCH  26  27
ENDBRANCH  25  26
ENDBRANCH  21  25
ENDBRANCH  15  17
ENDBRANCH  14  15
ENDBRANCH   1  14
BRANCH   5  30
HETATM   30  N4  UNL     1      -5.838 -23.823  23.649  1.00  0.00    -0.379 N 
ATOM     31  H42 UNL     1      -5.441 -24.710  23.340  1.00  0.00     0.158 HD
ATOM     32  H41 UNL     1      -5.702 -23.807  24.660  1.00  0.00     0.158 HD
ENDBRANCH   5  30
TORSDOF 8
ENDMDL
MODEL 5
REMARK VINA RESULT: -7.816067890      4.801      8.421
REMARK  8 active torsions:
REMARK  status: ('A' for Active; 'I' for Inactive)
REMARK    1  A    between atoms: N2_5  and  C3_6 
REMARK    2  A    between atoms: C3_6  and  C4_7 
REMARK    3  A    between atoms: C4_7  and  C5_8 
REMARK    4  A    between atoms: C5_8  and  O1_9 
REMARK    5  A    between atoms: C7_13  and  C8_14 
REMARK    6  A    between atoms: C8_14  and  C9_16 
REMARK    7  A    between atoms: C9_16  and  N3_17 
REMARK    8  A    between atoms: C12_21  and  N4_22 
ROOT
HETATM    1  N3  UNL     1      -2.441 -21.591  19.958  1.00  0.00    -0.322 N 
HETATM    2  C10 UNL     1      -1.250 -22.204  19.931  1.00  0.00     0.036 A 
HETATM    3  C11 UNL     1      -0.536 -22.097  18.771  1.00  0.00     0.018 A 
HETATM    4  S1  UNL     1      -1.534 -21.155  17.765  1.00  0.00    -0.056 SA
HETATM    5  C12 UNL     1      -2.810 -20.940  18.855  1.00  0.00     0.145 A 
HETATM    6  C13 UNL     1       0.798 -22.721  18.491  1.00  0.00    -0.012 C 
HETATM    7  C14 UNL     1       0.888 -22.998  17.019  1.00  0.00     0.021 C 
HETATM    8  C15 UNL     1       1.946 -21.834  18.891  1.00  0.00     0.021 C 
HETATM    9  C16 UNL     1       0.842 -23.993  19.331  1.00  0.00     0.015 C 
HETATM   10  C17 UNL     1       0.728 -23.486  20.729  1.00  0.00     0.016 C 
HETATM   11  C18 UNL     1      -0.652 -23.033  21.053  1.00  0.00    -0.004 C 
HETATM   12  C19 UNL     1      -1.483 -24.282  21.276  1.00  0.00     0.021 C 
HETATM   13  C20 UNL     1      -0.514 -22.240  22.348  1.00  0.00     0.021 C 
ENDROOT
BRANCH   1  14
HETATM   14  C9  UNL     1      -3.395 -21.532  21.110  1.00  0.00     0.215 C 
BRANCH  14  15
HETATM   15  C8  UNL     1      -4.672 -22.150  20.771  1.00  0.00     0.185 C 
HETATM   16  O3  UNL     1      -4.738 -23.137  20.024  1.00  0.00    -0.290 OA
BRANCH  15  17
HETATM   17  C7  UNL     1      -5.899 -21.614  21.317  1.00  0.00     0.104 A 
HETATM   18  C2  UNL     1      -6.623 -22.170  22.379  1.00  0.00     0.041 A 
HETATM   19  C1  UNL     1      -6.233 -23.386  23.107  1.00  0.00     0.071 C 
HETATM   20  N1  UNL     1      -7.716 -21.432  22.631  1.00  0.00    -0.299 N 
HETATM   21  N2  UNL     1      -7.740 -20.412  21.776  1.00  0.00    -0.257 N 
ATOM     22  H1  UNL     1      -8.410 -21.621  23.353  1.00  0.00     0.187 HD
HETATM   23  C6  UNL     1      -6.641 -20.510  20.969  1.00  0.00     0.278 A 
HETATM   24  O2  UNL     1      -6.372 -19.701  20.058  1.00  0.00    -0.265 OA
BRANCH  21  25
HETATM   25  C3  UNL     1      -8.779 -19.430  21.757  1.00  0.00     0.154 C 
BRANCH  25  26
HETATM   26  C4  UNL     1      -9.922 -19.843  20.883  1.00  0.00     0.048 C 
BRANCH  26  27
HETATM   27  C5  UNL     1      -9.825 -19.344  19.477  1.00  0.00     0.165 C 
BRANCH  27  28
HETATM   28  O1  UNL     1      -8.964 -18.232  19.457  1.00  0.00    -0.401 OA
ATOM     29  H1  UNL     1      -8.458 -18.257  18.653  1.00  0.00     0.209 HD
ENDBRANCH  27  28
ENDBRANCH  26  27
ENDBRANCH  25  26
ENDBRANCH  21  25
ENDBRANCH  15  17
ENDBRANCH  14  15
ENDBRANCH   1  14
BRANCH   5  30
HETATM   30  N4  UNL     1      -3.931 -20.271  18.655  1.00  0.00    -0.379 N 
ATOM     31  H42 UNL     1      -4.855 -20.482  19.034  1.00  0.00     0.158 HD
ATOM     32  H41 UNL     1      -4.060 -19.433  18.088  1.00  0.00     0.158 HD
ENDBRANCH   5  30
TORSDOF 8
ENDMDL
