MODEL 1
REMARK VINA RESULT: -6.937294926      0.000      0.000
REMARK  10 active torsions:
REMARK  status: ('A' for Active; 'I' for Inactive)
REMARK    1  A    between atoms: C2_2  and  C3_3 
REMARK    2  A    between atoms: C3_3  and  C5_5 
REMARK    3  A    between atoms: C5_5  and  C7_7 
REMARK    4  A    between atoms: C7_7  and  C9_9 
REMARK    5  A    between atoms: C7_7  and  C13_16 
REMARK    6  A    between atoms: C12_13  and  O2_14 
REMARK    7  A    between atoms: C15_19  and  O4_20 
REMARK    8  A    between atoms: C16_22  and  O5_23 
REMARK    9  A    between atoms: C17_25  and  O6_26 
REMARK   10  A    between atoms: C19_28  and  O7_29 
ROOT
HETATM    1  C13 UNL     1      -3.254 -22.395  20.432  1.00  0.00     0.144 C 
HETATM    2  O3  UNL     1      -3.412 -21.655  19.234  1.00  0.00    -0.376 OA
HETATM    3  C14 UNL     1      -2.122 -21.127  19.302  1.00  0.00     0.162 C 
HETATM    4  C15 UNL     1      -1.183 -21.748  18.370  1.00  0.00     0.178 C 
HETATM    5  C16 UNL     1      -0.215 -22.752  18.853  1.00  0.00     0.180 C 
HETATM    6  C17 UNL     1      -0.435 -23.290  20.228  1.00  0.00     0.181 C 
HETATM    7  C19 UNL     1      -0.787 -22.108  21.100  1.00  0.00     0.161 C 
HETATM    8  C21 UNL     1      -2.105 -21.531  20.740  1.00  0.00     0.079 C 
ENDROOT
BRANCH   1   9
HETATM    9  C7  UNL     1      -4.538 -22.255  21.234  1.00  0.00     0.018 C 
HETATM   10  C8  UNL     1      -4.168 -21.319  22.401  1.00  0.00     0.023 C 
BRANCH   9  11
HETATM   11  C5  UNL     1      -4.995 -23.527  21.834  1.00  0.00     0.001 C 
HETATM   12  C6  UNL     1      -4.053 -24.666  21.703  1.00  0.00     0.011 C 
BRANCH  11  13
HETATM   13  C3  UNL     1      -5.796 -23.474  23.077  1.00  0.00    -0.014 C 
HETATM   14  C4  UNL     1      -5.902 -24.734  23.882  1.00  0.00     0.010 C 
BRANCH  13  15
HETATM   15  C2  UNL     1      -7.151 -22.834  22.877  1.00  0.00     0.000 C 
HETATM   16  C1  UNL     1      -7.579 -21.823  23.853  1.00  0.00     0.005 C 
ENDBRANCH  13  15
ENDBRANCH  11  13
ENDBRANCH   9  11
BRANCH   9  17
HETATM   17  C9  UNL     1      -5.508 -21.558  20.340  1.00  0.00     0.013 A 
HETATM   18  C10 UNL     1      -5.982 -20.271  20.473  1.00  0.00     0.037 A 
HETATM   19  C11 UNL     1      -6.832 -20.035  19.424  1.00  0.00     0.145 A 
HETATM   20  O1  UNL     1      -6.868 -21.109  18.706  1.00  0.00    -0.300 OA
HETATM   21  C12 UNL     1      -6.106 -22.044  19.198  1.00  0.00     0.190 A 
BRANCH  21  22
HETATM   22  O2  UNL     1      -5.997 -23.281  18.586  1.00  0.00    -0.340 OA
ATOM     23  H2  UNL     1      -6.516 -23.672  17.893  1.00  0.00     0.220 HD
ENDBRANCH  21  22
ENDBRANCH   9  17
ENDBRANCH   1   9
BRANCH   7  24
HETATM   24  O7  UNL     1      -0.570 -22.427  22.404  1.00  0.00    -0.387 OA
HETATM   25  C20 UNL     1      -1.316 -23.465  22.900  1.00  0.00     0.202 C 
ENDBRANCH   7  24
BRANCH   4  26
HETATM   26  O4  UNL     1      -1.948 -22.395  17.361  1.00  0.00    -0.390 OA
ATOM     27  H4  UNL     1      -1.548 -22.189  16.524  1.00  0.00     0.210 HD
ENDBRANCH   4  26
BRANCH   6  28
HETATM   28  O6  UNL     1       0.758 -23.855  20.685  1.00  0.00    -0.385 OA
HETATM   29  C18 UNL     1       0.704 -25.232  20.508  1.00  0.00     0.202 C 
ENDBRANCH   6  28
BRANCH   5  30
HETATM   30  O5  UNL     1       1.084 -22.187  18.844  1.00  0.00    -0.390 OA
ATOM     31  H5  UNL     1       1.604 -22.589  19.530  1.00  0.00     0.210 HD
ENDBRANCH   5  30
TORSDOF 10
ENDMDL
MODEL 2
REMARK VINA RESULT: -6.555022943      0.832      1.209
REMARK  10 active torsions:
REMARK  status: ('A' for Active; 'I' for Inactive)
REMARK    1  A    between atoms: C2_2  and  C3_3 
REMARK    2  A    between atoms: C3_3  and  C5_5 
REMARK    3  A    between atoms: C5_5  and  C7_7 
REMARK    4  A    between atoms: C7_7  and  C9_9 
REMARK    5  A    between atoms: C7_7  and  C13_16 
REMARK    6  A    between atoms: C12_13  and  O2_14 
REMARK    7  A    between atoms: C15_19  and  O4_20 
REMARK    8  A    between atoms: C16_22  and  O5_23 
REMARK    9  A    between atoms: C17_25  and  O6_26 
REMARK   10  A    between atoms: C19_28  and  O7_29 
ROOT
HETATM    1  C13 UNL     1      -2.990 -22.325  20.334  1.00  0.00     0.144 C 
HETATM    2  O3  UNL     1      -3.118 -21.619  19.111  1.00  0.00    -0.376 OA
HETATM    3  C14 UNL     1      -1.795 -21.175  19.143  1.00  0.00     0.162 C 
HETATM    4  C15 UNL     1      -0.913 -21.889  18.223  1.00  0.00     0.178 C 
HETATM    5  C16 UNL     1      -0.005 -22.937  18.729  1.00  0.00     0.180 C 
HETATM    6  C17 UNL     1      -0.239 -23.411  20.126  1.00  0.00     0.181 C 
HETATM    7  C19 UNL     1      -0.500 -22.178  20.959  1.00  0.00     0.161 C 
HETATM    8  C21 UNL     1      -1.783 -21.529  20.595  1.00  0.00     0.079 C 
ENDROOT
BRANCH   1   9
HETATM    9  C7  UNL     1      -4.251 -22.073  21.146  1.00  0.00     0.018 C 
HETATM   10  C8  UNL     1      -3.780 -21.215  22.336  1.00  0.00     0.023 C 
BRANCH   9  11
HETATM   11  C5  UNL     1      -4.837 -23.306  21.714  1.00  0.00     0.001 C 
HETATM   12  C6  UNL     1      -4.023 -24.535  21.541  1.00  0.00     0.011 C 
BRANCH  11  13
HETATM   13  C3  UNL     1      -5.620 -23.204  22.965  1.00  0.00    -0.014 C 
HETATM   14  C4  UNL     1      -5.931 -24.480  23.688  1.00  0.00     0.010 C 
BRANCH  13  15
HETATM   15  C2  UNL     1      -6.853 -22.341  22.819  1.00  0.00     0.000 C 
HETATM   16  C1  UNL     1      -7.696 -22.150  24.007  1.00  0.00     0.005 C 
ENDBRANCH  13  15
ENDBRANCH  11  13
ENDBRANCH   9  11
BRANCH   9  17
HETATM   17  C9  UNL     1      -5.143 -21.253  20.277  1.00  0.00     0.013 A 
HETATM   18  C10 UNL     1      -6.274 -21.679  19.613  1.00  0.00     0.037 A 
HETATM   19  C11 UNL     1      -6.796 -20.596  18.954  1.00  0.00     0.145 A 
HETATM   20  O1  UNL     1      -6.032 -19.585  19.205  1.00  0.00    -0.300 OA
HETATM   21  C12 UNL     1      -5.038 -19.912  19.983  1.00  0.00     0.190 A 
BRANCH  21  22
HETATM   22  O2  UNL     1      -4.095 -18.978  20.377  1.00  0.00    -0.340 OA
ATOM     23  H2  UNL     1      -3.859 -18.142  19.993  1.00  0.00     0.220 HD
ENDBRANCH  21  22
ENDBRANCH   9  17
ENDBRANCH   1   9
BRANCH   7  24
HETATM   24  O7  UNL     1      -0.284 -22.464  22.271  1.00  0.00    -0.387 OA
HETATM   25  C20 UNL     1      -1.089 -23.432  22.813  1.00  0.00     0.202 C 
ENDBRANCH   7  24
BRANCH   4  26
HETATM   26  O4  UNL     1      -1.733 -22.520  17.248  1.00  0.00    -0.390 OA
ATOM     27  H4  UNL     1      -1.955 -21.867  16.595  1.00  0.00     0.210 HD
ENDBRANCH   4  26
BRANCH   6  28
HETATM   28  O6  UNL     1       0.921 -24.036  20.587  1.00  0.00    -0.385 OA
HETATM   29  C18 UNL     1       0.761 -25.413  20.494  1.00  0.00     0.202 C 
ENDBRANCH   6  28
BRANCH   5  30
HETATM   30  O5  UNL     1       1.327 -22.459  18.683  1.00  0.00    -0.390 OA
ATOM     31  H5  UNL     1       1.871 -23.092  18.229  1.00  0.00     0.210 HD
ENDBRANCH   5  30
TORSDOF 10
ENDMDL
MODEL 3
REMARK VINA RESULT: -6.396628711      2.868      7.401
REMARK  10 active torsions:
REMARK  status: ('A' for Active; 'I' for Inactive)
REMARK    1  A    between atoms: C2_2  and  C3_3 
REMARK    2  A    between atoms: C3_3  and  C5_5 
REMARK    3  A    between atoms: C5_5  and  C7_7 
REMARK    4  A    between atoms: C7_7  and  C9_9 
REMARK    5  A    between atoms: C7_7  and  C13_16 
REMARK    6  A    between atoms: C12_13  and  O2_14 
REMARK    7  A    between atoms: C15_19  and  O4_20 
REMARK    8  A    between atoms: C16_22  and  O5_23 
REMARK    9  A    between atoms: C17_25  and  O6_26 
REMARK   10  A    between atoms: C19_28  and  O7_29 
ROOT
HETATM    1  C13 UNL     1      -6.926 -22.300  22.215  1.00  0.00     0.144 C 
HETATM    2  O3  UNL     1      -7.200 -22.984  23.425  1.00  0.00    -0.376 OA
HETATM    3  C14 UNL     1      -8.028 -21.966  23.900  1.00  0.00     0.162 C 
HETATM    4  C15 UNL     1      -9.452 -22.281  23.819  1.00  0.00     0.178 C 
HETATM    5  C16 UNL     1     -10.278 -21.708  22.737  1.00  0.00     0.180 C 
HETATM    6  C17 UNL     1      -9.548 -21.056  21.610  1.00  0.00     0.181 C 
HETATM    7  C19 UNL     1      -8.449 -20.228  22.232  1.00  0.00     0.161 C 
HETATM    8  C21 UNL     1      -7.413 -21.077  22.869  1.00  0.00     0.079 C 
ENDROOT
BRANCH   1   9
HETATM    9  C7  UNL     1      -5.442 -22.458  21.922  1.00  0.00     0.018 C 
HETATM   10  C8  UNL     1      -4.762 -21.356  22.756  1.00  0.00     0.023 C 
BRANCH   9  11
HETATM   11  C5  UNL     1      -5.094 -22.199  20.508  1.00  0.00     0.001 C 
HETATM   12  C6  UNL     1      -6.106 -22.637  19.514  1.00  0.00     0.011 C 
BRANCH  11  13
HETATM   13  C3  UNL     1      -4.336 -20.972  20.180  1.00  0.00    -0.014 C 
HETATM   14  C4  UNL     1      -5.060 -19.895  19.431  1.00  0.00     0.010 C 
BRANCH  13  15
HETATM   15  C2  UNL     1      -2.988 -21.262  19.559  1.00  0.00     0.000 C 
HETATM   16  C1  UNL     1      -1.811 -21.224  20.437  1.00  0.00     0.005 C 
ENDBRANCH  13  15
ENDBRANCH  11  13
ENDBRANCH   9  11
BRANCH   9  17
HETATM   17  C9  UNL     1      -5.054 -23.791  22.467  1.00  0.00     0.013 A 
HETATM   18  C10 UNL     1      -5.649 -24.466  23.511  1.00  0.00     0.037 A 
HETATM   19  C11 UNL     1      -4.988 -25.658  23.659  1.00  0.00     0.145 A 
HETATM   20  O1  UNL     1      -4.058 -25.699  22.764  1.00  0.00    -0.300 OA
HETATM   21  C12 UNL     1      -4.048 -24.623  22.028  1.00  0.00     0.190 A 
BRANCH  21  22
HETATM   22  O2  UNL     1      -3.128 -24.458  21.006  1.00  0.00    -0.340 OA
ATOM     23  H2  UNL     1      -2.363 -24.973  20.778  1.00  0.00     0.220 HD
ENDBRANCH  21  22
ENDBRANCH   9  17
ENDBRANCH   1   9
BRANCH   7  24
HETATM   24  O7  UNL     1      -8.037 -19.282  21.346  1.00  0.00    -0.387 OA
HETATM   25  C20 UNL     1      -8.288 -17.981  21.699  1.00  0.00     0.202 C 
ENDBRANCH   7  24
BRANCH   4  26
HETATM   26  O4  UNL     1      -9.572 -23.692  23.697  1.00  0.00    -0.390 OA
ATOM     27  H4  UNL     1      -9.510 -23.906  22.774  1.00  0.00     0.210 HD
ENDBRANCH   4  26
BRANCH   6  28
HETATM   28  O6  UNL     1     -10.430 -20.210  20.935  1.00  0.00    -0.385 OA
HETATM   29  C18 UNL     1     -10.096 -20.189  19.586  1.00  0.00     0.202 C 
ENDBRANCH   6  28
BRANCH   5  30
HETATM   30  O5  UNL     1     -11.141 -20.727  23.281  1.00  0.00    -0.390 OA
ATOM     31  H5  UNL     1     -12.013 -20.845  22.924  1.00  0.00     0.210 HD
ENDBRANCH   5  30
TORSDOF 10
ENDMDL
MODEL 4
REMARK VINA RESULT: -6.207651973      2.453      6.764
REMARK  10 active torsions:
REMARK  status: ('A' for Active; 'I' for Inactive)
REMARK    1  A    between atoms: C2_2  and  C3_3 
REMARK    2  A    between atoms: C3_3  and  C5_5 
REMARK    3  A    between atoms: C5_5  and  C7_7 
REMARK    4  A    between atoms: C7_7  and  C9_9 
REMARK    5  A    between atoms: C7_7  and  C13_16 
REMARK    6  A    between atoms: C12_13  and  O2_14 
REMARK    7  A    between atoms: C15_19  and  O4_20 
REMARK    8  A    between atoms: C16_22  and  O5_23 
REMARK    9  A    between atoms: C17_25  and  O6_26 
REMARK   10  A    between atoms: C19_28  and  O7_29 
ROOT
HETATM    1  C13 UNL     1      -5.925 -22.365  21.840  1.00  0.00     0.144 C 
HETATM    2  O3  UNL     1      -6.407 -22.420  23.172  1.00  0.00    -0.376 OA
HETATM    3  C14 UNL     1      -6.807 -21.083  23.162  1.00  0.00     0.162 C 
HETATM    4  C15 UNL     1      -8.251 -20.902  23.028  1.00  0.00     0.178 C 
HETATM    5  C16 UNL     1      -8.834 -20.524  21.726  1.00  0.00     0.180 C 
HETATM    6  C17 UNL     1      -7.937 -20.620  20.536  1.00  0.00     0.181 C 
HETATM    7  C19 UNL     1      -6.604 -20.047  20.956  1.00  0.00     0.161 C 
HETATM    8  C21 UNL     1      -5.931 -20.900  21.965  1.00  0.00     0.079 C 
ENDROOT
BRANCH   1   9
HETATM    9  C7  UNL     1      -4.602 -23.112  21.797  1.00  0.00     0.018 C 
HETATM   10  C8  UNL     1      -3.598 -22.163  22.478  1.00  0.00     0.023 C 
BRANCH   9  11
HETATM   11  C5  UNL     1      -4.106 -23.345  20.424  1.00  0.00     0.001 C 
HETATM   12  C6  UNL     1      -5.108 -23.155  19.345  1.00  0.00     0.011 C 
BRANCH  11  13
HETATM   13  C3  UNL     1      -2.712 -22.968  20.102  1.00  0.00    -0.014 C 
HETATM   14  C4  UNL     1      -2.491 -22.126  18.883  1.00  0.00     0.010 C 
BRANCH  13  15
HETATM   15  C2  UNL     1      -1.762 -24.143  20.139  1.00  0.00     0.000 C 
HETATM   16  C1  UNL     1      -0.324 -23.855  20.239  1.00  0.00     0.005 C 
ENDBRANCH  13  15
ENDBRANCH  11  13
ENDBRANCH   9  11
BRANCH   9  17
HETATM   17  C9  UNL     1      -4.784 -24.322  22.650  1.00  0.00     0.013 A 
HETATM   18  C10 UNL     1      -5.974 -24.835  23.120  1.00  0.00     0.037 A 
HETATM   19  C11 UNL     1      -5.680 -25.962  23.842  1.00  0.00     0.145 A 
HETATM   20  O1  UNL     1      -4.398 -26.119  23.809  1.00  0.00    -0.300 OA
HETATM   21  C12 UNL     1      -3.814 -25.180  23.119  1.00  0.00     0.190 A 
BRANCH  21  22
HETATM   22  O2  UNL     1      -2.439 -25.155  22.956  1.00  0.00    -0.340 OA
ATOM     23  H2  UNL     1      -1.875 -25.686  22.406  1.00  0.00     0.220 HD
ENDBRANCH  21  22
ENDBRANCH   9  17
ENDBRANCH   1   9
BRANCH   7  24
HETATM   24  O7  UNL     1      -5.895 -19.693  19.850  1.00  0.00    -0.387 OA
HETATM   25  C20 UNL     1      -4.550 -19.508  20.036  1.00  0.00     0.202 C 
ENDBRANCH   7  24
BRANCH   4  26
HETATM   26  O4  UNL     1      -8.870 -22.129  23.393  1.00  0.00    -0.390 OA
ATOM     27  H4  UNL     1      -9.656 -21.917  23.883  1.00  0.00     0.210 HD
ENDBRANCH   4  26
BRANCH   6  28
HETATM   28  O6  UNL     1      -8.468 -19.836  19.510  1.00  0.00    -0.385 OA
HETATM   29  C18 UNL     1      -9.837 -20.061  19.430  1.00  0.00     0.202 C 
ENDBRANCH   6  28
BRANCH   5  30
HETATM   30  O5  UNL     1      -9.279 -19.181  21.788  1.00  0.00    -0.390 OA
ATOM     31  H5  UNL     1     -10.148 -19.122  21.410  1.00  0.00     0.210 HD
ENDBRANCH   5  30
TORSDOF 10
ENDMDL
MODEL 5
REMARK VINA RESULT: -6.171044855      1.023      1.975
REMARK  10 active torsions:
REMARK  status: ('A' for Active; 'I' for Inactive)
REMARK    1  A    between atoms: C2_2  and  C3_3 
REMARK    2  A    between atoms: C3_3  and  C5_5 
REMARK    3  A    between atoms: C5_5  and  C7_7 
REMARK    4  A    between atoms: C7_7  and  C9_9 
REMARK    5  A    between atoms: C7_7  and  C13_16 
REMARK    6  A    between atoms: C12_13  and  O2_14 
REMARK    7  A    between atoms: C15_19  and  O4_20 
REMARK    8  A    between atoms: C16_22  and  O5_23 
REMARK    9  A    between atoms: C17_25  and  O6_26 
REMARK   10  A    between atoms: C19_28  and  O7_29 
ROOT
HETATM    1  C13 UNL     1      -2.679 -22.108  20.229  1.00  0.00     0.144 C 
HETATM    2  O3  UNL     1      -2.883 -21.479  18.975  1.00  0.00    -0.376 OA
HETATM    3  C14 UNL     1      -1.534 -21.148  18.838  1.00  0.00     0.162 C 
HETATM    4  C15 UNL     1      -0.815 -21.996  17.890  1.00  0.00     0.178 C 
HETATM    5  C16 UNL     1       0.059 -23.080  18.380  1.00  0.00     0.180 C 
HETATM    6  C17 UNL     1      -0.058 -23.436  19.825  1.00  0.00     0.181 C 
HETATM    7  C19 UNL     1      -0.132 -22.132  20.583  1.00  0.00     0.161 C 
HETATM    8  C21 UNL     1      -1.392 -21.402  20.304  1.00  0.00     0.079 C 
ENDROOT
BRANCH   1   9
HETATM    9  C7  UNL     1      -3.820 -21.695  21.144  1.00  0.00     0.018 C 
HETATM   10  C8  UNL     1      -3.299 -20.442  21.874  1.00  0.00     0.023 C 
BRANCH   9  11
HETATM   11  C5  UNL     1      -4.128 -22.698  22.186  1.00  0.00     0.001 C 
HETATM   12  C6  UNL     1      -5.520 -22.671  22.703  1.00  0.00     0.011 C 
BRANCH  11  13
HETATM   13  C3  UNL     1      -3.483 -24.027  22.100  1.00  0.00    -0.014 C 
HETATM   14  C4  UNL     1      -4.346 -25.228  22.340  1.00  0.00     0.010 C 
BRANCH  13  15
HETATM   15  C2  UNL     1      -2.197 -24.108  22.891  1.00  0.00     0.000 C 
HETATM   16  C1  UNL     1      -2.083 -25.169  23.901  1.00  0.00     0.005 C 
ENDBRANCH  13  15
ENDBRANCH  11  13
ENDBRANCH   9  11
BRANCH   9  17
HETATM   17  C9  UNL     1      -4.946 -21.303  20.248  1.00  0.00     0.013 A 
HETATM   18  C10 UNL     1      -5.533 -20.060  20.147  1.00  0.00     0.037 A 
HETATM   19  C11 UNL     1      -6.510 -20.142  19.189  1.00  0.00     0.145 A 
HETATM   20  O1  UNL     1      -6.511 -21.354  18.741  1.00  0.00    -0.300 OA
HETATM   21  C12 UNL     1      -5.608 -22.088  19.330  1.00  0.00     0.190 A 
BRANCH  21  22
HETATM   22  O2  UNL     1      -5.439 -23.422  19.002  1.00  0.00    -0.340 OA
ATOM     23  H2  UNL     1      -4.657 -23.961  19.002  1.00  0.00     0.220 HD
ENDBRANCH  21  22
ENDBRANCH   9  17
ENDBRANCH   1   9
BRANCH   7  24
HETATM   24  O7  UNL     1       0.202 -22.345  21.885  1.00  0.00    -0.387 OA
HETATM   25  C20 UNL     1       1.466 -21.959  22.249  1.00  0.00     0.202 C 
ENDBRANCH   7  24
BRANCH   4  26
HETATM   26  O4  UNL     1      -1.782 -22.619  17.055  1.00  0.00    -0.390 OA
ATOM     27  H4  UNL     1      -1.445 -23.475  16.818  1.00  0.00     0.210 HD
ENDBRANCH   4  26
BRANCH   6  28
HETATM   28  O6  UNL     1       1.093 -24.124  20.212  1.00  0.00    -0.385 OA
HETATM   29  C18 UNL     1       0.741 -25.412  20.602  1.00  0.00     0.202 C 
ENDBRANCH   6  28
BRANCH   5  30
HETATM   30  O5  UNL     1       1.411 -22.722  18.161  1.00  0.00    -0.390 OA
ATOM     31  H5  UNL     1       1.975 -23.332  18.623  1.00  0.00     0.210 HD
ENDBRANCH   5  30
TORSDOF 10
ENDMDL
