MODEL 1
REMARK VINA RESULT: -7.916096981      0.000      0.000
REMARK  8 active torsions:
REMARK  status: ('A' for Active; 'I' for Inactive)
REMARK    1  A    between atoms: C3_3  and  N1_4 
REMARK    2  A    between atoms: C10_13  and  N3_14 
REMARK    3  A    between atoms: C11_16  and  C12_17 
REMARK    4  A    between atoms: C12_17  and  C13_18 
REMARK    5  A    between atoms: C13_18  and  N4_19 
REMARK    6  A    between atoms: N5_22  and  C16_23 
REMARK    7  A    between atoms: C16_23  and  C17_24 
REMARK    8  A    between atoms: C17_24  and  C18_25 
ROOT
HETATM    1  C1  UNL     1      26.747  -3.852   6.030  1.00  0.00     0.058 C 
HETATM    2  C2  UNL     1      26.446  -5.274   5.805  1.00  0.00     0.051 A 
HETATM    3  C3  UNL     1      25.782  -6.028   6.725  1.00  0.00     0.130 A 
HETATM    4  N2  UNL     1      25.582  -7.335   6.404  1.00  0.00    -0.176 N 
ATOM      5  H2  UNL     1      25.088  -7.924   7.074  1.00  0.00     0.186 HD
HETATM    6  C10 UNL     1      26.004  -7.905   5.237  1.00  0.00     0.686 A 
HETATM    7  N6  UNL     1      26.652  -7.153   4.347  1.00  0.00    -0.155 N 
ATOM      8  H6  UNL     1      26.974  -7.563   3.470  1.00  0.00     0.187 HD
HETATM    9  C23 UNL     1      26.878  -5.871   4.603  1.00  0.00     0.269 A 
HETATM   10  O1  UNL     1      27.477  -5.148   3.795  1.00  0.00    -0.267 OA
ENDROOT
BRANCH   6  11
HETATM   11  N3  UNL     1      25.760  -9.097   5.073  1.00  0.00    -0.205 N 
HETATM   12  C11 UNL     1      24.824 -10.088   5.055  1.00  0.00     0.080 C 
ATOM     13  H3  UNL     1      26.650  -9.543   4.851  1.00  0.00     0.183 HD
BRANCH  12  14
HETATM   14  C12 UNL     1      23.375  -9.745   5.352  1.00  0.00     0.075 C 
BRANCH  14  15
HETATM   15  C13 UNL     1      23.147  -9.783   6.859  1.00  0.00     0.277 C 
BRANCH  15  16
HETATM   16  N4  UNL     1      22.360  -8.636   7.286  1.00  0.00     0.092 N 
HETATM   17  C14 UNL     1      22.499  -8.415   8.703  1.00  0.00     0.302 C 
HETATM   18  C15 UNL     1      21.523  -9.278   9.441  1.00  0.00     0.302 C 
HETATM   19  N5  UNL     1      20.167  -8.891   9.189  1.00  0.00     0.091 N 
HETATM   20  C21 UNL     1      20.066  -8.129   7.957  1.00  0.00     0.302 C 
HETATM   21  C22 UNL     1      20.973  -8.781   6.956  1.00  0.00     0.302 C 
BRANCH  19  22
HETATM   22  C16 UNL     1      19.565  -8.085  10.223  1.00  0.00     0.273 C 
BRANCH  22  23
HETATM   23  C17 UNL     1      19.950  -8.515  11.603  1.00  0.00     0.034 C 
BRANCH  23  24
HETATM   24  C18 UNL     1      18.770  -8.625  12.536  1.00  0.00    -0.021 C 
HETATM   25  C19 UNL     1      18.110  -7.330  12.865  1.00  0.00     0.009 C 
HETATM   26  C20 UNL     1      19.254  -9.265  13.829  1.00  0.00     0.009 C 
ENDBRANCH  23  24
ENDBRANCH  22  23
ENDBRANCH  19  22
ENDBRANCH  15  16
ENDBRANCH  14  15
ENDBRANCH  12  14
ENDBRANCH   6  11
BRANCH   3  27
HETATM   27  N1  UNL     1      25.307  -5.484   7.951  1.00  0.00    -0.365 N 
HETATM   28  C4  UNL     1      23.861  -5.143   8.042  1.00  0.00     0.125 C 
HETATM   29  C5  UNL     1      23.644  -4.485   9.360  1.00  0.00     0.030 C 
HETATM   30  C6  UNL     1      25.012  -3.939   9.656  1.00  0.00    -0.030 C 
HETATM   31  C7  UNL     1      25.254  -3.640  11.101  1.00  0.00     0.016 C 
HETATM   32  C8  UNL     1      25.254  -2.764   8.750  1.00  0.00     0.016 C 
HETATM   33  C9  UNL     1      25.847  -5.154   9.204  1.00  0.00     0.133 C 
ENDBRANCH   3  27
TORSDOF 8
ENDMDL
MODEL 2
REMARK VINA RESULT: -7.662636078      2.701      4.351
REMARK  8 active torsions:
REMARK  status: ('A' for Active; 'I' for Inactive)
REMARK    1  A    between atoms: C3_3  and  N1_4 
REMARK    2  A    between atoms: C10_13  and  N3_14 
REMARK    3  A    between atoms: C11_16  and  C12_17 
REMARK    4  A    between atoms: C12_17  and  C13_18 
REMARK    5  A    between atoms: C13_18  and  N4_19 
REMARK    6  A    between atoms: N5_22  and  C16_23 
REMARK    7  A    between atoms: C16_23  and  C17_24 
REMARK    8  A    between atoms: C17_24  and  C18_25 
ROOT
HETATM    1  C1  UNL     1      26.787  -3.867   6.095  1.00  0.00     0.058 C 
HETATM    2  C2  UNL     1      26.484  -5.281   5.825  1.00  0.00     0.051 A 
HETATM    3  C3  UNL     1      25.807  -6.060   6.714  1.00  0.00     0.130 A 
HETATM    4  N2  UNL     1      25.605  -7.356   6.353  1.00  0.00    -0.176 N 
ATOM      5  H2  UNL     1      25.101  -7.962   6.999  1.00  0.00     0.186 HD
HETATM    6  C10 UNL     1      26.038  -7.892   5.174  1.00  0.00     0.686 A 
HETATM    7  N6  UNL     1      26.699  -7.117   4.314  1.00  0.00    -0.155 N 
ATOM      8  H6  UNL     1      27.028  -7.502   3.429  1.00  0.00     0.187 HD
HETATM    9  C23 UNL     1      26.926  -5.844   4.611  1.00  0.00     0.269 A 
HETATM   10  O1  UNL     1      27.538  -5.100   3.831  1.00  0.00    -0.267 OA
ENDROOT
BRANCH   6  11
HETATM   11  N3  UNL     1      25.791  -9.078   4.972  1.00  0.00    -0.205 N 
HETATM   12  C11 UNL     1      24.849 -10.029   4.717  1.00  0.00     0.080 C 
ATOM     13  H3  UNL     1      26.686  -9.567   5.011  1.00  0.00     0.183 HD
BRANCH  12  14
HETATM   14  C12 UNL     1      23.393  -9.619   4.598  1.00  0.00     0.075 C 
BRANCH  14  15
HETATM   15  C13 UNL     1      22.760  -9.600   5.986  1.00  0.00     0.277 C 
BRANCH  15  16
HETATM   16  N4  UNL     1      22.167  -8.300   6.259  1.00  0.00     0.092 N 
HETATM   17  C14 UNL     1      20.769  -8.430   6.584  1.00  0.00     0.302 C 
HETATM   18  C15 UNL     1      19.963  -8.462   5.323  1.00  0.00     0.302 C 
HETATM   19  N5  UNL     1      20.012  -7.213   4.623  1.00  0.00     0.091 N 
HETATM   20  C21 UNL     1      21.172  -6.439   5.027  1.00  0.00     0.302 C 
HETATM   21  C22 UNL     1      22.320  -7.395   5.158  1.00  0.00     0.302 C 
BRANCH  19  22
HETATM   22  C16 UNL     1      18.862  -6.364   4.817  1.00  0.00     0.273 C 
BRANCH  22  23
HETATM   23  C17 UNL     1      17.895  -6.414   3.677  1.00  0.00     0.034 C 
BRANCH  23  24
HETATM   24  C18 UNL     1      17.900  -5.155   2.845  1.00  0.00    -0.021 C 
HETATM   25  C19 UNL     1      16.791  -5.054   1.856  1.00  0.00     0.009 C 
HETATM   26  C20 UNL     1      19.225  -5.094   2.098  1.00  0.00     0.009 C 
ENDBRANCH  23  24
ENDBRANCH  22  23
ENDBRANCH  19  22
ENDBRANCH  15  16
ENDBRANCH  14  15
ENDBRANCH  12  14
ENDBRANCH   6  11
BRANCH   3  27
HETATM   27  N1  UNL     1      25.320  -5.550   7.951  1.00  0.00    -0.365 N 
HETATM   28  C4  UNL     1      23.867  -5.242   8.048  1.00  0.00     0.125 C 
HETATM   29  C5  UNL     1      23.636  -4.615   9.379  1.00  0.00     0.030 C 
HETATM   30  C6  UNL     1      24.992  -4.045   9.686  1.00  0.00    -0.030 C 
HETATM   31  C7  UNL     1      25.228  -3.770  11.137  1.00  0.00     0.016 C 
HETATM   32  C8  UNL     1      25.209  -2.848   8.804  1.00  0.00     0.016 C 
HETATM   33  C9  UNL     1      25.853  -5.233   9.210  1.00  0.00     0.133 C 
ENDBRANCH   3  27
TORSDOF 8
ENDMDL
MODEL 3
REMARK VINA RESULT: -7.659636812      3.197      5.085
REMARK  8 active torsions:
REMARK  status: ('A' for Active; 'I' for Inactive)
REMARK    1  A    between atoms: C3_3  and  N1_4 
REMARK    2  A    between atoms: C10_13  and  N3_14 
REMARK    3  A    between atoms: C11_16  and  C12_17 
REMARK    4  A    between atoms: C12_17  and  C13_18 
REMARK    5  A    between atoms: C13_18  and  N4_19 
REMARK    6  A    between atoms: N5_22  and  C16_23 
REMARK    7  A    between atoms: C16_23  and  C17_24 
REMARK    8  A    between atoms: C17_24  and  C18_25 
ROOT
HETATM    1  C1  UNL     1      26.782  -3.865   6.103  1.00  0.00     0.058 C 
HETATM    2  C2  UNL     1      26.472  -5.277   5.832  1.00  0.00     0.051 A 
HETATM    3  C3  UNL     1      25.788  -6.052   6.719  1.00  0.00     0.130 A 
HETATM    4  N2  UNL     1      25.581  -7.347   6.356  1.00  0.00    -0.176 N 
ATOM      5  H2  UNL     1      25.072  -7.951   7.001  1.00  0.00     0.186 HD
HETATM    6  C10 UNL     1      26.016  -7.886   5.180  1.00  0.00     0.686 A 
HETATM    7  N6  UNL     1      26.685  -7.114   4.323  1.00  0.00    -0.155 N 
ATOM      8  H6  UNL     1      27.016  -7.501   3.439  1.00  0.00     0.187 HD
HETATM    9  C23 UNL     1      26.917  -5.843   4.620  1.00  0.00     0.269 A 
HETATM   10  O1  UNL     1      27.536  -5.102   3.842  1.00  0.00    -0.267 OA
ENDROOT
BRANCH   6  11
HETATM   11  N3  UNL     1      25.764  -9.071   4.977  1.00  0.00    -0.205 N 
HETATM   12  C11 UNL     1      24.855  -9.999   4.566  1.00  0.00     0.080 C 
ATOM     13  H3  UNL     1      26.608  -9.589   5.223  1.00  0.00     0.183 HD
BRANCH  12  14
HETATM   14  C12 UNL     1      23.476  -9.543   4.126  1.00  0.00     0.075 C 
BRANCH  14  15
HETATM   15  C13 UNL     1      22.563  -9.452   5.345  1.00  0.00     0.277 C 
BRANCH  15  16
HETATM   16  N4  UNL     1      22.003  -8.115   5.465  1.00  0.00     0.092 N 
HETATM   17  C14 UNL     1      20.563  -8.151   5.393  1.00  0.00     0.302 C 
HETATM   18  C15 UNL     1      20.135  -8.133   3.959  1.00  0.00     0.302 C 
HETATM   19  N5  UNL     1      20.454  -6.892   3.318  1.00  0.00     0.091 N 
HETATM   20  C21 UNL     1      21.507  -6.196   4.036  1.00  0.00     0.302 C 
HETATM   21  C22 UNL     1      22.510  -7.226   4.462  1.00  0.00     0.302 C 
BRANCH  19  22
HETATM   22  C16 UNL     1      19.353  -5.968   3.203  1.00  0.00     0.273 C 
BRANCH  22  23
HETATM   23  C17 UNL     1      19.107  -5.519   1.797  1.00  0.00     0.034 C 
BRANCH  23  24
HETATM   24  C18 UNL     1      18.002  -6.288   1.117  1.00  0.00    -0.021 C 
HETATM   25  C19 UNL     1      18.210  -6.527  -0.338  1.00  0.00     0.009 C 
HETATM   26  C20 UNL     1      16.708  -5.508   1.302  1.00  0.00     0.009 C 
ENDBRANCH  23  24
ENDBRANCH  22  23
ENDBRANCH  19  22
ENDBRANCH  15  16
ENDBRANCH  14  15
ENDBRANCH  12  14
ENDBRANCH   6  11
BRANCH   3  27
HETATM   27  N1  UNL     1      25.298  -5.540   7.953  1.00  0.00    -0.365 N 
HETATM   28  C4  UNL     1      23.847  -5.222   8.043  1.00  0.00     0.125 C 
HETATM   29  C5  UNL     1      23.614  -4.594   9.373  1.00  0.00     0.030 C 
HETATM   30  C6  UNL     1      24.972  -4.034   9.688  1.00  0.00    -0.030 C 
HETATM   31  C7  UNL     1      25.203  -3.761  11.139  1.00  0.00     0.016 C 
HETATM   32  C8  UNL     1      25.202  -2.838   8.807  1.00  0.00     0.016 C 
HETATM   33  C9  UNL     1      25.827  -5.227   9.215  1.00  0.00     0.133 C 
ENDBRANCH   3  27
TORSDOF 8
ENDMDL
MODEL 4
REMARK VINA RESULT: -7.604071351      2.393      5.790
REMARK  8 active torsions:
REMARK  status: ('A' for Active; 'I' for Inactive)
REMARK    1  A    between atoms: C3_3  and  N1_4 
REMARK    2  A    between atoms: C10_13  and  N3_14 
REMARK    3  A    between atoms: C11_16  and  C12_17 
REMARK    4  A    between atoms: C12_17  and  C13_18 
REMARK    5  A    between atoms: C13_18  and  N4_19 
REMARK    6  A    between atoms: N5_22  and  C16_23 
REMARK    7  A    between atoms: C16_23  and  C17_24 
REMARK    8  A    between atoms: C17_24  and  C18_25 
ROOT
HETATM    1  C1  UNL     1      24.046  -9.705   4.906  1.00  0.00     0.058 C 
HETATM    2  C2  UNL     1      24.587  -8.379   4.570  1.00  0.00     0.051 A 
HETATM    3  C3  UNL     1      23.781  -7.308   4.326  1.00  0.00     0.130 A 
HETATM    4  N2  UNL     1      24.405  -6.141   4.009  1.00  0.00    -0.176 N 
ATOM      5  H2  UNL     1      23.827  -5.323   3.821  1.00  0.00     0.186 HD
HETATM    6  C10 UNL     1      25.761  -6.002   3.927  1.00  0.00     0.686 A 
HETATM    7  N6  UNL     1      26.535  -7.060   4.169  1.00  0.00    -0.155 N 
ATOM      8  H6  UNL     1      27.550  -6.973   4.113  1.00  0.00     0.187 HD
HETATM    9  C23 UNL     1      25.985  -8.225   4.483  1.00  0.00     0.269 A 
HETATM   10  O1  UNL     1      26.681  -9.225   4.713  1.00  0.00    -0.267 OA
ENDROOT
BRANCH   6  11
HETATM   11  N3  UNL     1      26.196  -4.893   3.629  1.00  0.00    -0.205 N 
HETATM   12  C11 UNL     1      26.855  -3.770   4.031  1.00  0.00     0.080 C 
ATOM     13  H3  UNL     1      25.959  -4.748   2.647  1.00  0.00     0.183 HD
BRANCH  12  14
HETATM   14  C12 UNL     1      27.347  -3.671   5.463  1.00  0.00     0.075 C 
BRANCH  14  15
HETATM   15  C13 UNL     1      26.264  -3.028   6.324  1.00  0.00     0.277 C 
BRANCH  15  16
HETATM   16  N4  UNL     1      26.217  -3.654   7.637  1.00  0.00     0.092 N 
HETATM   17  C14 UNL     1      25.937  -5.063   7.526  1.00  0.00     0.302 C 
HETATM   18  C15 UNL     1      24.457  -5.273   7.443  1.00  0.00     0.302 C 
HETATM   19  N5  UNL     1      23.795  -4.911   8.661  1.00  0.00     0.091 N 
HETATM   20  C21 UNL     1      24.615  -4.007   9.447  1.00  0.00     0.302 C 
HETATM   21  C22 UNL     1      25.247  -3.038   8.493  1.00  0.00     0.302 C 
BRANCH  19  22
HETATM   22  C16 UNL     1      23.462  -6.020   9.522  1.00  0.00     0.273 C 
BRANCH  22  23
HETATM   23  C17 UNL     1      22.760  -7.130   8.806  1.00  0.00     0.034 C 
BRANCH  23  24
HETATM   24  C18 UNL     1      22.964  -8.474   9.459  1.00  0.00    -0.021 C 
HETATM   25  C19 UNL     1      23.662  -9.482   8.613  1.00  0.00     0.009 C 
HETATM   26  C20 UNL     1      21.596  -9.023   9.839  1.00  0.00     0.009 C 
ENDBRANCH  23  24
ENDBRANCH  22  23
ENDBRANCH  19  22
ENDBRANCH  15  16
ENDBRANCH  14  15
ENDBRANCH  12  14
ENDBRANCH   6  11
BRANCH   3  27
HETATM   27  N1  UNL     1      22.363  -7.392   4.411  1.00  0.00    -0.365 N 
HETATM   28  C4  UNL     1      21.666  -6.431   5.308  1.00  0.00     0.125 C 
HETATM   29  C5  UNL     1      20.223  -6.800   5.316  1.00  0.00     0.030 C 
HETATM   30  C6  UNL     1      20.280  -8.258   4.955  1.00  0.00    -0.030 C 
HETATM   31  C7  UNL     1      18.998  -8.808   4.419  1.00  0.00     0.016 C 
HETATM   32  C8  UNL     1      20.810  -9.014   6.142  1.00  0.00     0.016 C 
HETATM   33  C9  UNL     1      21.346  -8.177   3.844  1.00  0.00     0.133 C 
ENDBRANCH   3  27
TORSDOF 8
ENDMDL
MODEL 5
REMARK VINA RESULT: -7.586145857      2.344      2.815
REMARK  8 active torsions:
REMARK  status: ('A' for Active; 'I' for Inactive)
REMARK    1  A    between atoms: C3_3  and  N1_4 
REMARK    2  A    between atoms: C10_13  and  N3_14 
REMARK    3  A    between atoms: C11_16  and  C12_17 
REMARK    4  A    between atoms: C12_17  and  C13_18 
REMARK    5  A    between atoms: C13_18  and  N4_19 
REMARK    6  A    between atoms: N5_22  and  C16_23 
REMARK    7  A    between atoms: C16_23  and  C17_24 
REMARK    8  A    between atoms: C17_24  and  C18_25 
ROOT
HETATM    1  C1  UNL     1      26.788  -4.118   6.110  1.00  0.00     0.058 C 
HETATM    2  C2  UNL     1      26.398  -5.520   5.898  1.00  0.00     0.051 A 
HETATM    3  C3  UNL     1      25.687  -6.223   6.822  1.00  0.00     0.130 A 
HETATM    4  N2  UNL     1      25.404  -7.517   6.513  1.00  0.00    -0.176 N 
ATOM      5  H2  UNL     1      24.873  -8.067   7.187  1.00  0.00     0.186 HD
HETATM    6  C10 UNL     1      25.790  -8.123   5.352  1.00  0.00     0.686 A 
HETATM    7  N6  UNL     1      26.485  -7.421   4.456  1.00  0.00    -0.155 N 
ATOM      8  H6  UNL     1      26.781  -7.859   3.583  1.00  0.00     0.187 HD
HETATM    9  C23 UNL     1      26.792  -6.155   4.701  1.00  0.00     0.269 A 
HETATM   10  O1  UNL     1      27.437  -5.478   3.888  1.00  0.00    -0.267 OA
ENDROOT
BRANCH   6  11
HETATM   11  N3  UNL     1      25.470  -9.299   5.197  1.00  0.00    -0.205 N 
HETATM   12  C11 UNL     1      24.496 -10.192   4.866  1.00  0.00     0.080 C 
ATOM     13  H3  UNL     1      26.301  -9.851   5.411  1.00  0.00     0.183 HD
BRANCH  12  14
HETATM   14  C12 UNL     1      23.117  -9.680   4.491  1.00  0.00     0.075 C 
BRANCH  14  15
HETATM   15  C13 UNL     1      22.313  -9.421   5.761  1.00  0.00     0.277 C 
BRANCH  15  16
HETATM   16  N4  UNL     1      21.871  -8.036   5.813  1.00  0.00     0.092 N 
HETATM   17  C14 UNL     1      21.000  -7.816   6.940  1.00  0.00     0.302 C 
HETATM   18  C15 UNL     1      19.597  -8.184   6.567  1.00  0.00     0.302 C 
HETATM   19  N5  UNL     1      19.059  -7.305   5.571  1.00  0.00     0.091 N 
HETATM   20  C21 UNL     1      20.121  -6.629   4.848  1.00  0.00     0.302 C 
HETATM   21  C22 UNL     1      21.206  -7.638   4.608  1.00  0.00     0.302 C 
BRANCH  19  22
HETATM   22  C16 UNL     1      18.187  -6.275   6.080  1.00  0.00     0.273 C 
BRANCH  22  23
HETATM   23  C17 UNL     1      17.446  -6.687   7.312  1.00  0.00     0.034 C 
BRANCH  23  24
HETATM   24  C18 UNL     1      16.339  -5.732   7.681  1.00  0.00    -0.021 C 
HETATM   25  C19 UNL     1      16.464  -4.370   7.090  1.00  0.00     0.009 C 
HETATM   26  C20 UNL     1      16.318  -5.603   9.198  1.00  0.00     0.009 C 
ENDBRANCH  23  24
ENDBRANCH  22  23
ENDBRANCH  19  22
ENDBRANCH  15  16
ENDBRANCH  14  15
ENDBRANCH  12  14
ENDBRANCH   6  11
BRANCH   3  27
HETATM   27  N1  UNL     1      25.246  -5.639   8.043  1.00  0.00    -0.365 N 
HETATM   28  C4  UNL     1      23.802  -5.299   8.166  1.00  0.00     0.125 C 
HETATM   29  C5  UNL     1      23.621  -4.598   9.467  1.00  0.00     0.030 C 
HETATM   30  C6  UNL     1      24.996  -4.037   9.703  1.00  0.00    -0.030 C 
HETATM   31  C7  UNL     1      25.279  -3.689  11.129  1.00  0.00     0.016 C 
HETATM   32  C8  UNL     1      25.205  -2.894   8.751  1.00  0.00     0.016 C 
HETATM   33  C9  UNL     1      25.822  -5.264   9.267  1.00  0.00     0.133 C 
ENDBRANCH   3  27
TORSDOF 8
ENDMDL
