MODEL 1
REMARK VINA RESULT: -6.988313350      0.000      0.000
REMARK  8 active torsions:
REMARK  status: ('A' for Active; 'I' for Inactive)
REMARK    1  A    between atoms: C2_2  and  N1_3 
REMARK    2  A    between atoms: N1_3  and  C3_4 
REMARK    3  A    between atoms: N1_3  and  C5_6 
REMARK    4  A    between atoms: C5_6  and  C6_7 
REMARK    5  A    between atoms: C6_7  and  C7_8 
REMARK    6  A    between atoms: C7_8  and  N2_9 
REMARK       I    between atoms: N2_9  and  C8_11 
REMARK    7  A    between atoms: C8_11  and  C9_13 
REMARK    8  A    between atoms: C9_13  and  N3_14 
ROOT
HETATM    1  N3  UNL     1      25.244  -6.971   4.380  1.00  0.00    -0.257 N 
HETATM    2  C10 UNL     1      25.920  -8.121   4.590  1.00  0.00     0.330 A 
HETATM    3  O2  UNL     1      27.063  -8.256   4.065  1.00  0.00    -0.246 OA
HETATM    4  N4  UNL     1      25.444  -9.145   5.334  1.00  0.00    -0.307 N 
ATOM      5  H4  UNL     1      26.002  -9.989   5.456  1.00  0.00     0.170 HD
HETATM    6  C11 UNL     1      24.237  -9.050   5.912  1.00  0.00     0.059 A 
HETATM    7  C12 UNL     1      23.496  -7.878   5.725  1.00  0.00     0.038 A 
HETATM    8  C13 UNL     1      24.036  -6.852   4.947  1.00  0.00     0.260 A 
HETATM    9  O3  UNL     1      23.357  -5.792   4.782  1.00  0.00    -0.267 OA
HETATM   10  C14 UNL     1      22.167  -7.630   6.302  1.00  0.00     0.051 A 
HETATM   11  C15 UNL     1      21.579  -8.716   7.106  1.00  0.00     0.044 A 
HETATM   12  C16 UNL     1      22.419  -9.914   7.267  1.00  0.00    -0.045 A 
HETATM   13  C17 UNL     1      21.885 -10.945   8.050  1.00  0.00     0.015 A 
HETATM   14  C18 UNL     1      22.560 -12.122   8.281  1.00  0.00    -0.056 A 
HETATM   15  C19 UNL     1      21.952 -13.182   9.118  1.00  0.00     0.049 C 
HETATM   16  C20 UNL     1      23.821 -12.275   7.705  1.00  0.00    -0.055 A 
HETATM   17  C21 UNL     1      24.560 -13.539   7.948  1.00  0.00     0.049 C 
HETATM   18  C22 UNL     1      24.372 -11.273   6.928  1.00  0.00     0.021 A 
HETATM   19  C23 UNL     1      23.669 -10.118   6.723  1.00  0.00    -0.002 A 
ENDROOT
BRANCH   1  20
HETATM   20  C9  UNL     1      25.757  -5.887   3.608  1.00  0.00     0.240 C 
BRANCH  20  21
HETATM   21  C8  UNL     1      26.530  -4.874   4.459  1.00  0.00     0.239 C 
HETATM   22  N2  UNL     1      25.880  -4.006   5.320  1.00  0.00    -0.336 N 
ATOM     23  H2  UNL     1      24.870  -4.140   5.299  1.00  0.00     0.168 HD
HETATM   24  O1  UNL     1      27.771  -4.886   4.322  1.00  0.00    -0.271 OA
BRANCH  22  25
HETATM   25  C7  UNL     1      26.248  -2.990   6.214  1.00  0.00     0.092 C 
BRANCH  25  26
HETATM   26  C6  UNL     1      25.674  -2.826   7.541  1.00  0.00     0.034 C 
BRANCH  26  27
HETATM   27  C5  UNL     1      25.695  -3.837   8.606  1.00  0.00     0.086 C 
BRANCH  27  28
HETATM   28  N1  UNL     1      24.844  -4.953   8.536  1.00  0.00    -0.391 N 
BRANCH  28  29
HETATM   29  C2  UNL     1      23.725  -4.880   9.478  1.00  0.00     0.117 C 
HETATM   30  C1  UNL     1      24.003  -3.958  10.639  1.00  0.00     0.026 C 
ENDBRANCH  28  29
BRANCH  28  31
HETATM   31  C3  UNL     1      25.360  -6.247   8.443  1.00  0.00     0.117 C 
HETATM   32  C4  UNL     1      24.443  -7.224   9.248  1.00  0.00     0.026 C 
ENDBRANCH  28  31
ENDBRANCH  27  28
ENDBRANCH  26  27
ENDBRANCH  25  26
ENDBRANCH  22  25
ENDBRANCH  20  21
ENDBRANCH   1  20
TORSDOF 8
ENDMDL
MODEL 2
REMARK VINA RESULT: -6.977352287      0.651      1.264
REMARK  8 active torsions:
REMARK  status: ('A' for Active; 'I' for Inactive)
REMARK    1  A    between atoms: C2_2  and  N1_3 
REMARK    2  A    between atoms: N1_3  and  C3_4 
REMARK    3  A    between atoms: N1_3  and  C5_6 
REMARK    4  A    between atoms: C5_6  and  C6_7 
REMARK    5  A    between atoms: C6_7  and  C7_8 
REMARK    6  A    between atoms: C7_8  and  N2_9 
REMARK       I    between atoms: N2_9  and  C8_11 
REMARK    7  A    between atoms: C8_11  and  C9_13 
REMARK    8  A    between atoms: C9_13  and  N3_14 
ROOT
HETATM    1  N3  UNL     1      25.108  -7.366   4.332  1.00  0.00    -0.257 N 
HETATM    2  C10 UNL     1      25.852  -8.459   4.603  1.00  0.00     0.330 A 
HETATM    3  O2  UNL     1      27.016  -8.535   4.113  1.00  0.00    -0.246 OA
HETATM    4  N4  UNL     1      25.425  -9.485   5.373  1.00  0.00    -0.307 N 
ATOM      5  H4  UNL     1      26.034 -10.285   5.542  1.00  0.00     0.170 HD
HETATM    6  C11 UNL     1      24.198  -9.452   5.916  1.00  0.00     0.059 A 
HETATM    7  C12 UNL     1      23.387  -8.339   5.665  1.00  0.00     0.038 A 
HETATM    8  C13 UNL     1      23.878  -7.308   4.862  1.00  0.00     0.260 A 
HETATM    9  O3  UNL     1      23.135  -6.303   4.639  1.00  0.00    -0.267 OA
HETATM   10  C14 UNL     1      22.027  -8.162   6.197  1.00  0.00     0.051 A 
HETATM   11  C15 UNL     1      21.491  -9.255   7.027  1.00  0.00     0.044 A 
HETATM   12  C16 UNL     1      22.405 -10.387   7.255  1.00  0.00    -0.045 A 
HETATM   13  C17 UNL     1      21.919 -11.422   8.062  1.00  0.00     0.015 A 
HETATM   14  C18 UNL     1      22.663 -12.542   8.356  1.00  0.00    -0.056 A 
HETATM   15  C19 UNL     1      22.104 -13.610   9.216  1.00  0.00     0.049 C 
HETATM   16  C20 UNL     1      23.948 -12.630   7.819  1.00  0.00    -0.055 A 
HETATM   17  C21 UNL     1      24.762 -13.831   8.129  1.00  0.00     0.049 C 
HETATM   18  C22 UNL     1      24.453 -11.621   7.019  1.00  0.00     0.021 A 
HETATM   19  C23 UNL     1      23.680 -10.525   6.752  1.00  0.00    -0.002 A 
ENDROOT
BRANCH   1  20
HETATM   20  C9  UNL     1      25.568  -6.278   3.532  1.00  0.00     0.240 C 
BRANCH  20  21
HETATM   21  C8  UNL     1      26.269  -5.196   4.360  1.00  0.00     0.239 C 
HETATM   22  N2  UNL     1      25.557  -4.329   5.171  1.00  0.00    -0.336 N 
ATOM     23  H2  UNL     1      24.555  -4.514   5.131  1.00  0.00     0.168 HD
HETATM   24  O1  UNL     1      27.513  -5.153   4.254  1.00  0.00    -0.271 OA
BRANCH  22  25
HETATM   25  C7  UNL     1      25.851  -3.263   6.033  1.00  0.00     0.092 C 
BRANCH  25  26
HETATM   26  C6  UNL     1      26.046  -3.405   7.467  1.00  0.00     0.034 C 
BRANCH  26  27
HETATM   27  C5  UNL     1      26.143  -4.680   8.189  1.00  0.00     0.086 C 
BRANCH  27  28
HETATM   28  N1  UNL     1      25.744  -4.762   9.534  1.00  0.00    -0.391 N 
BRANCH  28  29
HETATM   29  C2  UNL     1      24.973  -5.972   9.829  1.00  0.00     0.117 C 
HETATM   30  C1  UNL     1      25.014  -6.976   8.704  1.00  0.00     0.026 C 
ENDBRANCH  28  29
BRANCH  28  31
HETATM   31  C3  UNL     1      25.236  -3.647  10.204  1.00  0.00     0.117 C 
HETATM   32  C4  UNL     1      23.726  -3.883  10.522  1.00  0.00     0.026 C 
ENDBRANCH  28  31
ENDBRANCH  27  28
ENDBRANCH  26  27
ENDBRANCH  25  26
ENDBRANCH  22  25
ENDBRANCH  20  21
ENDBRANCH   1  20
TORSDOF 8
ENDMDL
MODEL 3
REMARK VINA RESULT: -6.900010995      3.686      5.474
REMARK  8 active torsions:
REMARK  status: ('A' for Active; 'I' for Inactive)
REMARK    1  A    between atoms: C2_2  and  N1_3 
REMARK    2  A    between atoms: N1_3  and  C3_4 
REMARK    3  A    between atoms: N1_3  and  C5_6 
REMARK    4  A    between atoms: C5_6  and  C6_7 
REMARK    5  A    between atoms: C6_7  and  C7_8 
REMARK    6  A    between atoms: C7_8  and  N2_9 
REMARK       I    between atoms: N2_9  and  C8_11 
REMARK    7  A    between atoms: C8_11  and  C9_13 
REMARK    8  A    between atoms: C9_13  and  N3_14 
ROOT
HETATM    1  N3  UNL     1      20.872  -7.891   5.882  1.00  0.00    -0.257 N 
HETATM    2  C10 UNL     1      19.665  -7.386   6.213  1.00  0.00     0.330 A 
HETATM    3  O2  UNL     1      18.954  -6.871   5.302  1.00  0.00    -0.246 OA
HETATM    4  N4  UNL     1      19.167  -7.399   7.470  1.00  0.00    -0.307 N 
ATOM      5  H4  UNL     1      18.247  -7.001   7.658  1.00  0.00     0.170 HD
HETATM    6  C11 UNL     1      19.882  -7.934   8.471  1.00  0.00     0.059 A 
HETATM    7  C12 UNL     1      21.141  -8.472   8.179  1.00  0.00     0.038 A 
HETATM    8  C13 UNL     1      21.607  -8.432   6.864  1.00  0.00     0.260 A 
HETATM    9  O3  UNL     1      22.751  -8.922   6.608  1.00  0.00    -0.267 OA
HETATM   10  C14 UNL     1      22.031  -9.097   9.169  1.00  0.00     0.051 A 
HETATM   11  C15 UNL     1      21.557  -9.123  10.564  1.00  0.00     0.044 A 
HETATM   12  C16 UNL     1      20.221  -8.548  10.793  1.00  0.00    -0.045 A 
HETATM   13  C17 UNL     1      19.746  -8.589  12.110  1.00  0.00     0.015 A 
HETATM   14  C18 UNL     1      18.517  -8.085  12.467  1.00  0.00    -0.056 A 
HETATM   15  C19 UNL     1      18.059  -8.152  13.874  1.00  0.00     0.049 C 
HETATM   16  C20 UNL     1      17.728  -7.517  11.467  1.00  0.00    -0.055 A 
HETATM   17  C21 UNL     1      16.399  -6.971  11.838  1.00  0.00     0.049 C 
HETATM   18  C22 UNL     1      18.173  -7.464  10.158  1.00  0.00     0.021 A 
HETATM   19  C23 UNL     1      19.402  -7.976   9.844  1.00  0.00    -0.002 A 
ENDROOT
BRANCH   1  20
HETATM   20  C9  UNL     1      21.388  -7.891   4.552  1.00  0.00     0.240 C 
BRANCH  20  21
HETATM   21  C8  UNL     1      22.322  -6.706   4.284  1.00  0.00     0.239 C 
HETATM   22  N2  UNL     1      23.699  -6.845   4.324  1.00  0.00    -0.336 N 
ATOM     23  H2  UNL     1      23.974  -7.802   4.546  1.00  0.00     0.168 HD
HETATM   24  O1  UNL     1      21.760  -5.620   4.031  1.00  0.00    -0.271 OA
BRANCH  22  25
HETATM   25  C7  UNL     1      24.814  -6.016   4.139  1.00  0.00     0.092 C 
BRANCH  25  26
HETATM   26  C6  UNL     1      25.702  -5.593   5.210  1.00  0.00     0.034 C 
BRANCH  26  27
HETATM   27  C5  UNL     1      25.511  -5.886   6.637  1.00  0.00     0.086 C 
BRANCH  27  28
HETATM   28  N1  UNL     1      26.108  -5.069   7.611  1.00  0.00    -0.391 N 
BRANCH  28  29
HETATM   29  C2  UNL     1      25.816  -5.503   8.979  1.00  0.00     0.117 C 
HETATM   30  C1  UNL     1      25.015  -6.780   9.024  1.00  0.00     0.026 C 
ENDBRANCH  28  29
BRANCH  28  31
HETATM   31  C3  UNL     1      26.091  -3.677   7.494  1.00  0.00     0.117 C 
HETATM   32  C4  UNL     1      25.384  -3.066   8.745  1.00  0.00     0.026 C 
ENDBRANCH  28  31
ENDBRANCH  27  28
ENDBRANCH  26  27
ENDBRANCH  25  26
ENDBRANCH  22  25
ENDBRANCH  20  21
ENDBRANCH   1  20
TORSDOF 8
ENDMDL
MODEL 4
REMARK VINA RESULT: -6.848515205      5.897      7.856
REMARK  8 active torsions:
REMARK  status: ('A' for Active; 'I' for Inactive)
REMARK    1  A    between atoms: C2_2  and  N1_3 
REMARK    2  A    between atoms: N1_3  and  C3_4 
REMARK    3  A    between atoms: N1_3  and  C5_6 
REMARK    4  A    between atoms: C5_6  and  C6_7 
REMARK    5  A    between atoms: C6_7  and  C7_8 
REMARK    6  A    between atoms: C7_8  and  N2_9 
REMARK       I    between atoms: N2_9  and  C8_11 
REMARK    7  A    between atoms: C8_11  and  C9_13 
REMARK    8  A    between atoms: C9_13  and  N3_14 
ROOT
HETATM    1  N3  UNL     1      18.133  -6.898   6.395  1.00  0.00    -0.257 N 
HETATM    2  C10 UNL     1      18.261  -7.507   7.593  1.00  0.00     0.330 A 
HETATM    3  O2  UNL     1      18.960  -8.559   7.666  1.00  0.00    -0.246 OA
HETATM    4  N4  UNL     1      17.682  -7.055   8.729  1.00  0.00    -0.307 N 
ATOM      5  H4  UNL     1      17.816  -7.559   9.605  1.00  0.00     0.170 HD
HETATM    6  C11 UNL     1      16.932  -5.943   8.704  1.00  0.00     0.059 A 
HETATM    7  C12 UNL     1      16.769  -5.274   7.485  1.00  0.00     0.038 A 
HETATM    8  C13 UNL     1      17.389  -5.784   6.343  1.00  0.00     0.260 A 
HETATM    9  O3  UNL     1      17.235  -5.171   5.242  1.00  0.00    -0.267 OA
HETATM   10  C14 UNL     1      15.984  -4.043   7.308  1.00  0.00     0.051 A 
HETATM   11  C15 UNL     1      15.308  -3.509   8.503  1.00  0.00     0.044 A 
HETATM   12  C16 UNL     1      15.532  -4.260   9.750  1.00  0.00    -0.045 A 
HETATM   13  C17 UNL     1      14.917  -3.751  10.899  1.00  0.00     0.015 A 
HETATM   14  C18 UNL     1      15.039  -4.353  12.131  1.00  0.00    -0.056 A 
HETATM   15  C19 UNL     1      14.368  -3.774  13.318  1.00  0.00     0.049 C 
HETATM   16  C20 UNL     1      15.809  -5.513  12.217  1.00  0.00    -0.055 A 
HETATM   17  C21 UNL     1      15.950  -6.171  13.539  1.00  0.00     0.049 C 
HETATM   18  C22 UNL     1      16.428  -6.037  11.097  1.00  0.00     0.021 A 
HETATM   19  C23 UNL     1      16.282  -5.408   9.891  1.00  0.00    -0.002 A 
ENDROOT
BRANCH   1  20
HETATM   20  C9  UNL     1      18.759  -7.368   5.202  1.00  0.00     0.240 C 
BRANCH  20  21
HETATM   21  C8  UNL     1      20.141  -6.747   4.980  1.00  0.00     0.239 C 
HETATM   22  N2  UNL     1      21.087  -6.702   5.991  1.00  0.00    -0.336 N 
ATOM     23  H2  UNL     1      20.737  -7.121   6.852  1.00  0.00     0.168 HD
HETATM   24  O1  UNL     1      20.353  -6.290   3.837  1.00  0.00    -0.271 OA
BRANCH  22  25
HETATM   25  C7  UNL     1      22.399  -6.231   6.141  1.00  0.00     0.092 C 
BRANCH  25  26
HETATM   26  C6  UNL     1      23.219  -6.464   7.320  1.00  0.00     0.034 C 
BRANCH  26  27
HETATM   27  C5  UNL     1      23.616  -5.439   8.294  1.00  0.00     0.086 C 
BRANCH  27  28
HETATM   28  N1  UNL     1      24.924  -4.927   8.285  1.00  0.00    -0.391 N 
BRANCH  28  29
HETATM   29  C2  UNL     1      25.024  -3.603   8.903  1.00  0.00     0.117 C 
HETATM   30  C1  UNL     1      25.090  -3.669  10.409  1.00  0.00     0.026 C 
ENDBRANCH  28  29
BRANCH  28  31
HETATM   31  C3  UNL     1      25.731  -5.031   7.150  1.00  0.00     0.117 C 
HETATM   32  C4  UNL     1      26.451  -3.667   6.905  1.00  0.00     0.026 C 
ENDBRANCH  28  31
ENDBRANCH  27  28
ENDBRANCH  26  27
ENDBRANCH  25  26
ENDBRANCH  22  25
ENDBRANCH  20  21
ENDBRANCH   1  20
TORSDOF 8
ENDMDL
MODEL 5
REMARK VINA RESULT: -6.838442247      5.941      7.956
REMARK  8 active torsions:
REMARK  status: ('A' for Active; 'I' for Inactive)
REMARK    1  A    between atoms: C2_2  and  N1_3 
REMARK    2  A    between atoms: N1_3  and  C3_4 
REMARK    3  A    between atoms: N1_3  and  C5_6 
REMARK    4  A    between atoms: C5_6  and  C6_7 
REMARK    5  A    between atoms: C6_7  and  C7_8 
REMARK    6  A    between atoms: C7_8  and  N2_9 
REMARK       I    between atoms: N2_9  and  C8_11 
REMARK    7  A    between atoms: C8_11  and  C9_13 
REMARK    8  A    between atoms: C9_13  and  N3_14 
ROOT
HETATM    1  N3  UNL     1      17.960  -6.876   6.347  1.00  0.00    -0.257 N 
HETATM    2  C10 UNL     1      18.098  -7.511   7.531  1.00  0.00     0.330 A 
HETATM    3  O2  UNL     1      18.764  -8.585   7.566  1.00  0.00    -0.246 OA
HETATM    4  N4  UNL     1      17.562  -7.062   8.689  1.00  0.00    -0.307 N 
ATOM      5  H4  UNL     1      17.702  -7.587   9.552  1.00  0.00     0.170 HD
HETATM    6  C11 UNL     1      16.848  -5.927   8.703  1.00  0.00     0.059 A 
HETATM    7  C12 UNL     1      16.675  -5.231   7.501  1.00  0.00     0.038 A 
HETATM    8  C13 UNL     1      17.249  -5.739   6.335  1.00  0.00     0.260 A 
HETATM    9  O3  UNL     1      17.088  -5.101   5.249  1.00  0.00    -0.267 OA
HETATM   10  C14 UNL     1      15.926  -3.973   7.366  1.00  0.00     0.051 A 
HETATM   11  C15 UNL     1      15.297  -3.441   8.588  1.00  0.00     0.044 A 
HETATM   12  C16 UNL     1      15.529  -4.221   9.815  1.00  0.00    -0.045 A 
HETATM   13  C17 UNL     1      14.959  -3.714  10.989  1.00  0.00     0.015 A 
HETATM   14  C18 UNL     1      15.093  -4.343  12.206  1.00  0.00    -0.056 A 
HETATM   15  C19 UNL     1      14.471  -3.765  13.420  1.00  0.00     0.049 C 
HETATM   16  C20 UNL     1      15.828  -5.527  12.251  1.00  0.00    -0.055 A 
HETATM   17  C21 UNL     1      15.981  -6.215  13.557  1.00  0.00     0.049 C 
HETATM   18  C22 UNL     1      16.402  -6.050  11.106  1.00  0.00     0.021 A 
HETATM   19  C23 UNL     1      16.245  -5.394   9.916  1.00  0.00    -0.002 A 
ENDROOT
BRANCH   1  20
HETATM   20  C9  UNL     1      18.539  -7.343   5.131  1.00  0.00     0.240 C 
BRANCH  20  21
HETATM   21  C8  UNL     1      19.933  -6.757   4.881  1.00  0.00     0.239 C 
HETATM   22  N2  UNL     1      20.886  -6.702   5.884  1.00  0.00    -0.336 N 
ATOM     23  H2  UNL     1      20.534  -7.089   6.760  1.00  0.00     0.168 HD
HETATM   24  O1  UNL     1      20.146  -6.339   3.724  1.00  0.00    -0.271 OA
BRANCH  22  25
HETATM   25  C7  UNL     1      22.208  -6.254   6.012  1.00  0.00     0.092 C 
BRANCH  25  26
HETATM   26  C6  UNL     1      23.005  -6.399   7.221  1.00  0.00     0.034 C 
BRANCH  26  27
HETATM   27  C5  UNL     1      24.343  -5.830   7.428  1.00  0.00     0.086 C 
BRANCH  27  28
HETATM   28  N1  UNL     1      24.497  -4.637   8.155  1.00  0.00    -0.391 N 
BRANCH  28  29
HETATM   29  C2  UNL     1      25.888  -4.181   8.217  1.00  0.00     0.117 C 
HETATM   30  C1  UNL     1      26.341  -3.524   6.938  1.00  0.00     0.026 C 
ENDBRANCH  28  29
BRANCH  28  31
HETATM   31  C3  UNL     1      23.832  -4.440   9.366  1.00  0.00     0.117 C 
HETATM   32  C4  UNL     1      24.831  -3.849  10.411  1.00  0.00     0.026 C 
ENDBRANCH  28  31
ENDBRANCH  27  28
ENDBRANCH  26  27
ENDBRANCH  25  26
ENDBRANCH  22  25
ENDBRANCH  20  21
ENDBRANCH   1  20
TORSDOF 8
ENDMDL
