MODEL 1
REMARK VINA RESULT: -6.750907977      0.000      0.000
REMARK  9 active torsions:
REMARK  status: ('A' for Active; 'I' for Inactive)
REMARK    1  A    between atoms: N1_4  and  C4_5 
REMARK    2  A    between atoms: C4_5  and  C5_6 
REMARK    3  A    between atoms: C6_11  and  N4_12 
REMARK    4  A    between atoms: N4_12  and  C7_14 
REMARK    5  A    between atoms: C10_17  and  N5_18 
REMARK    6  A    between atoms: N7_27  and  C14_28 
REMARK    7  A    between atoms: C14_28  and  C15_29 
REMARK    8  A    between atoms: C15_29  and  C16_30 
REMARK    9  A    between atoms: C16_30  and  N8_31 
ROOT
HETATM    1  C5  UNL     1      21.530  -9.670   4.816  1.00  0.00     0.130 A 
HETATM    2  N2  UNL     1      21.149  -9.314   3.597  1.00  0.00    -0.273 N 
ATOM      3  H2  UNL     1      20.197  -9.364   3.234  1.00  0.00     0.189 HD
HETATM    4  N3  UNL     1      22.201  -8.888   2.930  1.00  0.00    -0.131 N 
ATOM      5  H3  UNL     1      22.196  -8.552   1.966  1.00  0.00     0.205 HD
HETATM    6  C6  UNL     1      23.282  -8.966   3.722  1.00  0.00     0.698 A 
HETATM    7  N6  UNL     1      22.852  -9.456   4.898  1.00  0.00    -0.176 N 
ATOM      8  H6  UNL     1      23.434  -9.635   5.716  1.00  0.00     0.185 HD
ENDROOT
BRANCH   1   9
HETATM    9  C4  UNL     1      20.662 -10.205   5.888  1.00  0.00     0.206 C 
BRANCH   9  10
HETATM   10  N1  UNL     1      20.996  -9.635   7.163  1.00  0.00    -0.325 N 
HETATM   11  C3  UNL     1      21.310 -10.359   8.377  1.00  0.00     0.153 C 
HETATM   12  C2  UNL     1      22.438  -9.549   8.928  1.00  0.00     0.102 C 
HETATM   13  C1  UNL     1      23.769  -9.904   8.312  1.00  0.00     0.034 C 
HETATM   14  N7  UNL     1      22.062  -8.172   8.605  1.00  0.00    -0.328 N 
HETATM   15  C13 UNL     1      21.109  -8.254   7.570  1.00  0.00     0.321 C 
HETATM   16  O3  UNL     1      20.407  -7.374   7.005  1.00  0.00    -0.247 OA
BRANCH  14  17
HETATM   17  C14 UNL     1      22.599  -6.994   9.231  1.00  0.00     0.130 C 
BRANCH  17  18
HETATM   18  C15 UNL     1      23.294  -6.032   8.351  1.00  0.00     0.048 C 
BRANCH  18  19
HETATM   19  C16 UNL     1      23.689  -4.705   8.816  1.00  0.00     0.237 C 
BRANCH  19  20
HETATM   20  N8  UNL     1      25.018  -4.391   9.150  1.00  0.00    -0.079 N 
HETATM   21  C17 UNL     1      25.317  -2.979   8.726  1.00  0.00     0.271 C 
HETATM   22  C18 UNL     1      26.087  -5.149   8.613  1.00  0.00     0.271 C 
HETATM   23  C19 UNL     1      25.163  -4.376  10.615  1.00  0.00     0.271 C 
ENDBRANCH  19  20
ENDBRANCH  18  19
ENDBRANCH  17  18
ENDBRANCH  14  17
ENDBRANCH   9  10
ENDBRANCH   1   9
BRANCH   6  24
HETATM   24  N4  UNL     1      24.500  -8.637   3.420  1.00  0.00    -0.190 N 
ATOM     25  H4  UNL     1      25.081  -9.250   2.846  1.00  0.00     0.184 HD
BRANCH  24  26
HETATM   26  C7  UNL     1      25.003  -7.410   3.905  1.00  0.00     0.049 A 
HETATM   27  C8  UNL     1      24.129  -6.370   4.155  1.00  0.00     0.032 A 
HETATM   28  C9  UNL     1      24.581  -5.174   4.623  1.00  0.00     0.038 A 
HETATM   29  C10 UNL     1      25.947  -5.002   4.852  1.00  0.00     0.103 A 
HETATM   30  C11 UNL     1      26.821  -6.036   4.606  1.00  0.00     0.038 A 
HETATM   31  C12 UNL     1      26.345  -7.249   4.128  1.00  0.00     0.032 A 
BRANCH  29  32
HETATM   32  N5  UNL     1      26.402  -3.755   5.339  1.00  0.00    -0.116 N 
HETATM   33  O1  UNL     1      25.662  -2.755   5.336  1.00  0.00    -0.532 OA
HETATM   34  O2  UNL     1      27.685  -3.658   5.820  1.00  0.00    -0.532 OA
ENDBRANCH  29  32
ENDBRANCH  24  26
ENDBRANCH   6  24
TORSDOF 9
ENDMDL
MODEL 2
REMARK VINA RESULT: -6.555711648      1.986      4.848
REMARK  9 active torsions:
REMARK  status: ('A' for Active; 'I' for Inactive)
REMARK    1  A    between atoms: N1_4  and  C4_5 
REMARK    2  A    between atoms: C4_5  and  C5_6 
REMARK    3  A    between atoms: C6_11  and  N4_12 
REMARK    4  A    between atoms: N4_12  and  C7_14 
REMARK    5  A    between atoms: C10_17  and  N5_18 
REMARK    6  A    between atoms: N7_27  and  C14_28 
REMARK    7  A    between atoms: C14_28  and  C15_29 
REMARK    8  A    between atoms: C15_29  and  C16_30 
REMARK    9  A    between atoms: C16_30  and  N8_31 
ROOT
HETATM    1  C5  UNL     1      22.503  -7.874   9.203  1.00  0.00     0.130 A 
HETATM    2  N2  UNL     1      21.948  -7.032   8.342  1.00  0.00    -0.273 N 
ATOM      3  H2  UNL     1      21.096  -7.205   7.809  1.00  0.00     0.189 HD
HETATM    4  N3  UNL     1      22.677  -5.937   8.289  1.00  0.00    -0.131 N 
ATOM      5  H3  UNL     1      22.480  -5.122   7.707  1.00  0.00     0.205 HD
HETATM    6  C6  UNL     1      23.720  -6.065   9.124  1.00  0.00     0.698 A 
HETATM    7  N6  UNL     1      23.602  -7.278   9.689  1.00  0.00    -0.176 N 
ATOM      8  H6  UNL     1      24.243  -7.680  10.374  1.00  0.00     0.185 HD
ENDROOT
BRANCH   1   9
HETATM    9  C4  UNL     1      22.006  -9.221   9.562  1.00  0.00     0.206 C 
BRANCH   9  10
HETATM   10  N1  UNL     1      22.228 -10.159   8.497  1.00  0.00    -0.325 N 
HETATM   11  C3  UNL     1      21.217 -10.767   7.659  1.00  0.00     0.153 C 
HETATM   12  C2  UNL     1      21.878 -10.734   6.318  1.00  0.00     0.102 C 
HETATM   13  C1  UNL     1      21.725  -9.403   5.624  1.00  0.00     0.034 C 
HETATM   14  N7  UNL     1      23.283 -11.009   6.622  1.00  0.00    -0.328 N 
HETATM   15  C13 UNL     1      23.456 -10.727   7.991  1.00  0.00     0.321 C 
HETATM   16  O3  UNL     1      24.437 -10.888   8.763  1.00  0.00    -0.247 OA
BRANCH  14  17
HETATM   17  C14 UNL     1      24.266 -11.459   5.674  1.00  0.00     0.130 C 
BRANCH  17  18
HETATM   18  C15 UNL     1      25.427 -10.573   5.449  1.00  0.00     0.048 C 
BRANCH  18  19
HETATM   19  C16 UNL     1      25.288  -9.121   5.377  1.00  0.00     0.237 C 
BRANCH  19  20
HETATM   20  N8  UNL     1      25.315  -8.424   4.156  1.00  0.00    -0.079 N 
HETATM   21  C17 UNL     1      24.432  -7.210   4.258  1.00  0.00     0.271 C 
HETATM   22  C18 UNL     1      24.895  -9.059   2.962  1.00  0.00     0.271 C 
HETATM   23  C19 UNL     1      26.666  -7.882   3.932  1.00  0.00     0.271 C 
ENDBRANCH  19  20
ENDBRANCH  18  19
ENDBRANCH  17  18
ENDBRANCH  14  17
ENDBRANCH   9  10
ENDBRANCH   1   9
BRANCH   6  24
HETATM   24  N4  UNL     1      24.658  -5.196   9.344  1.00  0.00    -0.190 N 
ATOM     25  H4  UNL     1      24.849  -4.858  10.287  1.00  0.00     0.184 HD
BRANCH  24  26
HETATM   26  C7  UNL     1      25.410  -4.729   8.243  1.00  0.00     0.049 A 
HETATM   27  C8  UNL     1      26.035  -5.639   7.414  1.00  0.00     0.032 A 
HETATM   28  C9  UNL     1      26.768  -5.221   6.344  1.00  0.00     0.038 A 
HETATM   29  C10 UNL     1      26.883  -3.855   6.086  1.00  0.00     0.103 A 
HETATM   30  C11 UNL     1      26.260  -2.944   6.909  1.00  0.00     0.038 A 
HETATM   31  C12 UNL     1      25.518  -3.386   7.997  1.00  0.00     0.032 A 
BRANCH  29  32
HETATM   32  N5  UNL     1      27.646  -3.435   4.971  1.00  0.00    -0.116 N 
HETATM   33  O1  UNL     1      28.752  -2.888   5.119  1.00  0.00    -0.532 OA
HETATM   34  O2  UNL     1      27.145  -3.642   3.709  1.00  0.00    -0.532 OA
ENDBRANCH  29  32
ENDBRANCH  24  26
ENDBRANCH   6  24
TORSDOF 9
ENDMDL
MODEL 3
REMARK VINA RESULT: -6.555174444      1.818      4.945
REMARK  9 active torsions:
REMARK  status: ('A' for Active; 'I' for Inactive)
REMARK    1  A    between atoms: N1_4  and  C4_5 
REMARK    2  A    between atoms: C4_5  and  C5_6 
REMARK    3  A    between atoms: C6_11  and  N4_12 
REMARK    4  A    between atoms: N4_12  and  C7_14 
REMARK    5  A    between atoms: C10_17  and  N5_18 
REMARK    6  A    between atoms: N7_27  and  C14_28 
REMARK    7  A    between atoms: C14_28  and  C15_29 
REMARK    8  A    between atoms: C15_29  and  C16_30 
REMARK    9  A    between atoms: C16_30  and  N8_31 
ROOT
HETATM    1  C5  UNL     1      21.755  -8.008   8.906  1.00  0.00     0.130 A 
HETATM    2  N2  UNL     1      22.493  -8.977   9.429  1.00  0.00    -0.273 N 
ATOM      3  H2  UNL     1      22.197  -9.945   9.558  1.00  0.00     0.189 HD
HETATM    4  N3  UNL     1      23.671  -8.487   9.753  1.00  0.00    -0.131 N 
ATOM      5  H3  UNL     1      24.437  -9.013  10.174  1.00  0.00     0.205 HD
HETATM    6  C6  UNL     1      23.703  -7.181   9.439  1.00  0.00     0.698 A 
HETATM    7  N6  UNL     1      22.501  -6.893   8.911  1.00  0.00    -0.176 N 
ATOM      8  H6  UNL     1      22.205  -5.978   8.571  1.00  0.00     0.185 HD
ENDROOT
BRANCH   1   9
HETATM    9  C4  UNL     1      20.366  -8.130   8.410  1.00  0.00     0.206 C 
BRANCH   9  10
HETATM   10  N1  UNL     1      20.323  -8.134   6.975  1.00  0.00    -0.325 N 
HETATM   11  C3  UNL     1      19.727  -7.124   6.126  1.00  0.00     0.153 C 
HETATM   12  C2  UNL     1      20.729  -7.029   5.021  1.00  0.00     0.102 C 
HETATM   13  C1  UNL     1      21.891  -6.130   5.362  1.00  0.00     0.034 C 
HETATM   14  N7  UNL     1      21.172  -8.413   4.840  1.00  0.00    -0.328 N 
HETATM   15  C13 UNL     1      20.835  -9.095   6.026  1.00  0.00     0.321 C 
HETATM   16  O3  UNL     1      20.910 -10.311   6.344  1.00  0.00    -0.247 OA
BRANCH  14  17
HETATM   17  C14 UNL     1      21.836  -8.928   3.673  1.00  0.00     0.130 C 
BRANCH  17  18
HETATM   18  C15 UNL     1      23.307  -9.048   3.743  1.00  0.00     0.048 C 
BRANCH  18  19
HETATM   19  C16 UNL     1      23.961 -10.262   4.223  1.00  0.00     0.237 C 
BRANCH  19  20
HETATM   20  N8  UNL     1      24.991 -10.232   5.179  1.00  0.00    -0.079 N 
HETATM   21  C17 UNL     1      25.940  -9.111   4.851  1.00  0.00     0.271 C 
HETATM   22  C18 UNL     1      25.832 -11.357   5.358  1.00  0.00     0.271 C 
HETATM   23  C19 UNL     1      24.430  -9.870   6.492  1.00  0.00     0.271 C 
ENDBRANCH  19  20
ENDBRANCH  18  19
ENDBRANCH  17  18
ENDBRANCH  14  17
ENDBRANCH   9  10
ENDBRANCH   1   9
BRANCH   6  24
HETATM   24  N4  UNL     1      24.691  -6.358   9.610  1.00  0.00    -0.190 N 
ATOM     25  H4  UNL     1      25.132  -6.252  10.524  1.00  0.00     0.184 HD
BRANCH  24  26
HETATM   26  C7  UNL     1      25.141  -5.613   8.498  1.00  0.00     0.049 A 
HETATM   27  C8  UNL     1      25.307  -6.242   7.281  1.00  0.00     0.032 A 
HETATM   28  C9  UNL     1      25.739  -5.552   6.190  1.00  0.00     0.038 A 
HETATM   29  C10 UNL     1      26.016  -4.189   6.309  1.00  0.00     0.103 A 
HETATM   30  C11 UNL     1      25.850  -3.557   7.520  1.00  0.00     0.038 A 
HETATM   31  C12 UNL     1      25.410  -4.275   8.624  1.00  0.00     0.032 A 
BRANCH  29  32
HETATM   32  N5  UNL     1      26.463  -3.484   5.167  1.00  0.00    -0.116 N 
HETATM   33  O1  UNL     1      27.641  -3.099   5.070  1.00  0.00    -0.532 OA
HETATM   34  O2  UNL     1      25.571  -3.226   4.155  1.00  0.00    -0.532 OA
ENDBRANCH  29  32
ENDBRANCH  24  26
ENDBRANCH   6  24
TORSDOF 9
ENDMDL
MODEL 4
REMARK VINA RESULT: -6.534207453      3.930      7.607
REMARK  9 active torsions:
REMARK  status: ('A' for Active; 'I' for Inactive)
REMARK    1  A    between atoms: N1_4  and  C4_5 
REMARK    2  A    between atoms: C4_5  and  C5_6 
REMARK    3  A    between atoms: C6_11  and  N4_12 
REMARK    4  A    between atoms: N4_12  and  C7_14 
REMARK    5  A    between atoms: C10_17  and  N5_18 
REMARK    6  A    between atoms: N7_27  and  C14_28 
REMARK    7  A    between atoms: C14_28  and  C15_29 
REMARK    8  A    between atoms: C15_29  and  C16_30 
REMARK    9  A    between atoms: C16_30  and  N8_31 
ROOT
HETATM    1  C5  UNL     1      21.644  -7.755   8.974  1.00  0.00     0.130 A 
HETATM    2  N2  UNL     1      21.787  -8.737   9.853  1.00  0.00    -0.273 N 
ATOM      3  H2  UNL     1      22.676  -9.088  10.211  1.00  0.00     0.189 HD
HETATM    4  N3  UNL     1      20.596  -9.186  10.188  1.00  0.00    -0.131 N 
ATOM      5  H3  UNL     1      20.411  -9.941  10.849  1.00  0.00     0.205 HD
HETATM    6  C6  UNL     1      19.662  -8.490   9.519  1.00  0.00     0.698 A 
HETATM    7  N6  UNL     1      20.328  -7.599   8.764  1.00  0.00    -0.176 N 
ATOM      8  H6  UNL     1      19.903  -6.917   8.135  1.00  0.00     0.185 HD
ENDROOT
BRANCH   1   9
HETATM    9  C4  UNL     1      22.730  -6.976   8.339  1.00  0.00     0.206 C 
BRANCH   9  10
HETATM   10  N1  UNL     1      23.105  -7.540   7.073  1.00  0.00    -0.325 N 
HETATM   11  C3  UNL     1      22.213  -7.913   5.996  1.00  0.00     0.153 C 
HETATM   12  C2  UNL     1      22.976  -7.449   4.798  1.00  0.00     0.102 C 
HETATM   13  C1  UNL     1      22.784  -5.980   4.516  1.00  0.00     0.034 C 
HETATM   14  N7  UNL     1      24.369  -7.738   5.145  1.00  0.00    -0.328 N 
HETATM   15  C13 UNL     1      24.408  -7.873   6.547  1.00  0.00     0.321 C 
HETATM   16  O3  UNL     1      25.333  -8.213   7.331  1.00  0.00    -0.247 OA
BRANCH  14  17
HETATM   17  C14 UNL     1      25.456  -7.838   4.209  1.00  0.00     0.130 C 
BRANCH  17  18
HETATM   18  C15 UNL     1      26.577  -6.891   4.389  1.00  0.00     0.048 C 
BRANCH  18  19
HETATM   19  C16 UNL     1      26.419  -5.456   4.168  1.00  0.00     0.237 C 
BRANCH  19  20
HETATM   20  N8  UNL     1      26.681  -4.509   5.172  1.00  0.00    -0.079 N 
HETATM   21  C17 UNL     1      28.034  -3.893   4.933  1.00  0.00     0.271 C 
HETATM   22  C18 UNL     1      26.715  -4.901   6.533  1.00  0.00     0.271 C 
HETATM   23  C19 UNL     1      25.736  -3.387   5.046  1.00  0.00     0.271 C 
ENDBRANCH  19  20
ENDBRANCH  18  19
ENDBRANCH  17  18
ENDBRANCH  14  17
ENDBRANCH   9  10
ENDBRANCH   1   9
BRANCH   6  24
HETATM   24  N4  UNL     1      18.375  -8.642   9.584  1.00  0.00    -0.190 N 
ATOM     25  H4  UNL     1      17.950  -9.562   9.464  1.00  0.00     0.184 HD
BRANCH  24  26
HETATM   26  C7  UNL     1      17.578  -7.502   9.824  1.00  0.00     0.049 A 
HETATM   27  C8  UNL     1      17.320  -7.117  11.125  1.00  0.00     0.032 A 
HETATM   28  C9  UNL     1      16.554  -6.022  11.391  1.00  0.00     0.038 A 
HETATM   29  C10 UNL     1      16.027  -5.283  10.331  1.00  0.00     0.103 A 
HETATM   30  C11 UNL     1      16.283  -5.662   9.033  1.00  0.00     0.038 A 
HETATM   31  C12 UNL     1      17.064  -6.782   8.778  1.00  0.00     0.032 A 
BRANCH  29  32
HETATM   32  N5  UNL     1      15.235  -4.148  10.622  1.00  0.00    -0.116 N 
HETATM   33  O1  UNL     1      14.750  -3.976  11.755  1.00  0.00    -0.532 OA
HETATM   34  O2  UNL     1      15.003  -3.228   9.629  1.00  0.00    -0.532 OA
ENDBRANCH  29  32
ENDBRANCH  24  26
ENDBRANCH   6  24
TORSDOF 9
ENDMDL
MODEL 5
REMARK VINA RESULT: -6.463246572      4.129      7.793
REMARK  9 active torsions:
REMARK  status: ('A' for Active; 'I' for Inactive)
REMARK    1  A    between atoms: N1_4  and  C4_5 
REMARK    2  A    between atoms: C4_5  and  C5_6 
REMARK    3  A    between atoms: C6_11  and  N4_12 
REMARK    4  A    between atoms: N4_12  and  C7_14 
REMARK    5  A    between atoms: C10_17  and  N5_18 
REMARK    6  A    between atoms: N7_27  and  C14_28 
REMARK    7  A    between atoms: C14_28  and  C15_29 
REMARK    8  A    between atoms: C15_29  and  C16_30 
REMARK    9  A    between atoms: C16_30  and  N8_31 
ROOT
HETATM    1  C5  UNL     1      21.913  -8.563   8.771  1.00  0.00     0.130 A 
HETATM    2  N2  UNL     1      21.354  -7.561   8.106  1.00  0.00    -0.273 N 
ATOM      3  H2  UNL     1      21.842  -6.914   7.486  1.00  0.00     0.189 HD
HETATM    4  N3  UNL     1      20.066  -7.536   8.379  1.00  0.00    -0.131 N 
ATOM      5  H3  UNL     1      19.393  -6.868   8.003  1.00  0.00     0.205 HD
HETATM    6  C6  UNL     1      19.780  -8.533   9.232  1.00  0.00     0.698 A 
HETATM    7  N6  UNL     1      20.941  -9.168   9.470  1.00  0.00    -0.176 N 
ATOM      8  H6  UNL     1      21.063  -9.975  10.082  1.00  0.00     0.185 HD
ENDROOT
BRANCH   1   9
HETATM    9  C4  UNL     1      23.343  -8.944   8.749  1.00  0.00     0.206 C 
BRANCH   9  10
HETATM   10  N1  UNL     1      24.154  -7.894   8.200  1.00  0.00    -0.325 N 
HETATM   11  C3  UNL     1      24.763  -7.871   6.887  1.00  0.00     0.153 C 
HETATM   12  C2  UNL     1      24.548  -6.448   6.481  1.00  0.00     0.102 C 
HETATM   13  C1  UNL     1      23.175  -6.206   5.905  1.00  0.00     0.034 C 
HETATM   14  N7  UNL     1      24.733  -5.704   7.728  1.00  0.00    -0.328 N 
HETATM   15  C13 UNL     1      24.568  -6.634   8.773  1.00  0.00     0.321 C 
HETATM   16  O3  UNL     1      24.718  -6.531  10.019  1.00  0.00    -0.247 OA
BRANCH  14  17
HETATM   17  C14 UNL     1      25.008  -4.296   7.823  1.00  0.00     0.130 C 
BRANCH  17  18
HETATM   18  C15 UNL     1      26.302  -3.833   7.280  1.00  0.00     0.048 C 
BRANCH  18  19
HETATM   19  C16 UNL     1      26.409  -3.209   5.965  1.00  0.00     0.237 C 
BRANCH  19  20
HETATM   20  N8  UNL     1      27.108  -3.810   4.903  1.00  0.00    -0.079 N 
HETATM   21  C17 UNL     1      27.590  -5.169   5.333  1.00  0.00     0.271 C 
HETATM   22  C18 UNL     1      28.260  -3.188   4.364  1.00  0.00     0.271 C 
HETATM   23  C19 UNL     1      26.177  -4.080   3.795  1.00  0.00     0.271 C 
ENDBRANCH  19  20
ENDBRANCH  18  19
ENDBRANCH  17  18
ENDBRANCH  14  17
ENDBRANCH   9  10
ENDBRANCH   1   9
BRANCH   6  24
HETATM   24  N4  UNL     1      18.620  -8.829   9.731  1.00  0.00    -0.190 N 
ATOM     25  H4  UNL     1      18.081  -9.618   9.372  1.00  0.00     0.184 HD
BRANCH  24  26
HETATM   26  C7  UNL     1      18.121  -8.031  10.784  1.00  0.00     0.049 A 
HETATM   27  C8  UNL     1      18.608  -8.214  12.063  1.00  0.00     0.032 A 
HETATM   28  C9  UNL     1      18.147  -7.461  13.100  1.00  0.00     0.038 A 
HETATM   29  C10 UNL     1      17.171  -6.493  12.862  1.00  0.00     0.103 A 
HETATM   30  C11 UNL     1      16.684  -6.307  11.588  1.00  0.00     0.038 A 
HETATM   31  C12 UNL     1      17.162  -7.083  10.541  1.00  0.00     0.032 A 
BRANCH  29  32
HETATM   32  N5  UNL     1      16.703  -5.718  13.948  1.00  0.00    -0.116 N 
HETATM   33  O1  UNL     1      17.338  -5.659  15.016  1.00  0.00    -0.532 OA
HETATM   34  O2  UNL     1      15.526  -5.024  13.810  1.00  0.00    -0.532 OA
ENDBRANCH  29  32
ENDBRANCH  24  26
ENDBRANCH   6  24
TORSDOF 9
ENDMDL
