MODEL 1
REMARK VINA RESULT: -7.295073648      0.000      0.000
REMARK  8 active torsions:
REMARK  status: ('A' for Active; 'I' for Inactive)
REMARK    1  A    between atoms: C4_9  and  C5_10 
REMARK    2  A    between atoms: C5_10  and  C6_12 
REMARK    3  A    between atoms: C6_12  and  C7_13 
REMARK    4  A    between atoms: C7_13  and  C8_14 
REMARK    5  A    between atoms: C10_16  and  C11_17 
REMARK    6  A    between atoms: C11_17  and  N3_18 
REMARK    7  A    between atoms: N4_21  and  C14_22 
REMARK    8  A    between atoms: C14_22  and  C15_23 
ROOT
HETATM    1  C8  UNL     1      25.790  -4.062   7.857  1.00  0.00     0.054 A 
HETATM    2  C9  UNL     1      25.873  -5.406   8.080  1.00  0.00     0.044 A 
HETATM    3  C10 UNL     1      25.025  -5.772   9.144  1.00  0.00    -0.009 A 
HETATM    4  C20 UNL     1      24.464  -4.539   9.521  1.00  0.00     0.057 A 
HETATM    5  C21 UNL     1      23.499  -4.337  10.623  1.00  0.00     0.077 C 
HETATM    6  O5  UNL     1      24.909  -3.588   8.773  1.00  0.00    -0.319 OA
ENDROOT
BRANCH   1   7
HETATM    7  C7  UNL     1      26.386  -3.098   6.933  1.00  0.00     0.073 C 
BRANCH   7   8
HETATM    8  C6  UNL     1      26.939  -3.628   5.672  1.00  0.00     0.092 C 
BRANCH   8   9
HETATM    9  C5  UNL     1      26.050  -4.146   4.657  1.00  0.00     0.178 C 
HETATM   10  O2  UNL     1      25.403  -3.358   3.908  1.00  0.00    -0.291 OA
BRANCH   9  11
HETATM   11  C4  UNL     1      25.856  -5.571   4.472  1.00  0.00     0.105 A 
HETATM   12  C2  UNL     1      24.716  -6.357   4.520  1.00  0.00     0.040 A 
HETATM   13  C1  UNL     1      23.335  -5.813   4.704  1.00  0.00     0.071 C 
HETATM   14  N1  UNL     1      25.055  -7.632   4.401  1.00  0.00    -0.310 N 
HETATM   15  C3  UNL     1      26.368  -7.735   4.273  1.00  0.00     0.325 A 
ATOM     16  H1  UNL     1      24.402  -8.416   4.408  1.00  0.00     0.170 HD
HETATM   17  O1  UNL     1      27.058  -8.794   4.129  1.00  0.00    -0.247 OA
HETATM   18  N2  UNL     1      26.854  -6.467   4.318  1.00  0.00    -0.304 N 
ATOM     19  H2  UNL     1      27.842  -6.224   4.245  1.00  0.00     0.171 HD
ENDBRANCH   9  11
ENDBRANCH   8   9
ENDBRANCH   7   8
ENDBRANCH   1   7
BRANCH   3  20
HETATM   20  C11 UNL     1      24.578  -7.107   9.522  1.00  0.00     0.167 C 
BRANCH  20  21
HETATM   21  N3  UNL     1      23.424  -7.643   8.860  1.00  0.00    -0.338 N 
HETATM   22  C12 UNL     1      22.088  -7.506   9.154  1.00  0.00     0.146 C 
HETATM   23  C13 UNL     1      21.156  -7.522   7.927  1.00  0.00     0.146 C 
HETATM   24  N4  UNL     1      21.447  -8.527   6.970  1.00  0.00    -0.342 N 
HETATM   25  C18 UNL     1      22.808  -8.854   6.722  1.00  0.00     0.311 C 
HETATM   26  O3  UNL     1      23.145  -9.512   5.703  1.00  0.00    -0.262 OA
HETATM   27  C19 UNL     1      23.809  -8.413   7.659  1.00  0.00     0.312 C 
HETATM   28  O4  UNL     1      25.012  -8.682   7.483  1.00  0.00    -0.262 OA
BRANCH  24  29
HETATM   29  C14 UNL     1      20.468  -9.262   6.233  1.00  0.00     0.130 C 
BRANCH  29  30
HETATM   30  C15 UNL     1      19.598  -8.445   5.291  1.00  0.00    -0.005 C 
HETATM   31  C16 UNL     1      20.303  -8.154   3.986  1.00  0.00     0.011 C 
HETATM   32  C17 UNL     1      18.368  -9.298   4.977  1.00  0.00     0.011 C 
ENDBRANCH  29  30
ENDBRANCH  24  29
ENDBRANCH  20  21
ENDBRANCH   3  20
TORSDOF 8
ENDMDL
MODEL 2
REMARK VINA RESULT: -7.199497192      3.315      5.494
REMARK  8 active torsions:
REMARK  status: ('A' for Active; 'I' for Inactive)
REMARK    1  A    between atoms: C4_9  and  C5_10 
REMARK    2  A    between atoms: C5_10  and  C6_12 
REMARK    3  A    between atoms: C6_12  and  C7_13 
REMARK    4  A    between atoms: C7_13  and  C8_14 
REMARK    5  A    between atoms: C10_16  and  C11_17 
REMARK    6  A    between atoms: C11_17  and  N3_18 
REMARK    7  A    between atoms: N4_21  and  C14_22 
REMARK    8  A    between atoms: C14_22  and  C15_23 
ROOT
HETATM    1  C8  UNL     1      25.067  -5.590   3.927  1.00  0.00     0.054 A 
HETATM    2  C9  UNL     1      25.156  -6.950   3.857  1.00  0.00     0.044 A 
HETATM    3  C10 UNL     1      23.997  -7.539   4.399  1.00  0.00    -0.009 A 
HETATM    4  C20 UNL     1      23.246  -6.417   4.795  1.00  0.00     0.057 A 
HETATM    5  C21 UNL     1      21.922  -6.460   5.453  1.00  0.00     0.077 C 
HETATM    6  O5  UNL     1      23.872  -5.326   4.511  1.00  0.00    -0.319 OA
ENDROOT
BRANCH   1   7
HETATM    7  C7  UNL     1      25.897  -4.449   3.546  1.00  0.00     0.073 C 
BRANCH   7   8
HETATM    8  C6  UNL     1      26.424  -3.605   4.636  1.00  0.00     0.092 C 
BRANCH   8   9
HETATM    9  C5  UNL     1      27.098  -4.218   5.758  1.00  0.00     0.178 C 
HETATM   10  O2  UNL     1      28.354  -4.368   5.749  1.00  0.00    -0.291 OA
BRANCH   9  11
HETATM   11  C4  UNL     1      26.367  -4.693   6.917  1.00  0.00     0.105 A 
HETATM   12  C2  UNL     1      25.790  -4.017   7.980  1.00  0.00     0.040 A 
HETATM   13  C1  UNL     1      25.737  -2.526   8.089  1.00  0.00     0.071 C 
HETATM   14  N1  UNL     1      25.330  -4.892   8.862  1.00  0.00    -0.310 N 
HETATM   15  C3  UNL     1      25.569  -6.122   8.437  1.00  0.00     0.325 A 
ATOM     16  H1  UNL     1      24.862  -4.654   9.736  1.00  0.00     0.170 HD
HETATM   17  O1  UNL     1      25.269  -7.218   9.007  1.00  0.00    -0.247 OA
HETATM   18  N2  UNL     1      26.207  -5.994   7.243  1.00  0.00    -0.304 N 
ATOM     19  H2  UNL     1      26.523  -6.776   6.670  1.00  0.00     0.171 HD
ENDBRANCH   9  11
ENDBRANCH   8   9
ENDBRANCH   7   8
ENDBRANCH   1   7
BRANCH   3  20
HETATM   20  C11 UNL     1      23.538  -8.916   4.266  1.00  0.00     0.167 C 
BRANCH  20  21
HETATM   21  N3  UNL     1      24.281  -9.942   4.938  1.00  0.00    -0.338 N 
HETATM   22  C12 UNL     1      24.473 -10.162   6.281  1.00  0.00     0.146 C 
HETATM   23  C13 UNL     1      24.625 -11.645   6.673  1.00  0.00     0.146 C 
HETATM   24  N4  UNL     1      25.472 -12.403   5.825  1.00  0.00    -0.342 N 
HETATM   25  C18 UNL     1      25.461 -12.125   4.431  1.00  0.00     0.311 C 
HETATM   26  O3  UNL     1      25.958 -12.931   3.602  1.00  0.00    -0.262 OA
HETATM   27  C19 UNL     1      24.863 -10.897   3.973  1.00  0.00     0.312 C 
HETATM   28  O4  UNL     1      24.836 -10.612   2.762  1.00  0.00    -0.262 OA
BRANCH  24  29
HETATM   29  C14 UNL     1      26.363 -13.429   6.266  1.00  0.00     0.130 C 
BRANCH  29  30
HETATM   30  C15 UNL     1      26.792 -13.354   7.722  1.00  0.00    -0.005 C 
HETATM   31  C16 UNL     1      26.290 -14.536   8.518  1.00  0.00     0.011 C 
HETATM   32  C17 UNL     1      28.320 -13.397   7.734  1.00  0.00     0.011 C 
ENDBRANCH  29  30
ENDBRANCH  24  29
ENDBRANCH  20  21
ENDBRANCH   3  20
TORSDOF 8
ENDMDL
MODEL 3
REMARK VINA RESULT: -7.072645898      2.546      3.831
REMARK  8 active torsions:
REMARK  status: ('A' for Active; 'I' for Inactive)
REMARK    1  A    between atoms: C4_9  and  C5_10 
REMARK    2  A    between atoms: C5_10  and  C6_12 
REMARK    3  A    between atoms: C6_12  and  C7_13 
REMARK    4  A    between atoms: C7_13  and  C8_14 
REMARK    5  A    between atoms: C10_16  and  C11_17 
REMARK    6  A    between atoms: C11_17  and  N3_18 
REMARK    7  A    between atoms: N4_21  and  C14_22 
REMARK    8  A    between atoms: C14_22  and  C15_23 
ROOT
HETATM    1  C8  UNL     1      23.998  -5.953   8.985  1.00  0.00     0.054 A 
HETATM    2  C9  UNL     1      24.562  -7.156   8.675  1.00  0.00     0.044 A 
HETATM    3  C10 UNL     1      23.575  -8.161   8.655  1.00  0.00    -0.009 A 
HETATM    4  C20 UNL     1      22.411  -7.448   8.989  1.00  0.00     0.057 A 
HETATM    5  C21 UNL     1      21.058  -8.030   9.129  1.00  0.00     0.077 C 
HETATM    6  O5  UNL     1      22.676  -6.198   9.164  1.00  0.00    -0.319 OA
ENDROOT
BRANCH   1   7
HETATM    7  C7  UNL     1      24.456  -4.574   9.152  1.00  0.00     0.073 C 
BRANCH   7   8
HETATM    8  C6  UNL     1      25.777  -4.231   8.590  1.00  0.00     0.092 C 
BRANCH   8   9
HETATM    9  C5  UNL     1      25.872  -3.284   7.504  1.00  0.00     0.178 C 
HETATM   10  O2  UNL     1      25.427  -2.107   7.637  1.00  0.00    -0.291 OA
BRANCH   9  11
HETATM   11  C4  UNL     1      26.462  -3.646   6.229  1.00  0.00     0.105 A 
HETATM   12  C2  UNL     1      26.037  -4.509   5.232  1.00  0.00     0.040 A 
HETATM   13  C1  UNL     1      24.725  -5.225   5.254  1.00  0.00     0.071 C 
HETATM   14  N1  UNL     1      26.974  -4.601   4.300  1.00  0.00    -0.310 N 
HETATM   15  C3  UNL     1      28.004  -3.838   4.626  1.00  0.00     0.325 A 
ATOM     16  H1  UNL     1      26.911  -5.174   3.459  1.00  0.00     0.170 HD
HETATM   17  O1  UNL     1      29.084  -3.663   3.977  1.00  0.00    -0.247 OA
HETATM   18  N2  UNL     1      27.685  -3.254   5.811  1.00  0.00    -0.304 N 
ATOM     19  H2  UNL     1      28.288  -2.607   6.318  1.00  0.00     0.171 HD
ENDBRANCH   9  11
ENDBRANCH   8   9
ENDBRANCH   7   8
ENDBRANCH   1   7
BRANCH   3  20
HETATM   20  C11 UNL     1      23.668  -9.504   8.095  1.00  0.00     0.167 C 
BRANCH  20  21
HETATM   21  N3  UNL     1      23.710  -9.638   6.668  1.00  0.00    -0.338 N 
HETATM   22  C12 UNL     1      23.003  -8.975   5.694  1.00  0.00     0.146 C 
HETATM   23  C13 UNL     1      23.766  -8.778   4.369  1.00  0.00     0.146 C 
HETATM   24  N4  UNL     1      24.470  -9.920   3.911  1.00  0.00    -0.342 N 
HETATM   25  C18 UNL     1      25.096 -10.761   4.870  1.00  0.00     0.311 C 
HETATM   26  O3  UNL     1      25.961 -11.609   4.527  1.00  0.00    -0.262 OA
HETATM   27  C19 UNL     1      24.728 -10.627   6.256  1.00  0.00     0.312 C 
HETATM   28  O4  UNL     1      25.247 -11.347   7.128  1.00  0.00    -0.262 OA
BRANCH  24  29
HETATM   29  C14 UNL     1      24.592 -10.310   2.541  1.00  0.00     0.130 C 
BRANCH  29  30
HETATM   30  C15 UNL     1      23.297 -10.347   1.746  1.00  0.00    -0.005 C 
HETATM   31  C16 UNL     1      23.553 -10.444   0.259  1.00  0.00     0.011 C 
HETATM   32  C17 UNL     1      22.554 -11.613   2.175  1.00  0.00     0.011 C 
ENDBRANCH  29  30
ENDBRANCH  24  29
ENDBRANCH  20  21
ENDBRANCH   3  20
TORSDOF 8
ENDMDL
MODEL 4
REMARK VINA RESULT: -7.063322910      1.439      1.793
REMARK  8 active torsions:
REMARK  status: ('A' for Active; 'I' for Inactive)
REMARK    1  A    between atoms: C4_9  and  C5_10 
REMARK    2  A    between atoms: C5_10  and  C6_12 
REMARK    3  A    between atoms: C6_12  and  C7_13 
REMARK    4  A    between atoms: C7_13  and  C8_14 
REMARK    5  A    between atoms: C10_16  and  C11_17 
REMARK    6  A    between atoms: C11_17  and  N3_18 
REMARK    7  A    between atoms: N4_21  and  C14_22 
REMARK    8  A    between atoms: C14_22  and  C15_23 
ROOT
HETATM    1  C8  UNL     1      26.330  -4.059   7.291  1.00  0.00     0.054 A 
HETATM    2  C9  UNL     1      26.044  -5.371   7.534  1.00  0.00     0.044 A 
HETATM    3  C10 UNL     1      25.555  -5.524   8.846  1.00  0.00    -0.009 A 
HETATM    4  C20 UNL     1      25.595  -4.208   9.339  1.00  0.00     0.057 A 
HETATM    5  C21 UNL     1      25.201  -3.790  10.702  1.00  0.00     0.077 C 
HETATM    6  O5  UNL     1      26.031  -3.396   8.437  1.00  0.00    -0.319 OA
ENDROOT
BRANCH   1   7
HETATM    7  C7  UNL     1      26.840  -3.270   6.171  1.00  0.00     0.073 C 
BRANCH   7   8
HETATM    8  C6  UNL     1      27.299  -4.012   4.980  1.00  0.00     0.092 C 
BRANCH   8   9
HETATM    9  C5  UNL     1      26.332  -4.611   4.089  1.00  0.00     0.178 C 
HETATM   10  O2  UNL     1      25.790  -3.926   3.175  1.00  0.00    -0.291 OA
BRANCH   9  11
HETATM   11  C4  UNL     1      25.940  -6.002   4.217  1.00  0.00     0.105 A 
HETATM   12  C2  UNL     1      24.714  -6.591   4.479  1.00  0.00     0.040 A 
HETATM   13  C1  UNL     1      23.433  -5.829   4.603  1.00  0.00     0.071 C 
HETATM   14  N1  UNL     1      24.874  -7.898   4.618  1.00  0.00    -0.310 N 
HETATM   15  C3  UNL     1      26.149  -8.212   4.458  1.00  0.00     0.325 A 
ATOM     16  H1  UNL     1      24.127  -8.563   4.818  1.00  0.00     0.170 HD
HETATM   17  O1  UNL     1      26.683  -9.365   4.511  1.00  0.00    -0.247 OA
HETATM   18  N2  UNL     1      26.799  -7.044   4.213  1.00  0.00    -0.304 N 
ATOM     19  H2  UNL     1      27.803  -6.964   4.048  1.00  0.00     0.171 HD
ENDBRANCH   9  11
ENDBRANCH   8   9
ENDBRANCH   7   8
ENDBRANCH   1   7
BRANCH   3  20
HETATM   20  C11 UNL     1      24.862  -6.671   9.421  1.00  0.00     0.167 C 
BRANCH  20  21
HETATM   21  N3  UNL     1      24.138  -7.534   8.535  1.00  0.00    -0.338 N 
HETATM   22  C12 UNL     1      24.454  -8.784   8.059  1.00  0.00     0.146 C 
HETATM   23  C13 UNL     1      23.241  -9.699   7.802  1.00  0.00     0.146 C 
HETATM   24  N4  UNL     1      22.153  -9.076   7.140  1.00  0.00    -0.342 N 
HETATM   25  C18 UNL     1      21.856  -7.721   7.451  1.00  0.00     0.311 C 
HETATM   26  O3  UNL     1      20.755  -7.204   7.127  1.00  0.00    -0.262 OA
HETATM   27  C19 UNL     1      22.840  -6.938   8.154  1.00  0.00     0.312 C 
HETATM   28  O4  UNL     1      22.624  -5.747   8.441  1.00  0.00    -0.262 OA
BRANCH  24  29
HETATM   29  C14 UNL     1      21.325  -9.703   6.159  1.00  0.00     0.130 C 
BRANCH  29  30
HETATM   30  C15 UNL     1      21.951  -9.890   4.786  1.00  0.00    -0.005 C 
HETATM   31  C16 UNL     1      21.642 -11.252   4.208  1.00  0.00     0.011 C 
HETATM   32  C17 UNL     1      21.324  -8.840   3.870  1.00  0.00     0.011 C 
ENDBRANCH  29  30
ENDBRANCH  24  29
ENDBRANCH  20  21
ENDBRANCH   3  20
TORSDOF 8
ENDMDL
MODEL 5
REMARK VINA RESULT: -6.958722121      3.366      5.550
REMARK  8 active torsions:
REMARK  status: ('A' for Active; 'I' for Inactive)
REMARK    1  A    between atoms: C4_9  and  C5_10 
REMARK    2  A    between atoms: C5_10  and  C6_12 
REMARK    3  A    between atoms: C6_12  and  C7_13 
REMARK    4  A    between atoms: C7_13  and  C8_14 
REMARK    5  A    between atoms: C10_16  and  C11_17 
REMARK    6  A    between atoms: C11_17  and  N3_18 
REMARK    7  A    between atoms: N4_21  and  C14_22 
REMARK    8  A    between atoms: C14_22  and  C15_23 
ROOT
HETATM    1  C8  UNL     1      23.164  -6.602   6.978  1.00  0.00     0.054 A 
HETATM    2  C9  UNL     1      22.088  -6.987   6.233  1.00  0.00     0.044 A 
HETATM    3  C10 UNL     1      22.495  -7.302   4.922  1.00  0.00    -0.009 A 
HETATM    4  C20 UNL     1      23.879  -7.056   4.969  1.00  0.00     0.057 A 
HETATM    5  C21 UNL     1      24.817  -7.211   3.835  1.00  0.00     0.077 C 
HETATM    6  O5  UNL     1      24.233  -6.667   6.146  1.00  0.00    -0.319 OA
ENDROOT
BRANCH   1   7
HETATM    7  C7  UNL     1      23.407  -6.172   8.355  1.00  0.00     0.073 C 
BRANCH   7   8
HETATM    8  C6  UNL     1      24.769  -6.365   8.889  1.00  0.00     0.092 C 
BRANCH   8   9
HETATM    9  C5  UNL     1      25.684  -5.248   8.946  1.00  0.00     0.178 C 
HETATM   10  O2  UNL     1      26.015  -4.744  10.058  1.00  0.00    -0.291 OA
BRANCH   9  11
HETATM   11  C4  UNL     1      26.239  -4.659   7.742  1.00  0.00     0.105 A 
HETATM   12  C2  UNL     1      26.192  -3.366   7.245  1.00  0.00     0.040 A 
HETATM   13  C1  UNL     1      25.575  -2.215   7.975  1.00  0.00     0.071 C 
HETATM   14  N1  UNL     1      26.750  -3.335   6.044  1.00  0.00    -0.310 N 
HETATM   15  C3  UNL     1      27.171  -4.546   5.716  1.00  0.00     0.325 A 
ATOM     16  H1  UNL     1      26.842  -2.503   5.461  1.00  0.00     0.170 HD
HETATM   17  O1  UNL     1      27.760  -4.905   4.648  1.00  0.00    -0.247 OA
HETATM   18  N2  UNL     1      26.853  -5.354   6.761  1.00  0.00    -0.304 N 
ATOM     19  H2  UNL     1      27.052  -6.354   6.800  1.00  0.00     0.171 HD
ENDBRANCH   9  11
ENDBRANCH   8   9
ENDBRANCH   7   8
ENDBRANCH   1   7
BRANCH   3  20
HETATM   20  C11 UNL     1      21.753  -8.025   3.896  1.00  0.00     0.167 C 
BRANCH  20  21
HETATM   21  N3  UNL     1      20.652  -7.357   3.265  1.00  0.00    -0.338 N 
HETATM   22  C12 UNL     1      20.233  -6.051   3.362  1.00  0.00     0.146 C 
HETATM   23  C13 UNL     1      19.586  -5.488   2.081  1.00  0.00     0.146 C 
HETATM   24  N4  UNL     1      18.661  -6.358   1.448  1.00  0.00    -0.342 N 
HETATM   25  C18 UNL     1      18.934  -7.753   1.446  1.00  0.00     0.311 C 
HETATM   26  O3  UNL     1      18.323  -8.535   0.672  1.00  0.00    -0.262 OA
HETATM   27  C19 UNL     1      19.932  -8.266   2.349  1.00  0.00     0.312 C 
HETATM   28  O4  UNL     1      20.198  -9.481   2.384  1.00  0.00    -0.262 OA
BRANCH  24  29
HETATM   29  C14 UNL     1      17.451  -5.941   0.814  1.00  0.00     0.130 C 
BRANCH  29  30
HETATM   30  C15 UNL     1      16.511  -5.104   1.667  1.00  0.00    -0.005 C 
HETATM   31  C16 UNL     1      15.350  -4.567   0.862  1.00  0.00     0.011 C 
HETATM   32  C17 UNL     1      15.945  -6.034   2.740  1.00  0.00     0.011 C 
ENDBRANCH  29  30
ENDBRANCH  24  29
ENDBRANCH  20  21
ENDBRANCH   3  20
TORSDOF 8
ENDMDL
