MODEL 1
REMARK VINA RESULT: -6.244619965      0.000      0.000
REMARK  9 active torsions:
REMARK  status: ('A' for Active; 'I' for Inactive)
REMARK    1  A    between atoms: C2_2  and  N1_3 
REMARK       I    between atoms: N1_3  and  C3_5 
REMARK       I    between atoms: C3_5  and  N3_7 
REMARK       I    between atoms: N3_7  and  C4_8 
REMARK       I    between atoms: C4_8  and  N4_9 
REMARK       I    between atoms: C4_8  and  N7_21 
REMARK    2  A    between atoms: N5_11  and  C5_13 
REMARK    3  A    between atoms: C5_13  and  N6_15 
REMARK    4  A    between atoms: N6_15  and  C6_17 
REMARK    5  A    between atoms: C6_17  and  C7_18 
REMARK    6  A    between atoms: C7_18  and  O1_19 
REMARK    7  A    between atoms: N7_21  and  C8_23 
REMARK    8  A    between atoms: C8_23  and  C9_24 
REMARK    9  A    between atoms: C10_25  and  C11_26 
ROOT
HETATM    1  N1  UNL     1      25.542  -8.509  10.912  1.00  0.00    -0.353 N 
ATOM      2  H1  UNL     1      25.310  -9.353  10.388  1.00  0.00     0.163 HD
HETATM    3  C3  UNL     1      25.003  -7.402  10.483  1.00  0.00     0.266 C 
HETATM    4  N2  UNL     1      24.163  -7.665   9.300  1.00  0.00    -0.049 NA
HETATM    5  N3  UNL     1      25.132  -6.200  10.987  1.00  0.00    -0.338 NA
HETATM    6  C4  UNL     1      25.433  -5.267  11.731  1.00  0.00     0.273 C 
HETATM    7  N4  UNL     1      26.114  -5.419  12.891  1.00  0.00    -0.257 N 
ATOM      8  H4  UNL     1      26.212  -6.433  12.946  1.00  0.00     0.191 HD
HETATM    9  N5  UNL     1      26.643  -5.081  13.845  1.00  0.00    -0.273 N 
ATOM     10  H5  UNL     1      26.985  -5.899  14.347  1.00  0.00     0.189 HD
HETATM   11  N7  UNL     1      24.949  -3.955  11.225  1.00  0.00    -0.339 N 
ATOM     12  H7  UNL     1      24.446  -3.286  11.808  1.00  0.00     0.164 HD
ENDROOT
BRANCH  11  13
HETATM   13  C8  UNL     1      25.250  -3.714   9.850  1.00  0.00     0.218 C 
BRANCH  13  14
HETATM   14  C9  UNL     1      24.770  -2.395   9.441  1.00  0.00    -0.086 C 
HETATM   15  C10 UNL     1      24.378  -1.293   9.169  1.00  0.00    -0.100 C 
BRANCH  15  16
HETATM   16  C11 UNL     1      23.906   0.062   8.899  1.00  0.00     0.065 C 
HETATM   17  C12 UNL     1      23.364   0.610  10.219  1.00  0.00     0.017 C 
HETATM   18  C13 UNL     1      22.794   1.976  10.072  1.00  0.00     0.001 C 
HETATM   19  C14 UNL     1      22.021   2.169   8.799  1.00  0.00     0.000 C 
HETATM   20  C15 UNL     1      21.649   0.843   8.222  1.00  0.00     0.001 C 
HETATM   21  C16 UNL     1      22.887   0.050   7.821  1.00  0.00     0.017 C 
ENDBRANCH  15  16
ENDBRANCH  13  14
ENDBRANCH  11  13
BRANCH   9  22
HETATM   22  C5  UNL     1      26.978  -3.933  14.552  1.00  0.00     0.186 C 
HETATM   23  S1  UNL     1      28.376  -3.126  14.170  1.00  0.00    -0.040 SA
BRANCH  22  24
HETATM   24  N6  UNL     1      26.155  -3.412  15.591  1.00  0.00    -0.364 N 
ATOM     25  H6  UNL     1      26.109  -3.927  16.471  1.00  0.00     0.162 HD
BRANCH  24  26
HETATM   26  C6  UNL     1      25.388  -2.205  15.472  1.00  0.00     0.148 C 
BRANCH  26  27
HETATM   27  C7  UNL     1      24.514  -2.229  14.240  1.00  0.00     0.183 C 
BRANCH  27  28
HETATM   28  O1  UNL     1      23.848  -3.471  14.201  1.00  0.00    -0.399 OA
ATOM     29  H1  UNL     1      23.590  -3.639  13.302  1.00  0.00     0.209 HD
ENDBRANCH  27  28
ENDBRANCH  26  27
ENDBRANCH  24  26
ENDBRANCH  22  24
ENDBRANCH   9  22
BRANCH   1  30
HETATM   30  C2  UNL     1      26.409  -8.681  12.018  1.00  0.00     0.119 C 
HETATM   31  C1  UNL     1      25.560  -8.990  13.252  1.00  0.00     0.026 C 
ENDBRANCH   1  30
TORSDOF 9
ENDMDL
MODEL 2
REMARK VINA RESULT: -6.215055859      3.335      5.587
REMARK  9 active torsions:
REMARK  status: ('A' for Active; 'I' for Inactive)
REMARK    1  A    between atoms: C2_2  and  N1_3 
REMARK       I    between atoms: N1_3  and  C3_5 
REMARK       I    between atoms: C3_5  and  N3_7 
REMARK       I    between atoms: N3_7  and  C4_8 
REMARK       I    between atoms: C4_8  and  N4_9 
REMARK       I    between atoms: C4_8  and  N7_21 
REMARK    2  A    between atoms: N5_11  and  C5_13 
REMARK    3  A    between atoms: C5_13  and  N6_15 
REMARK    4  A    between atoms: N6_15  and  C6_17 
REMARK    5  A    between atoms: C6_17  and  C7_18 
REMARK    6  A    between atoms: C7_18  and  O1_19 
REMARK    7  A    between atoms: N7_21  and  C8_23 
REMARK    8  A    between atoms: C8_23  and  C9_24 
REMARK    9  A    between atoms: C10_25  and  C11_26 
ROOT
HETATM    1  N1  UNL     1      30.711  -0.407  15.220  1.00  0.00    -0.353 N 
ATOM      2  H1  UNL     1      31.635   0.019  15.301  1.00  0.00     0.163 HD
HETATM    3  C3  UNL     1      30.224  -0.493  14.014  1.00  0.00     0.266 C 
HETATM    4  N2  UNL     1      31.171   0.073  13.036  1.00  0.00    -0.049 NA
HETATM    5  N3  UNL     1      29.076  -1.006  13.648  1.00  0.00    -0.338 NA
HETATM    6  C4  UNL     1      27.992  -1.590  13.671  1.00  0.00     0.273 C 
HETATM    7  N4  UNL     1      27.470  -2.166  14.779  1.00  0.00    -0.257 N 
ATOM      8  H4  UNL     1      28.214  -2.020  15.462  1.00  0.00     0.191 HD
HETATM    9  N5  UNL     1      26.688  -2.720  15.400  1.00  0.00    -0.273 N 
ATOM     10  H5  UNL     1      27.037  -2.841  16.350  1.00  0.00     0.189 HD
HETATM   11  N7  UNL     1      27.328  -1.610  12.340  1.00  0.00    -0.339 N 
ATOM     12  H7  UNL     1      26.939  -2.458  11.927  1.00  0.00     0.164 HD
ENDROOT
BRANCH  11  13
HETATM   13  C8  UNL     1      27.283  -0.339  11.693  1.00  0.00     0.218 C 
BRANCH  13  14
HETATM   14  C9  UNL     1      25.936  -0.062  11.195  1.00  0.00    -0.086 C 
HETATM   15  C10 UNL     1      24.835   0.111  10.749  1.00  0.00    -0.100 C 
BRANCH  15  16
HETATM   16  C11 UNL     1      23.502   0.267  10.174  1.00  0.00     0.065 C 
HETATM   17  C12 UNL     1      23.631  -0.022   8.678  1.00  0.00     0.017 C 
HETATM   18  C13 UNL     1      22.344   0.159   7.955  1.00  0.00     0.001 C 
HETATM   19  C14 UNL     1      21.551   1.342   8.430  1.00  0.00     0.000 C 
HETATM   20  C15 UNL     1      22.435   2.279   9.186  1.00  0.00     0.001 C 
HETATM   21  C16 UNL     1      22.974   1.626  10.452  1.00  0.00     0.017 C 
ENDBRANCH  15  16
ENDBRANCH  13  14
ENDBRANCH  11  13
BRANCH   9  22
HETATM   22  C5  UNL     1      25.423  -3.284  15.300  1.00  0.00     0.186 C 
HETATM   23  S1  UNL     1      24.300  -2.581  14.302  1.00  0.00    -0.040 SA
BRANCH  22  24
HETATM   24  N6  UNL     1      25.055  -4.458  16.016  1.00  0.00    -0.364 N 
ATOM     25  H6  UNL     1      24.418  -4.359  16.807  1.00  0.00     0.162 HD
BRANCH  24  26
HETATM   26  C6  UNL     1      25.528  -5.773  15.689  1.00  0.00     0.148 C 
BRANCH  26  27
HETATM   27  C7  UNL     1      24.657  -6.427  14.641  1.00  0.00     0.183 C 
BRANCH  27  28
HETATM   28  O1  UNL     1      23.605  -7.093  15.303  1.00  0.00    -0.399 OA
ATOM     29  H1  UNL     1      23.234  -7.727  14.700  1.00  0.00     0.209 HD
ENDBRANCH  27  28
ENDBRANCH  26  27
ENDBRANCH  24  26
ENDBRANCH  22  24
ENDBRANCH   9  22
BRANCH   1  30
HETATM   30  C2  UNL     1      30.114  -0.834  16.431  1.00  0.00     0.119 C 
HETATM   31  C1  UNL     1      30.557   0.114  17.546  1.00  0.00     0.026 C 
ENDBRANCH   1  30
TORSDOF 9
ENDMDL
MODEL 3
REMARK VINA RESULT: -6.107618383      3.049      4.978
REMARK  9 active torsions:
REMARK  status: ('A' for Active; 'I' for Inactive)
REMARK    1  A    between atoms: C2_2  and  N1_3 
REMARK       I    between atoms: N1_3  and  C3_5 
REMARK       I    between atoms: C3_5  and  N3_7 
REMARK       I    between atoms: N3_7  and  C4_8 
REMARK       I    between atoms: C4_8  and  N4_9 
REMARK       I    between atoms: C4_8  and  N7_21 
REMARK    2  A    between atoms: N5_11  and  C5_13 
REMARK    3  A    between atoms: C5_13  and  N6_15 
REMARK    4  A    between atoms: N6_15  and  C6_17 
REMARK    5  A    between atoms: C6_17  and  C7_18 
REMARK    6  A    between atoms: C7_18  and  O1_19 
REMARK    7  A    between atoms: N7_21  and  C8_23 
REMARK    8  A    between atoms: C8_23  and  C9_24 
REMARK    9  A    between atoms: C10_25  and  C11_26 
ROOT
HETATM    1  N1  UNL     1      24.293  -4.975  14.087  1.00  0.00    -0.353 N 
ATOM      2  H1  UNL     1      23.911  -5.212  15.003  1.00  0.00     0.163 HD
HETATM    3  C3  UNL     1      25.154  -3.996  14.061  1.00  0.00     0.266 C 
HETATM    4  N2  UNL     1      25.362  -3.460  15.418  1.00  0.00    -0.049 NA
HETATM    5  N3  UNL     1      25.790  -3.516  13.021  1.00  0.00    -0.338 NA
HETATM    6  C4  UNL     1      26.223  -3.364  11.879  1.00  0.00     0.273 C 
HETATM    7  N4  UNL     1      25.933  -4.192  10.848  1.00  0.00    -0.257 N 
ATOM      8  H4  UNL     1      25.369  -4.908  11.306  1.00  0.00     0.191 HD
HETATM    9  N5  UNL     1      25.949  -4.562   9.768  1.00  0.00    -0.273 N 
ATOM     10  H5  UNL     1      25.413  -5.427   9.701  1.00  0.00     0.189 HD
HETATM   11  N7  UNL     1      27.118  -2.182  11.761  1.00  0.00    -0.339 N 
ATOM     12  H7  UNL     1      28.031  -2.220  11.309  1.00  0.00     0.164 HD
ENDROOT
BRANCH  11  13
HETATM   13  C8  UNL     1      26.584  -0.989  12.337  1.00  0.00     0.218 C 
BRANCH  13  14
HETATM   14  C9  UNL     1      25.425  -0.524  11.576  1.00  0.00    -0.086 C 
HETATM   15  C10 UNL     1      24.446  -0.201  10.962  1.00  0.00    -0.100 C 
BRANCH  15  16
HETATM   16  C11 UNL     1      23.229   0.137  10.229  1.00  0.00     0.065 C 
HETATM   17  C12 UNL     1      23.487  -0.214   8.763  1.00  0.00     0.017 C 
HETATM   18  C13 UNL     1      22.336   0.137   7.888  1.00  0.00     0.001 C 
HETATM   19  C14 UNL     1      21.683   1.438   8.250  1.00  0.00     0.000 C 
HETATM   20  C15 UNL     1      22.604   2.255   9.095  1.00  0.00     0.001 C 
HETATM   21  C16 UNL     1      22.886   1.567  10.425  1.00  0.00     0.017 C 
ENDBRANCH  15  16
ENDBRANCH  13  14
ENDBRANCH  11  13
BRANCH   9  22
HETATM   22  C5  UNL     1      26.450  -4.233   8.515  1.00  0.00     0.186 C 
HETATM   23  S1  UNL     1      27.914  -4.851   8.041  1.00  0.00    -0.040 SA
BRANCH  22  24
HETATM   24  N6  UNL     1      25.743  -3.390   7.610  1.00  0.00    -0.364 N 
ATOM     25  H6  UNL     1      24.743  -3.258   7.758  1.00  0.00     0.162 HD
BRANCH  24  26
HETATM   26  C6  UNL     1      26.358  -2.716   6.502  1.00  0.00     0.148 C 
BRANCH  26  27
HETATM   27  C7  UNL     1      26.018  -3.389   5.192  1.00  0.00     0.183 C 
BRANCH  27  28
HETATM   28  O1  UNL     1      24.632  -3.644   5.181  1.00  0.00    -0.399 OA
ATOM     29  H1  UNL     1      24.201  -2.912   4.754  1.00  0.00     0.209 HD
ENDBRANCH  27  28
ENDBRANCH  26  27
ENDBRANCH  24  26
ENDBRANCH  22  24
ENDBRANCH   9  22
BRANCH   1  30
HETATM   30  C2  UNL     1      23.824  -5.749  12.998  1.00  0.00     0.119 C 
HETATM   31  C1  UNL     1      24.713  -6.987  12.870  1.00  0.00     0.026 C 
ENDBRANCH   1  30
TORSDOF 9
ENDMDL
MODEL 4
REMARK VINA RESULT: -6.105587031      1.940      2.187
REMARK  9 active torsions:
REMARK  status: ('A' for Active; 'I' for Inactive)
REMARK    1  A    between atoms: C2_2  and  N1_3 
REMARK       I    between atoms: N1_3  and  C3_5 
REMARK       I    between atoms: C3_5  and  N3_7 
REMARK       I    between atoms: N3_7  and  C4_8 
REMARK       I    between atoms: C4_8  and  N4_9 
REMARK       I    between atoms: C4_8  and  N7_21 
REMARK    2  A    between atoms: N5_11  and  C5_13 
REMARK    3  A    between atoms: C5_13  and  N6_15 
REMARK    4  A    between atoms: N6_15  and  C6_17 
REMARK    5  A    between atoms: C6_17  and  C7_18 
REMARK    6  A    between atoms: C7_18  and  O1_19 
REMARK    7  A    between atoms: N7_21  and  C8_23 
REMARK    8  A    between atoms: C8_23  and  C9_24 
REMARK    9  A    between atoms: C10_25  and  C11_26 
ROOT
HETATM    1  N1  UNL     1      25.985  -8.902   8.836  1.00  0.00    -0.353 N 
ATOM      2  H1  UNL     1      26.243  -9.442   8.010  1.00  0.00     0.163 HD
HETATM    3  C3  UNL     1      25.557  -7.690   8.617  1.00  0.00     0.266 C 
HETATM    4  N2  UNL     1      25.556  -7.399   7.171  1.00  0.00    -0.049 NA
HETATM    5  N3  UNL     1      25.156  -6.810   9.500  1.00  0.00    -0.338 NA
HETATM    6  C4  UNL     1      24.820  -6.282  10.560  1.00  0.00     0.273 C 
HETATM    7  N4  UNL     1      24.784  -6.933  11.746  1.00  0.00    -0.257 N 
ATOM      8  H4  UNL     1      25.033  -7.883  11.472  1.00  0.00     0.191 HD
HETATM    9  N5  UNL     1      24.638  -7.044  12.873  1.00  0.00    -0.273 N 
ATOM     10  H5  UNL     1      24.809  -8.014  13.140  1.00  0.00     0.189 HD
HETATM   11  N7  UNL     1      24.437  -4.855  10.390  1.00  0.00    -0.339 N 
ATOM     12  H7  UNL     1      23.580  -4.460  10.777  1.00  0.00     0.164 HD
ENDROOT
BRANCH  11  13
HETATM   13  C8  UNL     1      25.377  -4.086   9.638  1.00  0.00     0.218 C 
BRANCH  13  14
HETATM   14  C9  UNL     1      24.939  -2.694   9.536  1.00  0.00    -0.086 C 
HETATM   15  C10 UNL     1      24.594  -1.554   9.388  1.00  0.00    -0.100 C 
BRANCH  15  16
HETATM   16  C11 UNL     1      24.186  -0.173   9.147  1.00  0.00     0.065 C 
HETATM   17  C12 UNL     1      23.582   0.342  10.454  1.00  0.00     0.017 C 
HETATM   18  C13 UNL     1      23.069   1.733  10.330  1.00  0.00     0.001 C 
HETATM   19  C14 UNL     1      22.384   2.003   9.022  1.00  0.00     0.000 C 
HETATM   20  C15 UNL     1      22.003   0.716   8.369  1.00  0.00     0.001 C 
HETATM   21  C16 UNL     1      23.236  -0.105   8.010  1.00  0.00     0.017 C 
ENDBRANCH  15  16
ENDBRANCH  13  14
ENDBRANCH  11  13
BRANCH   9  22
HETATM   22  C5  UNL     1      24.306  -6.308  14.004  1.00  0.00     0.186 C 
HETATM   23  S1  UNL     1      24.415  -7.025  15.496  1.00  0.00    -0.040 SA
BRANCH  22  24
HETATM   24  N6  UNL     1      23.887  -4.950  13.932  1.00  0.00    -0.364 N 
ATOM     25  H6  UNL     1      22.894  -4.747  14.042  1.00  0.00     0.162 HD
BRANCH  24  26
HETATM   26  C6  UNL     1      24.783  -3.849  13.713  1.00  0.00     0.148 C 
BRANCH  26  27
HETATM   27  C7  UNL     1      24.338  -2.619  14.469  1.00  0.00     0.183 C 
BRANCH  27  28
HETATM   28  O1  UNL     1      24.520  -2.865  15.846  1.00  0.00    -0.399 OA
ATOM     29  H1  UNL     1      23.680  -3.118  16.212  1.00  0.00     0.209 HD
ENDBRANCH  27  28
ENDBRANCH  26  27
ENDBRANCH  24  26
ENDBRANCH  22  24
ENDBRANCH   9  22
BRANCH   1  30
HETATM   30  C2  UNL     1      26.136  -9.558  10.081  1.00  0.00     0.119 C 
HETATM   31  C1  UNL     1      27.549  -9.286  10.600  1.00  0.00     0.026 C 
ENDBRANCH   1  30
TORSDOF 9
ENDMDL
MODEL 5
REMARK VINA RESULT: -6.055838715      2.621      5.082
REMARK  9 active torsions:
REMARK  status: ('A' for Active; 'I' for Inactive)
REMARK    1  A    between atoms: C2_2  and  N1_3 
REMARK       I    between atoms: N1_3  and  C3_5 
REMARK       I    between atoms: C3_5  and  N3_7 
REMARK       I    between atoms: N3_7  and  C4_8 
REMARK       I    between atoms: C4_8  and  N4_9 
REMARK       I    between atoms: C4_8  and  N7_21 
REMARK    2  A    between atoms: N5_11  and  C5_13 
REMARK    3  A    between atoms: C5_13  and  N6_15 
REMARK    4  A    between atoms: N6_15  and  C6_17 
REMARK    5  A    between atoms: C6_17  and  C7_18 
REMARK    6  A    between atoms: C7_18  and  O1_19 
REMARK    7  A    between atoms: N7_21  and  C8_23 
REMARK    8  A    between atoms: C8_23  and  C9_24 
REMARK    9  A    between atoms: C10_25  and  C11_26 
ROOT
HETATM    1  N1  UNL     1      26.254  -2.982  15.586  1.00  0.00    -0.353 N 
ATOM      2  H1  UNL     1      26.304  -2.800  16.588  1.00  0.00     0.163 HD
HETATM    3  C3  UNL     1      26.948  -2.185  14.822  1.00  0.00     0.266 C 
HETATM    4  N2  UNL     1      27.656  -1.180  15.639  1.00  0.00    -0.049 NA
HETATM    5  N3  UNL     1      27.059  -2.219  13.518  1.00  0.00    -0.338 NA
HETATM    6  C4  UNL     1      26.969  -2.574  12.343  1.00  0.00     0.273 C 
HETATM    7  N4  UNL     1      26.346  -3.707  11.944  1.00  0.00    -0.257 N 
ATOM      8  H4  UNL     1      26.078  -4.124  12.836  1.00  0.00     0.191 HD
HETATM    9  N5  UNL     1      25.943  -4.472  11.198  1.00  0.00    -0.273 N 
ATOM     10  H5  UNL     1      25.496  -5.235  11.706  1.00  0.00     0.189 HD
HETATM   11  N7  UNL     1      27.640  -1.630  11.409  1.00  0.00    -0.339 N 
ATOM     12  H7  UNL     1      28.286  -1.935  10.680  1.00  0.00     0.164 HD
ENDROOT
BRANCH  11  13
HETATM   13  C8  UNL     1      27.301  -0.260  11.624  1.00  0.00     0.218 C 
BRANCH  13  14
HETATM   14  C9  UNL     1      25.950   0.018  11.136  1.00  0.00    -0.086 C 
HETATM   15  C10 UNL     1      24.841   0.186  10.710  1.00  0.00    -0.100 C 
BRANCH  15  16
HETATM   16  C11 UNL     1      23.491   0.330  10.171  1.00  0.00     0.065 C 
HETATM   17  C12 UNL     1      23.556  -0.097   8.704  1.00  0.00     0.017 C 
HETATM   18  C13 UNL     1      22.248   0.057   8.013  1.00  0.00     0.001 C 
HETATM   19  C14 UNL     1      21.506   1.302   8.406  1.00  0.00     0.000 C 
HETATM   20  C15 UNL     1      22.443   2.276   9.041  1.00  0.00     0.001 C 
HETATM   21  C16 UNL     1      23.012   1.724  10.342  1.00  0.00     0.017 C 
ENDBRANCH  15  16
ENDBRANCH  13  14
ENDBRANCH  11  13
BRANCH   9  22
HETATM   22  C5  UNL     1      25.855  -4.715   9.833  1.00  0.00     0.186 C 
HETATM   23  S1  UNL     1      26.071  -3.459   8.772  1.00  0.00    -0.040 SA
BRANCH  22  24
HETATM   24  N6  UNL     1      25.597  -6.013   9.307  1.00  0.00    -0.364 N 
ATOM     25  H6  UNL     1      25.964  -6.238   8.382  1.00  0.00     0.162 HD
BRANCH  24  26
HETATM   26  C6  UNL     1      24.849  -7.021  10.002  1.00  0.00     0.148 C 
BRANCH  26  27
HETATM   27  C7  UNL     1      24.722  -8.280   9.175  1.00  0.00     0.183 C 
BRANCH  27  28
HETATM   28  O1  UNL     1      23.647  -8.106   8.279  1.00  0.00    -0.399 OA
ATOM     29  H1  UNL     1      23.087  -8.871   8.342  1.00  0.00     0.209 HD
ENDBRANCH  27  28
ENDBRANCH  26  27
ENDBRANCH  24  26
ENDBRANCH  22  24
ENDBRANCH   9  22
BRANCH   1  30
HETATM   30  C2  UNL     1      25.440  -4.071  15.191  1.00  0.00     0.119 C 
HETATM   31  C1  UNL     1      26.305  -5.332  15.161  1.00  0.00     0.026 C 
ENDBRANCH   1  30
TORSDOF 9
ENDMDL
