MODEL 1
REMARK VINA RESULT: -7.128728785      0.000      0.000
REMARK  8 active torsions:
REMARK  status: ('A' for Active; 'I' for Inactive)
REMARK    1  A    between atoms: C2_2  and  C3_3 
REMARK    2  A    between atoms: C3_3  and  C4_4 
REMARK    3  A    between atoms: C3_3  and  C8_12 
REMARK    4  A    between atoms: C4_4  and  C5_5 
REMARK    5  A    between atoms: C5_5  and  N1_6 
REMARK       I    between atoms: N1_6  and  C6_8 
REMARK    6  A    between atoms: C6_8  and  C7_10 
REMARK    7  A    between atoms: C13_18  and  C14_19 
REMARK    8  A    between atoms: C18_23  and  O2_24 
ROOT
HETATM    1  C8  UNL     1     -14.824   0.688 -16.446  1.00  0.00     0.003 C 
HETATM    2  C9  UNL     1     -15.132   1.959 -15.643  1.00  0.00     0.008 C 
HETATM    3  C10 UNL     1     -16.635   2.142 -15.698  1.00  0.00     0.027 C 
HETATM    4  C11 UNL     1     -16.922   1.767 -17.081  1.00  0.00     0.049 C 
HETATM    5 CL2  UNL     1     -16.176   3.018 -18.137  1.00  0.00    -0.118 Cl
HETATM    6  C12 UNL     1     -18.288   1.409 -17.478  1.00  0.00     0.019 C 
HETATM    7  C13 UNL     1     -19.401   2.321 -17.116  1.00  0.00    -0.003 C 
HETATM    8  C17 UNL     1     -20.666   1.674 -17.720  1.00  0.00     0.038 C 
HETATM    9  C18 UNL     1     -20.666   1.801 -19.214  1.00  0.00     0.126 C 
HETATM   10  C19 UNL     1     -19.478   1.031 -19.709  1.00  0.00    -0.018 C 
HETATM   11  C20 UNL     1     -19.810  -0.446 -19.759  1.00  0.00     0.018 C 
HETATM   12  C21 UNL     1     -19.297   1.469 -21.165  1.00  0.00     0.018 C 
HETATM   13  C22 UNL     1     -18.203   1.335 -19.010  1.00  0.00     0.002 C 
HETATM   14  C23 UNL     1     -17.220   0.292 -19.431  1.00  0.00     0.007 C 
HETATM   15  C24 UNL     1     -15.890   0.323 -18.724  1.00  0.00     0.012 C 
HETATM   16  C25 UNL     1     -16.025   0.525 -17.265  1.00  0.00    -0.018 C 
HETATM   17  C26 UNL     1     -16.777  -0.691 -16.657  1.00  0.00     0.018 C 
ENDROOT
BRANCH   1  18
HETATM   18  C3  UNL     1     -13.479   0.846 -17.021  1.00  0.00     0.014 C 
BRANCH  18  19
HETATM   19  C2  UNL     1     -12.632  -0.353 -17.166  1.00  0.00    -0.032 C 
HETATM   20  C1  UNL     1     -12.967  -1.531 -16.651  1.00  0.00     0.007 C 
ENDBRANCH  18  19
BRANCH  18  21
HETATM   21  C4  UNL     1     -12.681   1.840 -16.196  1.00  0.00     0.028 C 
BRANCH  21  22
HETATM   22  C5  UNL     1     -11.582   2.501 -16.984  1.00  0.00     0.123 C 
BRANCH  22  23
HETATM   23  N1  UNL     1     -11.819   3.933 -17.165  1.00  0.00    -0.360 N 
HETATM   24  C6  UNL     1     -12.544   4.405 -18.275  1.00  0.00     0.231 C 
HETATM   25  O1  UNL     1     -13.045   3.724 -19.190  1.00  0.00    -0.272 OA
ATOM     26  H1  UNL     1     -11.455   4.596 -16.481  1.00  0.00     0.162 HD
BRANCH  24  27
HETATM   27  C7  UNL     1     -12.757   5.890 -18.400  1.00  0.00     0.217 C 
HETATM   28 CL1  UNL     1     -11.176   6.639 -18.689  1.00  0.00    -0.121 Cl
ENDBRANCH  24  27
ENDBRANCH  22  23
ENDBRANCH  21  22
ENDBRANCH  18  21
ENDBRANCH   1  18
BRANCH   7  29
HETATM   29  C14 UNL     1     -19.761   2.461 -15.685  1.00  0.00    -0.018 C 
HETATM   30  C15 UNL     1     -20.271   1.160 -15.077  1.00  0.00     0.010 C 
HETATM   31  C16 UNL     1     -20.962   3.424 -15.626  1.00  0.00     0.010 C 
ENDBRANCH   7  29
BRANCH   9  32
HETATM   32  O2  UNL     1     -20.710   3.104 -19.644  1.00  0.00    -0.395 OA
ATOM     33  H2  UNL     1     -20.349   3.222 -20.515  1.00  0.00     0.210 HD
ENDBRANCH   9  32
TORSDOF 8
ENDMDL
MODEL 2
REMARK VINA RESULT: -6.946705523      3.195      7.482
REMARK  8 active torsions:
REMARK  status: ('A' for Active; 'I' for Inactive)
REMARK    1  A    between atoms: C2_2  and  C3_3 
REMARK    2  A    between atoms: C3_3  and  C4_4 
REMARK    3  A    between atoms: C3_3  and  C8_12 
REMARK    4  A    between atoms: C4_4  and  C5_5 
REMARK    5  A    between atoms: C5_5  and  N1_6 
REMARK       I    between atoms: N1_6  and  C6_8 
REMARK    6  A    between atoms: C6_8  and  C7_10 
REMARK    7  A    between atoms: C13_18  and  C14_19 
REMARK    8  A    between atoms: C18_23  and  O2_24 
ROOT
HETATM    1  C8  UNL     1     -17.713   2.655 -17.120  1.00  0.00     0.003 C 
HETATM    2  C9  UNL     1     -16.940   3.231 -15.925  1.00  0.00     0.008 C 
HETATM    3  C10 UNL     1     -15.469   3.064 -16.250  1.00  0.00     0.027 C 
HETATM    4  C11 UNL     1     -15.459   1.743 -16.875  1.00  0.00     0.049 C 
HETATM    5 CL2  UNL     1     -15.880   0.548 -15.597  1.00  0.00    -0.118 Cl
HETATM    6  C12 UNL     1     -14.323   1.332 -17.706  1.00  0.00     0.019 C 
HETATM    7  C13 UNL     1     -12.949   1.484 -17.167  1.00  0.00    -0.003 C 
HETATM    8  C17 UNL     1     -12.020   0.919 -18.264  1.00  0.00     0.038 C 
HETATM    9  C18 UNL     1     -12.134  -0.574 -18.339  1.00  0.00     0.126 C 
HETATM   10  C19 UNL     1     -13.549  -0.876 -18.738  1.00  0.00    -0.018 C 
HETATM   11  C20 UNL     1     -13.704  -0.713 -20.236  1.00  0.00     0.018 C 
HETATM   12  C21 UNL     1     -13.732  -2.370 -18.459  1.00  0.00     0.018 C 
HETATM   13  C22 UNL     1     -14.584  -0.163 -17.947  1.00  0.00     0.002 C 
HETATM   14  C23 UNL     1     -15.882  -0.360 -18.659  1.00  0.00     0.007 C 
HETATM   15  C24 UNL     1     -17.055   0.406 -18.105  1.00  0.00     0.012 C 
HETATM   16  C25 UNL     1     -16.715   1.806 -17.770  1.00  0.00    -0.018 C 
HETATM   17  C26 UNL     1     -16.324   2.554 -19.075  1.00  0.00     0.018 C 
ENDROOT
BRANCH   1  18
HETATM   18  C3  UNL     1     -18.991   2.138 -16.609  1.00  0.00     0.014 C 
BRANCH  18  19
HETATM   19  C2  UNL     1     -20.204   2.331 -17.427  1.00  0.00    -0.032 C 
HETATM   20  C1  UNL     1     -20.189   2.264 -18.753  1.00  0.00     0.007 C 
ENDBRANCH  18  19
BRANCH  18  21
HETATM   21  C4  UNL     1     -19.287   2.749 -15.250  1.00  0.00     0.028 C 
BRANCH  21  22
HETATM   22  C5  UNL     1     -20.584   3.513 -15.225  1.00  0.00     0.123 C 
BRANCH  22  23
HETATM   23  N1  UNL     1     -21.361   3.238 -14.017  1.00  0.00    -0.360 N 
HETATM   24  C6  UNL     1     -22.296   2.187 -13.990  1.00  0.00     0.231 C 
HETATM   25  O1  UNL     1     -22.575   1.405 -14.918  1.00  0.00    -0.272 OA
ATOM     26  H1  UNL     1     -21.224   3.814 -13.186  1.00  0.00     0.162 HD
BRANCH  24  27
HETATM   27  C7  UNL     1     -23.060   1.954 -12.713  1.00  0.00     0.217 C 
HETATM   28 CL1  UNL     1     -21.894   1.977 -11.377  1.00  0.00    -0.121 Cl
ENDBRANCH  24  27
ENDBRANCH  22  23
ENDBRANCH  21  22
ENDBRANCH  18  21
ENDBRANCH   1  18
BRANCH   7  29
HETATM   29  C14 UNL     1     -12.418   2.854 -16.967  1.00  0.00    -0.018 C 
HETATM   30  C15 UNL     1     -12.511   3.710 -18.225  1.00  0.00     0.010 C 
HETATM   31  C16 UNL     1     -10.908   2.705 -16.700  1.00  0.00     0.010 C 
ENDBRANCH   7  29
BRANCH   9  32
HETATM   32  O2  UNL     1     -11.729  -1.204 -17.189  1.00  0.00    -0.395 OA
ATOM     33  H2  UNL     1     -11.515  -2.121 -17.321  1.00  0.00     0.210 HD
ENDBRANCH   9  32
TORSDOF 8
ENDMDL
MODEL 3
REMARK VINA RESULT: -6.668955659      3.045      7.265
REMARK  8 active torsions:
REMARK  status: ('A' for Active; 'I' for Inactive)
REMARK    1  A    between atoms: C2_2  and  C3_3 
REMARK    2  A    between atoms: C3_3  and  C4_4 
REMARK    3  A    between atoms: C3_3  and  C8_12 
REMARK    4  A    between atoms: C4_4  and  C5_5 
REMARK    5  A    between atoms: C5_5  and  N1_6 
REMARK       I    between atoms: N1_6  and  C6_8 
REMARK    6  A    between atoms: C6_8  and  C7_10 
REMARK    7  A    between atoms: C13_18  and  C14_19 
REMARK    8  A    between atoms: C18_23  and  O2_24 
ROOT
HETATM    1  C8  UNL     1     -17.041   2.021 -17.078  1.00  0.00     0.003 C 
HETATM    2  C9  UNL     1     -17.394   2.277 -18.549  1.00  0.00     0.008 C 
HETATM    3  C10 UNL     1     -16.634   1.244 -19.355  1.00  0.00     0.027 C 
HETATM    4  C11 UNL     1     -15.354   1.211 -18.650  1.00  0.00     0.049 C 
HETATM    5 CL2  UNL     1     -14.563   2.806 -18.911  1.00  0.00    -0.118 Cl
HETATM    6  C12 UNL     1     -14.446   0.075 -18.827  1.00  0.00     0.019 C 
HETATM    7  C13 UNL     1     -14.108  -0.365 -20.204  1.00  0.00    -0.003 C 
HETATM    8  C17 UNL     1     -13.110  -1.529 -20.023  1.00  0.00     0.038 C 
HETATM    9  C18 UNL     1     -11.781  -1.022 -19.549  1.00  0.00     0.126 C 
HETATM   10  C19 UNL     1     -12.013  -0.406 -18.201  1.00  0.00    -0.018 C 
HETATM   11  C20 UNL     1     -12.061  -1.490 -17.145  1.00  0.00     0.018 C 
HETATM   12  C21 UNL     1     -10.748   0.406 -17.911  1.00  0.00     0.018 C 
HETATM   13  C22 UNL     1     -13.155   0.543 -18.139  1.00  0.00     0.002 C 
HETATM   14  C23 UNL     1     -13.403   0.824 -16.693  1.00  0.00     0.007 C 
HETATM   15  C24 UNL     1     -14.621   1.657 -16.389  1.00  0.00     0.012 C 
HETATM   16  C25 UNL     1     -15.805   1.244 -17.174  1.00  0.00    -0.018 C 
HETATM   17  C26 UNL     1     -16.195  -0.204 -16.770  1.00  0.00     0.018 C 
ENDROOT
BRANCH   1  18
HETATM   18  C3  UNL     1     -17.121   3.311 -16.375  1.00  0.00     0.014 C 
BRANCH  18  19
HETATM   19  C2  UNL     1     -16.048   3.661 -15.425  1.00  0.00    -0.032 C 
HETATM   20  C1  UNL     1     -16.182   4.624 -14.520  1.00  0.00     0.007 C 
ENDBRANCH  18  19
BRANCH  18  21
HETATM   21  C4  UNL     1     -18.425   3.394 -15.601  1.00  0.00     0.028 C 
BRANCH  21  22
HETATM   22  C5  UNL     1     -19.326   2.213 -15.849  1.00  0.00     0.123 C 
BRANCH  22  23
HETATM   23  N1  UNL     1     -20.381   2.105 -14.842  1.00  0.00    -0.360 N 
HETATM   24  C6  UNL     1     -21.470   2.997 -14.847  1.00  0.00     0.231 C 
HETATM   25  O1  UNL     1     -21.672   3.932 -15.645  1.00  0.00    -0.272 OA
ATOM     26  H1  UNL     1     -20.327   1.377 -14.130  1.00  0.00     0.162 HD
BRANCH  24  27
HETATM   27  C7  UNL     1     -22.525   2.828 -13.786  1.00  0.00     0.217 C 
HETATM   28 CL1  UNL     1     -21.707   2.368 -12.282  1.00  0.00    -0.121 Cl
ENDBRANCH  24  27
ENDBRANCH  22  23
ENDBRANCH  21  22
ENDBRANCH  18  21
ENDBRANCH   1  18
BRANCH   7  29
HETATM   29  C14 UNL     1     -15.174  -0.977 -21.031  1.00  0.00    -0.018 C 
HETATM   30  C15 UNL     1     -14.925  -2.455 -21.312  1.00  0.00     0.010 C 
HETATM   31  C16 UNL     1     -15.107  -0.294 -22.410  1.00  0.00     0.010 C 
ENDBRANCH   7  29
BRANCH   9  32
HETATM   32  O2  UNL     1     -11.170  -0.187 -20.451  1.00  0.00    -0.395 OA
ATOM     33  H2  UNL     1     -11.368   0.731 -20.303  1.00  0.00     0.210 HD
ENDBRANCH   9  32
TORSDOF 8
ENDMDL
MODEL 4
REMARK VINA RESULT: -6.613636321      3.314      6.787
REMARK  8 active torsions:
REMARK  status: ('A' for Active; 'I' for Inactive)
REMARK    1  A    between atoms: C2_2  and  C3_3 
REMARK    2  A    between atoms: C3_3  and  C4_4 
REMARK    3  A    between atoms: C3_3  and  C8_12 
REMARK    4  A    between atoms: C4_4  and  C5_5 
REMARK    5  A    between atoms: C5_5  and  N1_6 
REMARK       I    between atoms: N1_6  and  C6_8 
REMARK    6  A    between atoms: C6_8  and  C7_10 
REMARK    7  A    between atoms: C13_18  and  C14_19 
REMARK    8  A    between atoms: C18_23  and  O2_24 
ROOT
HETATM    1  C8  UNL     1     -16.151   2.923 -16.663  1.00  0.00     0.003 C 
HETATM    2  C9  UNL     1     -15.371   2.027 -15.692  1.00  0.00     0.008 C 
HETATM    3  C10 UNL     1     -14.434   1.193 -16.543  1.00  0.00     0.027 C 
HETATM    4  C11 UNL     1     -15.285   0.881 -17.689  1.00  0.00     0.049 C 
HETATM    5 CL2  UNL     1     -16.600  -0.196 -17.098  1.00  0.00    -0.118 Cl
HETATM    6  C12 UNL     1     -14.685   0.430 -18.949  1.00  0.00     0.019 C 
HETATM    7  C13 UNL     1     -13.704  -0.682 -18.918  1.00  0.00    -0.003 C 
HETATM    8  C17 UNL     1     -13.321  -0.924 -20.394  1.00  0.00     0.038 C 
HETATM    9  C18 UNL     1     -14.454  -1.563 -21.140  1.00  0.00     0.126 C 
HETATM   10  C19 UNL     1     -15.588  -0.581 -21.117  1.00  0.00    -0.018 C 
HETATM   11  C20 UNL     1     -15.376   0.470 -22.187  1.00  0.00     0.018 C 
HETATM   12  C21 UNL     1     -16.817  -1.382 -21.555  1.00  0.00     0.018 C 
HETATM   13  C22 UNL     1     -15.898  -0.018 -19.777  1.00  0.00     0.002 C 
HETATM   14  C23 UNL     1     -16.836   1.123 -19.996  1.00  0.00     0.007 C 
HETATM   15  C24 UNL     1     -17.171   1.938 -18.774  1.00  0.00     0.012 C 
HETATM   16  C25 UNL     1     -15.983   2.234 -17.943  1.00  0.00    -0.018 C 
HETATM   17  C26 UNL     1     -15.005   3.120 -18.763  1.00  0.00     0.018 C 
ENDROOT
BRANCH   1  18
HETATM   18  C3  UNL     1     -17.468   3.181 -16.062  1.00  0.00     0.014 C 
BRANCH  18  19
HETATM   19  C2  UNL     1     -17.547   4.106 -14.915  1.00  0.00    -0.032 C 
HETATM   20  C1  UNL     1     -16.612   5.016 -14.666  1.00  0.00     0.007 C 
ENDBRANCH  18  19
BRANCH  18  21
HETATM   21  C4  UNL     1     -18.089   1.873 -15.603  1.00  0.00     0.028 C 
BRANCH  21  22
HETATM   22  C5  UNL     1     -19.511   1.709 -16.069  1.00  0.00     0.123 C 
BRANCH  22  23
HETATM   23  N1  UNL     1     -20.470   1.854 -14.974  1.00  0.00    -0.360 N 
HETATM   24  C6  UNL     1     -21.357   2.946 -14.938  1.00  0.00     0.231 C 
HETATM   25  O1  UNL     1     -21.443   3.872 -15.766  1.00  0.00    -0.272 OA
ATOM     26  H1  UNL     1     -20.496   1.157 -14.230  1.00  0.00     0.162 HD
BRANCH  24  27
HETATM   27  C7  UNL     1     -22.322   3.033 -13.785  1.00  0.00     0.217 C 
HETATM   28 CL1  UNL     1     -21.483   2.453 -12.335  1.00  0.00    -0.121 Cl
ENDBRANCH  24  27
ENDBRANCH  22  23
ENDBRANCH  21  22
ENDBRANCH  18  21
ENDBRANCH   1  18
BRANCH   7  29
HETATM   29  C14 UNL     1     -12.389  -0.445 -18.276  1.00  0.00    -0.018 C 
HETATM   30  C15 UNL     1     -11.245  -0.395 -19.282  1.00  0.00     0.010 C 
HETATM   31  C16 UNL     1     -12.096  -1.681 -17.404  1.00  0.00     0.010 C 
ENDBRANCH   7  29
BRANCH   9  32
HETATM   32  O2  UNL     1     -14.780  -2.808 -20.662  1.00  0.00    -0.395 OA
ATOM     33  H2  UNL     1     -14.914  -3.448 -21.351  1.00  0.00     0.210 HD
ENDBRANCH   9  32
TORSDOF 8
ENDMDL
MODEL 5
REMARK VINA RESULT: -6.588431944      3.074      7.242
REMARK  8 active torsions:
REMARK  status: ('A' for Active; 'I' for Inactive)
REMARK    1  A    between atoms: C2_2  and  C3_3 
REMARK    2  A    between atoms: C3_3  and  C4_4 
REMARK    3  A    between atoms: C3_3  and  C8_12 
REMARK    4  A    between atoms: C4_4  and  C5_5 
REMARK    5  A    between atoms: C5_5  and  N1_6 
REMARK       I    between atoms: N1_6  and  C6_8 
REMARK    6  A    between atoms: C6_8  and  C7_10 
REMARK    7  A    between atoms: C13_18  and  C14_19 
REMARK    8  A    between atoms: C18_23  and  O2_24 
ROOT
HETATM    1  C8  UNL     1     -17.147   1.616 -19.622  1.00  0.00     0.003 C 
HETATM    2  C9  UNL     1     -16.512   2.615 -18.645  1.00  0.00     0.008 C 
HETATM    3  C10 UNL     1     -15.094   2.137 -18.409  1.00  0.00     0.027 C 
HETATM    4  C11 UNL     1     -15.284   0.689 -18.339  1.00  0.00     0.049 C 
HETATM    5 CL2  UNL     1     -16.236   0.350 -16.849  1.00  0.00    -0.118 Cl
HETATM    6  C12 UNL     1     -14.142  -0.212 -18.518  1.00  0.00     0.019 C 
HETATM    7  C13 UNL     1     -12.910   0.026 -17.726  1.00  0.00    -0.003 C 
HETATM    8  C17 UNL     1     -11.949  -1.115 -18.121  1.00  0.00     0.038 C 
HETATM    9  C18 UNL     1     -12.410  -2.422 -17.547  1.00  0.00     0.126 C 
HETATM   10  C19 UNL     1     -13.745  -2.713 -18.166  1.00  0.00    -0.018 C 
HETATM   11  C20 UNL     1     -13.550  -3.303 -19.548  1.00  0.00     0.018 C 
HETATM   12  C21 UNL     1     -14.344  -3.835 -17.314  1.00  0.00     0.018 C 
HETATM   13  C22 UNL     1     -14.710  -1.585 -18.127  1.00  0.00     0.002 C 
HETATM   14  C23 UNL     1     -15.846  -1.957 -19.022  1.00  0.00     0.007 C 
HETATM   15  C24 UNL     1     -16.880  -0.885 -19.247  1.00  0.00     0.012 C 
HETATM   16  C25 UNL     1     -16.279   0.445 -19.493  1.00  0.00    -0.018 C 
HETATM   17  C26 UNL     1     -15.462   0.389 -20.813  1.00  0.00     0.018 C 
ENDROOT
BRANCH   1  18
HETATM   18  C3  UNL     1     -18.589   1.577 -19.337  1.00  0.00     0.014 C 
BRANCH  18  19
HETATM   19  C2  UNL     1     -19.524   2.030 -20.385  1.00  0.00    -0.032 C 
HETATM   20  C1  UNL     1     -19.602   1.444 -21.574  1.00  0.00     0.007 C 
ENDBRANCH  18  19
BRANCH  18  21
HETATM   21  C4  UNL     1     -18.892   2.407 -18.102  1.00  0.00     0.028 C 
BRANCH  21  22
HETATM   22  C5  UNL     1     -19.899   1.754 -17.194  1.00  0.00     0.123 C 
BRANCH  22  23
HETATM   23  N1  UNL     1     -19.769   2.207 -15.810  1.00  0.00    -0.360 N 
HETATM   24  C6  UNL     1     -20.576   3.250 -15.318  1.00  0.00     0.231 C 
HETATM   25  O1  UNL     1     -21.445   3.887 -15.943  1.00  0.00    -0.272 OA
ATOM     26  H1  UNL     1     -19.086   1.764 -15.195  1.00  0.00     0.162 HD
BRANCH  24  27
HETATM   27  C7  UNL     1     -20.394   3.666 -13.882  1.00  0.00     0.217 C 
HETATM   28 CL1  UNL     1     -21.587   2.784 -12.911  1.00  0.00    -0.121 Cl
ENDBRANCH  24  27
ENDBRANCH  22  23
ENDBRANCH  21  22
ENDBRANCH  18  21
ENDBRANCH   1  18
BRANCH   7  29
HETATM   29  C14 UNL     1     -12.109   1.239 -18.015  1.00  0.00    -0.018 C 
HETATM   30  C15 UNL     1     -10.663   0.917 -18.373  1.00  0.00     0.010 C 
HETATM   31  C16 UNL     1     -12.024   2.034 -16.698  1.00  0.00     0.010 C 
ENDBRANCH   7  29
BRANCH   9  32
HETATM   32  O2  UNL     1     -12.413  -2.437 -16.175  1.00  0.00    -0.395 OA
ATOM     33  H2  UNL     1     -11.610  -2.782 -15.804  1.00  0.00     0.210 HD
ENDBRANCH   9  32
TORSDOF 8
ENDMDL
