MODEL 1
REMARK VINA RESULT: -5.075562364      0.000      0.000
REMARK  3 active torsions:
REMARK  status: ('A' for Active; 'I' for Inactive)
REMARK    1  A    between atoms: N2_4  and  N3_6 
REMARK    2  A    between atoms: C1_8  and  N4_9 
REMARK    3  A    between atoms: N4_9  and  C2_11 
ROOT
HETATM    1  N3  UNL     1       7.090 -13.670   9.794  1.00  0.00    -0.283 N 
ATOM      2  H3  UNL     1       6.904 -13.636   8.792  1.00  0.00     0.189 HD
HETATM    3  C1  UNL     1       6.160 -13.261  10.572  1.00  0.00     0.194 C 
ENDROOT
BRANCH   1   4
HETATM    4  N2  UNL     1       8.321 -14.151  10.186  1.00  0.00    -0.248 N 
HETATM    5  N1  UNL     1       8.342 -14.962  11.180  1.00  0.00    -0.331 N 
ATOM      6  H12 UNL     1       7.477 -15.228  11.651  1.00  0.00     0.178 HD
ATOM      7  H11 UNL     1       9.253 -15.318  11.470  1.00  0.00     0.178 HD
ATOM      8  H2  UNL     1       9.177 -13.876   9.705  1.00  0.00     0.207 HD
ENDBRANCH   1   4
BRANCH   3   9
HETATM    9  N4  UNL     1       4.958 -12.798   9.997  1.00  0.00    -0.380 N 
ATOM     10  H4  UNL     1       4.062 -13.051  10.413  1.00  0.00     0.160 HD
BRANCH   9  11
HETATM   11  C2  UNL     1       4.995 -11.971   8.829  1.00  0.00     0.082 A 
HETATM   12  C3  UNL     1       5.661 -12.521   7.624  1.00  0.00     0.027 A 
HETATM   13  C4  UNL     1       4.169 -12.375   7.615  1.00  0.00     0.027 A 
ENDBRANCH   9  11
ENDBRANCH   3   9
TORSDOF 3
ENDMDL
MODEL 2
REMARK VINA RESULT: -4.980542726      0.756      1.070
REMARK  3 active torsions:
REMARK  status: ('A' for Active; 'I' for Inactive)
REMARK    1  A    between atoms: N2_4  and  N3_6 
REMARK    2  A    between atoms: C1_8  and  N4_9 
REMARK    3  A    between atoms: N4_9  and  C2_11 
ROOT
HETATM    1  N3  UNL     1       7.577 -13.944  10.262  1.00  0.00    -0.283 N 
ATOM      2  H3  UNL     1       7.792 -13.726   9.289  1.00  0.00     0.189 HD
HETATM    3  C1  UNL     1       6.462 -13.516  10.720  1.00  0.00     0.194 C 
ENDROOT
BRANCH   1   4
HETATM    4  N2  UNL     1       8.515 -14.673  10.961  1.00  0.00    -0.248 N 
HETATM    5  N1  UNL     1       8.135 -15.796  11.452  1.00  0.00    -0.331 N 
ATOM      6  H12 UNL     1       7.177 -16.121  11.322  1.00  0.00     0.178 HD
ATOM      7  H11 UNL     1       8.829 -16.336  11.970  1.00  0.00     0.178 HD
ATOM      8  H2  UNL     1       9.469 -14.335  11.083  1.00  0.00     0.207 HD
ENDBRANCH   1   4
BRANCH   3   9
HETATM    9  N4  UNL     1       5.619 -12.780   9.861  1.00  0.00    -0.380 N 
ATOM     10  H4  UNL     1       4.858 -12.223  10.247  1.00  0.00     0.160 HD
BRANCH   9  11
HETATM   11  C2  UNL     1       5.833 -12.816   8.446  1.00  0.00     0.082 A 
HETATM   12  C3  UNL     1       4.708 -12.401   7.575  1.00  0.00     0.027 A 
HETATM   13  C4  UNL     1       5.903 -11.502   7.679  1.00  0.00     0.027 A 
ENDBRANCH   9  11
ENDBRANCH   3   9
TORSDOF 3
ENDMDL
MODEL 3
REMARK VINA RESULT: -4.958797345      9.679     10.261
REMARK  3 active torsions:
REMARK  status: ('A' for Active; 'I' for Inactive)
REMARK    1  A    between atoms: N2_4  and  N3_6 
REMARK    2  A    between atoms: C1_8  and  N4_9 
REMARK    3  A    between atoms: N4_9  and  C2_11 
ROOT
HETATM    1  N3  UNL     1      12.335 -19.612   8.269  1.00  0.00    -0.283 N 
ATOM      2  H3  UNL     1      11.875 -18.709   8.146  1.00  0.00     0.189 HD
HETATM    3  C1  UNL     1      13.066 -20.025   7.304  1.00  0.00     0.194 C 
ENDROOT
BRANCH   1   4
HETATM    4  N2  UNL     1      12.111 -20.272   9.458  1.00  0.00    -0.248 N 
HETATM    5  N1  UNL     1      13.113 -20.414  10.246  1.00  0.00    -0.331 N 
ATOM      6  H12 UNL     1      14.030 -20.048   9.989  1.00  0.00     0.178 HD
ATOM      7  H11 UNL     1      12.948 -20.902  11.126  1.00  0.00     0.178 HD
ATOM      8  H2  UNL     1      11.188 -20.632   9.701  1.00  0.00     0.207 HD
ENDBRANCH   1   4
BRANCH   3   9
HETATM    9  N4  UNL     1      13.183 -19.217   6.154  1.00  0.00    -0.380 N 
ATOM     10  H4  UNL     1      12.861 -18.250   6.175  1.00  0.00     0.160 HD
BRANCH   9  11
HETATM   11  C2  UNL     1      13.754 -19.754   4.956  1.00  0.00     0.082 A 
HETATM   12  C3  UNL     1      13.375 -21.138   4.581  1.00  0.00     0.027 A 
HETATM   13  C4  UNL     1      12.848 -20.001   3.756  1.00  0.00     0.027 A 
ENDBRANCH   9  11
ENDBRANCH   3   9
TORSDOF 3
ENDMDL
MODEL 4
REMARK VINA RESULT: -4.671683261     10.532     11.375
REMARK  3 active torsions:
REMARK  status: ('A' for Active; 'I' for Inactive)
REMARK    1  A    between atoms: N2_4  and  N3_6 
REMARK    2  A    between atoms: C1_8  and  N4_9 
REMARK    3  A    between atoms: N4_9  and  C2_11 
ROOT
HETATM    1  N3  UNL     1      12.635 -19.214   2.658  1.00  0.00    -0.283 N 
ATOM      2  H3  UNL     1      12.822 -18.428   3.281  1.00  0.00     0.189 HD
HETATM    3  C1  UNL     1      12.615 -20.379   3.184  1.00  0.00     0.194 C 
ENDROOT
BRANCH   1   4
HETATM    4  N2  UNL     1      12.427 -18.921   1.327  1.00  0.00    -0.248 N 
HETATM    5  N1  UNL     1      12.343 -19.912   0.516  1.00  0.00    -0.331 N 
ATOM      6  H12 UNL     1      12.429 -20.869   0.857  1.00  0.00     0.178 HD
ATOM      7  H11 UNL     1      12.189 -19.696  -0.469  1.00  0.00     0.178 HD
ATOM      8  H2  UNL     1      12.343 -17.958   1.001  1.00  0.00     0.207 HD
ENDBRANCH   1   4
BRANCH   3   9
HETATM    9  N4  UNL     1      12.851 -20.496   4.570  1.00  0.00    -0.380 N 
ATOM     10  H4  UNL     1      13.305 -21.330   4.942  1.00  0.00     0.160 HD
BRANCH   9  11
HETATM   11  C2  UNL     1      12.454 -19.443   5.454  1.00  0.00     0.082 A 
HETATM   12  C3  UNL     1      12.794 -19.592   6.889  1.00  0.00     0.027 A 
HETATM   13  C4  UNL     1      13.528 -18.564   6.081  1.00  0.00     0.027 A 
ENDBRANCH   9  11
ENDBRANCH   3   9
TORSDOF 3
ENDMDL
MODEL 5
REMARK VINA RESULT: -4.665900509      9.450     10.295
REMARK  3 active torsions:
REMARK  status: ('A' for Active; 'I' for Inactive)
REMARK    1  A    between atoms: N2_4  and  N3_6 
REMARK    2  A    between atoms: C1_8  and  N4_9 
REMARK    3  A    between atoms: N4_9  and  C2_11 
ROOT
HETATM    1  N3  UNL     1      12.503 -19.427   6.817  1.00  0.00    -0.283 N 
ATOM      2  H3  UNL     1      12.035 -20.229   6.395  1.00  0.00     0.189 HD
HETATM    3  C1  UNL     1      13.306 -18.766   6.072  1.00  0.00     0.194 C 
ENDROOT
BRANCH   1   4
HETATM    4  N2  UNL     1      12.211 -19.156   8.137  1.00  0.00    -0.248 N 
HETATM    5  N1  UNL     1      12.386 -20.106   8.981  1.00  0.00    -0.331 N 
ATOM      6  H12 UNL     1      12.727 -21.017   8.674  1.00  0.00     0.178 HD
ATOM      7  H11 UNL     1      12.171 -19.906   9.958  1.00  0.00     0.178 HD
ATOM      8  H2  UNL     1      11.872 -18.240   8.429  1.00  0.00     0.207 HD
ENDBRANCH   1   4
BRANCH   3   9
HETATM    9  N4  UNL     1      13.486 -19.186   4.738  1.00  0.00    -0.380 N 
ATOM     10  H4  UNL     1      14.303 -18.876   4.212  1.00  0.00     0.160 HD
BRANCH   9  11
HETATM   11  C2  UNL     1      12.524 -20.048   4.123  1.00  0.00     0.082 A 
HETATM   12  C3  UNL     1      12.306 -19.898   2.664  1.00  0.00     0.027 A 
HETATM   13  C4  UNL     1      13.010 -21.125   3.161  1.00  0.00     0.027 A 
ENDBRANCH   9  11
ENDBRANCH   3   9
TORSDOF 3
ENDMDL
