MODEL 1
REMARK VINA RESULT: -3.871730164      0.000      0.000
REMARK  3 active torsions:
REMARK  status: ('A' for Active; 'I' for Inactive)
REMARK    1  A    between atoms: C2_2  and  N1_3 
REMARK    2  A    between atoms: N1_3  and  N2_4 
REMARK    3  A    between atoms: N1_3  and  C3_7 
ROOT
HETATM    1  N1  UNL     1       6.579 -13.414   9.330  1.00  0.00    -0.180 NA
ENDROOT
BRANCH   1   2
HETATM    2  C2  UNL     1       6.141 -13.218  10.658  1.00  0.00     0.078 C 
HETATM    3  C1  UNL     1       4.888 -12.895  10.902  1.00  0.00     0.026 C 
ENDBRANCH   1   2
BRANCH   1   4
HETATM    4  N2  UNL     1       7.956 -13.636   9.364  1.00  0.00    -0.355 NA
ATOM      5  H22 UNL     1       8.172 -14.623   9.227  1.00  0.00     0.171 HD
ATOM      6  H21 UNL     1       8.374 -13.110   8.597  1.00  0.00     0.171 HD
ENDBRANCH   1   4
BRANCH   1   7
HETATM    7  C3  UNL     1       6.264 -12.233   8.576  1.00  0.00     0.168 C 
HETATM    8  S1  UNL     1       5.322 -12.366   7.499  1.00  0.00    -0.078 SA
ENDBRANCH   1   7
TORSDOF 3
ENDMDL
MODEL 2
REMARK VINA RESULT: -3.585037114      1.598      2.207
REMARK  3 active torsions:
REMARK  status: ('A' for Active; 'I' for Inactive)
REMARK    1  A    between atoms: C2_2  and  N1_3 
REMARK    2  A    between atoms: N1_3  and  N2_4 
REMARK    3  A    between atoms: N1_3  and  C3_7 
ROOT
HETATM    1  N1  UNL     1       6.553 -12.988  10.183  1.00  0.00    -0.180 NA
ENDROOT
BRANCH   1   2
HETATM    2  C2  UNL     1       7.353 -14.070  10.613  1.00  0.00     0.078 C 
HETATM    3  C1  UNL     1       8.329 -14.516   9.851  1.00  0.00     0.026 C 
ENDBRANCH   1   2
BRANCH   1   4
HETATM    4  N2  UNL     1       5.313 -13.098  10.814  1.00  0.00    -0.355 NA
ATOM      5  H22 UNL     1       5.112 -12.270  11.374  1.00  0.00     0.171 HD
ATOM      6  H21 UNL     1       4.601 -13.172  10.088  1.00  0.00     0.171 HD
ENDBRANCH   1   4
BRANCH   1   7
HETATM    7  C3  UNL     1       6.417 -13.071   8.756  1.00  0.00     0.168 C 
HETATM    8  S1  UNL     1       5.350 -12.325   8.149  1.00  0.00    -0.078 SA
ENDBRANCH   1   7
TORSDOF 3
ENDMDL
MODEL 3
REMARK VINA RESULT: -3.186732338     10.430     10.785
REMARK  3 active torsions:
REMARK  status: ('A' for Active; 'I' for Inactive)
REMARK    1  A    between atoms: C2_2  and  N1_3 
REMARK    2  A    between atoms: N1_3  and  N2_4 
REMARK    3  A    between atoms: N1_3  and  C3_7 
ROOT
HETATM    1  N1  UNL     1      14.099 -19.374   5.456  1.00  0.00    -0.180 NA
ENDROOT
BRANCH   1   2
HETATM    2  C2  UNL     1      13.557 -20.165   6.493  1.00  0.00     0.078 C 
HETATM    3  C1  UNL     1      12.718 -19.637   7.359  1.00  0.00     0.026 C 
ENDBRANCH   1   2
BRANCH   1   4
HETATM    4  N2  UNL     1      13.850 -18.037   5.766  1.00  0.00    -0.355 NA
ATOM      5  H22 UNL     1      13.072 -17.950   6.419  1.00  0.00     0.171 HD
ATOM      6  H21 UNL     1      14.685 -17.661   6.214  1.00  0.00     0.171 HD
ENDBRANCH   1   4
BRANCH   1   7
HETATM    7  C3  UNL     1      13.459 -19.748   4.226  1.00  0.00     0.168 C 
HETATM    8  S1  UNL     1      13.480 -21.138   3.865  1.00  0.00    -0.078 SA
ENDBRANCH   1   7
TORSDOF 3
ENDMDL
MODEL 4
REMARK VINA RESULT: -3.119136379      1.580      2.411
REMARK  3 active torsions:
REMARK  status: ('A' for Active; 'I' for Inactive)
REMARK    1  A    between atoms: C2_2  and  N1_3 
REMARK    2  A    between atoms: N1_3  and  N2_4 
REMARK    3  A    between atoms: N1_3  and  C3_7 
ROOT
HETATM    1  N1  UNL     1       6.947 -12.938   9.534  1.00  0.00    -0.180 NA
ENDROOT
BRANCH   1   2
HETATM    2  C2  UNL     1       6.028 -12.997   8.463  1.00  0.00     0.078 C 
HETATM    3  C1  UNL     1       5.812 -11.935   7.716  1.00  0.00     0.026 C 
ENDBRANCH   1   2
BRANCH   1   4
HETATM    4  N2  UNL     1       7.980 -13.835   9.259  1.00  0.00    -0.355 NA
ATOM      5  H22 UNL     1       7.762 -14.405   8.442  1.00  0.00     0.171 HD
ATOM      6  H21 UNL     1       8.817 -13.290   9.053  1.00  0.00     0.171 HD
ENDBRANCH   1   4
BRANCH   1   7
HETATM    7  C3  UNL     1       6.255 -13.299  10.739  1.00  0.00     0.168 C 
HETATM    8  S1  UNL     1       4.885 -12.886  10.865  1.00  0.00    -0.078 SA
ENDBRANCH   1   7
TORSDOF 3
ENDMDL
MODEL 5
REMARK VINA RESULT: -3.097095720     10.108     10.373
REMARK  3 active torsions:
REMARK  status: ('A' for Active; 'I' for Inactive)
REMARK    1  A    between atoms: C2_2  and  N1_3 
REMARK    2  A    between atoms: N1_3  and  N2_4 
REMARK    3  A    between atoms: N1_3  and  C3_7 
ROOT
HETATM    1  N1  UNL     1      12.706 -19.004   6.066  1.00  0.00    -0.180 NA
ENDROOT
BRANCH   1   2
HETATM    2  C2  UNL     1      12.328 -19.593   4.839  1.00  0.00     0.078 C 
HETATM    3  C1  UNL     1      11.188 -19.264   4.270  1.00  0.00     0.026 C 
ENDBRANCH   1   2
BRANCH   1   4
HETATM    4  N2  UNL     1      13.770 -18.137   5.812  1.00  0.00    -0.355 NA
ATOM      5  H22 UNL     1      13.434 -17.208   5.559  1.00  0.00     0.171 HD
ATOM      6  H21 UNL     1      14.315 -18.055   6.670  1.00  0.00     0.171 HD
ENDBRANCH   1   4
BRANCH   1   7
HETATM    7  C3  UNL     1      13.097 -20.053   6.965  1.00  0.00     0.168 C 
HETATM    8  S1  UNL     1      14.063 -21.005   6.491  1.00  0.00    -0.078 SA
ENDBRANCH   1   7
TORSDOF 3
ENDMDL
