MODEL 1
REMARK VINA RESULT: -6.817451197      0.000      0.000
REMARK  11 active torsions:
REMARK  status: ('A' for Active; 'I' for Inactive)
REMARK    1  A    between atoms: C2_2  and  N1_3 
REMARK    2  A    between atoms: N1_3  and  C4_5 
REMARK    3  A    between atoms: C4_5  and  C5_6 
REMARK    4  A    between atoms: C5_6  and  N2_7 
REMARK    5  A    between atoms: N2_7  and  N3_8 
REMARK    6  A    between atoms: N2_7  and  C6_11 
REMARK    7  A    between atoms: C6_11  and  C7_12 
REMARK    8  A    between atoms: C7_12  and  C8_13 
REMARK    9  A    between atoms: C8_13  and  N4_14 
REMARK   10  A    between atoms: C9_15  and  N5_16 
REMARK   11  A    between atoms: C11_22  and  N7_23 
REMARK       I    between atoms: N7_23  and  C12_25 
REMARK       I    between atoms: C12_25  and  N8_26 
REMARK       I    between atoms: C12_25  and  N9_30 
ROOT
HETATM    1  N4  UNL     1       9.945  24.358  13.584  1.00  0.00    -0.166 N 
HETATM    2  C9  UNL     1       9.785  24.339  14.931  1.00  0.00     0.680 A 
HETATM    3  N6  UNL     1      10.951  24.008  15.497  1.00  0.00    -0.184 N 
ATOM      4  H6  UNL     1      11.127  23.918  16.498  1.00  0.00     0.184 HD
HETATM    5  C10 UNL     1      11.840  23.818  14.532  1.00  0.00     0.138 A 
HETATM    6  C11 UNL     1      13.211  23.457  14.603  1.00  0.00     0.151 A 
HETATM    7  N10 UNL     1      13.887  23.331  13.466  1.00  0.00    -0.175 N 
ATOM      8  H10 UNL     1      14.873  23.072  13.487  1.00  0.00     0.186 HD
HETATM    9  C13 UNL     1      13.272  23.546  12.281  1.00  0.00     0.679 A 
HETATM   10  N11 UNL     1      13.938  23.419  11.193  1.00  0.00    -0.234 N 
ATOM     11 1H11 UNL     1      13.474  23.580  10.300  1.00  0.00     0.174 HD
ATOM     12 2H11 UNL     1      14.923  23.158  11.242  1.00  0.00     0.174 HD
HETATM   13  N12 UNL     1      11.974  23.888  12.217  1.00  0.00    -0.174 N 
ATOM     14  H12 UNL     1      11.538  24.044  11.308  1.00  0.00     0.186 HD
HETATM   15  C14 UNL     1      11.230  24.031  13.353  1.00  0.00     0.170 A 
ENDROOT
BRANCH   1  16
HETATM   16  C8  UNL     1       9.023  24.655  12.555  1.00  0.00     0.150 C 
BRANCH  16  17
HETATM   17  C7  UNL     1       8.363  23.568  11.819  1.00  0.00     0.037 C 
BRANCH  17  18
HETATM   18  C6  UNL     1       7.903  22.388  12.636  1.00  0.00     0.114 C 
BRANCH  18  19
HETATM   19  N2  UNL     1       8.205  21.133  12.030  1.00  0.00    -0.236 NA
BRANCH  19  20
HETATM   20  C5  UNL     1       8.886  20.188  12.843  1.00  0.00     0.143 C 
BRANCH  20  21
HETATM   21  C4  UNL     1       9.574  20.732  14.040  1.00  0.00     0.288 C 
BRANCH  21  22
HETATM   22  N1  UNL     1       9.452  19.873  15.202  1.00  0.00     0.085 N 
HETATM   23  C3  UNL     1      10.214  18.642  15.026  1.00  0.00     0.309 C 
BRANCH  22  24
HETATM   24  C2  UNL     1       9.940  20.589  16.379  1.00  0.00     0.267 C 
HETATM   25  C1  UNL     1      11.427  20.542  16.529  1.00  0.00     0.037 C 
ENDBRANCH  22  24
ENDBRANCH  21  22
ENDBRANCH  20  21
ENDBRANCH  19  20
BRANCH  19  26
HETATM   26  N3  UNL     1       7.124  20.652  11.332  1.00  0.00    -0.363 NA
ATOM     27  H32 UNL     1       7.362  19.793  10.838  1.00  0.00     0.171 HD
ATOM     28  H31 UNL     1       6.592  21.345  10.805  1.00  0.00     0.171 HD
ENDBRANCH  19  26
ENDBRANCH  18  19
ENDBRANCH  17  18
ENDBRANCH  16  17
ENDBRANCH   1  16
BRANCH   2  29
HETATM   29  N5  UNL     1       8.654  24.612  15.489  1.00  0.00    -0.234 N 
ATOM     30  H52 UNL     1       8.236  24.211  16.328  1.00  0.00     0.174 HD
ATOM     31  H51 UNL     1       8.019  25.314  15.110  1.00  0.00     0.174 HD
ENDBRANCH   2  29
BRANCH   6  32
HETATM   32  N7  UNL     1      13.710  23.284  15.734  1.00  0.00    -0.325 N 
HETATM   33  C12 UNL     1      14.784  23.719  16.493  1.00  0.00     0.481 C 
HETATM   34  N8  UNL     1      15.886  22.743  16.318  1.00  0.00    -0.033 N 
HETATM   35  N9  UNL     1      15.348  25.004  16.236  1.00  0.00    -0.033 N 
ATOM     36  H83 UNL     1      15.607  21.787  16.538  1.00  0.00     0.278 HD
ATOM     37  H82 UNL     1      16.128  22.591  15.339  1.00  0.00     0.278 HD
ATOM     38  H81 UNL     1      16.677  23.063  16.877  1.00  0.00     0.278 HD
ATOM     39  H93 UNL     1      15.603  25.057  15.250  1.00  0.00     0.278 HD
ATOM     40  H92 UNL     1      14.606  25.702  16.290  1.00  0.00     0.278 HD
ATOM     41  H91 UNL     1      16.139  25.324  16.795  1.00  0.00     0.278 HD
ATOM     42  H7  UNL     1      13.155  22.614  16.264  1.00  0.00     0.165 HD
ENDBRANCH   6  32
TORSDOF 11
ENDMDL
MODEL 2
REMARK VINA RESULT: -6.534988432      1.802      2.219
REMARK  11 active torsions:
REMARK  status: ('A' for Active; 'I' for Inactive)
REMARK    1  A    between atoms: C2_2  and  N1_3 
REMARK    2  A    between atoms: N1_3  and  C4_5 
REMARK    3  A    between atoms: C4_5  and  C5_6 
REMARK    4  A    between atoms: C5_6  and  N2_7 
REMARK    5  A    between atoms: N2_7  and  N3_8 
REMARK    6  A    between atoms: N2_7  and  C6_11 
REMARK    7  A    between atoms: C6_11  and  C7_12 
REMARK    8  A    between atoms: C7_12  and  C8_13 
REMARK    9  A    between atoms: C8_13  and  N4_14 
REMARK   10  A    between atoms: C9_15  and  N5_16 
REMARK   11  A    between atoms: C11_22  and  N7_23 
REMARK       I    between atoms: N7_23  and  C12_25 
REMARK       I    between atoms: C12_25  and  N8_26 
REMARK       I    between atoms: C12_25  and  N9_30 
ROOT
HETATM    1  N4  UNL     1      10.119  23.460  14.587  1.00  0.00    -0.166 N 
HETATM    2  C9  UNL     1       9.704  24.046  15.738  1.00  0.00     0.680 A 
HETATM    3  N6  UNL     1      10.707  24.007  16.625  1.00  0.00    -0.184 N 
ATOM      4  H6  UNL     1      10.679  24.375  17.576  1.00  0.00     0.184 HD
HETATM    5  C10 UNL     1      11.741  23.408  16.052  1.00  0.00     0.138 A 
HETATM    6  C11 UNL     1      13.034  23.122  16.563  1.00  0.00     0.151 A 
HETATM    7  N10 UNL     1      13.900  22.502  15.767  1.00  0.00    -0.175 N 
ATOM      8  H10 UNL     1      14.837  22.284  16.108  1.00  0.00     0.186 HD
HETATM    9  C13 UNL     1      13.545  22.161  14.508  1.00  0.00     0.679 A 
HETATM   10  N11 UNL     1      14.392  21.564  13.754  1.00  0.00    -0.234 N 
ATOM     11 1H11 UNL     1      14.123  21.307  12.805  1.00  0.00     0.174 HD
ATOM     12 2H11 UNL     1      15.322  21.356  14.119  1.00  0.00     0.174 HD
HETATM   13  N12 UNL     1      12.320  22.435  14.028  1.00  0.00    -0.174 N 
ATOM     14  H12 UNL     1      12.082  22.166  13.073  1.00  0.00     0.186 HD
HETATM   15  C14 UNL     1      11.390  23.068  14.801  1.00  0.00     0.170 A 
ENDROOT
BRANCH   1  16
HETATM   16  C8  UNL     1       9.441  23.262  13.364  1.00  0.00     0.150 C 
BRANCH  16  17
HETATM   17  C7  UNL     1       8.276  22.369  13.302  1.00  0.00     0.037 C 
BRANCH  17  18
HETATM   18  C6  UNL     1       8.264  21.360  12.182  1.00  0.00     0.114 C 
BRANCH  18  19
HETATM   19  N2  UNL     1       8.976  20.165  12.495  1.00  0.00    -0.236 NA
BRANCH  19  20
HETATM   20  C5  UNL     1       8.780  19.639  13.801  1.00  0.00     0.143 C 
BRANCH  20  21
HETATM   21  C4  UNL     1      10.010  19.348  14.579  1.00  0.00     0.288 C 
BRANCH  21  22
HETATM   22  N1  UNL     1       9.750  19.137  15.990  1.00  0.00     0.085 N 
HETATM   23  C3  UNL     1      10.727  18.226  16.573  1.00  0.00     0.309 C 
BRANCH  22  24
HETATM   24  C2  UNL     1       9.803  20.424  16.682  1.00  0.00     0.267 C 
HETATM   25  C1  UNL     1      10.558  20.374  17.971  1.00  0.00     0.037 C 
ENDBRANCH  22  24
ENDBRANCH  21  22
ENDBRANCH  20  21
ENDBRANCH  19  20
BRANCH  19  26
HETATM   26  N3  UNL     1       8.891  19.259  11.467  1.00  0.00    -0.363 NA
ATOM     27  H32 UNL     1       9.442  19.565  10.665  1.00  0.00     0.171 HD
ATOM     28  H31 UNL     1       7.957  18.904  11.265  1.00  0.00     0.171 HD
ENDBRANCH  19  26
ENDBRANCH  18  19
ENDBRANCH  17  18
ENDBRANCH  16  17
ENDBRANCH   1  16
BRANCH   2  29
HETATM   29  N5  UNL     1       8.518  24.535  15.868  1.00  0.00    -0.234 N 
ATOM     30  H52 UNL     1       7.769  24.604  15.178  1.00  0.00     0.174 HD
ATOM     31  H51 UNL     1       8.191  24.933  16.747  1.00  0.00     0.174 HD
ENDBRANCH   2  29
BRANCH   6  32
HETATM   32  N7  UNL     1      13.292  23.475  17.732  1.00  0.00    -0.325 N 
HETATM   33  C12 UNL     1      13.457  22.924  18.991  1.00  0.00     0.481 C 
HETATM   34  N8  UNL     1      12.156  23.012  19.697  1.00  0.00    -0.033 N 
HETATM   35  N9  UNL     1      13.882  21.567  19.111  1.00  0.00    -0.033 N 
ATOM     36  H83 UNL     1      11.785  23.961  19.726  1.00  0.00     0.278 HD
ATOM     37  H82 UNL     1      11.392  22.583  19.174  1.00  0.00     0.278 HD
ATOM     38  H81 UNL     1      12.278  22.605  20.625  1.00  0.00     0.278 HD
ATOM     39  H93 UNL     1      13.243  20.977  18.577  1.00  0.00     0.278 HD
ATOM     40  H92 UNL     1      14.749  21.450  18.587  1.00  0.00     0.278 HD
ATOM     41  H91 UNL     1      14.003  21.161  20.038  1.00  0.00     0.278 HD
ATOM     42  H7  UNL     1      13.421  24.485  17.772  1.00  0.00     0.165 HD
ENDBRANCH   6  32
TORSDOF 11
ENDMDL
MODEL 3
REMARK VINA RESULT: -6.495760224      8.176     11.568
REMARK  11 active torsions:
REMARK  status: ('A' for Active; 'I' for Inactive)
REMARK    1  A    between atoms: C2_2  and  N1_3 
REMARK    2  A    between atoms: N1_3  and  C4_5 
REMARK    3  A    between atoms: C4_5  and  C5_6 
REMARK    4  A    between atoms: C5_6  and  N2_7 
REMARK    5  A    between atoms: N2_7  and  N3_8 
REMARK    6  A    between atoms: N2_7  and  C6_11 
REMARK    7  A    between atoms: C6_11  and  C7_12 
REMARK    8  A    between atoms: C7_12  and  C8_13 
REMARK    9  A    between atoms: C8_13  and  N4_14 
REMARK   10  A    between atoms: C9_15  and  N5_16 
REMARK   11  A    between atoms: C11_22  and  N7_23 
REMARK       I    between atoms: N7_23  and  C12_25 
REMARK       I    between atoms: C12_25  and  N8_26 
REMARK       I    between atoms: C12_25  and  N9_30 
ROOT
HETATM    1  N4  UNL     1      17.369  18.526  21.156  1.00  0.00    -0.166 N 
HETATM    2  C9  UNL     1      16.488  17.763  21.851  1.00  0.00     0.680 A 
HETATM    3  N6  UNL     1      17.043  17.427  23.023  1.00  0.00    -0.184 N 
ATOM      4  H6  UNL     1      16.609  16.857  23.749  1.00  0.00     0.184 HD
HETATM    5  C10 UNL     1      18.254  17.965  23.075  1.00  0.00     0.138 A 
HETATM    6  C11 UNL     1      19.239  17.909  24.095  1.00  0.00     0.151 A 
HETATM    7  N10 UNL     1      20.388  18.547  23.893  1.00  0.00    -0.175 N 
ATOM      8  H10 UNL     1      21.114  18.524  24.609  1.00  0.00     0.186 HD
HETATM    9  C13 UNL     1      20.596  19.228  22.744  1.00  0.00     0.679 A 
HETATM   10  N11 UNL     1      21.709  19.837  22.565  1.00  0.00    -0.234 N 
ATOM     11 1H11 UNL     1      21.866  20.350  21.698  1.00  0.00     0.174 HD
ATOM     12 2H11 UNL     1      22.420  19.798  23.296  1.00  0.00     0.174 HD
HETATM   13  N12 UNL     1      19.660  19.279  21.781  1.00  0.00    -0.174 N 
ATOM     14  H12 UNL     1      19.846  19.802  20.925  1.00  0.00     0.186 HD
HETATM   15  C14 UNL     1      18.462  18.642  21.933  1.00  0.00     0.170 A 
ENDROOT
BRANCH   1  16
HETATM   16  C8  UNL     1      17.253  19.129  19.884  1.00  0.00     0.150 C 
BRANCH  16  17
HETATM   17  C7  UNL     1      16.624  20.450  19.748  1.00  0.00     0.037 C 
BRANCH  17  18
HETATM   18  C6  UNL     1      15.149  20.461  19.436  1.00  0.00     0.114 C 
BRANCH  18  19
HETATM   19  N2  UNL     1      14.330  20.427  20.603  1.00  0.00    -0.236 NA
BRANCH  19  20
HETATM   20  C5  UNL     1      14.030  21.682  21.198  1.00  0.00     0.143 C 
BRANCH  20  21
HETATM   21  C4  UNL     1      13.490  22.724  20.289  1.00  0.00     0.288 C 
BRANCH  21  22
HETATM   22  N1  UNL     1      13.720  24.071  20.774  1.00  0.00     0.085 N 
HETATM   23  C3  UNL     1      12.462  24.791  20.939  1.00  0.00     0.309 C 
BRANCH  22  24
HETATM   24  C2  UNL     1      14.420  24.004  22.056  1.00  0.00     0.267 C 
HETATM   25  C1  UNL     1      15.637  24.870  22.112  1.00  0.00     0.037 C 
ENDBRANCH  22  24
ENDBRANCH  21  22
ENDBRANCH  20  21
ENDBRANCH  19  20
BRANCH  19  26
HETATM   26  N3  UNL     1      13.264  19.578  20.430  1.00  0.00    -0.363 NA
ATOM     27  H32 UNL     1      13.186  18.928  21.211  1.00  0.00     0.171 HD
ATOM     28  H31 UNL     1      13.162  19.178  19.497  1.00  0.00     0.171 HD
ENDBRANCH  19  26
ENDBRANCH  18  19
ENDBRANCH  17  18
ENDBRANCH  16  17
ENDBRANCH   1  16
BRANCH   2  29
HETATM   29  N5  UNL     1      15.326  17.460  21.381  1.00  0.00    -0.234 N 
ATOM     30  H52 UNL     1      14.871  16.549  21.323  1.00  0.00     0.174 HD
ATOM     31  H51 UNL     1      14.700  18.164  20.991  1.00  0.00     0.174 HD
ENDBRANCH   2  29
BRANCH   6  32
HETATM   32  N7  UNL     1      18.971  17.268  25.132  1.00  0.00    -0.325 N 
HETATM   33  C12 UNL     1      19.537  16.950  26.355  1.00  0.00     0.481 C 
HETATM   34  N8  UNL     1      20.203  15.633  26.216  1.00  0.00    -0.033 N 
HETATM   35  N9  UNL     1      20.507  17.827  26.925  1.00  0.00    -0.033 N 
ATOM     36  H83 UNL     1      19.576  14.907  25.870  1.00  0.00     0.278 HD
ATOM     37  H82 UNL     1      20.875  15.608  25.450  1.00  0.00     0.278 HD
ATOM     38  H81 UNL     1      20.620  15.399  27.117  1.00  0.00     0.278 HD
ATOM     39  H93 UNL     1      21.255  17.971  26.247  1.00  0.00     0.278 HD
ATOM     40  H92 UNL     1      20.106  18.762  26.985  1.00  0.00     0.278 HD
ATOM     41  H91 UNL     1      20.924  17.593  27.826  1.00  0.00     0.278 HD
ATOM     42  H7  UNL     1      18.046  16.847  25.054  1.00  0.00     0.165 HD
ENDBRANCH   6  32
TORSDOF 11
ENDMDL
MODEL 4
REMARK VINA RESULT: -6.486484127      2.699      5.697
REMARK  11 active torsions:
REMARK  status: ('A' for Active; 'I' for Inactive)
REMARK    1  A    between atoms: C2_2  and  N1_3 
REMARK    2  A    between atoms: N1_3  and  C4_5 
REMARK    3  A    between atoms: C4_5  and  C5_6 
REMARK    4  A    between atoms: C5_6  and  N2_7 
REMARK    5  A    between atoms: N2_7  and  N3_8 
REMARK    6  A    between atoms: N2_7  and  C6_11 
REMARK    7  A    between atoms: C6_11  and  C7_12 
REMARK    8  A    between atoms: C7_12  and  C8_13 
REMARK    9  A    between atoms: C8_13  and  N4_14 
REMARK   10  A    between atoms: C9_15  and  N5_16 
REMARK   11  A    between atoms: C11_22  and  N7_23 
REMARK       I    between atoms: N7_23  and  C12_25 
REMARK       I    between atoms: C12_25  and  N8_26 
REMARK       I    between atoms: C12_25  and  N9_30 
ROOT
HETATM    1  N4  UNL     1       8.957  20.506  13.988  1.00  0.00    -0.166 N 
HETATM    2  C9  UNL     1       8.527  20.781  12.732  1.00  0.00     0.680 A 
HETATM    3  N6  UNL     1       8.561  22.106  12.546  1.00  0.00    -0.184 N 
ATOM      4  H6  UNL     1       8.293  22.598  11.694  1.00  0.00     0.184 HD
HETATM    5  C10 UNL     1       9.005  22.667  13.662  1.00  0.00     0.138 A 
HETATM    6  C11 UNL     1       9.225  24.034  13.977  1.00  0.00     0.151 A 
HETATM    7  N10 UNL     1       9.685  24.331  15.189  1.00  0.00    -0.175 N 
ATOM      8  H10 UNL     1       9.851  25.305  15.443  1.00  0.00     0.186 HD
HETATM    9  C13 UNL     1       9.932  23.349  16.084  1.00  0.00     0.679 A 
HETATM   10  N11 UNL     1      10.373  23.654  17.248  1.00  0.00    -0.234 N 
ATOM     11 1H11 UNL     1      10.559  22.913  17.923  1.00  0.00     0.174 HD
ATOM     12 2H11 UNL     1      10.531  24.635  17.478  1.00  0.00     0.174 HD
HETATM   13  N12 UNL     1       9.723  22.056  15.781  1.00  0.00    -0.174 N 
ATOM     14  H12 UNL     1       9.920  21.338  16.478  1.00  0.00     0.186 HD
HETATM   15  C14 UNL     1       9.252  21.692  14.553  1.00  0.00     0.170 A 
ENDROOT
BRANCH   1  16
HETATM   16  C8  UNL     1       9.112  19.269  14.654  1.00  0.00     0.150 C 
BRANCH  16  17
HETATM   17  C7  UNL     1      10.443  18.831  15.096  1.00  0.00     0.037 C 
BRANCH  17  18
HETATM   18  C6  UNL     1      10.594  18.523  16.564  1.00  0.00     0.114 C 
BRANCH  18  19
HETATM   19  N2  UNL     1      10.941  19.664  17.344  1.00  0.00    -0.236 NA
BRANCH  19  20
HETATM   20  C5  UNL     1      11.096  19.450  18.740  1.00  0.00     0.143 C 
BRANCH  20  21
HETATM   21  C4  UNL     1      12.274  20.093  19.373  1.00  0.00     0.288 C 
BRANCH  21  22
HETATM   22  N1  UNL     1      13.373  19.172  19.588  1.00  0.00     0.085 N 
HETATM   23  C3  UNL     1      14.081  19.479  20.825  1.00  0.00     0.309 C 
BRANCH  22  24
HETATM   24  C2  UNL     1      12.848  17.808  19.648  1.00  0.00     0.267 C 
HETATM   25  C1  UNL     1      13.658  16.826  18.865  1.00  0.00     0.037 C 
ENDBRANCH  22  24
ENDBRANCH  21  22
ENDBRANCH  20  21
ENDBRANCH  19  20
BRANCH  19  26
HETATM   26  N3  UNL     1      11.937  20.389  16.737  1.00  0.00    -0.363 NA
ATOM     27  H32 UNL     1      12.659  20.650  17.408  1.00  0.00     0.171 HD
ATOM     28  H31 UNL     1      11.627  21.122  16.099  1.00  0.00     0.171 HD
ENDBRANCH  19  26
ENDBRANCH  18  19
ENDBRANCH  17  18
ENDBRANCH  16  17
ENDBRANCH   1  16
BRANCH   2  29
HETATM   29  N5  UNL     1       8.162  19.851  11.915  1.00  0.00    -0.234 N 
ATOM     30  H52 UNL     1       7.619  19.007  12.098  1.00  0.00     0.174 HD
ATOM     31  H51 UNL     1       8.405  19.876  10.925  1.00  0.00     0.174 HD
ENDBRANCH   2  29
BRANCH   6  32
HETATM   32  N7  UNL     1       8.982  24.883  13.096  1.00  0.00    -0.325 N 
HETATM   33  C12 UNL     1       9.637  25.597  12.106  1.00  0.00     0.481 C 
HETATM   34  N8  UNL     1      10.020  26.911  12.675  1.00  0.00    -0.033 N 
HETATM   35  N9  UNL     1      10.821  25.058  11.522  1.00  0.00    -0.033 N 
ATOM     36  H83 UNL     1       9.228  27.417  13.071  1.00  0.00     0.278 HD
ATOM     37  H82 UNL     1      10.567  26.827  13.532  1.00  0.00     0.278 HD
ATOM     38  H81 UNL     1      10.502  27.437  11.947  1.00  0.00     0.278 HD
ATOM     39  H93 UNL     1      11.486  24.848  12.267  1.00  0.00     0.278 HD
ATOM     40  H92 UNL     1      10.614  24.124  11.168  1.00  0.00     0.278 HD
ATOM     41  H91 UNL     1      11.304  25.584  10.793  1.00  0.00     0.278 HD
ATOM     42  H7  UNL     1       7.993  25.127  13.108  1.00  0.00     0.165 HD
ENDBRANCH   6  32
TORSDOF 11
ENDMDL
MODEL 5
REMARK VINA RESULT: -6.431955524      7.928     11.062
REMARK  11 active torsions:
REMARK  status: ('A' for Active; 'I' for Inactive)
REMARK    1  A    between atoms: C2_2  and  N1_3 
REMARK    2  A    between atoms: N1_3  and  C4_5 
REMARK    3  A    between atoms: C4_5  and  C5_6 
REMARK    4  A    between atoms: C5_6  and  N2_7 
REMARK    5  A    between atoms: N2_7  and  N3_8 
REMARK    6  A    between atoms: N2_7  and  C6_11 
REMARK    7  A    between atoms: C6_11  and  C7_12 
REMARK    8  A    between atoms: C7_12  and  C8_13 
REMARK    9  A    between atoms: C8_13  and  N4_14 
REMARK   10  A    between atoms: C9_15  and  N5_16 
REMARK   11  A    between atoms: C11_22  and  N7_23 
REMARK       I    between atoms: N7_23  and  C12_25 
REMARK       I    between atoms: C12_25  and  N8_26 
REMARK       I    between atoms: C12_25  and  N9_30 
ROOT
HETATM    1  N4  UNL     1      17.199  18.756  21.362  1.00  0.00    -0.166 N 
HETATM    2  C9  UNL     1      16.339  17.939  22.019  1.00  0.00     0.680 A 
HETATM    3  N6  UNL     1      16.940  17.481  23.124  1.00  0.00    -0.184 N 
ATOM      4  H6  UNL     1      16.531  16.847  23.810  1.00  0.00     0.184 HD
HETATM    5  C10 UNL     1      18.162  17.995  23.171  1.00  0.00     0.138 A 
HETATM    6  C11 UNL     1      19.192  17.826  24.133  1.00  0.00     0.151 A 
HETATM    7  N10 UNL     1      20.341  18.467  23.941  1.00  0.00    -0.175 N 
ATOM      8  H10 UNL     1      21.099  18.363  24.616  1.00  0.00     0.186 HD
HETATM    9  C13 UNL     1      20.508  19.255  22.856  1.00  0.00     0.679 A 
HETATM   10  N11 UNL     1      21.622  19.865  22.686  1.00  0.00    -0.234 N 
ATOM     11 1H11 UNL     1      21.747  20.460  21.867  1.00  0.00     0.174 HD
ATOM     12 2H11 UNL     1      22.365  19.744  23.374  1.00  0.00     0.174 HD
HETATM   13  N12 UNL     1      19.529  19.414  21.948  1.00  0.00    -0.174 N 
ATOM     14  H12 UNL     1      19.685  20.017  21.140  1.00  0.00     0.186 HD
HETATM   15  C14 UNL     1      18.329  18.780  22.093  1.00  0.00     0.170 A 
ENDROOT
BRANCH   1  16
HETATM   16  C8  UNL     1      17.036  19.484  20.162  1.00  0.00     0.150 C 
BRANCH  16  17
HETATM   17  C7  UNL     1      16.172  20.672  20.132  1.00  0.00     0.037 C 
BRANCH  17  18
HETATM   18  C6  UNL     1      14.851  20.522  19.420  1.00  0.00     0.114 C 
BRANCH  18  19
HETATM   19  N2  UNL     1      13.732  20.564  20.302  1.00  0.00    -0.236 NA
BRANCH  19  20
HETATM   20  C5  UNL     1      12.902  21.714  20.213  1.00  0.00     0.143 C 
BRANCH  20  21
HETATM   21  C4  UNL     1      12.745  22.302  18.860  1.00  0.00     0.288 C 
BRANCH  21  22
HETATM   22  N1  UNL     1      11.528  21.878  18.196  1.00  0.00     0.085 N 
HETATM   23  C3  UNL     1      10.809  23.018  17.639  1.00  0.00     0.309 C 
BRANCH  22  24
HETATM   24  C2  UNL     1      11.869  20.942  17.125  1.00  0.00     0.267 C 
HETATM   25  C1  UNL     1      11.164  19.629  17.238  1.00  0.00     0.037 C 
ENDBRANCH  22  24
ENDBRANCH  21  22
ENDBRANCH  20  21
ENDBRANCH  19  20
BRANCH  19  26
HETATM   26  N3  UNL     1      13.078  19.356  20.324  1.00  0.00    -0.363 NA
ATOM     27  H32 UNL     1      12.137  19.458  20.703  1.00  0.00     0.171 HD
ATOM     28  H31 UNL     1      13.621  18.564  20.668  1.00  0.00     0.171 HD
ENDBRANCH  19  26
ENDBRANCH  18  19
ENDBRANCH  17  18
ENDBRANCH  16  17
ENDBRANCH   1  16
BRANCH   2  29
HETATM   29  N5  UNL     1      15.151  17.699  21.577  1.00  0.00    -0.234 N 
ATOM     30  H52 UNL     1      14.256  17.770  22.060  1.00  0.00     0.174 HD
ATOM     31  H51 UNL     1      14.982  17.388  20.621  1.00  0.00     0.174 HD
ENDBRANCH   2  29
BRANCH   6  32
HETATM   32  N7  UNL     1      18.960  17.088  25.113  1.00  0.00    -0.325 N 
HETATM   33  C12 UNL     1      19.508  16.759  26.341  1.00  0.00     0.481 C 
HETATM   34  N8  UNL     1      20.337  15.545  26.156  1.00  0.00    -0.033 N 
HETATM   35  N9  UNL     1      20.337  17.706  27.014  1.00  0.00    -0.033 N 
ATOM     36  H83 UNL     1      19.821  14.774  25.733  1.00  0.00     0.278 HD
ATOM     37  H82 UNL     1      21.040  15.653  25.425  1.00  0.00     0.278 HD
ATOM     38  H81 UNL     1      20.741  15.302  27.060  1.00  0.00     0.278 HD
ATOM     39  H93 UNL     1      21.090  17.985  26.385  1.00  0.00     0.278 HD
ATOM     40  H92 UNL     1      19.821  18.580  27.111  1.00  0.00     0.278 HD
ATOM     41  H91 UNL     1      20.741  17.463  27.919  1.00  0.00     0.278 HD
ATOM     42  H7  UNL     1      18.098  16.565  24.962  1.00  0.00     0.165 HD
ENDBRANCH   6  32
TORSDOF 11
ENDMDL
