MODEL 1
REMARK VINA RESULT: -5.593191534      0.000      0.000
REMARK  4 active torsions:
REMARK  status: ('A' for Active; 'I' for Inactive)
REMARK    1  A    between atoms: C4_7  and  C5_8 
REMARK    2  A    between atoms: C5_8  and  C6_9 
REMARK    3  A    between atoms: C6_9  and  N3_10 
REMARK    4  A    between atoms: N3_10  and  C7_12 
ROOT
HETATM    1  N1  UNL     1     -42.357   8.134  -3.637  1.00  0.00    -0.188 NA
HETATM    2  C1  UNL     1     -42.038   7.125  -3.171  1.00  0.00     0.137 C 
HETATM    3  C2  UNL     1     -41.631   5.874  -2.603  1.00  0.00     0.188 A 
HETATM    4  N2  UNL     1     -41.651   5.567  -1.284  1.00  0.00    -0.342 N 
ATOM      5  H2  UNL     1     -41.958   6.186  -0.533  1.00  0.00     0.167 HD
HETATM    6  C3  UNL     1     -41.194   4.299  -1.130  1.00  0.00     0.115 A 
HETATM    7  C4  UNL     1     -40.902   3.866  -2.412  1.00  0.00     0.028 A 
HETATM    8  N5  UNL     1     -41.167   4.825  -3.311  1.00  0.00    -0.336 N 
ATOM      9  H5  UNL     1     -41.042   4.773  -4.322  1.00  0.00     0.168 HD
ENDROOT
BRANCH   7  10
HETATM   10  C5  UNL     1     -40.361   2.511  -2.760  1.00  0.00     0.078 C 
BRANCH  10  11
HETATM   11  C6  UNL     1     -39.945   2.512  -4.235  1.00  0.00     0.127 C 
BRANCH  11  12
HETATM   12  N3  UNL     1     -38.585   2.104  -4.313  1.00  0.00    -0.376 N 
ATOM     13  H3  UNL     1     -37.879   2.763  -3.986  1.00  0.00     0.161 HD
BRANCH  12  14
HETATM   14  C7  UNL     1     -38.170   0.968  -4.763  1.00  0.00     0.100 A 
HETATM   15  C8  UNL     1     -36.829   0.656  -4.681  1.00  0.00     0.048 A 
HETATM   16  C9  UNL     1     -36.323  -0.547  -5.147  1.00  0.00     0.005 A 
HETATM   17  C10 UNL     1     -37.182  -1.466  -5.713  1.00  0.00     0.017 A 
HETATM   18  C11 UNL     1     -38.519  -1.132  -5.783  1.00  0.00     0.089 A 
HETATM   19  N4  UNL     1     -38.992   0.058  -5.318  1.00  0.00    -0.353 N 
ATOM     20  H4  UNL     1     -39.988   0.264  -5.391  1.00  0.00     0.166 HD
ENDBRANCH  12  14
ENDBRANCH  11  12
ENDBRANCH  10  11
ENDBRANCH   7  10
TORSDOF 4
ENDMDL
MODEL 2
REMARK VINA RESULT: -5.500136035      0.716      1.196
REMARK  4 active torsions:
REMARK  status: ('A' for Active; 'I' for Inactive)
REMARK    1  A    between atoms: C4_7  and  C5_8 
REMARK    2  A    between atoms: C5_8  and  C6_9 
REMARK    3  A    between atoms: C6_9  and  N3_10 
REMARK    4  A    between atoms: N3_10  and  C7_12 
ROOT
HETATM    1  N1  UNL     1     -42.212   8.107  -3.631  1.00  0.00    -0.188 NA
HETATM    2  C1  UNL     1     -41.925   7.083  -3.176  1.00  0.00     0.137 C 
HETATM    3  C2  UNL     1     -41.557   5.814  -2.621  1.00  0.00     0.188 A 
HETATM    4  N2  UNL     1     -41.521   5.516  -1.301  1.00  0.00    -0.342 N 
ATOM      5  H2  UNL     1     -41.749   6.154  -0.539  1.00  0.00     0.167 HD
HETATM    6  C3  UNL     1     -41.128   4.224  -1.162  1.00  0.00     0.115 A 
HETATM    7  C4  UNL     1     -40.933   3.769  -2.455  1.00  0.00     0.028 A 
HETATM    8  N5  UNL     1     -41.194   4.737  -3.346  1.00  0.00    -0.336 N 
ATOM      9  H5  UNL     1     -41.130   4.673  -4.362  1.00  0.00     0.168 HD
ENDROOT
BRANCH   7  10
HETATM   10  C5  UNL     1     -40.490   2.383  -2.822  1.00  0.00     0.078 C 
BRANCH  10  11
HETATM   11  C6  UNL     1     -40.050   2.381  -4.290  1.00  0.00     0.127 C 
BRANCH  11  12
HETATM   12  N3  UNL     1     -38.638   2.224  -4.329  1.00  0.00    -0.376 N 
ATOM     13  H3  UNL     1     -38.070   3.022  -4.041  1.00  0.00     0.161 HD
BRANCH  12  14
HETATM   14  C7  UNL     1     -38.013   1.158  -4.699  1.00  0.00     0.100 A 
HETATM   15  C8  UNL     1     -38.673   0.215  -5.459  1.00  0.00     0.048 A 
HETATM   16  C9  UNL     1     -38.057  -0.950  -5.887  1.00  0.00     0.005 A 
HETATM   17  C10 UNL     1     -36.740  -1.181  -5.543  1.00  0.00     0.017 A 
HETATM   18  C11 UNL     1     -36.101  -0.224  -4.782  1.00  0.00     0.089 A 
HETATM   19  N4  UNL     1     -36.730   0.914  -4.375  1.00  0.00    -0.353 N 
ATOM     20  H4  UNL     1     -36.219   1.594  -3.813  1.00  0.00     0.166 HD
ENDBRANCH  12  14
ENDBRANCH  11  12
ENDBRANCH  10  11
ENDBRANCH   7  10
TORSDOF 4
ENDMDL
MODEL 3
REMARK VINA RESULT: -5.484694720      2.522      8.352
REMARK  4 active torsions:
REMARK  status: ('A' for Active; 'I' for Inactive)
REMARK    1  A    between atoms: C4_7  and  C5_8 
REMARK    2  A    between atoms: C5_8  and  C6_9 
REMARK    3  A    between atoms: C6_9  and  N3_10 
REMARK    4  A    between atoms: N3_10  and  C7_12 
ROOT
HETATM    1  N1  UNL     1     -39.294   1.713  -5.180  1.00  0.00    -0.188 NA
HETATM    2  C1  UNL     1     -39.711   2.309  -4.282  1.00  0.00     0.137 C 
HETATM    3  C2  UNL     1     -40.242   3.052  -3.176  1.00  0.00     0.188 A 
HETATM    4  N2  UNL     1     -40.147   2.694  -1.874  1.00  0.00    -0.342 N 
ATOM      5  H2  UNL     1     -39.689   1.855  -1.517  1.00  0.00     0.167 HD
HETATM    6  C3  UNL     1     -40.766   3.639  -1.122  1.00  0.00     0.115 A 
HETATM    7  C4  UNL     1     -41.231   4.572  -2.033  1.00  0.00     0.028 A 
HETATM    8  N5  UNL     1     -40.913   4.215  -3.285  1.00  0.00    -0.336 N 
ATOM      9  H5  UNL     1     -41.134   4.719  -4.145  1.00  0.00     0.168 HD
ENDROOT
BRANCH   7  10
HETATM   10  C5  UNL     1     -41.990   5.816  -1.678  1.00  0.00     0.078 C 
BRANCH  10  11
HETATM   11  C6  UNL     1     -42.057   6.720  -2.913  1.00  0.00     0.127 C 
BRANCH  11  12
HETATM   12  N3  UNL     1     -42.280   8.054  -2.475  1.00  0.00    -0.376 N 
ATOM     13  H3  UNL     1     -41.531   8.729  -2.630  1.00  0.00     0.161 HD
BRANCH  12  14
HETATM   14  C7  UNL     1     -43.351   8.482  -1.897  1.00  0.00     0.100 A 
HETATM   15  C8  UNL     1     -44.567   8.337  -2.530  1.00  0.00     0.048 A 
HETATM   16  C9  UNL     1     -45.752   8.777  -1.961  1.00  0.00     0.005 A 
HETATM   17  C10 UNL     1     -45.720   9.380  -0.720  1.00  0.00     0.017 A 
HETATM   18  C11 UNL     1     -44.491   9.514  -0.106  1.00  0.00     0.089 A 
HETATM   19  N4  UNL     1     -43.341   9.073  -0.688  1.00  0.00    -0.353 N 
ATOM     20  H4  UNL     1     -42.454   9.193  -0.198  1.00  0.00     0.166 HD
ENDBRANCH  12  14
ENDBRANCH  11  12
ENDBRANCH  10  11
ENDBRANCH   7  10
TORSDOF 4
ENDMDL
MODEL 4
REMARK VINA RESULT: -5.473598172      4.003      9.046
REMARK  4 active torsions:
REMARK  status: ('A' for Active; 'I' for Inactive)
REMARK    1  A    between atoms: C4_7  and  C5_8 
REMARK    2  A    between atoms: C5_8  and  C6_9 
REMARK    3  A    between atoms: C6_9  and  N3_10 
REMARK    4  A    between atoms: N3_10  and  C7_12 
ROOT
HETATM    1  N1  UNL     1     -41.234   4.010  -6.291  1.00  0.00    -0.188 NA
HETATM    2  C1  UNL     1     -41.309   4.343  -5.186  1.00  0.00     0.137 C 
HETATM    3  C2  UNL     1     -41.416   4.761  -3.818  1.00  0.00     0.188 A 
HETATM    4  N2  UNL     1     -41.123   3.997  -2.740  1.00  0.00    -0.342 N 
ATOM      5  H2  UNL     1     -40.791   3.033  -2.764  1.00  0.00     0.167 HD
HETATM    6  C3  UNL     1     -41.346   4.730  -1.620  1.00  0.00     0.115 A 
HETATM    7  C4  UNL     1     -41.783   5.961  -2.080  1.00  0.00     0.028 A 
HETATM    8  N5  UNL     1     -41.827   5.980  -3.420  1.00  0.00    -0.336 N 
ATOM      9  H5  UNL     1     -42.113   6.758  -4.016  1.00  0.00     0.168 HD
ENDROOT
BRANCH   7  10
HETATM   10  C5  UNL     1     -42.161   7.121  -1.207  1.00  0.00     0.078 C 
BRANCH  10  11
HETATM   11  C6  UNL     1     -42.869   8.173  -2.067  1.00  0.00     0.127 C 
BRANCH  11  12
HETATM   12  N3  UNL     1     -43.868   8.797  -1.272  1.00  0.00    -0.376 N 
ATOM     13  H3  UNL     1     -43.625   9.024  -0.308  1.00  0.00     0.161 HD
BRANCH  12  14
HETATM   14  C7  UNL     1     -45.059   9.099  -1.668  1.00  0.00     0.100 A 
HETATM   15  C8  UNL     1     -45.780  10.051  -0.980  1.00  0.00     0.048 A 
HETATM   16  C9  UNL     1     -47.063  10.419  -1.356  1.00  0.00     0.005 A 
HETATM   17  C10 UNL     1     -47.642   9.815  -2.453  1.00  0.00     0.017 A 
HETATM   18  C11 UNL     1     -46.901   8.865  -3.125  1.00  0.00     0.089 A 
HETATM   19  N4  UNL     1     -45.641   8.522  -2.735  1.00  0.00    -0.353 N 
ATOM     20  H4  UNL     1     -45.130   7.814  -3.262  1.00  0.00     0.166 HD
ENDBRANCH  12  14
ENDBRANCH  11  12
ENDBRANCH  10  11
ENDBRANCH   7  10
TORSDOF 4
ENDMDL
MODEL 5
REMARK VINA RESULT: -5.460649652      4.032      9.363
REMARK  4 active torsions:
REMARK  status: ('A' for Active; 'I' for Inactive)
REMARK    1  A    between atoms: C4_7  and  C5_8 
REMARK    2  A    between atoms: C5_8  and  C6_9 
REMARK    3  A    between atoms: C6_9  and  N3_10 
REMARK    4  A    between atoms: N3_10  and  C7_12 
ROOT
HETATM    1  N1  UNL     1     -41.271   4.057  -6.215  1.00  0.00    -0.188 NA
HETATM    2  C1  UNL     1     -41.328   4.386  -5.108  1.00  0.00     0.137 C 
HETATM    3  C2  UNL     1     -41.412   4.800  -3.738  1.00  0.00     0.188 A 
HETATM    4  N2  UNL     1     -41.144   4.019  -2.665  1.00  0.00    -0.342 N 
ATOM      5  H2  UNL     1     -40.850   3.043  -2.696  1.00  0.00     0.167 HD
HETATM    6  C3  UNL     1     -41.333   4.754  -1.540  1.00  0.00     0.115 A 
HETATM    7  C4  UNL     1     -41.724   6.003  -1.991  1.00  0.00     0.028 A 
HETATM    8  N5  UNL     1     -41.774   6.032  -3.331  1.00  0.00    -0.336 N 
ATOM      9  H5  UNL     1     -42.032   6.824  -3.921  1.00  0.00     0.168 HD
ENDROOT
BRANCH   7  10
HETATM   10  C5  UNL     1     -42.052   7.172  -1.110  1.00  0.00     0.078 C 
BRANCH  10  11
HETATM   11  C6  UNL     1     -43.202   7.960  -1.747  1.00  0.00     0.127 C 
BRANCH  11  12
HETATM   12  N3  UNL     1     -43.473   9.089  -0.927  1.00  0.00    -0.376 N 
ATOM     13  H3  UNL     1     -42.696   9.718  -0.723  1.00  0.00     0.161 HD
BRANCH  12  14
HETATM   14  C7  UNL     1     -44.622   9.385  -0.418  1.00  0.00     0.100 A 
HETATM   15  C8  UNL     1     -44.946   8.918   0.838  1.00  0.00     0.048 A 
HETATM   16  C9  UNL     1     -46.163   9.201   1.438  1.00  0.00     0.005 A 
HETATM   17  C10 UNL     1     -47.084   9.975   0.762  1.00  0.00     0.017 A 
HETATM   18  C11 UNL     1     -46.737  10.431  -0.493  1.00  0.00     0.089 A 
HETATM   19  N4  UNL     1     -45.533  10.138  -1.061  1.00  0.00    -0.353 N 
ATOM     20  H4  UNL     1     -45.318  10.496  -1.991  1.00  0.00     0.166 HD
ENDBRANCH  12  14
ENDBRANCH  11  12
ENDBRANCH  10  11
ENDBRANCH   7  10
TORSDOF 4
ENDMDL
