MODEL 1
REMARK VINA RESULT: -5.316658275      0.000      0.000
REMARK  2 active torsions:
REMARK  status: ('A' for Active; 'I' for Inactive)
REMARK    1  A    between atoms: C2_2  and  N1_3 
REMARK    2  A    between atoms: N4_16  and  C10_18 
ROOT
HETATM    1  N1  UNL     1     -47.064  10.377   1.576  1.00  0.00    -0.377 N 
ATOM      2  H1  UNL     1     -46.450  10.369   2.390  1.00  0.00     0.161 HD
HETATM    3  C3  UNL     1     -46.608   9.921   0.460  1.00  0.00     0.103 A 
HETATM    4  C4  UNL     1     -45.271   9.387   0.257  1.00  0.00     0.066 A 
HETATM    5  C5  UNL     1     -45.134   9.002  -1.026  1.00  0.00     0.039 A 
HETATM    6  C6  UNL     1     -43.937   8.424  -1.587  1.00  0.00     0.063 A 
HETATM    7  C7  UNL     1     -43.747   8.017  -2.879  1.00  0.00     0.050 A 
HETATM    8  C8  UNL     1     -42.445   7.524  -2.973  1.00  0.00     0.109 A 
HETATM    9  N2  UNL     1     -41.894   7.646  -1.755  1.00  0.00    -0.311 N 
ATOM     10  H2  UNL     1     -40.945   7.371  -1.504  1.00  0.00     0.186 HD
HETATM   11  N3  UNL     1     -42.777   8.178  -0.938  1.00  0.00    -0.300 N 
ATOM     12  H3  UNL     1     -42.610   8.377   0.048  1.00  0.00     0.187 HD
HETATM   13  C9  UNL     1     -46.372   9.259  -1.737  1.00  0.00     0.115 A 
HETATM   14  N4  UNL     1     -46.659   9.042  -2.959  1.00  0.00    -0.376 N 
ATOM     15  H4  UNL     1     -45.957   8.630  -3.574  1.00  0.00     0.161 HD
HETATM   16  N5  UNL     1     -47.283   9.836  -0.785  1.00  0.00    -0.328 N 
ATOM     17  H5  UNL     1     -48.241  10.130  -0.972  1.00  0.00     0.169 HD
ENDROOT
BRANCH  14  18
HETATM   18  C10 UNL     1     -47.956   9.370  -3.486  1.00  0.00     0.116 C 
HETATM   19  C11 UNL     1     -48.056   8.807  -4.882  1.00  0.00     0.026 C 
ENDBRANCH  14  18
BRANCH   1  20
HETATM   20  C2  UNL     1     -48.401  10.898   1.731  1.00  0.00     0.116 C 
HETATM   21  C1  UNL     1     -48.436  12.405   1.691  1.00  0.00     0.026 C 
ENDBRANCH   1  20
TORSDOF 2
ENDMDL
MODEL 2
REMARK VINA RESULT: -5.120553215      2.199      3.323
REMARK  2 active torsions:
REMARK  status: ('A' for Active; 'I' for Inactive)
REMARK    1  A    between atoms: C2_2  and  N1_3 
REMARK    2  A    between atoms: N4_16  and  C10_18 
ROOT
HETATM    1  N1  UNL     1     -46.948  10.928   0.428  1.00  0.00    -0.377 N 
ATOM      2  H1  UNL     1     -46.750  11.719  -0.185  1.00  0.00     0.161 HD
HETATM    3  C3  UNL     1     -46.210   9.876   0.327  1.00  0.00     0.103 A 
HETATM    4  C4  UNL     1     -45.102   9.715  -0.600  1.00  0.00     0.066 A 
HETATM    5  C5  UNL     1     -44.556   8.496  -0.435  1.00  0.00     0.039 A 
HETATM    6  C6  UNL     1     -43.434   7.990  -1.188  1.00  0.00     0.063 A 
HETATM    7  C7  UNL     1     -42.842   6.763  -1.059  1.00  0.00     0.050 A 
HETATM    8  C8  UNL     1     -41.799   6.705  -1.984  1.00  0.00     0.109 A 
HETATM    9  N2  UNL     1     -41.790   7.879  -2.634  1.00  0.00    -0.311 N 
ATOM     10  H2  UNL     1     -41.139   8.142  -3.375  1.00  0.00     0.186 HD
HETATM   11  N3  UNL     1     -42.756   8.636  -2.163  1.00  0.00    -0.300 N 
ATOM     12  H3  UNL     1     -42.966   9.580  -2.487  1.00  0.00     0.187 HD
HETATM   13  C9  UNL     1     -45.272   7.788   0.609  1.00  0.00     0.115 A 
HETATM   14  N4  UNL     1     -45.075   6.616   1.069  1.00  0.00    -0.376 N 
ATOM     15  H4  UNL     1     -44.320   6.047   0.686  1.00  0.00     0.161 HD
HETATM   16  N5  UNL     1     -46.306   8.672   1.074  1.00  0.00    -0.328 N 
ATOM     17  H5  UNL     1     -46.985   8.471   1.807  1.00  0.00     0.169 HD
ENDROOT
BRANCH  14  18
HETATM   18  C10 UNL     1     -45.900   6.083   2.118  1.00  0.00     0.116 C 
HETATM   19  C11 UNL     1     -45.505   4.645   2.348  1.00  0.00     0.026 C 
ENDBRANCH  14  18
BRANCH   1  20
HETATM   20  C2  UNL     1     -48.039  11.044   1.365  1.00  0.00     0.116 C 
HETATM   21  C1  UNL     1     -48.218  12.456   1.863  1.00  0.00     0.026 C 
ENDBRANCH   1  20
TORSDOF 2
ENDMDL
MODEL 3
REMARK VINA RESULT: -5.091844437      7.414     10.747
REMARK  2 active torsions:
REMARK  status: ('A' for Active; 'I' for Inactive)
REMARK    1  A    between atoms: C2_2  and  N1_3 
REMARK    2  A    between atoms: N4_16  and  C10_18 
ROOT
HETATM    1  N1  UNL     1     -41.112   4.140  -2.363  1.00  0.00    -0.377 N 
ATOM      2  H1  UNL     1     -41.484   4.532  -3.228  1.00  0.00     0.161 HD
HETATM    3  C3  UNL     1     -40.345   3.107  -2.440  1.00  0.00     0.103 A 
HETATM    4  C4  UNL     1     -39.956   2.441  -3.672  1.00  0.00     0.066 A 
HETATM    5  C5  UNL     1     -39.151   1.401  -3.384  1.00  0.00     0.039 A 
HETATM    6  C6  UNL     1     -38.574   0.513  -4.363  1.00  0.00     0.063 A 
HETATM    7  C7  UNL     1     -37.752  -0.554  -4.123  1.00  0.00     0.050 A 
HETATM    8  C8  UNL     1     -37.437  -1.123  -5.357  1.00  0.00     0.109 A 
HETATM    9  N2  UNL     1     -38.067  -0.395  -6.293  1.00  0.00    -0.311 N 
ATOM     10  H2  UNL     1     -38.031  -0.564  -7.299  1.00  0.00     0.186 HD
HETATM   11  N3  UNL     1     -38.738   0.570  -5.703  1.00  0.00    -0.300 N 
ATOM     12  H3  UNL     1     -39.304   1.265  -6.189  1.00  0.00     0.187 HD
HETATM   13  C9  UNL     1     -38.964   1.326  -1.947  1.00  0.00     0.115 A 
HETATM   14  N4  UNL     1     -38.280   0.494  -1.266  1.00  0.00    -0.376 N 
ATOM     15  H4  UNL     1     -37.769  -0.247  -1.746  1.00  0.00     0.161 HD
HETATM   16  N5  UNL     1     -39.722   2.406  -1.374  1.00  0.00    -0.328 N 
ATOM     17  H5  UNL     1     -39.798   2.628  -0.382  1.00  0.00     0.169 HD
ENDROOT
BRANCH  14  18
HETATM   18  C10 UNL     1     -38.217   0.583   0.167  1.00  0.00     0.116 C 
HETATM   19  C11 UNL     1     -36.876   1.161   0.547  1.00  0.00     0.026 C 
ENDBRANCH  14  18
BRANCH   1  20
HETATM   20  C2  UNL     1     -41.471   4.769  -1.115  1.00  0.00     0.116 C 
HETATM   21  C1  UNL     1     -41.696   6.253  -1.267  1.00  0.00     0.026 C 
ENDBRANCH   1  20
TORSDOF 2
ENDMDL
MODEL 4
REMARK VINA RESULT: -5.090036156      4.522      8.101
REMARK  2 active torsions:
REMARK  status: ('A' for Active; 'I' for Inactive)
REMARK    1  A    between atoms: C2_2  and  N1_3 
REMARK    2  A    between atoms: N4_16  and  C10_18 
ROOT
HETATM    1  N1  UNL     1     -40.212   2.218  -2.221  1.00  0.00    -0.377 N 
ATOM      2  H1  UNL     1     -39.610   2.491  -2.998  1.00  0.00     0.161 HD
HETATM    3  C3  UNL     1     -41.013   3.098  -1.728  1.00  0.00     0.103 A 
HETATM    4  C4  UNL     1     -41.137   4.471  -2.191  1.00  0.00     0.066 A 
HETATM    5  C5  UNL     1     -42.065   5.109  -1.453  1.00  0.00     0.039 A 
HETATM    6  C6  UNL     1     -42.451   6.488  -1.631  1.00  0.00     0.063 A 
HETATM    7  C7  UNL     1     -43.385   7.180  -0.912  1.00  0.00     0.050 A 
HETATM    8  C8  UNL     1     -43.430   8.476  -1.427  1.00  0.00     0.109 A 
HETATM    9  N2  UNL     1     -42.536   8.529  -2.426  1.00  0.00    -0.311 N 
ATOM     10  H2  UNL     1     -42.337   9.348  -3.001  1.00  0.00     0.186 HD
HETATM   11  N3  UNL     1     -41.959   7.353  -2.545  1.00  0.00    -0.300 N 
ATOM     12  H3  UNL     1     -41.239   7.126  -3.231  1.00  0.00     0.187 HD
HETATM   13  C9  UNL     1     -42.604   4.193  -0.466  1.00  0.00     0.115 A 
HETATM   14  N4  UNL     1     -43.496   4.397   0.421  1.00  0.00    -0.376 N 
ATOM     15  H4  UNL     1     -43.929   5.317   0.494  1.00  0.00     0.161 HD
HETATM   16  N5  UNL     1     -41.930   2.936  -0.657  1.00  0.00    -0.328 N 
ATOM     17  H5  UNL     1     -42.084   2.084  -0.119  1.00  0.00     0.169 HD
ENDROOT
BRANCH  14  18
HETATM   18  C10 UNL     1     -43.903   3.350   1.318  1.00  0.00     0.116 C 
HETATM   19  C11 UNL     1     -44.010   3.932   2.706  1.00  0.00     0.026 C 
ENDBRANCH  14  18
BRANCH   1  20
HETATM   20  C2  UNL     1     -40.123   0.864  -1.729  1.00  0.00     0.116 C 
HETATM   21  C1  UNL     1     -39.024   0.696  -0.710  1.00  0.00     0.026 C 
ENDBRANCH   1  20
TORSDOF 2
ENDMDL
MODEL 5
REMARK VINA RESULT: -5.080391263      4.241      7.619
REMARK  2 active torsions:
REMARK  status: ('A' for Active; 'I' for Inactive)
REMARK    1  A    between atoms: C2_2  and  N1_3 
REMARK    2  A    between atoms: N4_16  and  C10_18 
ROOT
HETATM    1  N1  UNL     1     -40.475   3.304  -1.846  1.00  0.00    -0.377 N 
ATOM      2  H1  UNL     1     -39.795   3.819  -2.406  1.00  0.00     0.161 HD
HETATM    3  C3  UNL     1     -41.450   3.957  -1.315  1.00  0.00     0.103 A 
HETATM    4  C4  UNL     1     -41.671   5.388  -1.446  1.00  0.00     0.066 A 
HETATM    5  C5  UNL     1     -42.780   5.733  -0.764  1.00  0.00     0.039 A 
HETATM    6  C6  UNL     1     -43.304   7.074  -0.672  1.00  0.00     0.063 A 
HETATM    7  C7  UNL     1     -44.422   7.476   0.005  1.00  0.00     0.050 A 
HETATM    8  C8  UNL     1     -44.548   8.853  -0.179  1.00  0.00     0.109 A 
HETATM    9  N2  UNL     1     -43.519   9.238  -0.950  1.00  0.00    -0.311 N 
ATOM     10  H2  UNL     1     -43.335  10.192  -1.261  1.00  0.00     0.186 HD
HETATM   11  N3  UNL     1     -42.785   8.185  -1.239  1.00  0.00    -0.300 N 
ATOM     12  H3  UNL     1     -41.941   8.205  -1.812  1.00  0.00     0.187 HD
HETATM   13  C9  UNL     1     -43.350   4.550  -0.148  1.00  0.00     0.115 A 
HETATM   14  N4  UNL     1     -44.392   4.441   0.578  1.00  0.00    -0.376 N 
ATOM     15  H4  UNL     1     -44.944   5.272   0.790  1.00  0.00     0.161 HD
HETATM   16  N5  UNL     1     -42.500   3.446  -0.507  1.00  0.00    -0.328 N 
ATOM     17  H5  UNL     1     -42.629   2.473  -0.231  1.00  0.00     0.169 HD
ENDROOT
BRANCH  14  18
HETATM   18  C10 UNL     1     -44.801   3.167   1.102  1.00  0.00     0.116 C 
HETATM   19  C11 UNL     1     -44.669   3.208   2.604  1.00  0.00     0.026 C 
ENDBRANCH  14  18
BRANCH   1  20
HETATM   20  C2  UNL     1     -40.295   1.881  -1.689  1.00  0.00     0.116 C 
HETATM   21  C1  UNL     1     -38.987   1.539  -1.021  1.00  0.00     0.026 C 
ENDBRANCH   1  20
TORSDOF 2
ENDMDL
