MODEL 1
REMARK VINA RESULT: -6.898284327      0.000      0.000
REMARK  1 active torsions:
REMARK  status: ('A' for Active; 'I' for Inactive)
REMARK    1  A    between atoms: C14_18  and  C15_19 
ROOT
HETATM    1  C1  UNL     1      12.396   4.864   9.537  1.00  0.00     0.015 C 
HETATM    2  C2  UNL     1      12.742   6.085   9.938  1.00  0.00    -0.082 C 
HETATM    3  C3  UNL     1      14.073   6.640   9.549  1.00  0.00     0.040 C 
HETATM    4  C4  UNL     1      14.248   8.067   9.843  1.00  0.00     0.013 C 
HETATM    5  C5  UNL     1      15.316   8.397  10.860  1.00  0.00     0.069 C 
HETATM    6  C6  UNL     1      14.874   7.857  12.197  1.00  0.00     0.125 C 
HETATM    7  C7  UNL     1      15.969   7.050  12.855  1.00  0.00     0.040 C 
HETATM    8  O1  UNL     1      13.749   7.030  12.112  1.00  0.00    -0.379 OA
HETATM    9  C8  UNL     1      12.628   7.751  11.686  1.00  0.00     0.141 C 
HETATM   10  C9  UNL     1      11.832   7.041  10.615  1.00  0.00     0.044 C 
HETATM   11  C10 UNL     1      11.825   8.404   9.879  1.00  0.00     0.026 C 
HETATM   12  C11 UNL     1      13.085   8.674  10.589  1.00  0.00     0.028 C 
HETATM   13  C12 UNL     1      13.575  10.007  10.950  1.00  0.00     0.178 A 
HETATM   14  C13 UNL     1      12.864  10.901  11.901  1.00  0.00     0.051 C 
HETATM   15  N1  UNL     1      14.365  10.615   9.923  1.00  0.00    -0.041 N 
ATOM     16  H11 UNL     1      14.420  11.578   9.591  1.00  0.00     0.280 HD
ATOM     17  H12 UNL     1      14.328  10.542   8.907  1.00  0.00     0.280 HD
HETATM   18  C14 UNL     1      15.120   9.909  10.890  1.00  0.00     0.253 A 
ENDROOT
BRANCH  18  19
HETATM   19  C15 UNL     1      15.896  10.689  11.852  1.00  0.00     0.214 C 
HETATM   20  O2  UNL     1      16.343  10.279  12.981  1.00  0.00    -0.646 OA
HETATM   21  O3  UNL     1      16.155  12.017  11.548  1.00  0.00    -0.646 OA
ENDBRANCH  18  19
TORSDOF 1
ENDMDL
MODEL 2
REMARK VINA RESULT: -6.835073281      2.995      5.866
REMARK  1 active torsions:
REMARK  status: ('A' for Active; 'I' for Inactive)
REMARK    1  A    between atoms: C14_18  and  C15_19 
ROOT
HETATM    1  C1  UNL     1      15.706   9.315  11.503  1.00  0.00     0.015 C 
HETATM    2  C2  UNL     1      15.417   8.018  11.583  1.00  0.00    -0.082 C 
HETATM    3  C3  UNL     1      14.865   7.310  10.390  1.00  0.00     0.040 C 
HETATM    4  C4  UNL     1      14.807   5.850  10.520  1.00  0.00     0.013 C 
HETATM    5  C5  UNL     1      13.421   5.248  10.506  1.00  0.00     0.069 C 
HETATM    6  C6  UNL     1      12.701   5.698  11.753  1.00  0.00     0.125 C 
HETATM    7  C7  UNL     1      11.331   6.248  11.430  1.00  0.00     0.040 C 
HETATM    8  O1  UNL     1      13.388   6.694  12.456  1.00  0.00    -0.379 OA
HETATM    9  C8  UNL     1      14.600   6.206  12.959  1.00  0.00     0.141 C 
HETATM   10  C9  UNL     1      15.762   7.146  12.732  1.00  0.00     0.044 C 
HETATM   11  C10 UNL     1      16.533   5.890  12.253  1.00  0.00     0.026 C 
HETATM   12  C11 UNL     1      15.214   5.351  11.885  1.00  0.00     0.028 C 
HETATM   13  C12 UNL     1      14.874   3.927  11.839  1.00  0.00     0.178 A 
HETATM   14  C13 UNL     1      14.879   3.054  13.042  1.00  0.00     0.051 C 
HETATM   15  N1  UNL     1      15.149   3.322  10.572  1.00  0.00    -0.041 N 
ATOM     16  H11 UNL     1      15.522   2.405  10.325  1.00  0.00     0.280 HD
ATOM     17  H12 UNL     1      15.865   3.511   9.871  1.00  0.00     0.280 HD
HETATM   18  C14 UNL     1      13.821   3.790  10.710  1.00  0.00     0.253 A 
ENDROOT
BRANCH  18  19
HETATM   19  C15 UNL     1      12.761   2.798  10.876  1.00  0.00     0.214 C 
HETATM   20  O2  UNL     1      11.754   2.884  11.664  1.00  0.00    -0.646 OA
HETATM   21  O3  UNL     1      12.854   1.625  10.143  1.00  0.00    -0.646 OA
ENDBRANCH  18  19
TORSDOF 1
ENDMDL
MODEL 3
REMARK VINA RESULT: -6.789578044      2.134      5.072
REMARK  1 active torsions:
REMARK  status: ('A' for Active; 'I' for Inactive)
REMARK    1  A    between atoms: C14_18  and  C15_19 
ROOT
HETATM    1  C1  UNL     1      14.336  11.159  11.338  1.00  0.00     0.015 C 
HETATM    2  C2  UNL     1      14.104   9.880  11.055  1.00  0.00    -0.082 C 
HETATM    3  C3  UNL     1      12.795   9.480  10.458  1.00  0.00     0.040 C 
HETATM    4  C4  UNL     1      12.742   8.096   9.976  1.00  0.00     0.013 C 
HETATM    5  C5  UNL     1      11.767   7.192  10.694  1.00  0.00     0.069 C 
HETATM    6  C6  UNL     1      12.253   7.008  12.110  1.00  0.00     0.125 C 
HETATM    7  C7  UNL     1      11.147   7.255  13.109  1.00  0.00     0.040 C 
HETATM    8  O1  UNL     1      13.308   7.863  12.445  1.00  0.00    -0.379 OA
HETATM    9  C8  UNL     1      14.449   7.572  11.688  1.00  0.00     0.141 C 
HETATM   10  C9  UNL     1      15.122   8.802  11.125  1.00  0.00     0.044 C 
HETATM   11  C10 UNL     1      15.179   8.019   9.790  1.00  0.00     0.026 C 
HETATM   12  C11 UNL     1      13.990   7.304  10.280  1.00  0.00     0.028 C 
HETATM   13  C12 UNL     1      13.621   5.937   9.909  1.00  0.00     0.178 A 
HETATM   14  C13 UNL     1      14.454   4.753  10.247  1.00  0.00     0.051 C 
HETATM   15  N1  UNL     1      12.813   5.871   8.729  1.00  0.00    -0.041 N 
ATOM     16  H11 UNL     1      12.806   5.215   7.947  1.00  0.00     0.280 HD
ATOM     17  H12 UNL     1      12.780   6.458   7.896  1.00  0.00     0.280 HD
HETATM   18  C14 UNL     1      12.072   5.905   9.934  1.00  0.00     0.253 A 
ENDROOT
BRANCH  18  19
HETATM   19  C15 UNL     1      11.416   4.673  10.368  1.00  0.00     0.214 C 
HETATM   20  O2  UNL     1      11.684   3.999  11.424  1.00  0.00    -0.646 OA
HETATM   21  O3  UNL     1      10.429   4.145   9.551  1.00  0.00    -0.646 OA
ENDBRANCH  18  19
TORSDOF 1
ENDMDL
MODEL 4
REMARK VINA RESULT: -6.760899280      2.532      5.147
REMARK  1 active torsions:
REMARK  status: ('A' for Active; 'I' for Inactive)
REMARK    1  A    between atoms: C14_18  and  C15_19 
ROOT
HETATM    1  C1  UNL     1      15.598   9.788  11.793  1.00  0.00     0.015 C 
HETATM    2  C2  UNL     1      14.822   8.785  11.388  1.00  0.00    -0.082 C 
HETATM    3  C3  UNL     1      14.240   7.849  12.396  1.00  0.00     0.040 C 
HETATM    4  C4  UNL     1      13.222   6.936  11.863  1.00  0.00     0.013 C 
HETATM    5  C5  UNL     1      13.578   5.468  11.903  1.00  0.00     0.069 C 
HETATM    6  C6  UNL     1      14.727   5.237  10.953  1.00  0.00     0.125 C 
HETATM    7  C7  UNL     1      15.837   4.453  11.612  1.00  0.00     0.040 C 
HETATM    8  O1  UNL     1      15.290   6.424  10.473  1.00  0.00    -0.379 OA
HETATM    9  C8  UNL     1      14.376   7.130   9.684  1.00  0.00     0.141 C 
HETATM   10  C9  UNL     1      14.328   8.607  10.001  1.00  0.00     0.044 C 
HETATM   11  C10 UNL     1      12.788   8.443   9.986  1.00  0.00     0.026 C 
HETATM   12  C11 UNL     1      13.039   7.045  10.369  1.00  0.00     0.028 C 
HETATM   13  C12 UNL     1      12.159   5.917  10.055  1.00  0.00     0.178 A 
HETATM   14  C13 UNL     1      11.879   5.471   8.665  1.00  0.00     0.051 C 
HETATM   15  N1  UNL     1      11.147   5.699  11.044  1.00  0.00    -0.041 N 
ATOM     16  H11 UNL     1      10.165   5.433  10.962  1.00  0.00     0.280 HD
ATOM     17  H12 UNL     1      10.650   6.342  11.659  1.00  0.00     0.280 HD
HETATM   18  C14 UNL     1      12.317   4.927  11.236  1.00  0.00     0.253 A 
ENDROOT
BRANCH  18  19
HETATM   19  C15 UNL     1      12.246   3.495  10.947  1.00  0.00     0.214 C 
HETATM   20  O2  UNL     1      13.048   2.829  10.203  1.00  0.00    -0.646 OA
HETATM   21  O3  UNL     1      11.194   2.778  11.494  1.00  0.00    -0.646 OA
ENDBRANCH  18  19
TORSDOF 1
ENDMDL
MODEL 5
REMARK VINA RESULT: -6.639194790      2.909      5.683
REMARK  1 active torsions:
REMARK  status: ('A' for Active; 'I' for Inactive)
REMARK    1  A    between atoms: C14_18  and  C15_19 
ROOT
HETATM    1  C1  UNL     1      14.655   8.925  12.023  1.00  0.00     0.015 C 
HETATM    2  C2  UNL     1      13.941   8.003  11.383  1.00  0.00    -0.082 C 
HETATM    3  C3  UNL     1      13.217   6.956  12.163  1.00  0.00     0.040 C 
HETATM    4  C4  UNL     1      12.283   6.145  11.374  1.00  0.00     0.013 C 
HETATM    5  C5  UNL     1      12.623   4.677  11.268  1.00  0.00     0.069 C 
HETATM    6  C6  UNL     1      13.896   4.546  10.469  1.00  0.00     0.125 C 
HETATM    7  C7  UNL     1      14.897   3.657  11.169  1.00  0.00     0.040 C 
HETATM    8  O1  UNL     1      14.528   5.773  10.237  1.00  0.00    -0.379 OA
HETATM    9  C8  UNL     1      13.739   6.597   9.426  1.00  0.00     0.141 C 
HETATM   10  C9  UNL     1      13.652   8.020   9.928  1.00  0.00     0.044 C 
HETATM   11  C10 UNL     1      12.129   7.894   9.672  1.00  0.00     0.026 C 
HETATM   12  C11 UNL     1      12.318   6.453   9.897  1.00  0.00     0.028 C 
HETATM   13  C12 UNL     1      11.487   5.397   9.313  1.00  0.00     0.178 A 
HETATM   14  C13 UNL     1      11.410   5.144   7.850  1.00  0.00     0.051 C 
HETATM   15  N1  UNL     1      10.343   5.074  10.109  1.00  0.00    -0.041 N 
ATOM     16  H11 UNL     1       9.382   4.844   9.854  1.00  0.00     0.280 HD
ATOM     17  H12 UNL     1       9.765   5.642  10.728  1.00  0.00     0.280 HD
HETATM   18  C14 UNL     1      11.470   4.257  10.362  1.00  0.00     0.253 A 
ENDROOT
BRANCH  18  19
HETATM   19  C15 UNL     1      11.436   2.878   9.878  1.00  0.00     0.214 C 
HETATM   20  O2  UNL     1      12.390   2.252   9.296  1.00  0.00    -0.646 OA
HETATM   21  O3  UNL     1      10.251   2.173  10.020  1.00  0.00    -0.646 OA
ENDBRANCH  18  19
TORSDOF 1
ENDMDL
