MODEL 1
REMARK VINA RESULT: -6.432537964      0.000      0.000
REMARK  3 active torsions:
REMARK  status: ('A' for Active; 'I' for Inactive)
REMARK    1  A    between atoms: C5_5  and  O1_6 
REMARK    2  A    between atoms: C6_8  and  O2_9 
REMARK    3  A    between atoms: C10_14  and  C11_15 
ROOT
HETATM    1  C1  UNL     1      12.653  10.313  10.035  1.00  0.00     0.015 C 
HETATM    2  C2  UNL     1      12.806   8.772   9.954  1.00  0.00     0.012 C 
HETATM    3  C3  UNL     1      11.513   8.183  10.235  1.00  0.00    -0.016 C 
HETATM    4  C4  UNL     1      11.317   6.814  10.705  1.00  0.00    -0.047 C 
HETATM    5  C5  UNL     1      11.826   6.521  12.102  1.00  0.00     0.176 C 
HETATM    6  C6  UNL     1      13.278   6.533  12.259  1.00  0.00     0.156 C 
HETATM    7  C7  UNL     1      14.119   6.971  11.123  1.00  0.00     0.026 C 
HETATM    8  C8  UNL     1      14.096   6.212   9.878  1.00  0.00     0.014 C 
HETATM    9  C9  UNL     1      12.999   5.282   9.600  1.00  0.00     0.006 A 
HETATM   10  C10 UNL     1      12.029   5.688   8.444  1.00  0.00     0.060 A 
HETATM   11  C12 UNL     1      11.620   5.655   9.862  1.00  0.00     0.033 A 
HETATM   12  C13 UNL     1      13.954   8.470  10.823  1.00  0.00    -0.035 C 
HETATM   13  C14 UNL     1      15.227   8.832  10.031  1.00  0.00     0.016 C 
HETATM   14  C15 UNL     1      14.036   9.285  12.088  1.00  0.00     0.016 C 
ENDROOT
BRANCH   5  15
HETATM   15  O1  UNL     1      11.113   7.310  13.019  1.00  0.00    -0.389 OA
ATOM     16  H1  UNL     1      11.427   7.122  13.895  1.00  0.00     0.210 HD
ENDBRANCH   5  15
BRANCH   6  17
HETATM   17  O2  UNL     1      13.780   5.296  12.734  1.00  0.00    -0.392 OA
ATOM     18  H2  UNL     1      13.886   4.658  12.039  1.00  0.00     0.210 HD
ENDBRANCH   6  17
BRANCH  10  19
HETATM   19  C11 UNL     1      11.584   4.622   7.506  1.00  0.00     0.236 C 
HETATM   20  O3  UNL     1      11.614   4.906   6.306  1.00  0.00    -0.306 OA
ENDBRANCH  10  19
TORSDOF 3
ENDMDL
MODEL 2
REMARK VINA RESULT: -6.307082363      2.082      4.545
REMARK  3 active torsions:
REMARK  status: ('A' for Active; 'I' for Inactive)
REMARK    1  A    between atoms: C5_5  and  O1_6 
REMARK    2  A    between atoms: C6_8  and  O2_9 
REMARK    3  A    between atoms: C10_14  and  C11_15 
ROOT
HETATM    1  C1  UNL     1      12.723   5.455   8.235  1.00  0.00     0.015 C 
HETATM    2  C2  UNL     1      12.878   6.437   9.424  1.00  0.00     0.012 C 
HETATM    3  C3  UNL     1      14.232   6.950   9.402  1.00  0.00    -0.016 C 
HETATM    4  C4  UNL     1      14.917   7.515  10.562  1.00  0.00    -0.047 C 
HETATM    5  C5  UNL     1      15.236   6.540  11.675  1.00  0.00     0.176 C 
HETATM    6  C6  UNL     1      14.084   6.025  12.412  1.00  0.00     0.156 C 
HETATM    7  C7  UNL     1      12.723   6.355  11.935  1.00  0.00     0.026 C 
HETATM    8  C8  UNL     1      12.290   7.747  11.907  1.00  0.00     0.014 C 
HETATM    9  C9  UNL     1      13.275   8.829  11.967  1.00  0.00     0.006 A 
HETATM   10  C10 UNL     1      13.441   9.682  10.668  1.00  0.00     0.060 A 
HETATM   11  C12 UNL     1      14.491   8.776  11.173  1.00  0.00     0.033 A 
HETATM   12  C13 UNL     1      12.399   5.681  10.591  1.00  0.00    -0.035 C 
HETATM   13  C14 UNL     1      10.857   5.691  10.534  1.00  0.00     0.016 C 
HETATM   14  C15 UNL     1      12.781   4.223  10.614  1.00  0.00     0.016 C 
ENDROOT
BRANCH   5  15
HETATM   15  O1  UNL     1      16.124   5.568  11.187  1.00  0.00    -0.389 OA
ATOM     16  H1  UNL     1      16.417   5.028  11.912  1.00  0.00     0.210 HD
ENDBRANCH   5  15
BRANCH   6  17
HETATM   17  O2  UNL     1      14.154   6.317  13.796  1.00  0.00    -0.392 OA
ATOM     18  H2  UNL     1      14.882   5.882  14.222  1.00  0.00     0.210 HD
ENDBRANCH   6  17
BRANCH  10  19
HETATM   19  C11 UNL     1      13.580  11.157  10.821  1.00  0.00     0.236 C 
HETATM   20  O3  UNL     1      12.529  11.796  10.903  1.00  0.00    -0.306 OA
ENDBRANCH  10  19
TORSDOF 3
ENDMDL
MODEL 3
REMARK VINA RESULT: -6.167210491      2.176      4.624
REMARK  3 active torsions:
REMARK  status: ('A' for Active; 'I' for Inactive)
REMARK    1  A    between atoms: C5_5  and  O1_6 
REMARK    2  A    between atoms: C6_8  and  O2_9 
REMARK    3  A    between atoms: C10_14  and  C11_15 
ROOT
HETATM    1  C1  UNL     1      12.669   3.592  10.197  1.00  0.00     0.015 C 
HETATM    2  C2  UNL     1      13.400   4.938  10.437  1.00  0.00     0.012 C 
HETATM    3  C3  UNL     1      13.626   5.073  11.861  1.00  0.00    -0.016 C 
HETATM    4  C4  UNL     1      13.852   6.345  12.542  1.00  0.00    -0.047 C 
HETATM    5  C5  UNL     1      12.669   7.291  12.575  1.00  0.00     0.176 C 
HETATM    6  C6  UNL     1      12.288   7.869  11.289  1.00  0.00     0.156 C 
HETATM    7  C7  UNL     1      12.956   7.387  10.060  1.00  0.00     0.026 C 
HETATM    8  C8  UNL     1      14.394   7.575   9.903  1.00  0.00     0.014 C 
HETATM    9  C9  UNL     1      15.231   7.869  11.069  1.00  0.00     0.006 A 
HETATM   10  C10 UNL     1      16.227   6.746  11.502  1.00  0.00     0.060 A 
HETATM   11  C12 UNL     1      15.060   7.141  12.314  1.00  0.00     0.033 A 
HETATM   12  C13 UNL     1      12.581   5.933   9.727  1.00  0.00    -0.035 C 
HETATM   13  C14 UNL     1      12.911   5.800   8.226  1.00  0.00     0.016 C 
HETATM   14  C15 UNL     1      11.091   5.726   9.821  1.00  0.00     0.016 C 
ENDROOT
BRANCH   5  15
HETATM   15  O1  UNL     1      11.627   6.689  13.299  1.00  0.00    -0.389 OA
ATOM     16  H1  UNL     1      12.000   6.080  13.925  1.00  0.00     0.210 HD
ENDBRANCH   5  15
BRANCH   6  17
HETATM   17  O2  UNL     1      12.338   9.285  11.297  1.00  0.00    -0.392 OA
ATOM     18  H2  UNL     1      11.585   9.676  10.869  1.00  0.00     0.210 HD
ENDBRANCH   6  17
BRANCH  10  19
HETATM   19  C11 UNL     1      17.601   7.155  11.906  1.00  0.00     0.236 C 
HETATM   20  O3  UNL     1      17.959   6.813  13.035  1.00  0.00    -0.306 OA
ENDBRANCH  10  19
TORSDOF 3
ENDMDL
MODEL 4
REMARK VINA RESULT: -6.098892691      1.501      1.711
REMARK  3 active torsions:
REMARK  status: ('A' for Active; 'I' for Inactive)
REMARK    1  A    between atoms: C5_5  and  O1_6 
REMARK    2  A    between atoms: C6_8  and  O2_9 
REMARK    3  A    between atoms: C10_14  and  C11_15 
ROOT
HETATM    1  C1  UNL     1      12.926  10.182  11.769  1.00  0.00     0.015 C 
HETATM    2  C2  UNL     1      13.109   8.819  11.052  1.00  0.00     0.012 C 
HETATM    3  C3  UNL     1      12.332   7.832  11.772  1.00  0.00    -0.016 C 
HETATM    4  C4  UNL     1      12.580   6.393  11.722  1.00  0.00    -0.047 C 
HETATM    5  C5  UNL     1      13.876   5.929  12.355  1.00  0.00     0.176 C 
HETATM    6  C6  UNL     1      15.096   6.321  11.654  1.00  0.00     0.156 C 
HETATM    7  C7  UNL     1      14.996   7.247  10.504  1.00  0.00     0.026 C 
HETATM    8  C8  UNL     1      14.250   6.841   9.318  1.00  0.00     0.014 C 
HETATM    9  C9  UNL     1      13.298   5.731   9.389  1.00  0.00     0.006 A 
HETATM   10  C10 UNL     1      11.789   6.108   9.236  1.00  0.00     0.060 A 
HETATM   11  C12 UNL     1      12.369   5.614  10.500  1.00  0.00     0.033 A 
HETATM   12  C13 UNL     1      14.567   8.660  10.932  1.00  0.00    -0.035 C 
HETATM   13  C14 UNL     1      15.023   9.556   9.762  1.00  0.00     0.016 C 
HETATM   14  C15 UNL     1      15.367   9.130  12.120  1.00  0.00     0.016 C 
ENDROOT
BRANCH   5  15
HETATM   15  O1  UNL     1      13.844   6.229  13.726  1.00  0.00    -0.389 OA
ATOM     16  H1  UNL     1      14.103   5.457  14.215  1.00  0.00     0.210 HD
ENDBRANCH   5  15
BRANCH   6  17
HETATM   17  O2  UNL     1      15.876   5.206  11.261  1.00  0.00    -0.392 OA
ATOM     18  H2  UNL     1      15.598   4.402  11.684  1.00  0.00     0.210 HD
ENDBRANCH   6  17
BRANCH  10  19
HETATM   19  C11 UNL     1      10.933   5.221   8.401  1.00  0.00     0.236 C 
HETATM   20  O3  UNL     1      10.099   4.544   9.007  1.00  0.00    -0.306 OA
ENDBRANCH  10  19
TORSDOF 3
ENDMDL
MODEL 5
REMARK VINA RESULT: -6.067634980      1.558      2.649
REMARK  3 active torsions:
REMARK  status: ('A' for Active; 'I' for Inactive)
REMARK    1  A    between atoms: C5_5  and  O1_6 
REMARK    2  A    between atoms: C6_8  and  O2_9 
REMARK    3  A    between atoms: C10_14  and  C11_15 
ROOT
HETATM    1  C1  UNL     1      16.214   6.763  11.065  1.00  0.00     0.015 C 
HETATM    2  C2  UNL     1      14.768   6.302  10.750  1.00  0.00     0.012 C 
HETATM    3  C3  UNL     1      14.084   7.401  10.101  1.00  0.00    -0.016 C 
HETATM    4  C4  UNL     1      12.632   7.557  10.058  1.00  0.00    -0.047 C 
HETATM    5  C5  UNL     1      11.964   7.842  11.388  1.00  0.00     0.176 C 
HETATM    6  C6  UNL     1      11.973   6.740  12.347  1.00  0.00     0.156 C 
HETATM    7  C7  UNL     1      12.747   5.519  12.029  1.00  0.00     0.026 C 
HETATM    8  C8  UNL     1      12.379   4.720  10.866  1.00  0.00     0.014 C 
HETATM    9  C9  UNL     1      11.536   5.291   9.813  1.00  0.00     0.006 A 
HETATM   10  C10 UNL     1      12.229   5.536   8.434  1.00  0.00     0.060 A 
HETATM   11  C12 UNL     1      11.776   6.633   9.311  1.00  0.00     0.033 A 
HETATM   12  C13 UNL     1      14.262   5.776  12.028  1.00  0.00    -0.035 C 
HETATM   13  C14 UNL     1      14.876   4.372  12.211  1.00  0.00     0.016 C 
HETATM   14  C15 UNL     1      14.679   6.549  13.252  1.00  0.00     0.016 C 
ENDROOT
BRANCH   5  15
HETATM   15  O1  UNL     1      12.432   9.072  11.876  1.00  0.00    -0.389 OA
ATOM     16  H1  UNL     1      13.042   9.440  11.247  1.00  0.00     0.210 HD
ENDBRANCH   5  15
BRANCH   6  17
HETATM   17  O2  UNL     1      10.668   6.352  12.737  1.00  0.00    -0.392 OA
ATOM     18  H2  UNL     1      10.644   5.994  13.616  1.00  0.00     0.210 HD
ENDBRANCH   6  17
BRANCH  10  19
HETATM   19  C11 UNL     1      11.466   5.190   7.204  1.00  0.00     0.236 C 
HETATM   20  O3  UNL     1      11.780   4.134   6.648  1.00  0.00    -0.306 OA
ENDBRANCH  10  19
TORSDOF 3
ENDMDL
