MODEL 1
REMARK VINA RESULT: -6.467280846      0.000      0.000
REMARK  4 active torsions:
REMARK  status: ('A' for Active; 'I' for Inactive)
REMARK    1  A    between atoms: C4_11  and  C5_12 
REMARK    2  A    between atoms: C5_12  and  N4_13 
REMARK    3  A    between atoms: N5_16  and  C8_17 
REMARK    4  A    between atoms: C8_17  and  C9_18 
ROOT
HETATM    1  C1  UNL     1       3.914  11.087   1.224  1.00  0.00     0.070 C 
HETATM    2  C2  UNL     1       2.726  10.235   0.898  1.00  0.00     0.037 A 
HETATM    3  N1  UNL     1       1.600  10.194   1.565  1.00  0.00    -0.303 N 
ATOM      4  H1  UNL     1       1.386  10.718   2.413  1.00  0.00     0.186 HD
HETATM    5  N2  UNL     1       0.791   9.352   0.945  1.00  0.00    -0.285 N 
ATOM      6  H2  UNL     1      -0.152   9.112   1.252  1.00  0.00     0.188 HD
HETATM    7  C3  UNL     1       1.388   8.866  -0.135  1.00  0.00     0.127 A 
HETATM    8  N3  UNL     1       0.733   7.944  -0.823  1.00  0.00    -0.384 N 
ATOM      9  H31 UNL     1       1.192   7.570  -1.653  1.00  0.00     0.157 HD
ATOM     10  H32 UNL     1      -0.210   7.564  -0.738  1.00  0.00     0.157 HD
HETATM   11  C4  UNL     1       2.636   9.370  -0.246  1.00  0.00     0.048 A 
ENDROOT
BRANCH  11  12
HETATM   12  C5  UNL     1       3.759   9.145  -1.094  1.00  0.00     0.104 C 
BRANCH  12  13
HETATM   13  N4  UNL     1       3.962   9.903  -2.253  1.00  0.00    -0.362 N 
HETATM   14  C6  UNL     1       4.993  10.596  -2.765  1.00  0.00     0.154 C 
HETATM   15  C7  UNL     1       4.562  10.911  -4.238  1.00  0.00     0.294 C 
HETATM   16  N5  UNL     1       3.985   9.641  -4.598  1.00  0.00     0.107 N 
HETATM   17  C12 UNL     1       3.282   9.192  -3.407  1.00  0.00     0.397 C 
BRANCH  16  18
HETATM   18  C8  UNL     1       3.184   9.696  -5.763  1.00  0.00     0.279 C 
BRANCH  18  19
HETATM   19  C9  UNL     1       3.548  10.884  -6.608  1.00  0.00     0.014 A 
HETATM   20  C10 UNL     1       4.137  10.726  -7.969  1.00  0.00     0.007 A 
HETATM   21  C11 UNL     1       2.707  11.047  -7.897  1.00  0.00     0.007 A 
ENDBRANCH  18  19
ENDBRANCH  16  18
ENDBRANCH  12  13
ENDBRANCH  11  12
TORSDOF 4
ENDMDL
MODEL 2
REMARK VINA RESULT: -6.453753112      0.729      1.909
REMARK  4 active torsions:
REMARK  status: ('A' for Active; 'I' for Inactive)
REMARK    1  A    between atoms: C4_11  and  C5_12 
REMARK    2  A    between atoms: C5_12  and  N4_13 
REMARK    3  A    between atoms: N5_16  and  C8_17 
REMARK    4  A    between atoms: C8_17  and  C9_18 
ROOT
HETATM    1  C1  UNL     1       0.770   8.075  -0.798  1.00  0.00     0.070 C 
HETATM    2  C2  UNL     1       1.432   9.097   0.073  1.00  0.00     0.037 A 
HETATM    3  N1  UNL     1       0.878   9.732   1.076  1.00  0.00    -0.303 N 
ATOM      4  H1  UNL     1      -0.089   9.635   1.387  1.00  0.00     0.186 HD
HETATM    5  N2  UNL     1       1.793  10.519   1.614  1.00  0.00    -0.285 N 
ATOM      6  H2  UNL     1       1.637  11.144   2.406  1.00  0.00     0.188 HD
HETATM    7  C3  UNL     1       2.945  10.376   0.971  1.00  0.00     0.127 A 
HETATM    8  N3  UNL     1       3.944  11.161   1.343  1.00  0.00    -0.384 N 
ATOM      9  H31 UNL     1       4.829  11.051   0.849  1.00  0.00     0.157 HD
ATOM     10  H32 UNL     1       4.045  11.831   2.105  1.00  0.00     0.157 HD
HETATM   11  C4  UNL     1       2.810   9.488  -0.038  1.00  0.00     0.048 A 
ENDROOT
BRANCH  11  12
HETATM   12  C5  UNL     1       3.627   9.026  -1.110  1.00  0.00     0.104 C 
BRANCH  12  13
HETATM   13  N4  UNL     1       3.868   9.819  -2.237  1.00  0.00    -0.362 N 
HETATM   14  C6  UNL     1       4.919  10.518  -2.697  1.00  0.00     0.154 C 
HETATM   15  C7  UNL     1       4.533  10.884  -4.171  1.00  0.00     0.294 C 
HETATM   16  N5  UNL     1       3.956   9.632  -4.588  1.00  0.00     0.107 N 
HETATM   17  C12 UNL     1       3.216   9.151  -3.432  1.00  0.00     0.397 C 
BRANCH  16  18
HETATM   18  C8  UNL     1       3.189   9.731  -5.772  1.00  0.00     0.279 C 
BRANCH  18  19
HETATM   19  C9  UNL     1       3.580  10.947  -6.564  1.00  0.00     0.014 A 
HETATM   20  C10 UNL     1       4.168  10.837  -7.930  1.00  0.00     0.007 A 
HETATM   21  C11 UNL     1       2.745  11.186  -7.845  1.00  0.00     0.007 A 
ENDBRANCH  18  19
ENDBRANCH  16  18
ENDBRANCH  12  13
ENDBRANCH  11  12
TORSDOF 4
ENDMDL
MODEL 3
REMARK VINA RESULT: -6.312519559      1.909      6.040
REMARK  4 active torsions:
REMARK  status: ('A' for Active; 'I' for Inactive)
REMARK    1  A    between atoms: C4_11  and  C5_12 
REMARK    2  A    between atoms: C5_12  and  N4_13 
REMARK    3  A    between atoms: N5_16  and  C8_17 
REMARK    4  A    between atoms: C8_17  and  C9_18 
ROOT
HETATM    1  C1  UNL     1       4.040  13.159  -4.963  1.00  0.00     0.070 C 
HETATM    2  C2  UNL     1       3.561  11.814  -5.415  1.00  0.00     0.037 A 
HETATM    3  N1  UNL     1       2.763  11.580  -6.428  1.00  0.00    -0.303 N 
ATOM      4  H1  UNL     1       2.339  12.283  -7.033  1.00  0.00     0.186 HD
HETATM    5  N2  UNL     1       2.605  10.271  -6.526  1.00  0.00    -0.285 N 
ATOM      6  H2  UNL     1       2.021   9.802  -7.219  1.00  0.00     0.188 HD
HETATM    7  C3  UNL     1       3.318   9.660  -5.590  1.00  0.00     0.127 A 
HETATM    8  N3  UNL     1       3.202   8.344  -5.507  1.00  0.00    -0.384 N 
ATOM      9  H31 UNL     1       3.750   7.873  -4.786  1.00  0.00     0.157 HD
ATOM     10  H32 UNL     1       2.715   7.659  -6.085  1.00  0.00     0.157 HD
HETATM   11  C4  UNL     1       3.962  10.568  -4.824  1.00  0.00     0.048 A 
ENDROOT
BRANCH  11  12
HETATM   12  C5  UNL     1       4.752  10.531  -3.639  1.00  0.00     0.104 C 
BRANCH  12  13
HETATM   13  N4  UNL     1       4.460   9.646  -2.595  1.00  0.00    -0.362 N 
HETATM   14  C6  UNL     1       5.001   9.387  -1.393  1.00  0.00     0.154 C 
HETATM   15  C7  UNL     1       3.939   8.488  -0.670  1.00  0.00     0.294 C 
HETATM   16  N5  UNL     1       2.736   9.181  -1.052  1.00  0.00     0.107 N 
HETATM   17  C12 UNL     1       2.954   9.589  -2.432  1.00  0.00     0.397 C 
BRANCH  16  18
HETATM   18  C8  UNL     1       1.559   8.424  -0.847  1.00  0.00     0.279 C 
BRANCH  18  19
HETATM   19  C9  UNL     1       1.082   8.549   0.573  1.00  0.00     0.014 A 
HETATM   20  C10 UNL     1       1.125   9.849   1.302  1.00  0.00     0.007 A 
HETATM   21  C11 UNL     1      -0.174   9.432   0.762  1.00  0.00     0.007 A 
ENDBRANCH  18  19
ENDBRANCH  16  18
ENDBRANCH  12  13
ENDBRANCH  11  12
TORSDOF 4
ENDMDL
MODEL 4
REMARK VINA RESULT: -6.310518819      4.585      7.246
REMARK  4 active torsions:
REMARK  status: ('A' for Active; 'I' for Inactive)
REMARK    1  A    between atoms: C4_11  and  C5_12 
REMARK    2  A    between atoms: C5_12  and  N4_13 
REMARK    3  A    between atoms: N5_16  and  C8_17 
REMARK    4  A    between atoms: C8_17  and  C9_18 
ROOT
HETATM    1  C1  UNL     1       0.552   8.576   3.422  1.00  0.00     0.070 C 
HETATM    2  C2  UNL     1       0.637   8.189   1.977  1.00  0.00     0.037 A 
HETATM    3  N1  UNL     1       0.404   6.998   1.483  1.00  0.00    -0.303 N 
ATOM      4  H1  UNL     1       0.157   6.165   2.016  1.00  0.00     0.186 HD
HETATM    5  N2  UNL     1       0.548   7.068   0.171  1.00  0.00    -0.285 N 
ATOM      6  H2  UNL     1       0.440   6.284  -0.473  1.00  0.00     0.188 HD
HETATM    7  C3  UNL     1       0.852   8.309  -0.184  1.00  0.00     0.127 A 
HETATM    8  N3  UNL     1       1.106   8.525  -1.465  1.00  0.00    -0.384 N 
ATOM      9  H31 UNL     1       1.341   9.480  -1.738  1.00  0.00     0.157 HD
ATOM     10  H32 UNL     1       1.042   7.928  -2.289  1.00  0.00     0.157 HD
HETATM   11  C4  UNL     1       0.937   9.100   0.908  1.00  0.00     0.048 A 
ENDROOT
BRANCH  11  12
HETATM   12  C5  UNL     1       1.330  10.445   1.170  1.00  0.00     0.104 C 
BRANCH  12  13
HETATM   13  N4  UNL     1       2.606  10.750   1.655  1.00  0.00    -0.362 N 
HETATM   14  C6  UNL     1       3.781  11.081   1.092  1.00  0.00     0.154 C 
HETATM   15  C7  UNL     1       4.664  11.577   2.288  1.00  0.00     0.294 C 
HETATM   16  N5  UNL     1       3.687  12.360   3.001  1.00  0.00     0.107 N 
HETATM   17  C12 UNL     1       2.447  11.606   2.896  1.00  0.00     0.397 C 
BRANCH  16  18
HETATM   18  C8  UNL     1       4.071  12.670   4.327  1.00  0.00     0.279 C 
BRANCH  18  19
HETATM   19  C9  UNL     1       5.250  13.601   4.339  1.00  0.00     0.014 A 
HETATM   20  C10 UNL     1       5.403  14.658   5.380  1.00  0.00     0.007 A 
HETATM   21  C11 UNL     1       6.197  13.436   5.552  1.00  0.00     0.007 A 
ENDBRANCH  18  19
ENDBRANCH  16  18
ENDBRANCH  12  13
ENDBRANCH  11  12
TORSDOF 4
ENDMDL
MODEL 5
REMARK VINA RESULT: -6.244272022      4.146      7.386
REMARK  4 active torsions:
REMARK  status: ('A' for Active; 'I' for Inactive)
REMARK    1  A    between atoms: C4_11  and  C5_12 
REMARK    2  A    between atoms: C5_12  and  N4_13 
REMARK    3  A    between atoms: N5_16  and  C8_17 
REMARK    4  A    between atoms: C8_17  and  C9_18 
ROOT
HETATM    1  C1  UNL     1       1.328   8.485  -1.463  1.00  0.00     0.070 C 
HETATM    2  C2  UNL     1       0.977   8.137  -0.049  1.00  0.00     0.037 A 
HETATM    3  N1  UNL     1       0.440   7.014   0.359  1.00  0.00    -0.303 N 
ATOM      4  H1  UNL     1       0.164   6.231  -0.234  1.00  0.00     0.186 HD
HETATM    5  N2  UNL     1       0.319   7.076   1.673  1.00  0.00    -0.285 N 
ATOM      6  H2  UNL     1      -0.083   6.344   2.260  1.00  0.00     0.188 HD
HETATM    7  C3  UNL     1       0.798   8.230   2.117  1.00  0.00     0.127 A 
HETATM    8  N3  UNL     1       0.675   8.476   3.412  1.00  0.00    -0.384 N 
ATOM      9  H31 UNL     1       1.043   9.365   3.753  1.00  0.00     0.157 HD
ATOM     10  H32 UNL     1       0.343   7.909   4.191  1.00  0.00     0.157 HD
HETATM   11  C4  UNL     1       1.238   8.981   1.084  1.00  0.00     0.048 A 
ENDROOT
BRANCH  11  12
HETATM   12  C5  UNL     1       1.729  10.309   0.920  1.00  0.00     0.104 C 
BRANCH  12  13
HETATM   13  N4  UNL     1       2.904  10.735   1.549  1.00  0.00    -0.362 N 
HETATM   14  C6  UNL     1       4.081  11.228   1.127  1.00  0.00     0.154 C 
HETATM   15  C7  UNL     1       4.773  11.761   2.428  1.00  0.00     0.294 C 
HETATM   16  N5  UNL     1       3.642  12.387   3.064  1.00  0.00     0.107 N 
HETATM   17  C12 UNL     1       2.519  11.502   2.799  1.00  0.00     0.397 C 
BRANCH  16  18
HETATM   18  C8  UNL     1       3.851  12.671   4.434  1.00  0.00     0.279 C 
BRANCH  18  19
HETATM   19  C9  UNL     1       4.828  13.800   4.604  1.00  0.00     0.014 A 
HETATM   20  C10 UNL     1       5.046  14.455   5.926  1.00  0.00     0.007 A 
HETATM   21  C11 UNL     1       6.050  13.475   5.497  1.00  0.00     0.007 A 
ENDBRANCH  18  19
ENDBRANCH  16  18
ENDBRANCH  12  13
ENDBRANCH  11  12
TORSDOF 4
ENDMDL
