MODEL 1
REMARK VINA RESULT: -5.806363408      0.000      0.000
REMARK  6 active torsions:
REMARK  status: ('A' for Active; 'I' for Inactive)
REMARK    1  A    between atoms: O1_3  and  C3_4 
REMARK    2  A    between atoms: C3_4  and  C4_5 
REMARK    3  A    between atoms: C5_7  and  C6_8 
REMARK    4  A    between atoms: C6_8  and  O3_9 
REMARK    5  A    between atoms: C7_11  and  O4_12 
REMARK    6  A    between atoms: C8_14  and  O5_15 
ROOT
HETATM    1  C1  UNL     1       4.687  -3.433 -14.053  1.00  0.00     0.044 C 
HETATM    2  C2  UNL     1       3.843  -4.254 -14.305  1.00  0.00     0.043 C 
HETATM    3  O1  UNL     1       2.891  -5.194 -14.573  1.00  0.00    -0.302 OA
ENDROOT
BRANCH   3   4
HETATM    4  C3  UNL     1       2.161  -5.209 -15.784  1.00  0.00     0.222 C 
BRANCH   4   5
HETATM    5  C4  UNL     1       0.697  -5.036 -15.591  1.00  0.00     0.178 C 
HETATM    6  O2  UNL     1      -0.070  -5.729 -16.532  1.00  0.00    -0.371 OA
HETATM    7  C5  UNL     1      -1.349  -5.366 -16.114  1.00  0.00     0.177 C 
HETATM    8  C7  UNL     1      -1.265  -3.864 -16.123  1.00  0.00     0.180 C 
HETATM    9  C8  UNL     1       0.202  -3.637 -15.735  1.00  0.00     0.180 C 
BRANCH   7  10
HETATM   10  C6  UNL     1      -2.427  -5.899 -17.013  1.00  0.00     0.198 C 
BRANCH  10  11
HETATM   11  O3  UNL     1      -2.375  -7.307 -16.909  1.00  0.00    -0.398 OA
ATOM     12  H3  UNL     1      -2.145  -7.632 -17.772  1.00  0.00     0.209 HD
ENDBRANCH  10  11
ENDBRANCH   7  10
BRANCH   8  13
HETATM   13  O4  UNL     1      -1.582  -3.297 -17.328  1.00  0.00    -0.390 OA
ATOM     14  H4  UNL     1      -1.908  -2.408 -17.262  1.00  0.00     0.210 HD
ENDBRANCH   8  13
BRANCH   9  15
HETATM   15  O5  UNL     1       0.868  -2.896 -16.689  1.00  0.00    -0.390 OA
ATOM     16  H5  UNL     1       0.681  -1.965 -16.660  1.00  0.00     0.210 HD
ENDBRANCH   9  15
ENDBRANCH   4   5
ENDBRANCH   3   4
TORSDOF 6
ENDMDL
MODEL 2
REMARK VINA RESULT: -5.484186414      1.406      2.347
REMARK  6 active torsions:
REMARK  status: ('A' for Active; 'I' for Inactive)
REMARK    1  A    between atoms: O1_3  and  C3_4 
REMARK    2  A    between atoms: C3_4  and  C4_5 
REMARK    3  A    between atoms: C5_7  and  C6_8 
REMARK    4  A    between atoms: C6_8  and  O3_9 
REMARK    5  A    between atoms: C7_11  and  O4_12 
REMARK    6  A    between atoms: C8_14  and  O5_15 
ROOT
HETATM    1  C1  UNL     1       5.041  -3.854 -13.917  1.00  0.00     0.044 C 
HETATM    2  C2  UNL     1       4.011  -4.089 -14.495  1.00  0.00     0.043 C 
HETATM    3  O1  UNL     1       2.850  -4.375 -15.152  1.00  0.00    -0.302 OA
ENDROOT
BRANCH   3   4
HETATM    4  C3  UNL     1       1.904  -3.380 -15.487  1.00  0.00     0.222 C 
BRANCH   4   5
HETATM    5  C4  UNL     1       0.739  -3.906 -16.248  1.00  0.00     0.178 C 
HETATM    6  O2  UNL     1      -0.438  -3.188 -16.022  1.00  0.00    -0.371 OA
HETATM    7  C5  UNL     1      -1.318  -3.908 -16.827  1.00  0.00     0.177 C 
HETATM    8  C7  UNL     1      -1.141  -5.308 -16.307  1.00  0.00     0.180 C 
HETATM    9  C8  UNL     1       0.339  -5.301 -15.905  1.00  0.00     0.180 C 
BRANCH   7  10
HETATM   10  C6  UNL     1      -2.733  -3.418 -16.726  1.00  0.00     0.198 C 
BRANCH  10  11
HETATM   11  O3  UNL     1      -2.867  -2.844 -15.443  1.00  0.00    -0.398 OA
ATOM     12  H3  UNL     1      -2.948  -1.906 -15.574  1.00  0.00     0.209 HD
ENDBRANCH  10  11
ENDBRANCH   7  10
BRANCH   8  13
HETATM   13  O4  UNL     1      -1.966  -5.620 -15.261  1.00  0.00    -0.390 OA
ATOM     14  H4  UNL     1      -1.894  -6.520 -14.967  1.00  0.00     0.210 HD
ENDBRANCH   8  13
BRANCH   9  15
HETATM   15  O5  UNL     1       0.503  -5.626 -14.575  1.00  0.00    -0.390 OA
ATOM     16  H5  UNL     1       1.408  -5.659 -14.289  1.00  0.00     0.210 HD
ENDBRANCH   9  15
ENDBRANCH   4   5
ENDBRANCH   3   4
TORSDOF 6
ENDMDL
MODEL 3
REMARK VINA RESULT: -5.448236848      0.971      1.006
REMARK  6 active torsions:
REMARK  status: ('A' for Active; 'I' for Inactive)
REMARK    1  A    between atoms: O1_3  and  C3_4 
REMARK    2  A    between atoms: C3_4  and  C4_5 
REMARK    3  A    between atoms: C5_7  and  C6_8 
REMARK    4  A    between atoms: C6_8  and  O3_9 
REMARK    5  A    between atoms: C7_11  and  O4_12 
REMARK    6  A    between atoms: C8_14  and  O5_15 
ROOT
HETATM    1  C1  UNL     1       4.674  -4.090 -14.119  1.00  0.00     0.044 C 
HETATM    2  C2  UNL     1       3.571  -3.792 -14.498  1.00  0.00     0.043 C 
HETATM    3  O1  UNL     1       2.319  -3.441 -14.912  1.00  0.00    -0.302 OA
ENDROOT
BRANCH   3   4
HETATM    4  C3  UNL     1       1.689  -4.052 -16.021  1.00  0.00     0.222 C 
BRANCH   4   5
HETATM    5  C4  UNL     1       0.229  -4.259 -15.827  1.00  0.00     0.178 C 
HETATM    6  O2  UNL     1      -0.257  -5.401 -16.471  1.00  0.00    -0.371 OA
HETATM    7  C5  UNL     1      -1.605  -5.313 -16.132  1.00  0.00     0.177 C 
HETATM    8  C7  UNL     1      -1.959  -3.932 -16.612  1.00  0.00     0.180 C 
HETATM    9  C8  UNL     1      -0.641  -3.181 -16.379  1.00  0.00     0.180 C 
BRANCH   7  10
HETATM   10  C6  UNL     1      -2.437  -6.388 -16.771  1.00  0.00     0.198 C 
BRANCH  10  11
HETATM   11  O3  UNL     1      -1.657  -7.565 -16.746  1.00  0.00    -0.398 OA
ATOM     12  H3  UNL     1      -1.245  -7.596 -15.890  1.00  0.00     0.209 HD
ENDBRANCH  10  11
ENDBRANCH   7  10
BRANCH   8  13
HETATM   13  O4  UNL     1      -2.363  -3.885 -17.919  1.00  0.00    -0.390 OA
ATOM     14  H4  UNL     1      -2.997  -4.554 -18.150  1.00  0.00     0.210 HD
ENDBRANCH   8  13
BRANCH   9  15
HETATM   15  O5  UNL     1      -0.170  -2.614 -17.544  1.00  0.00    -0.390 OA
ATOM     16  H5  UNL     1      -0.539  -1.761 -17.741  1.00  0.00     0.210 HD
ENDBRANCH   9  15
ENDBRANCH   4   5
ENDBRANCH   3   4
TORSDOF 6
ENDMDL
MODEL 4
REMARK VINA RESULT: -5.289333888      1.523      5.201
REMARK  6 active torsions:
REMARK  status: ('A' for Active; 'I' for Inactive)
REMARK    1  A    between atoms: O1_3  and  C3_4 
REMARK    2  A    between atoms: C3_4  and  C4_5 
REMARK    3  A    between atoms: C5_7  and  C6_8 
REMARK    4  A    between atoms: C6_8  and  O3_9 
REMARK    5  A    between atoms: C7_11  and  O4_12 
REMARK    6  A    between atoms: C8_14  and  O5_15 
ROOT
HETATM    1  C1  UNL     1      -2.468  -4.831 -17.875  1.00  0.00     0.044 C 
HETATM    2  C2  UNL     1      -1.673  -4.994 -16.986  1.00  0.00     0.043 C 
HETATM    3  O1  UNL     1      -0.783  -5.165 -15.966  1.00  0.00    -0.302 OA
ENDROOT
BRANCH   3   4
HETATM    4  C3  UNL     1       0.369  -5.974 -16.094  1.00  0.00     0.222 C 
BRANCH   4   5
HETATM    5  C4  UNL     1       1.640  -5.204 -16.025  1.00  0.00     0.178 C 
HETATM    6  O2  UNL     1       2.450  -5.571 -14.946  1.00  0.00    -0.371 OA
HETATM    7  C5  UNL     1       3.515  -4.693 -15.135  1.00  0.00     0.177 C 
HETATM    8  C7  UNL     1       2.817  -3.361 -15.175  1.00  0.00     0.180 C 
HETATM    9  C8  UNL     1       1.479  -3.736 -15.824  1.00  0.00     0.180 C 
BRANCH   7  10
HETATM   10  C6  UNL     1       4.544  -4.785 -14.046  1.00  0.00     0.198 C 
BRANCH  10  11
HETATM   11  O3  UNL     1       5.256  -3.565 -14.064  1.00  0.00    -0.398 OA
ATOM     12  H3  UNL     1       5.118  -3.186 -14.925  1.00  0.00     0.209 HD
ENDBRANCH  10  11
ENDBRANCH   7  10
BRANCH   8  13
HETATM   13  O4  UNL     1       2.657  -2.781 -13.945  1.00  0.00    -0.390 OA
ATOM     14  H4  UNL     1       3.046  -1.917 -13.873  1.00  0.00     0.210 HD
ENDBRANCH   8  13
BRANCH   9  15
HETATM   15  O5  UNL     1       0.412  -3.387 -15.023  1.00  0.00    -0.390 OA
ATOM     16  H5  UNL     1      -0.157  -4.112 -14.792  1.00  0.00     0.210 HD
ENDBRANCH   9  15
ENDBRANCH   4   5
ENDBRANCH   3   4
TORSDOF 6
ENDMDL
MODEL 5
REMARK VINA RESULT: -5.210187521      1.371      4.843
REMARK  6 active torsions:
REMARK  status: ('A' for Active; 'I' for Inactive)
REMARK    1  A    between atoms: O1_3  and  C3_4 
REMARK    2  A    between atoms: C3_4  and  C4_5 
REMARK    3  A    between atoms: C5_7  and  C6_8 
REMARK    4  A    between atoms: C6_8  and  O3_9 
REMARK    5  A    between atoms: C7_11  and  O4_12 
REMARK    6  A    between atoms: C8_14  and  O5_15 
ROOT
HETATM    1  C1  UNL     1      -2.790  -4.480 -18.414  1.00  0.00     0.044 C 
HETATM    2  C2  UNL     1      -2.416  -5.257 -17.573  1.00  0.00     0.043 C 
HETATM    3  O1  UNL     1      -2.003  -6.152 -16.630  1.00  0.00    -0.302 OA
ENDROOT
BRANCH   3   4
HETATM    4  C3  UNL     1      -1.146  -5.789 -15.565  1.00  0.00     0.222 C 
BRANCH   4   5
HETATM    5  C4  UNL     1       0.134  -5.183 -16.020  1.00  0.00     0.178 C 
HETATM    6  O2  UNL     1       1.182  -5.359 -15.113  1.00  0.00    -0.371 OA
HETATM    7  C5  UNL     1       2.201  -4.690 -15.787  1.00  0.00     0.177 C 
HETATM    8  C7  UNL     1       1.584  -3.338 -16.020  1.00  0.00     0.180 C 
HETATM    9  C8  UNL     1       0.104  -3.703 -16.197  1.00  0.00     0.180 C 
BRANCH   7  10
HETATM   10  C6  UNL     1       3.477  -4.626 -14.998  1.00  0.00     0.198 C 
BRANCH  10  11
HETATM   11  O3  UNL     1       3.106  -4.392 -13.656  1.00  0.00    -0.398 OA
ATOM     12  H3  UNL     1       3.384  -3.506 -13.451  1.00  0.00     0.209 HD
ENDBRANCH  10  11
ENDBRANCH   7  10
BRANCH   8  13
HETATM   13  O4  UNL     1       1.785  -2.452 -14.996  1.00  0.00    -0.390 OA
ATOM     14  H4  UNL     1       1.222  -1.688 -15.031  1.00  0.00     0.210 HD
ENDBRANCH   8  13
BRANCH   9  15
HETATM   15  O5  UNL     1      -0.692  -3.039 -15.289  1.00  0.00    -0.390 OA
ATOM     16  H5  UNL     1      -1.538  -3.445 -15.141  1.00  0.00     0.210 HD
ENDBRANCH   9  15
ENDBRANCH   4   5
ENDBRANCH   3   4
TORSDOF 6
ENDMDL
