MODEL 1
REMARK VINA RESULT: -5.758371154      0.000      0.000
REMARK  5 active torsions:
REMARK  status: ('A' for Active; 'I' for Inactive)
REMARK    1  A    between atoms: O1_2  and  C2_3 
REMARK    2  A    between atoms: C3_5  and  C4_6 
REMARK    3  A    between atoms: C4_6  and  O3_7 
REMARK    4  A    between atoms: C5_9  and  O4_10 
REMARK    5  A    between atoms: C7_12  and  O5_13 
ROOT
HETATM    1  C2  UNL     1       1.816  -4.223 -15.619  1.00  0.00     0.290 C 
HETATM    2  O2  UNL     1       0.955  -3.225 -16.026  1.00  0.00    -0.349 OA
HETATM    3  C3  UNL     1      -0.212  -3.823 -16.476  1.00  0.00     0.179 C 
HETATM    4  C5  UNL     1      -0.177  -5.259 -16.039  1.00  0.00     0.185 C 
HETATM    5  C7  UNL     1       0.858  -5.222 -14.968  1.00  0.00     0.204 C 
ENDROOT
BRANCH   3   6
HETATM    6  C4  UNL     1      -1.370  -3.053 -15.886  1.00  0.00     0.198 C 
BRANCH   6   7
HETATM    7  O3  UNL     1      -2.409  -2.928 -16.787  1.00  0.00    -0.398 OA
ATOM      8  H3  UNL     1      -3.231  -3.231 -16.419  1.00  0.00     0.209 HD
ENDBRANCH   6   7
ENDBRANCH   3   6
BRANCH   4   9
HETATM    9  O4  UNL     1      -1.368  -5.813 -15.741  1.00  0.00    -0.385 OA
HETATM   10  C6  UNL     1      -2.037  -6.479 -16.726  1.00  0.00     0.202 C 
ENDBRANCH   4   9
BRANCH   1  11
HETATM   11  O1  UNL     1       2.762  -3.777 -14.726  1.00  0.00    -0.363 OA
HETATM   12  C1  UNL     1       3.962  -4.452 -14.795  1.00  0.00     0.204 C 
ENDBRANCH   1  11
BRANCH   5  13
HETATM   13  O5  UNL     1       1.526  -6.428 -14.805  1.00  0.00    -0.388 OA
ATOM     14  H5  UNL     1       0.977  -7.007 -14.290  1.00  0.00     0.210 HD
ENDBRANCH   5  13
TORSDOF 5
ENDMDL
MODEL 2
REMARK VINA RESULT: -5.338313695      1.226      1.240
REMARK  5 active torsions:
REMARK  status: ('A' for Active; 'I' for Inactive)
REMARK    1  A    between atoms: O1_2  and  C2_3 
REMARK    2  A    between atoms: C3_5  and  C4_6 
REMARK    3  A    between atoms: C4_6  and  O3_7 
REMARK    4  A    between atoms: C5_9  and  O4_10 
REMARK    5  A    between atoms: C7_12  and  O5_13 
ROOT
HETATM    1  C2  UNL     1       2.495  -4.948 -15.536  1.00  0.00     0.290 C 
HETATM    2  O2  UNL     1       2.057  -3.933 -16.363  1.00  0.00    -0.349 OA
HETATM    3  C3  UNL     1       0.762  -4.230 -16.757  1.00  0.00     0.179 C 
HETATM    4  C5  UNL     1       0.271  -5.345 -15.879  1.00  0.00     0.185 C 
HETATM    5  C7  UNL     1       1.231  -5.276 -14.741  1.00  0.00     0.204 C 
ENDROOT
BRANCH   3   6
HETATM    6  C4  UNL     1      -0.054  -2.966 -16.619  1.00  0.00     0.198 C 
BRANCH   6   7
HETATM    7  O3  UNL     1      -0.012  -2.204 -17.769  1.00  0.00    -0.398 OA
ATOM      8  H3  UNL     1      -0.555  -2.575 -18.455  1.00  0.00     0.209 HD
ENDBRANCH   6   7
ENDBRANCH   3   6
BRANCH   4   9
HETATM    9  O4  UNL     1      -1.045  -5.332 -15.590  1.00  0.00    -0.385 OA
HETATM   10  C6  UNL     1      -1.890  -6.044 -16.390  1.00  0.00     0.202 C 
ENDBRANCH   4   9
BRANCH   1  11
HETATM   11  O1  UNL     1       3.523  -4.554 -14.711  1.00  0.00    -0.363 OA
HETATM   12  C1  UNL     1       3.340  -3.312 -14.140  1.00  0.00     0.204 C 
ENDBRANCH   1  11
BRANCH   5  13
HETATM   13  O5  UNL     1       1.418  -6.495 -14.104  1.00  0.00    -0.388 OA
ATOM     14  H5  UNL     1       1.600  -7.153 -14.765  1.00  0.00     0.210 HD
ENDBRANCH   5  13
TORSDOF 5
ENDMDL
MODEL 3
REMARK VINA RESULT: -5.149730322      1.158      3.869
REMARK  5 active torsions:
REMARK  status: ('A' for Active; 'I' for Inactive)
REMARK    1  A    between atoms: O1_2  and  C2_3 
REMARK    2  A    between atoms: C3_5  and  C4_6 
REMARK    3  A    between atoms: C4_6  and  O3_7 
REMARK    4  A    between atoms: C5_9  and  O4_10 
REMARK    5  A    between atoms: C7_12  and  O5_13 
ROOT
HETATM    1  C2  UNL     1      -0.671  -3.771 -15.927  1.00  0.00     0.290 C 
HETATM    2  O2  UNL     1       0.639  -3.348 -15.851  1.00  0.00    -0.349 OA
HETATM    3  C3  UNL     1       1.389  -4.372 -15.293  1.00  0.00     0.179 C 
HETATM    4  C5  UNL     1       0.536  -5.608 -15.303  1.00  0.00     0.185 C 
HETATM    5  C7  UNL     1      -0.508  -5.244 -16.302  1.00  0.00     0.204 C 
ENDROOT
BRANCH   3   6
HETATM    6  C4  UNL     1       2.646  -4.514 -16.118  1.00  0.00     0.198 C 
BRANCH   6   7
HETATM    7  O3  UNL     1       3.684  -5.043 -15.378  1.00  0.00    -0.398 OA
ATOM      8  H3  UNL     1       4.456  -5.190 -15.913  1.00  0.00     0.209 HD
ENDBRANCH   6   7
ENDBRANCH   3   6
BRANCH   4   9
HETATM    9  O4  UNL     1       1.190  -6.773 -15.475  1.00  0.00    -0.385 OA
HETATM   10  C6  UNL     1       0.962  -7.480 -16.620  1.00  0.00     0.202 C 
ENDBRANCH   4   9
BRANCH   1  11
HETATM   11  O1  UNL     1      -1.397  -3.087 -16.875  1.00  0.00    -0.363 OA
HETATM   12  C1  UNL     1      -2.662  -2.727 -16.462  1.00  0.00     0.204 C 
ENDBRANCH   1  11
BRANCH   5  13
HETATM   13  O5  UNL     1      -1.719  -5.888 -16.091  1.00  0.00    -0.388 OA
ATOM     14  H5  UNL     1      -1.803  -6.586 -16.730  1.00  0.00     0.210 HD
ENDBRANCH   5  13
TORSDOF 5
ENDMDL
MODEL 4
REMARK VINA RESULT: -5.073859535      1.405      3.016
REMARK  5 active torsions:
REMARK  status: ('A' for Active; 'I' for Inactive)
REMARK    1  A    between atoms: O1_2  and  C2_3 
REMARK    2  A    between atoms: C3_5  and  C4_6 
REMARK    3  A    between atoms: C4_6  and  O3_7 
REMARK    4  A    between atoms: C5_9  and  O4_10 
REMARK    5  A    between atoms: C7_12  and  O5_13 
ROOT
HETATM    1  C2  UNL     1       2.527  -4.798 -14.863  1.00  0.00     0.290 C 
HETATM    2  O2  UNL     1       2.104  -6.072 -15.177  1.00  0.00    -0.349 OA
HETATM    3  C3  UNL     1       0.733  -6.031 -15.382  1.00  0.00     0.179 C 
HETATM    4  C5  UNL     1       0.340  -4.586 -15.491  1.00  0.00     0.185 C 
HETATM    5  C7  UNL     1       1.652  -3.939 -15.777  1.00  0.00     0.204 C 
ENDROOT
BRANCH   3   6
HETATM    6  C4  UNL     1       0.438  -6.820 -16.635  1.00  0.00     0.198 C 
BRANCH   6   7
HETATM    7  O3  UNL     1       0.902  -8.117 -16.542  1.00  0.00    -0.398 OA
ATOM      8  H3  UNL     1       1.575  -8.296 -17.188  1.00  0.00     0.209 HD
ENDBRANCH   6   7
ENDBRANCH   3   6
BRANCH   4   9
HETATM    9  O4  UNL     1      -0.686  -4.315 -16.321  1.00  0.00    -0.385 OA
HETATM   10  C6  UNL     1      -1.684  -3.501 -15.872  1.00  0.00     0.202 C 
ENDBRANCH   4   9
BRANCH   1  11
HETATM   11  O1  UNL     1       3.865  -4.605 -15.119  1.00  0.00    -0.363 OA
HETATM   12  C1  UNL     1       4.548  -3.983 -14.095  1.00  0.00     0.204 C 
ENDBRANCH   1  11
BRANCH   5  13
HETATM   13  O5  UNL     1       1.723  -2.623 -15.342  1.00  0.00    -0.388 OA
ATOM     14  H5  UNL     1       0.862  -2.231 -15.430  1.00  0.00     0.210 HD
ENDBRANCH   5  13
TORSDOF 5
ENDMDL
MODEL 5
REMARK VINA RESULT: -5.055853466      1.124      2.702
REMARK  5 active torsions:
REMARK  status: ('A' for Active; 'I' for Inactive)
REMARK    1  A    between atoms: O1_2  and  C2_3 
REMARK    2  A    between atoms: C3_5  and  C4_6 
REMARK    3  A    between atoms: C4_6  and  O3_7 
REMARK    4  A    between atoms: C5_9  and  O4_10 
REMARK    5  A    between atoms: C7_12  and  O5_13 
ROOT
HETATM    1  C2  UNL     1       1.024  -4.941 -15.250  1.00  0.00     0.290 C 
HETATM    2  O2  UNL     1       0.051  -5.872 -15.547  1.00  0.00    -0.349 OA
HETATM    3  C3  UNL     1      -1.138  -5.194 -15.767  1.00  0.00     0.179 C 
HETATM    4  C5  UNL     1      -0.804  -3.736 -15.904  1.00  0.00     0.185 C 
HETATM    5  C7  UNL     1       0.658  -3.789 -16.187  1.00  0.00     0.204 C 
ENDROOT
BRANCH   3   6
HETATM    6  C4  UNL     1      -1.768  -5.776 -17.010  1.00  0.00     0.198 C 
BRANCH   6   7
HETATM    7  O3  UNL     1      -2.332  -7.012 -16.765  1.00  0.00    -0.398 OA
ATOM      8  H3  UNL     1      -2.032  -7.663 -17.388  1.00  0.00     0.209 HD
ENDBRANCH   6   7
ENDBRANCH   3   6
BRANCH   4   9
HETATM    9  O4  UNL     1      -1.580  -3.031 -16.749  1.00  0.00    -0.385 OA
HETATM   10  C6  UNL     1      -2.831  -2.675 -16.335  1.00  0.00     0.202 C 
ENDBRANCH   4   9
BRANCH   1  11
HETATM   11  O1  UNL     1       2.296  -5.406 -15.495  1.00  0.00    -0.363 OA
HETATM   12  C1  UNL     1       3.291  -4.657 -14.902  1.00  0.00     0.204 C 
ENDBRANCH   1  11
BRANCH   5  13
HETATM   13  O5  UNL     1       1.340  -2.654 -15.773  1.00  0.00    -0.388 OA
ATOM     14  H5  UNL     1       1.786  -2.281 -16.525  1.00  0.00     0.210 HD
ENDBRANCH   5  13
TORSDOF 5
ENDMDL
