MODEL 1
REMARK VINA RESULT: -6.857022211      0.000      0.000
REMARK  5 active torsions:
REMARK  status: ('A' for Active; 'I' for Inactive)
REMARK    1  A    between atoms: C2_2  and  O1_3 
REMARK    2  A    between atoms: C2_2  and  O3_9 
REMARK    3  A    between atoms: O1_3  and  C3_4 
REMARK    4  A    between atoms: N1_5  and  O2_7 
REMARK    5  A    between atoms: O3_9  and  C4_10 
ROOT
HETATM    1  O3  UNL     1      -0.316  -5.102 -15.026  1.00  0.00    -0.330 OA
ENDROOT
BRANCH   1   2
HETATM    2  C2  UNL     1       0.698  -4.756 -15.918  1.00  0.00     0.266 C 
HETATM    3  C1  UNL     1       1.666  -5.910 -16.019  1.00  0.00     0.071 C 
BRANCH   2   4
HETATM    4  O1  UNL     1       1.318  -3.598 -15.364  1.00  0.00    -0.315 OA
BRANCH   4   5
HETATM    5  C3  UNL     1       2.643  -3.720 -14.986  1.00  0.00     0.251 C 
HETATM    6  N1  UNL     1       3.022  -2.998 -13.995  1.00  0.00    -0.258 N 
ATOM      7  H1  UNL     1       2.374  -2.370 -13.518  1.00  0.00     0.195 HD
BRANCH   6   8
HETATM    8  O2  UNL     1       4.334  -3.104 -13.602  1.00  0.00    -0.289 OA
ATOM      9  H2  UNL     1       4.962  -2.527 -14.020  1.00  0.00     0.244 HD
ENDBRANCH   6   8
ENDBRANCH   4   5
ENDBRANCH   2   4
ENDBRANCH   1   2
BRANCH   1  10
HETATM   10  C4  UNL     1      -1.541  -4.938 -15.672  1.00  0.00     0.284 C 
HETATM   11  C5  UNL     1      -1.770  -3.464 -15.842  1.00  0.00     0.200 C 
HETATM   12  N2  UNL     1      -2.347  -3.128 -17.099  1.00  0.00    -0.334 N 
HETATM   13  N3  UNL     1      -2.717  -3.946 -17.948  1.00  0.00    -0.317 N 
ATOM     14  H2  UNL     1      -2.465  -2.137 -17.316  1.00  0.00     0.180 HD
HETATM   15  C6  UNL     1      -2.576  -5.364 -17.697  1.00  0.00     0.310 C 
ATOM     16  H3  UNL     1      -3.123  -3.622 -18.826  1.00  0.00     0.182 HD
HETATM   17  O4  UNL     1      -1.518  -5.637 -16.856  1.00  0.00    -0.339 OA
ENDBRANCH   1  10
TORSDOF 5
ENDMDL
MODEL 2
REMARK VINA RESULT: -6.779248946      1.023      1.035
REMARK  5 active torsions:
REMARK  status: ('A' for Active; 'I' for Inactive)
REMARK    1  A    between atoms: C2_2  and  O1_3 
REMARK    2  A    between atoms: C2_2  and  O3_9 
REMARK    3  A    between atoms: O1_3  and  C3_4 
REMARK    4  A    between atoms: N1_5  and  O2_7 
REMARK    5  A    between atoms: O3_9  and  C4_10 
ROOT
HETATM    1  O3  UNL     1      -0.023  -5.553 -14.847  1.00  0.00    -0.330 OA
ENDROOT
BRANCH   1   2
HETATM    2  C2  UNL     1       1.070  -5.589 -15.713  1.00  0.00     0.266 C 
HETATM    3  C1  UNL     1       1.021  -6.878 -16.496  1.00  0.00     0.071 C 
BRANCH   2   4
HETATM    4  O1  UNL     1       2.224  -5.527 -14.877  1.00  0.00    -0.315 OA
BRANCH   4   5
HETATM    5  C3  UNL     1       2.894  -4.319 -14.829  1.00  0.00     0.251 C 
HETATM    6  N1  UNL     1       3.438  -4.012 -13.707  1.00  0.00    -0.258 N 
ATOM      7  H1  UNL     1       3.373  -4.632 -12.899  1.00  0.00     0.195 HD
BRANCH   6   8
HETATM    8  O2  UNL     1       4.109  -2.816 -13.637  1.00  0.00    -0.289 OA
ATOM      9  H2  UNL     1       4.414  -2.536 -12.782  1.00  0.00     0.244 HD
ENDBRANCH   6   8
ENDBRANCH   4   5
ENDBRANCH   2   4
ENDBRANCH   1   2
BRANCH   1  10
HETATM   10  C4  UNL     1      -1.084  -4.939 -15.510  1.00  0.00     0.284 C 
HETATM   11  C5  UNL     1      -0.572  -3.654 -16.096  1.00  0.00     0.200 C 
HETATM   12  N2  UNL     1      -1.088  -3.387 -17.396  1.00  0.00    -0.334 N 
HETATM   13  N3  UNL     1      -1.940  -4.071 -17.973  1.00  0.00    -0.317 N 
ATOM     14  H2  UNL     1      -0.728  -2.568 -17.888  1.00  0.00     0.180 HD
HETATM   15  C6  UNL     1      -2.487  -5.244 -17.324  1.00  0.00     0.310 C 
ATOM     16  H3  UNL     1      -2.258  -3.809 -18.905  1.00  0.00     0.182 HD
HETATM   17  O4  UNL     1      -1.592  -5.812 -16.443  1.00  0.00    -0.339 OA
ENDBRANCH   1  10
TORSDOF 5
ENDMDL
MODEL 3
REMARK VINA RESULT: -6.576831434      1.608      5.006
REMARK  5 active torsions:
REMARK  status: ('A' for Active; 'I' for Inactive)
REMARK    1  A    between atoms: C2_2  and  O1_3 
REMARK    2  A    between atoms: C2_2  and  O3_9 
REMARK    3  A    between atoms: O1_3  and  C3_4 
REMARK    4  A    between atoms: N1_5  and  O2_7 
REMARK    5  A    between atoms: O3_9  and  C4_10 
ROOT
HETATM    1  O3  UNL     1       1.133  -4.530 -16.344  1.00  0.00    -0.330 OA
ENDROOT
BRANCH   1   2
HETATM    2  C2  UNL     1       0.774  -5.620 -15.552  1.00  0.00     0.266 C 
HETATM    3  C1  UNL     1       0.785  -6.861 -16.409  1.00  0.00     0.071 C 
BRANCH   2   4
HETATM    4  O1  UNL     1      -0.535  -5.328 -15.068  1.00  0.00    -0.315 OA
BRANCH   4   5
HETATM    5  C3  UNL     1      -1.396  -4.692 -15.943  1.00  0.00     0.251 C 
HETATM    6  N1  UNL     1      -1.585  -3.437 -15.746  1.00  0.00    -0.258 N 
ATOM      7  H1  UNL     1      -1.120  -2.944 -14.983  1.00  0.00     0.195 HD
BRANCH   6   8
HETATM    8  O2  UNL     1      -2.437  -2.785 -16.604  1.00  0.00    -0.289 OA
ATOM      9  H2  UNL     1      -3.038  -2.155 -16.227  1.00  0.00     0.244 HD
ENDBRANCH   6   8
ENDBRANCH   4   5
ENDBRANCH   2   4
ENDBRANCH   1   2
BRANCH   1  10
HETATM   10  C4  UNL     1       2.384  -4.080 -15.926  1.00  0.00     0.284 C 
HETATM   11  C5  UNL     1       2.162  -2.963 -14.947  1.00  0.00     0.200 C 
HETATM   12  N2  UNL     1       3.064  -2.996 -13.845  1.00  0.00    -0.334 N 
HETATM   13  N3  UNL     1       4.001  -3.792 -13.723  1.00  0.00    -0.317 N 
ATOM     14  H2  UNL     1       2.926  -2.311 -13.101  1.00  0.00     0.180 HD
HETATM   15  C6  UNL     1       4.245  -4.785 -14.746  1.00  0.00     0.310 C 
ATOM     16  H3  UNL     1       4.603  -3.748 -12.901  1.00  0.00     0.182 HD
HETATM   17  O4  UNL     1       3.090  -5.141 -15.408  1.00  0.00    -0.339 OA
ENDBRANCH   1  10
TORSDOF 5
ENDMDL
MODEL 4
REMARK VINA RESULT: -6.444696108      1.228      1.607
REMARK  5 active torsions:
REMARK  status: ('A' for Active; 'I' for Inactive)
REMARK    1  A    between atoms: C2_2  and  O1_3 
REMARK    2  A    between atoms: C2_2  and  O3_9 
REMARK    3  A    between atoms: O1_3  and  C3_4 
REMARK    4  A    between atoms: N1_5  and  O2_7 
REMARK    5  A    between atoms: O3_9  and  C4_10 
ROOT
HETATM    1  O3  UNL     1      -0.197  -5.309 -15.256  1.00  0.00    -0.330 OA
ENDROOT
BRANCH   1   2
HETATM    2  C2  UNL     1       1.013  -5.649 -15.860  1.00  0.00     0.266 C 
HETATM    3  C1  UNL     1       0.898  -7.048 -16.414  1.00  0.00     0.071 C 
BRANCH   2   4
HETATM    4  O1  UNL     1       1.993  -5.574 -14.827  1.00  0.00    -0.315 OA
BRANCH   4   5
HETATM    5  C3  UNL     1       2.830  -4.474 -14.840  1.00  0.00     0.251 C 
HETATM    6  N1  UNL     1       3.126  -3.967 -13.698  1.00  0.00    -0.258 N 
ATOM      7  H1  UNL     1       2.758  -4.361 -12.832  1.00  0.00     0.195 HD
BRANCH   6   8
HETATM    8  O2  UNL     1       3.957  -2.874 -13.689  1.00  0.00    -0.289 OA
ATOM      9  H2  UNL     1       3.692  -2.129 -13.163  1.00  0.00     0.244 HD
ENDBRANCH   6   8
ENDBRANCH   4   5
ENDBRANCH   2   4
ENDBRANCH   1   2
BRANCH   1  10
HETATM   10  C4  UNL     1      -0.703  -4.180 -15.898  1.00  0.00     0.284 C 
HETATM   11  C5  UNL     1      -0.959  -4.548 -17.332  1.00  0.00     0.200 C 
HETATM   12  N2  UNL     1      -2.161  -3.987 -17.849  1.00  0.00    -0.334 N 
HETATM   13  N3  UNL     1      -2.893  -3.201 -17.238  1.00  0.00    -0.317 N 
ATOM     14  H2  UNL     1      -2.438  -4.253 -18.794  1.00  0.00     0.180 HD
HETATM   15  C6  UNL     1      -2.551  -2.788 -15.894  1.00  0.00     0.310 C 
ATOM     16  H3  UNL     1      -3.739  -2.843 -17.681  1.00  0.00     0.182 HD
HETATM   17  O4  UNL     1      -1.823  -3.750 -15.226  1.00  0.00    -0.339 OA
ENDBRANCH   1  10
TORSDOF 5
ENDMDL
MODEL 5
REMARK VINA RESULT: -6.383008174      1.887      5.399
REMARK  5 active torsions:
REMARK  status: ('A' for Active; 'I' for Inactive)
REMARK    1  A    between atoms: C2_2  and  O1_3 
REMARK    2  A    between atoms: C2_2  and  O3_9 
REMARK    3  A    between atoms: O1_3  and  C3_4 
REMARK    4  A    between atoms: N1_5  and  O2_7 
REMARK    5  A    between atoms: O3_9  and  C4_10 
ROOT
HETATM    1  O3  UNL     1       1.144  -4.439 -16.266  1.00  0.00    -0.330 OA
ENDROOT
BRANCH   1   2
HETATM    2  C2  UNL     1       0.793  -5.551 -15.501  1.00  0.00     0.266 C 
HETATM    3  C1  UNL     1       1.012  -6.793 -16.328  1.00  0.00     0.071 C 
BRANCH   2   4
HETATM    4  O1  UNL     1      -0.584  -5.374 -15.175  1.00  0.00    -0.315 OA
BRANCH   4   5
HETATM    5  C3  UNL     1      -1.483  -5.417 -16.224  1.00  0.00     0.251 C 
HETATM    6  N1  UNL     1      -2.077  -6.538 -16.420  1.00  0.00    -0.258 N 
ATOM      7  H1  UNL     1      -1.889  -7.349 -15.830  1.00  0.00     0.195 HD
BRANCH   6   8
HETATM    8  O2  UNL     1      -2.976  -6.604 -17.457  1.00  0.00    -0.289 OA
ATOM      9  H2  UNL     1      -2.630  -6.777 -18.324  1.00  0.00     0.244 HD
ENDBRANCH   6   8
ENDBRANCH   4   5
ENDBRANCH   2   4
ENDBRANCH   1   2
BRANCH   1  10
HETATM   10  C4  UNL     1       2.409  -4.014 -15.864  1.00  0.00     0.284 C 
HETATM   11  C5  UNL     1       2.221  -2.934 -14.837  1.00  0.00     0.200 C 
HETATM   12  N2  UNL     1       3.150  -3.015 -13.761  1.00  0.00    -0.334 N 
HETATM   13  N3  UNL     1       4.084  -3.821 -13.694  1.00  0.00    -0.317 N 
ATOM     14  H2  UNL     1       3.037  -2.358 -12.989  1.00  0.00     0.180 HD
HETATM   15  C6  UNL     1       4.294  -4.777 -14.759  1.00  0.00     0.310 C 
ATOM     16  H3  UNL     1       4.707  -3.813 -12.886  1.00  0.00     0.182 HD
HETATM   17  O4  UNL     1       3.119  -5.099 -15.405  1.00  0.00    -0.339 OA
ENDBRANCH   1  10
TORSDOF 5
ENDMDL
