MODEL 1
REMARK VINA RESULT: -4.149306367      0.000      0.000
REMARK  5 active torsions:
REMARK  status: ('A' for Active; 'I' for Inactive)
REMARK    1  A    between atoms: O1_2  and  C2_3 
REMARK    2  A    between atoms: C3_5  and  O3_6 
REMARK    3  A    between atoms: C5_8  and  O4_9 
REMARK    4  A    between atoms: C6_11  and  O5_12 
REMARK    5  A    between atoms: C7_14  and  O6_15 
ROOT
HETATM    1  C2  UNL     1      -0.165  -3.103 -15.893  1.00  0.00     0.293 C 
HETATM    2  O2  UNL     1      -0.826  -4.097 -15.245  1.00  0.00    -0.326 OA
HETATM    3  C3  UNL     1      -0.285  -5.349 -15.273  1.00  0.00     0.293 C 
HETATM    4  C5  UNL     1       1.180  -5.382 -14.883  1.00  0.00     0.204 C 
HETATM    5  C6  UNL     1       1.917  -4.528 -15.870  1.00  0.00     0.185 C 
HETATM    6  C7  UNL     1       1.321  -3.170 -15.918  1.00  0.00     0.204 C 
ENDROOT
BRANCH   1   7
HETATM    7  O1  UNL     1      -0.693  -3.008 -17.183  1.00  0.00    -0.363 OA
HETATM    8  C1  UNL     1      -2.060  -2.855 -17.210  1.00  0.00     0.204 C 
ENDBRANCH   1   7
BRANCH   6   9
HETATM    9  O6  UNL     1       1.902  -2.388 -14.911  1.00  0.00    -0.388 OA
ATOM     10  H6  UNL     1       2.688  -2.785 -14.557  1.00  0.00     0.210 HD
ENDBRANCH   6   9
BRANCH   3  11
HETATM   11  O3  UNL     1      -0.492  -5.978 -16.495  1.00  0.00    -0.363 OA
HETATM   12  C4  UNL     1      -1.804  -6.400 -16.637  1.00  0.00     0.204 C 
ENDBRANCH   3  11
BRANCH   5  13
HETATM   13  O5  UNL     1       2.006  -5.138 -17.124  1.00  0.00    -0.390 OA
ATOM     14  H5  UNL     1       2.905  -5.195 -17.428  1.00  0.00     0.210 HD
ENDBRANCH   5  13
BRANCH   4  15
HETATM   15  O4  UNL     1       1.626  -6.676 -14.807  1.00  0.00    -0.388 OA
ATOM     16  H4  UNL     1       1.839  -7.005 -15.673  1.00  0.00     0.210 HD
ENDBRANCH   4  15
TORSDOF 5
ENDMDL
MODEL 2
REMARK VINA RESULT: -3.945984322      1.447      2.778
REMARK  5 active torsions:
REMARK  status: ('A' for Active; 'I' for Inactive)
REMARK    1  A    between atoms: O1_2  and  C2_3 
REMARK    2  A    between atoms: C3_5  and  O3_6 
REMARK    3  A    between atoms: C5_8  and  O4_9 
REMARK    4  A    between atoms: C6_11  and  O5_12 
REMARK    5  A    between atoms: C7_14  and  O6_15 
ROOT
HETATM    1  C2  UNL     1      -1.834  -5.006 -15.864  1.00  0.00     0.293 C 
HETATM    2  O2  UNL     1      -0.793  -5.512 -15.153  1.00  0.00    -0.326 OA
HETATM    3  C3  UNL     1       0.448  -4.993 -15.380  1.00  0.00     0.293 C 
HETATM    4  C5  UNL     1       0.490  -3.479 -15.323  1.00  0.00     0.204 C 
HETATM    5  C6  UNL     1      -0.433  -2.974 -16.392  1.00  0.00     0.185 C 
HETATM    6  C7  UNL     1      -1.785  -3.561 -16.219  1.00  0.00     0.204 C 
ENDROOT
BRANCH   1   7
HETATM    7  O1  UNL     1      -2.005  -5.804 -16.998  1.00  0.00    -0.363 OA
HETATM    8  C1  UNL     1      -2.604  -5.149 -18.049  1.00  0.00     0.204 C 
ENDBRANCH   1   7
BRANCH   6   9
HETATM    9  O6  UNL     1      -2.508  -2.771 -15.317  1.00  0.00    -0.388 OA
ATOM     10  H6  UNL     1      -3.445  -2.897 -15.400  1.00  0.00     0.210 HD
ENDBRANCH   6   9
BRANCH   3  11
HETATM   11  O3  UNL     1       1.001  -5.466 -16.564  1.00  0.00    -0.363 OA
HETATM   12  C4  UNL     1       1.198  -6.837 -16.524  1.00  0.00     0.204 C 
ENDBRANCH   3  11
BRANCH   5  13
HETATM   13  O5  UNL     1       0.095  -3.165 -17.671  1.00  0.00    -0.390 OA
ATOM     14  H5  UNL     1       0.240  -2.341 -18.122  1.00  0.00     0.210 HD
ENDBRANCH   5  13
BRANCH   4  15
HETATM   15  O4  UNL     1       1.782  -3.031 -15.432  1.00  0.00    -0.388 OA
ATOM     16  H4  UNL     1       2.149  -2.866 -14.571  1.00  0.00     0.210 HD
ENDBRANCH   4  15
TORSDOF 5
ENDMDL
MODEL 3
REMARK VINA RESULT: -3.618809654      1.590      4.260
REMARK  5 active torsions:
REMARK  status: ('A' for Active; 'I' for Inactive)
REMARK    1  A    between atoms: O1_2  and  C2_3 
REMARK    2  A    between atoms: C3_5  and  O3_6 
REMARK    3  A    between atoms: C5_8  and  O4_9 
REMARK    4  A    between atoms: C6_11  and  O5_12 
REMARK    5  A    between atoms: C7_14  and  O6_15 
ROOT
HETATM    1  C2  UNL     1      -0.574  -6.035 -16.047  1.00  0.00     0.293 C 
HETATM    2  O2  UNL     1      -0.534  -4.995 -15.175  1.00  0.00    -0.326 OA
HETATM    3  C3  UNL     1      -0.894  -3.761 -15.634  1.00  0.00     0.293 C 
HETATM    4  C5  UNL     1      -2.221  -3.753 -16.367  1.00  0.00     0.204 C 
HETATM    5  C6  UNL     1      -2.078  -4.670 -17.544  1.00  0.00     0.185 C 
HETATM    6  C7  UNL     1      -1.629  -6.012 -17.096  1.00  0.00     0.204 C 
ENDROOT
BRANCH   1   7
HETATM    7  O1  UNL     1       0.699  -6.172 -16.607  1.00  0.00    -0.363 OA
HETATM    8  C1  UNL     1       1.047  -7.477 -16.872  1.00  0.00     0.204 C 
ENDBRANCH   1   7
BRANCH   6   9
HETATM    9  O6  UNL     1      -2.753  -6.765 -16.732  1.00  0.00    -0.388 OA
ATOM     10  H6  UNL     1      -3.198  -6.401 -15.976  1.00  0.00     0.210 HD
ENDBRANCH   6   9
BRANCH   3  11
HETATM   11  O3  UNL     1       0.107  -3.181 -16.405  1.00  0.00    -0.363 OA
HETATM   12  C4  UNL     1       1.304  -3.100 -15.710  1.00  0.00     0.204 C 
ENDBRANCH   3  11
BRANCH   5  13
HETATM   13  O5  UNL     1      -1.270  -4.120 -18.541  1.00  0.00    -0.390 OA
ATOM     14  H5  UNL     1      -1.676  -4.173 -19.398  1.00  0.00     0.210 HD
ENDBRANCH   5  13
BRANCH   4  15
HETATM   15  O4  UNL     1      -2.583  -2.470 -16.688  1.00  0.00    -0.388 OA
ATOM     16  H4  UNL     1      -3.274  -2.473 -17.339  1.00  0.00     0.210 HD
ENDBRANCH   4  15
TORSDOF 5
ENDMDL
MODEL 4
REMARK VINA RESULT: -3.525521245      1.324      3.256
REMARK  5 active torsions:
REMARK  status: ('A' for Active; 'I' for Inactive)
REMARK    1  A    between atoms: O1_2  and  C2_3 
REMARK    2  A    between atoms: C3_5  and  O3_6 
REMARK    3  A    between atoms: C5_8  and  O4_9 
REMARK    4  A    between atoms: C6_11  and  O5_12 
REMARK    5  A    between atoms: C7_14  and  O6_15 
ROOT
HETATM    1  C2  UNL     1      -0.533  -4.751 -16.328  1.00  0.00     0.293 C 
HETATM    2  O2  UNL     1       0.390  -3.827 -16.702  1.00  0.00    -0.326 OA
HETATM    3  C3  UNL     1       1.630  -3.896 -16.137  1.00  0.00     0.293 C 
HETATM    4  C5  UNL     1       2.248  -5.279 -16.204  1.00  0.00     0.204 C 
HETATM    5  C6  UNL     1       1.337  -6.204 -15.455  1.00  0.00     0.185 C 
HETATM    6  C7  UNL     1      -0.041  -6.117 -15.999  1.00  0.00     0.204 C 
ENDROOT
BRANCH   1   7
HETATM    7  O1  UNL     1      -1.279  -4.210 -15.278  1.00  0.00    -0.363 OA
HETATM    8  C1  UNL     1      -2.096  -3.172 -15.660  1.00  0.00     0.204 C 
ENDBRANCH   1   7
BRANCH   6   9
HETATM    9  O6  UNL     1      -0.154  -6.995 -17.084  1.00  0.00    -0.388 OA
ATOM     10  H6  UNL     1      -0.406  -6.547 -17.883  1.00  0.00     0.210 HD
ENDBRANCH   6   9
BRANCH   3  11
HETATM   11  O3  UNL     1       1.636  -3.407 -14.836  1.00  0.00    -0.363 OA
HETATM   12  C4  UNL     1       2.872  -2.883 -14.493  1.00  0.00     0.204 C 
ENDBRANCH   3  11
BRANCH   5  13
HETATM   13  O5  UNL     1       1.402  -5.997 -14.075  1.00  0.00    -0.390 OA
ATOM     14  H5  UNL     1       1.749  -6.755 -13.618  1.00  0.00     0.210 HD
ENDBRANCH   5  13
BRANCH   4  15
HETATM   15  O4  UNL     1       3.537  -5.250 -15.737  1.00  0.00    -0.388 OA
ATOM     16  H4  UNL     1       3.577  -5.598 -14.854  1.00  0.00     0.210 HD
ENDBRANCH   4  15
TORSDOF 5
ENDMDL
MODEL 5
REMARK VINA RESULT: -3.203076358      1.254      3.330
REMARK  5 active torsions:
REMARK  status: ('A' for Active; 'I' for Inactive)
REMARK    1  A    between atoms: O1_2  and  C2_3 
REMARK    2  A    between atoms: C3_5  and  O3_6 
REMARK    3  A    between atoms: C5_8  and  O4_9 
REMARK    4  A    between atoms: C6_11  and  O5_12 
REMARK    5  A    between atoms: C7_14  and  O6_15 
ROOT
HETATM    1  C2  UNL     1       1.402  -3.400 -16.315  1.00  0.00     0.293 C 
HETATM    2  O2  UNL     1       1.481  -4.750 -16.446  1.00  0.00    -0.326 OA
HETATM    3  C3  UNL     1       0.372  -5.487 -16.151  1.00  0.00     0.293 C 
HETATM    4  C5  UNL     1      -0.885  -4.988 -16.838  1.00  0.00     0.204 C 
HETATM    5  C6  UNL     1      -1.114  -3.583 -16.367  1.00  0.00     0.185 C 
HETATM    6  C7  UNL     1       0.094  -2.757 -16.614  1.00  0.00     0.204 C 
ENDROOT
BRANCH   1   7
HETATM    7  O1  UNL     1       1.854  -3.067 -15.036  1.00  0.00    -0.363 OA
HETATM    8  C1  UNL     1       3.116  -3.538 -14.756  1.00  0.00     0.204 C 
ENDBRANCH   1   7
BRANCH   6   9
HETATM    9  O6  UNL     1       0.038  -2.256 -17.921  1.00  0.00    -0.388 OA
ATOM     10  H6  UNL     1       0.072  -1.307 -17.943  1.00  0.00     0.210 HD
ENDBRANCH   6   9
BRANCH   3  11
HETATM   11  O3  UNL     1       0.178  -5.610 -14.780  1.00  0.00    -0.363 OA
HETATM   12  C4  UNL     1       1.280  -6.174 -14.157  1.00  0.00     0.204 C 
ENDBRANCH   3  11
BRANCH   5  13
HETATM   13  O5  UNL     1      -1.552  -3.541 -15.042  1.00  0.00    -0.390 OA
ATOM     14  H5  UNL     1      -2.494  -3.427 -14.982  1.00  0.00     0.210 HD
ENDBRANCH   5  13
BRANCH   4  15
HETATM   15  O4  UNL     1      -1.930  -5.843 -16.603  1.00  0.00    -0.388 OA
ATOM     16  H4  UNL     1      -1.942  -6.538 -17.250  1.00  0.00     0.210 HD
ENDBRANCH   4  15
TORSDOF 5
ENDMDL
