MODEL 1
REMARK VINA RESULT: -6.989578339      0.000      0.000
REMARK  4 active torsions:
REMARK  status: ('A' for Active; 'I' for Inactive)
REMARK       I    between atoms: C2_2  and  N1_4 
REMARK       I    between atoms: C3_6  and  N2_7 
REMARK       I    between atoms: C3_6  and  N5_14 
REMARK       I    between atoms: N2_7  and  C4_9 
REMARK       I    between atoms: N5_14  and  C5_16 
REMARK    1  A    between atoms: C5_16  and  C6_18 
REMARK    2  A    between atoms: C6_18  and  C7_19 
REMARK    3  A    between atoms: C7_19  and  C8_20 
REMARK    4  A    between atoms: C8_20  and  N6_21 
ROOT
HETATM    1  C1  UNL     1       3.405 -19.971 -12.752  1.00  0.00     0.118 C 
HETATM    2  C2  UNL     1       4.832 -19.623 -13.061  1.00  0.00     0.231 C 
HETATM    3  O1  UNL     1       5.561 -20.518 -13.576  1.00  0.00    -0.273 OA
HETATM    4  N1  UNL     1       5.337 -18.346 -12.784  1.00  0.00    -0.160 N 
ATOM      5  H1  UNL     1       4.827 -17.556 -13.179  1.00  0.00     0.187 HD
HETATM    6  C3  UNL     1       6.383 -18.068 -12.078  1.00  0.00     0.690 C 
HETATM    7  N2  UNL     1       6.675 -16.676 -11.954  1.00  0.00    -0.163 N 
ATOM      8  H2  UNL     1       7.559 -16.325 -12.321  1.00  0.00     0.187 HD
HETATM    9  C4  UNL     1       5.784 -15.766 -11.341  1.00  0.00     0.200 C 
HETATM   10  N3  UNL     1       4.743 -15.381 -11.979  1.00  0.00    -0.373 N 
ATOM     11  H31 UNL     1       4.100 -14.724 -11.537  1.00  0.00     0.158 HD
ATOM     12  H32 UNL     1       4.568 -15.735 -12.920  1.00  0.00     0.158 HD
HETATM   13  N4  UNL     1       6.025 -15.278 -10.044  1.00  0.00    -0.063 NA
HETATM   14  N5  UNL     1       7.162 -19.083 -11.481  1.00  0.00    -0.159 N 
ATOM     15  H5  UNL     1       6.900 -20.061 -11.600  1.00  0.00     0.187 HD
HETATM   16  C5  UNL     1       8.304 -18.748 -10.720  1.00  0.00     0.235 C 
HETATM   17  O2  UNL     1       8.615 -17.559 -10.586  1.00  0.00    -0.273 OA
ENDROOT
BRANCH  16  18
HETATM   18  C6  UNL     1       9.084 -19.835 -10.109  1.00  0.00     0.105 C 
BRANCH  18  19
HETATM   19  C7  UNL     1       9.721 -19.424  -8.826  1.00  0.00     0.039 C 
BRANCH  19  20
HETATM   20  C8  UNL     1      11.214 -19.558  -8.769  1.00  0.00     0.273 C 
BRANCH  20  21
HETATM   21  N6  UNL     1      11.775 -18.702  -9.794  1.00  0.00     0.092 N 
HETATM   22  C9  UNL     1      12.747 -19.382 -10.605  1.00  0.00     0.298 C 
HETATM   23  C10 UNL     1      13.478 -18.352 -11.434  1.00  0.00     0.198 C 
HETATM   24  O3  UNL     1      14.143 -17.400 -10.673  1.00  0.00    -0.388 OA
HETATM   25  C11 UNL     1      13.670 -17.282  -9.377  1.00  0.00     0.198 C 
HETATM   26  C12 UNL     1      12.154 -17.411  -9.328  1.00  0.00     0.298 C 
ENDBRANCH  20  21
ENDBRANCH  19  20
ENDBRANCH  18  19
ENDBRANCH  16  18
TORSDOF 4
ENDMDL
MODEL 2
REMARK VINA RESULT: -6.696395329      0.518      1.147
REMARK  4 active torsions:
REMARK  status: ('A' for Active; 'I' for Inactive)
REMARK       I    between atoms: C2_2  and  N1_4 
REMARK       I    between atoms: C3_6  and  N2_7 
REMARK       I    between atoms: C3_6  and  N5_14 
REMARK       I    between atoms: N2_7  and  C4_9 
REMARK       I    between atoms: N5_14  and  C5_16 
REMARK    1  A    between atoms: C5_16  and  C6_18 
REMARK    2  A    between atoms: C6_18  and  C7_19 
REMARK    3  A    between atoms: C7_19  and  C8_20 
REMARK    4  A    between atoms: C8_20  and  N6_21 
ROOT
HETATM    1  C1  UNL     1       3.390 -19.918 -12.893  1.00  0.00     0.118 C 
HETATM    2  C2  UNL     1       4.809 -19.528 -13.195  1.00  0.00     0.231 C 
HETATM    3  O1  UNL     1       5.557 -20.391 -13.735  1.00  0.00    -0.273 OA
HETATM    4  N1  UNL     1       5.283 -18.247 -12.885  1.00  0.00    -0.160 N 
ATOM      5  H1  UNL     1       4.754 -17.459 -13.258  1.00  0.00     0.187 HD
HETATM    6  C3  UNL     1       6.324 -17.963 -12.174  1.00  0.00     0.690 C 
HETATM    7  N2  UNL     1       6.583 -16.568 -12.014  1.00  0.00    -0.163 N 
ATOM      8  H2  UNL     1       7.459 -16.187 -12.373  1.00  0.00     0.187 HD
HETATM    9  C4  UNL     1       5.673 -15.696 -11.376  1.00  0.00     0.200 C 
HETATM   10  N3  UNL     1       4.621 -15.319 -12.002  1.00  0.00    -0.373 N 
ATOM     11  H31 UNL     1       3.964 -14.690 -11.541  1.00  0.00     0.158 HD
ATOM     12  H32 UNL     1       4.453 -15.652 -12.951  1.00  0.00     0.158 HD
HETATM   13  N4  UNL     1       5.905 -15.237 -10.066  1.00  0.00    -0.063 NA
HETATM   14  N5  UNL     1       7.129 -18.975 -11.606  1.00  0.00    -0.159 N 
ATOM     15  H5  UNL     1       6.890 -19.956 -11.750  1.00  0.00     0.187 HD
HETATM   16  C5  UNL     1       8.264 -18.633 -10.838  1.00  0.00     0.235 C 
HETATM   17  O2  UNL     1       8.547 -17.441 -10.673  1.00  0.00    -0.273 OA
ENDROOT
BRANCH  16  18
HETATM   18  C6  UNL     1       9.071 -19.717 -10.257  1.00  0.00     0.105 C 
BRANCH  18  19
HETATM   19  C7  UNL     1      10.515 -19.360 -10.161  1.00  0.00     0.039 C 
BRANCH  19  20
HETATM   20  C8  UNL     1      11.019 -19.055  -8.781  1.00  0.00     0.273 C 
BRANCH  20  21
HETATM   21  N6  UNL     1      12.405 -18.648  -8.896  1.00  0.00     0.092 N 
HETATM   22  C9  UNL     1      12.553 -17.221  -8.966  1.00  0.00     0.298 C 
HETATM   23  C10 UNL     1      13.974 -16.912  -9.375  1.00  0.00     0.198 C 
HETATM   24  O3  UNL     1      14.322 -17.442 -10.610  1.00  0.00    -0.388 OA
HETATM   25  C11 UNL     1      13.520 -18.493 -11.020  1.00  0.00     0.198 C 
HETATM   26  C12 UNL     1      13.151 -19.395  -9.851  1.00  0.00     0.298 C 
ENDBRANCH  20  21
ENDBRANCH  19  20
ENDBRANCH  18  19
ENDBRANCH  16  18
TORSDOF 4
ENDMDL
MODEL 3
REMARK VINA RESULT: -6.592499470      1.011      1.401
REMARK  4 active torsions:
REMARK  status: ('A' for Active; 'I' for Inactive)
REMARK       I    between atoms: C2_2  and  N1_4 
REMARK       I    between atoms: C3_6  and  N2_7 
REMARK       I    between atoms: C3_6  and  N5_14 
REMARK       I    between atoms: N2_7  and  C4_9 
REMARK       I    between atoms: N5_14  and  C5_16 
REMARK    1  A    between atoms: C5_16  and  C6_18 
REMARK    2  A    between atoms: C6_18  and  C7_19 
REMARK    3  A    between atoms: C7_19  and  C8_20 
REMARK    4  A    between atoms: C8_20  and  N6_21 
ROOT
HETATM    1  C1  UNL     1       3.466 -19.879 -12.888  1.00  0.00     0.118 C 
HETATM    2  C2  UNL     1       4.892 -19.498 -13.159  1.00  0.00     0.231 C 
HETATM    3  O1  UNL     1       5.640 -20.357 -13.706  1.00  0.00    -0.273 OA
HETATM    4  N1  UNL     1       5.374 -18.228 -12.816  1.00  0.00    -0.160 N 
ATOM      5  H1  UNL     1       4.858 -17.428 -13.180  1.00  0.00     0.187 HD
HETATM    6  C3  UNL     1       6.407 -17.970 -12.083  1.00  0.00     0.690 C 
HETATM    7  N2  UNL     1       6.677 -16.581 -11.890  1.00  0.00    -0.163 N 
ATOM      8  H2  UNL     1       7.561 -16.201 -12.228  1.00  0.00     0.187 HD
HETATM    9  C4  UNL     1       5.765 -15.714 -11.247  1.00  0.00     0.200 C 
HETATM   10  N3  UNL     1       4.727 -15.313 -11.882  1.00  0.00    -0.373 N 
ATOM     11  H31 UNL     1       4.069 -14.687 -11.418  1.00  0.00     0.158 HD
ATOM     12  H32 UNL     1       4.570 -15.624 -12.840  1.00  0.00     0.158 HD
HETATM   13  N4  UNL     1       5.981 -15.283  -9.926  1.00  0.00    -0.063 NA
HETATM   14  N5  UNL     1       7.193 -19.001 -11.524  1.00  0.00    -0.159 N 
ATOM     15  H5  UNL     1       6.946 -19.976 -11.692  1.00  0.00     0.187 HD
HETATM   16  C5  UNL     1       8.319 -18.687 -10.732  1.00  0.00     0.235 C 
HETATM   17  O2  UNL     1       8.611 -17.501 -10.538  1.00  0.00    -0.273 OA
ENDROOT
BRANCH  16  18
HETATM   18  C6  UNL     1       9.106 -19.791 -10.161  1.00  0.00     0.105 C 
BRANCH  18  19
HETATM   19  C7  UNL     1      10.395 -19.324  -9.575  1.00  0.00     0.039 C 
BRANCH  19  20
HETATM   20  C8  UNL     1      11.375 -18.734 -10.545  1.00  0.00     0.273 C 
BRANCH  20  21
HETATM   21  N6  UNL     1      12.597 -19.510 -10.468  1.00  0.00     0.092 N 
HETATM   22  C9  UNL     1      13.333 -19.252  -9.262  1.00  0.00     0.298 C 
HETATM   23  C10 UNL     1      14.707 -19.867  -9.405  1.00  0.00     0.198 C 
HETATM   24  O3  UNL     1      15.433 -19.354 -10.471  1.00  0.00    -0.388 OA
HETATM   25  C11 UNL     1      14.657 -18.748 -11.444  1.00  0.00     0.198 C 
HETATM   26  C12 UNL     1      13.359 -19.510 -11.670  1.00  0.00     0.298 C 
ENDBRANCH  20  21
ENDBRANCH  19  20
ENDBRANCH  18  19
ENDBRANCH  16  18
TORSDOF 4
ENDMDL
MODEL 4
REMARK VINA RESULT: -6.419258545      2.552      7.623
REMARK  4 active torsions:
REMARK  status: ('A' for Active; 'I' for Inactive)
REMARK       I    between atoms: C2_2  and  N1_4 
REMARK       I    between atoms: C3_6  and  N2_7 
REMARK       I    between atoms: C3_6  and  N5_14 
REMARK       I    between atoms: N2_7  and  C4_9 
REMARK       I    between atoms: N5_14  and  C5_16 
REMARK    1  A    between atoms: C5_16  and  C6_18 
REMARK    2  A    between atoms: C6_18  and  C7_19 
REMARK    3  A    between atoms: C7_19  and  C8_20 
REMARK    4  A    between atoms: C8_20  and  N6_21 
ROOT
HETATM    1  C1  UNL     1      14.521 -16.241 -13.442  1.00  0.00     0.118 C 
HETATM    2  C2  UNL     1      14.482 -17.345 -12.425  1.00  0.00     0.231 C 
HETATM    3  O1  UNL     1      14.308 -18.526 -12.840  1.00  0.00    -0.273 OA
HETATM    4  N1  UNL     1      14.634 -17.070 -11.060  1.00  0.00    -0.160 N 
ATOM      5  H1  UNL     1      15.467 -16.548 -10.787  1.00  0.00     0.187 HD
HETATM    6  C3  UNL     1      13.826 -17.412 -10.111  1.00  0.00     0.690 C 
HETATM    7  N2  UNL     1      14.224 -17.002  -8.803  1.00  0.00    -0.163 N 
ATOM      8  H2  UNL     1      14.407 -17.717  -8.099  1.00  0.00     0.187 HD
HETATM    9  C4  UNL     1      14.373 -15.643  -8.447  1.00  0.00     0.200 C 
HETATM   10  N3  UNL     1      15.407 -14.999  -8.845  1.00  0.00    -0.373 N 
ATOM     11  H31 UNL     1      15.514 -14.018  -8.588  1.00  0.00     0.158 HD
ATOM     12  H32 UNL     1      16.108 -15.474  -9.414  1.00  0.00     0.158 HD
HETATM   13  N4  UNL     1      13.407 -14.988  -7.661  1.00  0.00    -0.063 NA
HETATM   14  N5  UNL     1      12.641 -18.134 -10.375  1.00  0.00    -0.159 N 
ATOM     15  H5  UNL     1      12.406 -18.393 -11.332  1.00  0.00     0.187 HD
HETATM   16  C5  UNL     1      11.780 -18.497  -9.316  1.00  0.00     0.235 C 
HETATM   17  O2  UNL     1      12.077 -18.180  -8.158  1.00  0.00    -0.273 OA
ENDROOT
BRANCH  16  18
HETATM   18  C6  UNL     1      10.552 -19.242  -9.634  1.00  0.00     0.105 C 
BRANCH  18  19
HETATM   19  C7  UNL     1       9.472 -18.358 -10.157  1.00  0.00     0.039 C 
BRANCH  19  20
HETATM   20  C8  UNL     1       8.195 -19.047 -10.538  1.00  0.00     0.273 C 
BRANCH  20  21
HETATM   21  N6  UNL     1       7.316 -18.057 -11.128  1.00  0.00     0.092 N 
HETATM   22  C9  UNL     1       7.019 -16.981 -10.224  1.00  0.00     0.298 C 
HETATM   23  C10 UNL     1       5.885 -16.171 -10.808  1.00  0.00     0.198 C 
HETATM   24  O3  UNL     1       4.722 -16.905 -11.000  1.00  0.00    -0.388 OA
HETATM   25  C11 UNL     1       4.923 -18.274 -11.064  1.00  0.00     0.198 C 
HETATM   26  C12 UNL     1       6.202 -18.610 -11.818  1.00  0.00     0.298 C 
ENDBRANCH  20  21
ENDBRANCH  19  20
ENDBRANCH  18  19
ENDBRANCH  16  18
TORSDOF 4
ENDMDL
MODEL 5
REMARK VINA RESULT: -5.876477469      2.480      8.063
REMARK  4 active torsions:
REMARK  status: ('A' for Active; 'I' for Inactive)
REMARK       I    between atoms: C2_2  and  N1_4 
REMARK       I    between atoms: C3_6  and  N2_7 
REMARK       I    between atoms: C3_6  and  N5_14 
REMARK       I    between atoms: N2_7  and  C4_9 
REMARK       I    between atoms: N5_14  and  C5_16 
REMARK    1  A    between atoms: C5_16  and  C6_18 
REMARK    2  A    between atoms: C6_18  and  C7_19 
REMARK    3  A    between atoms: C7_19  and  C8_20 
REMARK    4  A    between atoms: C8_20  and  N6_21 
ROOT
HETATM    1  C1  UNL     1      14.768 -15.452  -6.716  1.00  0.00     0.118 C 
HETATM    2  C2  UNL     1      13.717 -15.551  -7.784  1.00  0.00     0.231 C 
HETATM    3  O1  UNL     1      12.616 -14.963  -7.586  1.00  0.00    -0.273 OA
HETATM    4  N1  UNL     1      13.954 -16.273  -8.960  1.00  0.00    -0.160 N 
ATOM      5  H1  UNL     1      14.787 -16.022  -9.493  1.00  0.00     0.187 HD
HETATM    6  C3  UNL     1      13.223 -17.225  -9.439  1.00  0.00     0.690 C 
HETATM    7  N2  UNL     1      13.697 -17.794 -10.660  1.00  0.00    -0.163 N 
ATOM      8  H2  UNL     1      13.111 -17.728 -11.492  1.00  0.00     0.187 HD
HETATM    9  C4  UNL     1      14.947 -18.444 -10.759  1.00  0.00     0.200 C 
HETATM   10  N3  UNL     1      16.018 -17.743 -10.795  1.00  0.00    -0.373 N 
ATOM     11  H31 UNL     1      16.921 -18.213 -10.866  1.00  0.00     0.158 HD
ATOM     12  H32 UNL     1      15.957 -16.726 -10.752  1.00  0.00     0.158 HD
HETATM   13  N4  UNL     1      15.032 -19.847 -10.819  1.00  0.00    -0.063 NA
HETATM   14  N5  UNL     1      12.049 -17.656  -8.783  1.00  0.00    -0.159 N 
ATOM     15  H5  UNL     1      11.764 -17.216  -7.909  1.00  0.00     0.187 HD
HETATM   16  C5  UNL     1      11.268 -18.696  -9.334  1.00  0.00     0.235 C 
HETATM   17  O2  UNL     1      11.621 -19.221 -10.397  1.00  0.00    -0.273 OA
ENDROOT
BRANCH  16  18
HETATM   18  C6  UNL     1      10.057 -19.121  -8.615  1.00  0.00     0.105 C 
BRANCH  18  19
HETATM   19  C7  UNL     1       8.881 -19.263  -9.521  1.00  0.00     0.039 C 
BRANCH  19  20
HETATM   20  C8  UNL     1       8.334 -17.984 -10.081  1.00  0.00     0.273 C 
BRANCH  20  21
HETATM   21  N6  UNL     1       6.889 -18.090 -10.098  1.00  0.00     0.092 N 
HETATM   22  C9  UNL     1       6.409 -18.865 -11.208  1.00  0.00     0.298 C 
HETATM   23  C10 UNL     1       4.913 -18.674 -11.309  1.00  0.00     0.198 C 
HETATM   24  O3  UNL     1       4.536 -17.354 -11.511  1.00  0.00    -0.388 OA
HETATM   25  C11 UNL     1       5.497 -16.428 -11.139  1.00  0.00     0.198 C 
HETATM   26  C12 UNL     1       6.214 -16.858  -9.867  1.00  0.00     0.298 C 
ENDBRANCH  20  21
ENDBRANCH  19  20
ENDBRANCH  18  19
ENDBRANCH  16  18
TORSDOF 4
ENDMDL
