MODEL 1
REMARK VINA RESULT: -6.705221434      0.000      0.000
REMARK  7 active torsions:
REMARK  status: ('A' for Active; 'I' for Inactive)
REMARK    1  A    between atoms: C2_2  and  N1_5 
REMARK       I    between atoms: N1_5  and  C5_7 
REMARK    2  A    between atoms: C5_7  and  C6_9 
REMARK    3  A    between atoms: C7_10  and  O2_11 
REMARK    4  A    between atoms: C8_13  and  C9_14 
REMARK    5  A    between atoms: C10_15  and  C11_16 
REMARK    6  A    between atoms: C12_19  and  O5_20 
REMARK    7  A    between atoms: C12_19  and  C13_22 
ROOT
HETATM    1  C6  UNL     1       4.102 -18.846 -11.393  1.00  0.00     0.183 C 
HETATM    2  C7  UNL     1       3.877 -20.305 -11.108  1.00  0.00     0.170 C 
HETATM    3  C8  UNL     1       3.565 -20.888 -12.470  1.00  0.00     0.178 C 
HETATM    4  O4  UNL     1       3.151 -19.810 -13.263  1.00  0.00    -0.334 OA
HETATM    5  C12 UNL     1       3.944 -18.714 -12.846  1.00  0.00     0.269 C 
ENDROOT
BRANCH   1   6
HETATM    6  C5  UNL     1       5.319 -18.311 -10.785  1.00  0.00     0.231 C 
HETATM    7  N1  UNL     1       6.479 -19.118 -10.744  1.00  0.00    -0.352 N 
ATOM      8  H1  UNL     1       6.442 -20.057 -11.140  1.00  0.00     0.163 HD
HETATM    9  O1  UNL     1       5.400 -17.154 -10.287  1.00  0.00    -0.273 OA
BRANCH   7  10
HETATM   10  C2  UNL     1       7.720 -18.652 -10.157  1.00  0.00     0.022 C 
HETATM   11  C1  UNL     1       7.708 -18.969  -8.655  1.00  0.00     0.037 C 
HETATM   12  C3  UNL     1       7.961 -17.186 -10.385  1.00  0.00     0.037 C 
HETATM   13  C4  UNL     1       8.901 -19.408 -10.726  1.00  0.00     0.037 C 
ENDBRANCH   7  10
ENDBRANCH   1   6
BRANCH   2  14
HETATM   14  O2  UNL     1       4.994 -20.950 -10.611  1.00  0.00    -0.392 OA
ATOM     15  H2  UNL     1       5.423 -21.512 -11.246  1.00  0.00     0.210 HD
ENDBRANCH   2  14
BRANCH   5  16
HETATM   16  O5  UNL     1       3.147 -17.576 -13.127  1.00  0.00    -0.356 OA
ATOM     17  H5  UNL     1       3.513 -16.820 -12.684  1.00  0.00     0.213 HD
ENDBRANCH   5  16
BRANCH   5  18
HETATM   18  C13 UNL     1       5.129 -18.705 -13.682  1.00  0.00     0.239 C 
HETATM   19  O6  UNL     1       6.168 -18.103 -13.318  1.00  0.00    -0.644 OA
HETATM   20  O7  UNL     1       5.136 -19.364 -14.902  1.00  0.00    -0.644 OA
ENDBRANCH   5  18
BRANCH   3  21
HETATM   21  C9  UNL     1       2.441 -21.834 -12.285  1.00  0.00     0.010 C 
HETATM   22  C10 UNL     1       2.471 -23.071 -12.678  1.00  0.00     0.040 C 
BRANCH  22  23
HETATM   23  C11 UNL     1       3.586 -23.689 -13.343  1.00  0.00     0.258 C 
HETATM   24  O3  UNL     1       4.495 -24.277 -12.692  1.00  0.00    -0.302 OA
ENDBRANCH  22  23
ENDBRANCH   3  21
TORSDOF 7
ENDMDL
MODEL 2
REMARK VINA RESULT: -6.448870862      0.124      1.157
REMARK  7 active torsions:
REMARK  status: ('A' for Active; 'I' for Inactive)
REMARK    1  A    between atoms: C2_2  and  N1_5 
REMARK       I    between atoms: N1_5  and  C5_7 
REMARK    2  A    between atoms: C5_7  and  C6_9 
REMARK    3  A    between atoms: C7_10  and  O2_11 
REMARK    4  A    between atoms: C8_13  and  C9_14 
REMARK    5  A    between atoms: C10_15  and  C11_16 
REMARK    6  A    between atoms: C12_19  and  O5_20 
REMARK    7  A    between atoms: C12_19  and  C13_22 
ROOT
HETATM    1  C6  UNL     1       4.080 -18.884 -11.359  1.00  0.00     0.183 C 
HETATM    2  C7  UNL     1       3.827 -20.345 -11.110  1.00  0.00     0.170 C 
HETATM    3  C8  UNL     1       3.548 -20.897 -12.491  1.00  0.00     0.178 C 
HETATM    4  O4  UNL     1       3.173 -19.798 -13.275  1.00  0.00    -0.334 OA
HETATM    5  C12 UNL     1       3.968 -18.721 -12.813  1.00  0.00     0.269 C 
ENDROOT
BRANCH   1   6
HETATM    6  C5  UNL     1       5.285 -18.377 -10.705  1.00  0.00     0.231 C 
HETATM    7  N1  UNL     1       6.473 -19.141 -10.766  1.00  0.00    -0.352 N 
ATOM      8  H1  UNL     1       6.464 -20.030 -11.266  1.00  0.00     0.163 HD
HETATM    9  O1  UNL     1       5.332 -17.283 -10.078  1.00  0.00    -0.273 OA
BRANCH   7  10
HETATM   10  C2  UNL     1       7.705 -18.700 -10.141  1.00  0.00     0.022 C 
HETATM   11  C1  UNL     1       7.812 -17.174 -10.279  1.00  0.00     0.037 C 
HETATM   12  C3  UNL     1       8.923 -19.368 -10.713  1.00  0.00     0.037 C 
HETATM   13  C4  UNL     1       7.681 -18.976  -8.654  1.00  0.00     0.037 C 
ENDBRANCH   7  10
ENDBRANCH   1   6
BRANCH   2  14
HETATM   14  O2  UNL     1       4.920 -21.014 -10.592  1.00  0.00    -0.392 OA
ATOM     15  H2  UNL     1       4.880 -21.956 -10.709  1.00  0.00     0.210 HD
ENDBRANCH   2  14
BRANCH   5  16
HETATM   16  O5  UNL     1       3.195 -17.568 -13.096  1.00  0.00    -0.356 OA
ATOM     17  H5  UNL     1       3.664 -16.797 -12.801  1.00  0.00     0.213 HD
ENDBRANCH   5  16
BRANCH   5  18
HETATM   18  C13 UNL     1       5.178 -18.713 -13.613  1.00  0.00     0.239 C 
HETATM   19  O6  UNL     1       5.282 -19.443 -14.628  1.00  0.00    -0.644 OA
HETATM   20  O7  UNL     1       6.245 -17.897 -13.269  1.00  0.00    -0.644 OA
ENDBRANCH   5  18
BRANCH   3  21
HETATM   21  C9  UNL     1       2.406 -21.831 -12.358  1.00  0.00     0.010 C 
HETATM   22  C10 UNL     1       2.447 -23.073 -12.734  1.00  0.00     0.040 C 
BRANCH  22  23
HETATM   23  C11 UNL     1       3.593 -23.709 -13.327  1.00  0.00     0.258 C 
HETATM   24  O3  UNL     1       4.500 -24.223 -12.615  1.00  0.00    -0.302 OA
ENDBRANCH  22  23
ENDBRANCH   3  21
TORSDOF 7
ENDMDL
MODEL 3
REMARK VINA RESULT: -5.669345414      1.669      2.284
REMARK  7 active torsions:
REMARK  status: ('A' for Active; 'I' for Inactive)
REMARK    1  A    between atoms: C2_2  and  N1_5 
REMARK       I    between atoms: N1_5  and  C5_7 
REMARK    2  A    between atoms: C5_7  and  C6_9 
REMARK    3  A    between atoms: C7_10  and  O2_11 
REMARK    4  A    between atoms: C8_13  and  C9_14 
REMARK    5  A    between atoms: C10_15  and  C11_16 
REMARK    6  A    between atoms: C12_19  and  O5_20 
REMARK    7  A    between atoms: C12_19  and  C13_22 
ROOT
HETATM    1  C6  UNL     1       5.227 -18.539 -10.797  1.00  0.00     0.183 C 
HETATM    2  C7  UNL     1       5.338 -19.590 -11.866  1.00  0.00     0.170 C 
HETATM    3  C8  UNL     1       4.503 -19.033 -12.999  1.00  0.00     0.178 C 
HETATM    4  O4  UNL     1       3.642 -18.095 -12.416  1.00  0.00    -0.334 OA
HETATM    5  C12 UNL     1       4.398 -17.482 -11.389  1.00  0.00     0.269 C 
ENDROOT
BRANCH   1   6
HETATM    6  C5  UNL     1       6.512 -18.156 -10.215  1.00  0.00     0.231 C 
HETATM    7  N1  UNL     1       7.593 -19.065 -10.277  1.00  0.00    -0.352 N 
ATOM      8  H1  UNL     1       7.453 -19.969 -10.728  1.00  0.00     0.163 HD
HETATM    9  O1  UNL     1       6.719 -17.046  -9.650  1.00  0.00    -0.273 OA
BRANCH   7  10
HETATM   10  C2  UNL     1       8.895 -18.751  -9.721  1.00  0.00     0.022 C 
HETATM   11  C1  UNL     1       8.875 -19.050  -8.215  1.00  0.00     0.037 C 
HETATM   12  C3  UNL     1       9.310 -17.329  -9.971  1.00  0.00     0.037 C 
HETATM   13  C4  UNL     1       9.960 -19.653 -10.305  1.00  0.00     0.037 C 
ENDBRANCH   7  10
ENDBRANCH   1   6
BRANCH   2  14
HETATM   14  O2  UNL     1       6.627 -19.771 -12.331  1.00  0.00    -0.392 OA
ATOM     15  H2  UNL     1       6.944 -20.662 -12.236  1.00  0.00     0.210 HD
ENDBRANCH   2  14
BRANCH   5  16
HETATM   16  O5  UNL     1       3.431 -17.062 -10.443  1.00  0.00    -0.356 OA
ATOM     17  H5  UNL     1       2.784 -17.748 -10.330  1.00  0.00     0.213 HD
ENDBRANCH   5  16
BRANCH   5  18
HETATM   18  C13 UNL     1       5.050 -16.326 -11.974  1.00  0.00     0.239 C 
HETATM   19  O6  UNL     1       4.588 -15.172 -11.802  1.00  0.00    -0.644 OA
HETATM   20  O7  UNL     1       6.199 -16.475 -12.737  1.00  0.00    -0.644 OA
ENDBRANCH   5  18
BRANCH   3  21
HETATM   21  C9  UNL     1       3.717 -20.162 -13.549  1.00  0.00     0.010 C 
HETATM   22  C10 UNL     1       3.208 -21.106 -12.818  1.00  0.00     0.040 C 
BRANCH  22  23
HETATM   23  C11 UNL     1       3.336 -21.190 -11.388  1.00  0.00     0.258 C 
HETATM   24  O3  UNL     1       3.258 -22.297 -10.785  1.00  0.00    -0.302 OA
ENDBRANCH  22  23
ENDBRANCH   3  21
TORSDOF 7
ENDMDL
MODEL 4
REMARK VINA RESULT: -5.535719995      1.907      5.331
REMARK  7 active torsions:
REMARK  status: ('A' for Active; 'I' for Inactive)
REMARK    1  A    between atoms: C2_2  and  N1_5 
REMARK       I    between atoms: N1_5  and  C5_7 
REMARK    2  A    between atoms: C5_7  and  C6_9 
REMARK    3  A    between atoms: C7_10  and  O2_11 
REMARK    4  A    between atoms: C8_13  and  C9_14 
REMARK    5  A    between atoms: C10_15  and  C11_16 
REMARK    6  A    between atoms: C12_19  and  O5_20 
REMARK    7  A    between atoms: C12_19  and  C13_22 
ROOT
HETATM    1  C6  UNL     1       6.592 -18.444 -12.350  1.00  0.00     0.183 C 
HETATM    2  C7  UNL     1       7.333 -19.075 -11.204  1.00  0.00     0.170 C 
HETATM    3  C8  UNL     1       7.509 -17.934 -10.225  1.00  0.00     0.178 C 
HETATM    4  O4  UNL     1       7.366 -16.759 -10.974  1.00  0.00    -0.334 OA
HETATM    5  C12 UNL     1       6.374 -17.051 -11.941  1.00  0.00     0.269 C 
ENDROOT
BRANCH   1   6
HETATM    6  C5  UNL     1       5.432 -19.215 -12.794  1.00  0.00     0.231 C 
HETATM    7  N1  UNL     1       4.908 -20.218 -11.946  1.00  0.00    -0.352 N 
ATOM      8  H1  UNL     1       5.350 -20.381 -11.042  1.00  0.00     0.163 HD
HETATM    9  O1  UNL     1       4.861 -19.040 -13.906  1.00  0.00    -0.273 OA
BRANCH   7  10
HETATM   10  C2  UNL     1       3.760 -21.021 -12.322  1.00  0.00     0.022 C 
HETATM   11  C1  UNL     1       3.085 -21.547 -11.048  1.00  0.00     0.037 C 
HETATM   12  C3  UNL     1       4.117 -22.157 -13.238  1.00  0.00     0.037 C 
HETATM   13  C4  UNL     1       2.718 -20.175 -13.020  1.00  0.00     0.037 C 
ENDBRANCH   7  10
ENDBRANCH   1   6
BRANCH   2  14
HETATM   14  O2  UNL     1       6.623 -20.078 -10.572  1.00  0.00    -0.392 OA
ATOM     15  H2  UNL     1       7.171 -20.685 -10.089  1.00  0.00     0.210 HD
ENDBRANCH   2  14
BRANCH   5  16
HETATM   16  O5  UNL     1       6.677 -16.192 -13.026  1.00  0.00    -0.356 OA
ATOM     17  H5  UNL     1       6.065 -15.466 -13.031  1.00  0.00     0.213 HD
ENDBRANCH   5  16
BRANCH   5  18
HETATM   18  C13 UNL     1       5.096 -16.683 -11.361  1.00  0.00     0.239 C 
HETATM   19  O6  UNL     1       4.507 -15.635 -11.720  1.00  0.00    -0.644 OA
HETATM   20  O7  UNL     1       4.501 -17.483 -10.398  1.00  0.00    -0.644 OA
ENDBRANCH   5  18
BRANCH   3  21
HETATM   21  C9  UNL     1       8.891 -18.029  -9.699  1.00  0.00     0.010 C 
HETATM   22  C10 UNL     1       9.201 -18.650  -8.603  1.00  0.00     0.040 C 
BRANCH  22  23
HETATM   23  C11 UNL     1       8.258 -19.326  -7.752  1.00  0.00     0.258 C 
HETATM   24  O3  UNL     1       7.846 -20.489  -8.022  1.00  0.00    -0.302 OA
ENDBRANCH  22  23
ENDBRANCH   3  21
TORSDOF 7
ENDMDL
MODEL 5
REMARK VINA RESULT: -5.454867575      2.239      3.462
REMARK  7 active torsions:
REMARK  status: ('A' for Active; 'I' for Inactive)
REMARK    1  A    between atoms: C2_2  and  N1_5 
REMARK       I    between atoms: N1_5  and  C5_7 
REMARK    2  A    between atoms: C5_7  and  C6_9 
REMARK    3  A    between atoms: C7_10  and  O2_11 
REMARK    4  A    between atoms: C8_13  and  C9_14 
REMARK    5  A    between atoms: C10_15  and  C11_16 
REMARK    6  A    between atoms: C12_19  and  O5_20 
REMARK    7  A    between atoms: C12_19  and  C13_22 
ROOT
HETATM    1  C6  UNL     1       6.761 -18.487 -10.089  1.00  0.00     0.183 C 
HETATM    2  C7  UNL     1       6.312 -19.466 -11.138  1.00  0.00     0.170 C 
HETATM    3  C8  UNL     1       5.106 -18.793 -11.757  1.00  0.00     0.178 C 
HETATM    4  O4  UNL     1       4.662 -17.858 -10.815  1.00  0.00    -0.334 OA
HETATM    5  C12 UNL     1       5.837 -17.353 -10.207  1.00  0.00     0.269 C 
ENDROOT
BRANCH   1   6
HETATM    6  C5  UNL     1       8.196 -18.206 -10.124  1.00  0.00     0.231 C 
HETATM    7  N1  UNL     1       9.068 -18.982  -9.326  1.00  0.00    -0.352 N 
ATOM      8  H1  UNL     1       8.677 -19.722  -8.744  1.00  0.00     0.163 HD
HETATM    9  O1  UNL     1       8.712 -17.298 -10.833  1.00  0.00    -0.273 OA
BRANCH   7  10
HETATM   10  C2  UNL     1      10.500 -18.759  -9.312  1.00  0.00     0.022 C 
HETATM   11  C1  UNL     1      11.131 -19.659  -8.239  1.00  0.00     0.037 C 
HETATM   12  C3  UNL     1      10.866 -17.321  -9.076  1.00  0.00     0.037 C 
HETATM   13  C4  UNL     1      11.124 -19.186 -10.622  1.00  0.00     0.037 C 
ENDBRANCH   7  10
ENDBRANCH   1   6
BRANCH   2  14
HETATM   14  O2  UNL     1       7.247 -19.676 -12.134  1.00  0.00    -0.392 OA
ATOM     15  H2  UNL     1       7.021 -19.264 -12.960  1.00  0.00     0.210 HD
ENDBRANCH   2  14
BRANCH   5  16
HETATM   16  O5  UNL     1       5.419 -16.954  -8.913  1.00  0.00    -0.356 OA
ATOM     17  H5  UNL     1       4.778 -16.258  -8.991  1.00  0.00     0.213 HD
ENDBRANCH   5  16
BRANCH   5  18
HETATM   18  C13 UNL     1       6.246 -16.192 -10.973  1.00  0.00     0.239 C 
HETATM   19  O6  UNL     1       6.507 -15.105 -10.404  1.00  0.00    -0.644 OA
HETATM   20  O7  UNL     1       6.355 -16.261 -12.354  1.00  0.00    -0.644 OA
ENDBRANCH   5  18
BRANCH   3  21
HETATM   21  C9  UNL     1       4.078 -19.843 -11.945  1.00  0.00     0.010 C 
HETATM   22  C10 UNL     1       3.968 -20.555 -13.024  1.00  0.00     0.040 C 
BRANCH  22  23
HETATM   23  C11 UNL     1       4.818 -20.426 -14.178  1.00  0.00     0.258 C 
HETATM   24  O3  UNL     1       4.851 -19.360 -14.853  1.00  0.00    -0.302 OA
ENDBRANCH  22  23
ENDBRANCH   3  21
TORSDOF 7
ENDMDL
