MODEL 1
REMARK VINA RESULT: -5.699918562      0.000      0.000
REMARK  9 active torsions:
REMARK  status: ('A' for Active; 'I' for Inactive)
REMARK    1  A    between atoms: C3_5  and  N2_6 
REMARK    2  A    between atoms: N4_11  and  C4_12 
REMARK    3  A    between atoms: C4_12  and  C5_13 
REMARK    4  A    between atoms: C5_13  and  C6_14 
REMARK    5  A    between atoms: C6_14  and  N5_15 
REMARK    6  A    between atoms: N5_15  and  C7_17 
REMARK    7  A    between atoms: C7_17  and  C8_18 
REMARK    8  A    between atoms: C8_18  and  N6_19 
REMARK    9  A    between atoms: N6_19  and  N7_20 
ROOT
HETATM    1  C1  UNL     1       1.437  21.568  16.812  1.00  0.00     0.091 C 
HETATM    2  C2  UNL     1       2.381  22.372  17.628  1.00  0.00     0.110 A 
HETATM    3  N1  UNL     1       2.586  22.257  18.957  1.00  0.00    -0.178 N 
ATOM      4  H1  UNL     1       2.118  21.598  19.579  1.00  0.00     0.185 HD
HETATM    5  C3  UNL     1       3.501  23.147  19.315  1.00  0.00     0.692 A 
HETATM    6  N3  UNL     1       3.854  23.808  18.186  1.00  0.00    -0.129 N 
ATOM      7  H3  UNL     1       4.543  24.558  18.140  1.00  0.00     0.206 HD
HETATM    8  N4  UNL     1       3.176  23.342  17.158  1.00  0.00    -0.265 N 
ENDROOT
BRANCH   8   9
HETATM    9  C4  UNL     1       3.266  23.790  15.763  1.00  0.00     0.164 C 
BRANCH   9  10
HETATM   10  C5  UNL     1       3.050  25.238  15.765  1.00  0.00     0.126 C 
BRANCH  10  11
HETATM   11  C6  UNL     1       1.815  25.656  16.003  1.00  0.00    -0.073 C 
BRANCH  11  12
HETATM   12  N5  UNL     1       0.560  25.856  16.011  1.00  0.00    -0.355 N 
ATOM     13  H5  UNL     1       0.181  26.804  16.030  1.00  0.00     0.169 HD
BRANCH  12  14
HETATM   14  C7  UNL     1      -0.316  24.714  15.994  1.00  0.00     0.190 C 
BRANCH  14  15
HETATM   15  C8  UNL     1      -1.714  25.019  16.246  1.00  0.00     0.201 C 
BRANCH  15  16
HETATM   16  N6  UNL     1      -2.022  25.770  17.187  1.00  0.00    -0.348 NA
BRANCH  16  17
HETATM   17  N7  UNL     1      -2.462  26.446  18.144  1.00  0.00    -0.281 N 
ATOM     18  H72 UNL     1      -1.574  26.212  18.587  1.00  0.00     0.191 HD
ATOM     19  H71 UNL     1      -2.923  27.015  18.855  1.00  0.00     0.191 HD
ENDBRANCH  16  17
ENDBRANCH  15  16
ENDBRANCH  14  15
ENDBRANCH  12  14
ENDBRANCH  11  12
ENDBRANCH  10  11
ENDBRANCH   9  10
ENDBRANCH   8   9
BRANCH   5  20
HETATM   20  N2  UNL     1       4.032  23.427  20.458  1.00  0.00    -0.233 N 
ATOM     21  H22 UNL     1       3.672  24.180  21.045  1.00  0.00     0.174 HD
ATOM     22  H21 UNL     1       4.820  23.020  20.962  1.00  0.00     0.174 HD
ENDBRANCH   5  20
TORSDOF 9
ENDMDL
MODEL 2
REMARK VINA RESULT: -5.626374686      1.828      5.419
REMARK  9 active torsions:
REMARK  status: ('A' for Active; 'I' for Inactive)
REMARK    1  A    between atoms: C3_5  and  N2_6 
REMARK    2  A    between atoms: N4_11  and  C4_12 
REMARK    3  A    between atoms: C4_12  and  C5_13 
REMARK    4  A    between atoms: C5_13  and  C6_14 
REMARK    5  A    between atoms: C6_14  and  N5_15 
REMARK    6  A    between atoms: N5_15  and  C7_17 
REMARK    7  A    between atoms: C7_17  and  C8_18 
REMARK    8  A    between atoms: C8_18  and  N6_19 
REMARK    9  A    between atoms: N6_19  and  N7_20 
ROOT
HETATM    1  C1  UNL     1       0.924  26.275  17.293  1.00  0.00     0.091 C 
HETATM    2  C2  UNL     1       0.239  25.180  16.559  1.00  0.00     0.110 A 
HETATM    3  N1  UNL     1      -1.093  25.038  16.399  1.00  0.00    -0.178 N 
ATOM      4  H1  UNL     1      -1.809  25.667  16.762  1.00  0.00     0.185 HD
HETATM    5  C3  UNL     1      -1.310  23.941  15.688  1.00  0.00     0.692 A 
HETATM    6  N3  UNL     1      -0.092  23.413  15.416  1.00  0.00    -0.129 N 
ATOM      7  H3  UNL     1       0.069  22.560  14.881  1.00  0.00     0.206 HD
HETATM    8  N4  UNL     1       0.853  24.162  15.943  1.00  0.00    -0.265 N 
ENDROOT
BRANCH   8   9
HETATM    9  C4  UNL     1       2.302  23.936  15.875  1.00  0.00     0.164 C 
BRANCH   9  10
HETATM   10  C5  UNL     1       2.599  22.806  16.757  1.00  0.00     0.126 C 
BRANCH  10  11
HETATM   11  C6  UNL     1       2.836  23.090  18.030  1.00  0.00    -0.073 C 
BRANCH  11  12
HETATM   12  N5  UNL     1       3.054  23.651  19.150  1.00  0.00    -0.355 N 
ATOM     13  H5  UNL     1       2.571  24.513  19.406  1.00  0.00     0.169 HD
BRANCH  12  14
HETATM   14  C7  UNL     1       4.000  23.042  20.048  1.00  0.00     0.190 C 
BRANCH  14  15
HETATM   15  C8  UNL     1       3.412  22.148  21.031  1.00  0.00     0.201 C 
BRANCH  15  16
HETATM   16  N6  UNL     1       2.652  22.603  21.903  1.00  0.00    -0.348 NA
BRANCH  16  17
HETATM   17  N7  UNL     1       1.878  23.188  22.694  1.00  0.00    -0.281 N 
ATOM     18  H72 UNL     1       1.595  23.716  21.868  1.00  0.00     0.191 HD
ATOM     19  H71 UNL     1       1.295  23.590  23.427  1.00  0.00     0.191 HD
ENDBRANCH  16  17
ENDBRANCH  15  16
ENDBRANCH  14  15
ENDBRANCH  12  14
ENDBRANCH  11  12
ENDBRANCH  10  11
ENDBRANCH   9  10
ENDBRANCH   8   9
BRANCH   5  20
HETATM   20  N2  UNL     1      -2.398  23.381  15.275  1.00  0.00    -0.233 N 
ATOM     21  H22 UNL     1      -3.190  23.224  15.899  1.00  0.00     0.174 HD
ATOM     22  H21 UNL     1      -2.674  23.020  14.362  1.00  0.00     0.174 HD
ENDBRANCH   5  20
TORSDOF 9
ENDMDL
MODEL 3
REMARK VINA RESULT: -5.613736580      1.920      3.583
REMARK  9 active torsions:
REMARK  status: ('A' for Active; 'I' for Inactive)
REMARK    1  A    between atoms: C3_5  and  N2_6 
REMARK    2  A    between atoms: N4_11  and  C4_12 
REMARK    3  A    between atoms: C4_12  and  C5_13 
REMARK    4  A    between atoms: C5_13  and  C6_14 
REMARK    5  A    between atoms: C6_14  and  N5_15 
REMARK    6  A    between atoms: N5_15  and  C7_17 
REMARK    7  A    between atoms: C7_17  and  C8_18 
REMARK    8  A    between atoms: C8_18  and  N6_19 
REMARK    9  A    between atoms: N6_19  and  N7_20 
ROOT
HETATM    1  C1  UNL     1       2.430  22.577  18.280  1.00  0.00     0.091 C 
HETATM    2  C2  UNL     1       2.470  22.983  16.852  1.00  0.00     0.110 A 
HETATM    3  N1  UNL     1       3.555  23.414  16.175  1.00  0.00    -0.178 N 
ATOM      4  H1  UNL     1       4.495  23.519  16.557  1.00  0.00     0.185 HD
HETATM    5  C3  UNL     1       3.188  23.679  14.929  1.00  0.00     0.692 A 
HETATM    6  N3  UNL     1       1.864  23.402  14.852  1.00  0.00    -0.129 N 
ATOM      7  H3  UNL     1       1.292  23.507  14.014  1.00  0.00     0.206 HD
HETATM    8  N4  UNL     1       1.422  22.979  16.018  1.00  0.00    -0.265 N 
ENDROOT
BRANCH   8   9
HETATM    9  C4  UNL     1       0.050  22.579  16.351  1.00  0.00     0.164 C 
BRANCH   9  10
HETATM   10  C5  UNL     1      -0.846  23.424  15.561  1.00  0.00     0.126 C 
BRANCH  10  11
HETATM   11  C6  UNL     1      -1.313  24.515  16.153  1.00  0.00    -0.073 C 
BRANCH  11  12
HETATM   12  N5  UNL     1      -1.486  25.674  16.646  1.00  0.00    -0.355 N 
ATOM     13  H5  UNL     1      -2.109  26.345  16.195  1.00  0.00     0.169 HD
BRANCH  12  14
HETATM   14  C7  UNL     1      -0.783  26.016  17.854  1.00  0.00     0.190 C 
BRANCH  14  15
HETATM   15  C8  UNL     1       0.660  26.105  17.710  1.00  0.00     0.201 C 
BRANCH  15  16
HETATM   16  N6  UNL     1       1.153  26.426  16.616  1.00  0.00    -0.348 NA
BRANCH  16  17
HETATM   17  N7  UNL     1       1.509  26.727  15.454  1.00  0.00    -0.281 N 
ATOM     18  H72 UNL     1       1.326  25.744  15.251  1.00  0.00     0.191 HD
ATOM     19  H71 UNL     1       1.816  27.088  14.551  1.00  0.00     0.191 HD
ENDBRANCH  16  17
ENDBRANCH  15  16
ENDBRANCH  14  15
ENDBRANCH  12  14
ENDBRANCH  11  12
ENDBRANCH  10  11
ENDBRANCH   9  10
ENDBRANCH   8   9
BRANCH   5  20
HETATM   20  N2  UNL     1       3.849  24.111  13.907  1.00  0.00    -0.233 N 
ATOM     21  H22 UNL     1       4.671  24.706  14.015  1.00  0.00     0.174 HD
ATOM     22  H21 UNL     1       3.720  23.977  12.905  1.00  0.00     0.174 HD
ENDBRANCH   5  20
TORSDOF 9
ENDMDL
MODEL 4
REMARK VINA RESULT: -5.565644412      3.080      5.475
REMARK  9 active torsions:
REMARK  status: ('A' for Active; 'I' for Inactive)
REMARK    1  A    between atoms: C3_5  and  N2_6 
REMARK    2  A    between atoms: N4_11  and  C4_12 
REMARK    3  A    between atoms: C4_12  and  C5_13 
REMARK    4  A    between atoms: C5_13  and  C6_14 
REMARK    5  A    between atoms: C6_14  and  N5_15 
REMARK    6  A    between atoms: N5_15  and  C7_17 
REMARK    7  A    between atoms: C7_17  and  C8_18 
REMARK    8  A    between atoms: C8_18  and  N6_19 
REMARK    9  A    between atoms: N6_19  and  N7_20 
ROOT
HETATM    1  C1  UNL     1       1.164  20.881  17.042  1.00  0.00     0.091 C 
HETATM    2  C2  UNL     1       1.941  21.983  16.421  1.00  0.00     0.110 A 
HETATM    3  N1  UNL     1       2.067  22.225  15.099  1.00  0.00    -0.178 N 
ATOM      4  H1  UNL     1       1.642  21.679  14.349  1.00  0.00     0.185 HD
HETATM    5  C3  UNL     1       2.837  23.292  14.943  1.00  0.00     0.692 A 
HETATM    6  N3  UNL     1       3.181  23.701  16.189  1.00  0.00    -0.129 N 
ATOM      7  H3  UNL     1       3.773  24.505  16.397  1.00  0.00     0.206 HD
HETATM    8  N4  UNL     1       2.639  22.910  17.091  1.00  0.00    -0.265 N 
ENDROOT
BRANCH   8   9
HETATM    9  C4  UNL     1       2.768  23.012  18.549  1.00  0.00     0.164 C 
BRANCH   9  10
HETATM   10  C5  UNL     1       4.008  23.743  18.818  1.00  0.00     0.126 C 
BRANCH  10  11
HETATM   11  C6  UNL     1       4.710  23.357  19.874  1.00  0.00    -0.073 C 
BRANCH  11  12
HETATM   12  N5  UNL     1       5.109  22.908  20.994  1.00  0.00    -0.355 N 
ATOM     13  H5  UNL     1       5.637  23.500  21.637  1.00  0.00     0.169 HD
BRANCH  12  14
HETATM   14  C7  UNL     1       4.799  21.544  21.335  1.00  0.00     0.190 C 
BRANCH  14  15
HETATM   15  C8  UNL     1       3.754  21.393  22.335  1.00  0.00     0.201 C 
BRANCH  15  16
HETATM   16  N6  UNL     1       2.912  22.294  22.488  1.00  0.00    -0.348 NA
BRANCH  16  17
HETATM   17  N7  UNL     1       1.966  23.110  22.567  1.00  0.00    -0.281 N 
ATOM     18  H72 UNL     1       1.963  22.858  23.555  1.00  0.00     0.191 HD
ATOM     19  H71 UNL     1       1.211  23.793  22.507  1.00  0.00     0.191 HD
ENDBRANCH  16  17
ENDBRANCH  15  16
ENDBRANCH  14  15
ENDBRANCH  12  14
ENDBRANCH  11  12
ENDBRANCH  10  11
ENDBRANCH   9  10
ENDBRANCH   8   9
BRANCH   5  20
HETATM   20  N2  UNL     1       3.249  23.913  13.889  1.00  0.00    -0.233 N 
ATOM     21  H22 UNL     1       2.992  23.605  12.952  1.00  0.00     0.174 HD
ATOM     22  H21 UNL     1       3.840  24.735  13.770  1.00  0.00     0.174 HD
ENDBRANCH   5  20
TORSDOF 9
ENDMDL
MODEL 5
REMARK VINA RESULT: -5.540284940      1.496      2.466
REMARK  9 active torsions:
REMARK  status: ('A' for Active; 'I' for Inactive)
REMARK    1  A    between atoms: C3_5  and  N2_6 
REMARK    2  A    between atoms: N4_11  and  C4_12 
REMARK    3  A    between atoms: C4_12  and  C5_13 
REMARK    4  A    between atoms: C5_13  and  C6_14 
REMARK    5  A    between atoms: C6_14  and  N5_15 
REMARK    6  A    between atoms: N5_15  and  C7_17 
REMARK    7  A    between atoms: C7_17  and  C8_18 
REMARK    8  A    between atoms: C8_18  and  N6_19 
REMARK    9  A    between atoms: N6_19  and  N7_20 
ROOT
HETATM    1  C1  UNL     1       5.737  23.889  19.749  1.00  0.00     0.091 C 
HETATM    2  C2  UNL     1       4.346  23.417  19.967  1.00  0.00     0.110 A 
HETATM    3  N1  UNL     1       3.842  22.923  21.117  1.00  0.00    -0.178 N 
ATOM      4  H1  UNL     1       4.352  22.809  21.993  1.00  0.00     0.185 HD
HETATM    5  C3  UNL     1       2.570  22.612  20.913  1.00  0.00     0.692 A 
HETATM    6  N3  UNL     1       2.302  22.923  19.622  1.00  0.00    -0.129 N 
ATOM      7  H3  UNL     1       1.399  22.797  19.165  1.00  0.00     0.206 HD
HETATM    8  N4  UNL     1       3.378  23.413  19.042  1.00  0.00    -0.265 N 
ENDROOT
BRANCH   8   9
HETATM    9  C4  UNL     1       3.505  23.868  17.652  1.00  0.00     0.164 C 
BRANCH   9  10
HETATM   10  C5  UNL     1       2.766  22.915  16.822  1.00  0.00     0.126 C 
BRANCH  10  11
HETATM   11  C6  UNL     1       1.771  23.405  16.095  1.00  0.00    -0.073 C 
BRANCH  11  12
HETATM   12  N5  UNL     1       0.648  23.791  15.640  1.00  0.00    -0.355 N 
ATOM     13  H5  UNL     1       0.154  23.245  14.933  1.00  0.00     0.169 HD
BRANCH  12  14
HETATM   14  C7  UNL     1       0.091  25.019  16.146  1.00  0.00     0.190 C 
BRANCH  14  15
HETATM   15  C8  UNL     1      -1.361  25.034  16.229  1.00  0.00     0.201 C 
BRANCH  15  16
HETATM   16  N6  UNL     1      -1.919  25.667  17.141  1.00  0.00    -0.348 NA
BRANCH  16  17
HETATM   17  N7  UNL     1      -2.551  26.385  17.949  1.00  0.00    -0.281 N 
ATOM     18  H72 UNL     1      -2.132  25.783  18.657  1.00  0.00     0.191 HD
ATOM     19  H71 UNL     1      -3.108  27.032  18.507  1.00  0.00     0.191 HD
ENDBRANCH  16  17
ENDBRANCH  15  16
ENDBRANCH  14  15
ENDBRANCH  12  14
ENDBRANCH  11  12
ENDBRANCH  10  11
ENDBRANCH   9  10
ENDBRANCH   8   9
BRANCH   5  20
HETATM   20  N2  UNL     1       1.667  22.114  21.690  1.00  0.00    -0.233 N 
ATOM     21  H22 UNL     1       1.133  21.286  21.427  1.00  0.00     0.174 HD
ATOM     22  H21 UNL     1       1.329  22.395  22.610  1.00  0.00     0.174 HD
ENDBRANCH   5  20
TORSDOF 9
ENDMDL
