MODEL 1
REMARK VINA RESULT: -6.030241801      0.000      0.000
REMARK  5 active torsions:
REMARK  status: ('A' for Active; 'I' for Inactive)
REMARK    1  A    between atoms: N1_1  and  C1_5 
REMARK    2  A    between atoms: C1_5  and  C2_6 
REMARK    3  A    between atoms: S1_8  and  C3_9 
REMARK    4  A    between atoms: C3_9  and  C4_10 
REMARK    5  A    between atoms: C4_10  and  C5_11 
ROOT
HETATM    1  C2  UNL     1       8.246  25.274  21.271  1.00  0.00     0.216 C 
HETATM    2  N2  UNL     1       8.170  24.411  20.106  1.00  0.00    -0.150 NA
HETATM    3  S1  UNL     1       6.472  24.321  20.366  1.00  0.00    -0.041 SA
HETATM    4  N3  UNL     1       7.019  25.897  20.807  1.00  0.00    -0.150 NA
ENDROOT
BRANCH   3   5
HETATM    5  C3  UNL     1       5.481  24.241  18.920  1.00  0.00     0.103 C 
BRANCH   5   6
HETATM    6  C4  UNL     1       4.081  23.750  19.177  1.00  0.00     0.050 C 
BRANCH   6   7
HETATM    7  C5  UNL     1       3.482  23.422  17.849  1.00  0.00    -0.057 A 
HETATM    8  C6  UNL     1       2.433  22.501  17.743  1.00  0.00     0.007 A 
HETATM    9  C7  UNL     1       1.873  22.187  16.530  1.00  0.00     0.001 A 
HETATM   10  C8  UNL     1       2.342  22.782  15.401  1.00  0.00     0.000 A 
HETATM   11  C9  UNL     1       3.371  23.693  15.456  1.00  0.00     0.001 A 
HETATM   12  C10 UNL     1       3.922  23.997  16.673  1.00  0.00     0.007 A 
ENDBRANCH   6   7
ENDBRANCH   5   6
ENDBRANCH   3   5
BRANCH   1  13
HETATM   13  C1  UNL     1       7.986  24.486  22.540  1.00  0.00     0.269 C 
BRANCH  13  14
HETATM   14  N1  UNL     1       8.243  25.271  23.723  1.00  0.00    -0.076 N 
ATOM     15  H13 UNL     1       9.241  25.304  23.935  1.00  0.00     0.274 HD
ATOM     16  H12 UNL     1       8.082  26.263  23.551  1.00  0.00     0.274 HD
ATOM     17  H11 UNL     1       7.705  24.941  24.524  1.00  0.00     0.274 HD
ENDBRANCH  13  14
ENDBRANCH   1  13
TORSDOF 5
ENDMDL
MODEL 2
REMARK VINA RESULT: -5.991054578      0.084      1.271
REMARK  5 active torsions:
REMARK  status: ('A' for Active; 'I' for Inactive)
REMARK    1  A    between atoms: N1_1  and  C1_5 
REMARK    2  A    between atoms: C1_5  and  C2_6 
REMARK    3  A    between atoms: S1_8  and  C3_9 
REMARK    4  A    between atoms: C3_9  and  C4_10 
REMARK    5  A    between atoms: C4_10  and  C5_11 
ROOT
HETATM    1  C2  UNL     1       8.278  25.308  21.279  1.00  0.00     0.216 C 
HETATM    2  N2  UNL     1       8.200  24.401  20.148  1.00  0.00    -0.150 NA
HETATM    3  S1  UNL     1       6.502  24.325  20.411  1.00  0.00    -0.041 SA
HETATM    4  N3  UNL     1       7.052  25.916  20.790  1.00  0.00    -0.150 NA
ENDROOT
BRANCH   3   5
HETATM    5  C3  UNL     1       5.510  24.190  18.970  1.00  0.00     0.103 C 
BRANCH   5   6
HETATM    6  C4  UNL     1       4.105  23.726  19.247  1.00  0.00     0.050 C 
BRANCH   6   7
HETATM    7  C5  UNL     1       3.491  23.380  17.930  1.00  0.00    -0.057 A 
HETATM    8  C6  UNL     1       3.968  23.951  16.745  1.00  0.00     0.007 A 
HETATM    9  C7  UNL     1       3.414  23.644  15.527  1.00  0.00     0.001 A 
HETATM   10  C8  UNL     1       2.378  22.767  15.463  1.00  0.00     0.000 A 
HETATM   11  C9  UNL     1       1.875  22.182  16.602  1.00  0.00     0.001 A 
HETATM   12  C10 UNL     1       2.437  22.496  17.811  1.00  0.00     0.007 A 
ENDBRANCH   6   7
ENDBRANCH   5   6
ENDBRANCH   3   5
BRANCH   1  13
HETATM   13  C1  UNL     1       8.015  24.573  22.578  1.00  0.00     0.269 C 
BRANCH  13  14
HETATM   14  N1  UNL     1       8.362  25.370  23.728  1.00  0.00    -0.076 N 
ATOM     15  H13 UNL     1       9.002  26.125  23.477  1.00  0.00     0.274 HD
ATOM     16  H12 UNL     1       7.570  25.930  24.044  1.00  0.00     0.274 HD
ATOM     17  H11 UNL     1       8.740  24.802  24.487  1.00  0.00     0.274 HD
ENDBRANCH  13  14
ENDBRANCH   1  13
TORSDOF 5
ENDMDL
MODEL 3
REMARK VINA RESULT: -5.976797457      3.609      4.278
REMARK  5 active torsions:
REMARK  status: ('A' for Active; 'I' for Inactive)
REMARK    1  A    between atoms: N1_1  and  C1_5 
REMARK    2  A    between atoms: C1_5  and  C2_6 
REMARK    3  A    between atoms: S1_8  and  C3_9 
REMARK    4  A    between atoms: C3_9  and  C4_10 
REMARK    5  A    between atoms: C4_10  and  C5_11 
ROOT
HETATM    1  C2  UNL     1       3.917  21.487  22.526  1.00  0.00     0.216 C 
HETATM    2  N2  UNL     1       4.604  21.990  21.349  1.00  0.00    -0.150 NA
HETATM    3  S1  UNL     1       3.123  21.813  20.492  1.00  0.00    -0.041 SA
HETATM    4  N3  UNL     1       2.772  22.282  22.116  1.00  0.00    -0.150 NA
ENDROOT
BRANCH   3   5
HETATM    5  C3  UNL     1       2.799  23.027  19.267  1.00  0.00     0.103 C 
BRANCH   5   6
HETATM    6  C4  UNL     1       2.380  22.449  17.942  1.00  0.00     0.050 C 
BRANCH   6   7
HETATM    7  C5  UNL     1       3.093  23.223  16.882  1.00  0.00    -0.057 A 
HETATM    8  C6  UNL     1       4.075  24.161  17.218  1.00  0.00     0.007 A 
HETATM    9  C7  UNL     1       4.739  24.882  16.256  1.00  0.00     0.001 A 
HETATM   10  C8  UNL     1       4.440  24.683  14.945  1.00  0.00     0.000 A 
HETATM   11  C9  UNL     1       3.481  23.772  14.567  1.00  0.00     0.001 A 
HETATM   12  C10 UNL     1       2.826  23.060  15.536  1.00  0.00     0.007 A 
ENDBRANCH   6   7
ENDBRANCH   5   6
ENDBRANCH   3   5
BRANCH   1  13
HETATM   13  C1  UNL     1       3.609  20.010  22.378  1.00  0.00     0.269 C 
BRANCH  13  14
HETATM   14  N1  UNL     1       2.873  19.498  23.508  1.00  0.00    -0.076 N 
ATOM     15  H13 UNL     1       3.499  19.230  24.268  1.00  0.00     0.274 HD
ATOM     16  H12 UNL     1       2.356  20.240  23.979  1.00  0.00     0.274 HD
ATOM     17  H11 UNL     1       2.259  18.727  23.245  1.00  0.00     0.274 HD
ENDBRANCH  13  14
ENDBRANCH   1  13
TORSDOF 5
ENDMDL
MODEL 4
REMARK VINA RESULT: -5.957545994      3.607      4.219
REMARK  5 active torsions:
REMARK  status: ('A' for Active; 'I' for Inactive)
REMARK    1  A    between atoms: N1_1  and  C1_5 
REMARK    2  A    between atoms: C1_5  and  C2_6 
REMARK    3  A    between atoms: S1_8  and  C3_9 
REMARK    4  A    between atoms: C3_9  and  C4_10 
REMARK    5  A    between atoms: C4_10  and  C5_11 
ROOT
HETATM    1  C2  UNL     1       3.928  21.492  22.522  1.00  0.00     0.216 C 
HETATM    2  N2  UNL     1       4.607  22.001  21.343  1.00  0.00    -0.150 NA
HETATM    3  S1  UNL     1       3.120  21.830  20.495  1.00  0.00    -0.041 SA
HETATM    4  N3  UNL     1       2.781  22.290  22.124  1.00  0.00    -0.150 NA
ENDROOT
BRANCH   3   5
HETATM    5  C3  UNL     1       2.789  23.052  19.279  1.00  0.00     0.103 C 
BRANCH   5   6
HETATM    6  C4  UNL     1       2.399  22.480  17.942  1.00  0.00     0.050 C 
BRANCH   6   7
HETATM    7  C5  UNL     1       3.129  23.264  16.901  1.00  0.00    -0.057 A 
HETATM    8  C6  UNL     1       2.843  23.091  15.542  1.00  0.00     0.007 A 
HETATM    9  C7  UNL     1       3.506  23.803  14.573  1.00  0.00     0.001 A 
HETATM   10  C8  UNL     1       4.461  24.699  14.935  1.00  0.00     0.000 A 
HETATM   11  C9  UNL     1       4.776  24.902  16.259  1.00  0.00     0.001 A 
HETATM   12  C10 UNL     1       4.108  24.185  17.216  1.00  0.00     0.007 A 
ENDBRANCH   6   7
ENDBRANCH   5   6
ENDBRANCH   3   5
BRANCH   1  13
HETATM   13  C1  UNL     1       3.618  20.016  22.368  1.00  0.00     0.269 C 
BRANCH  13  14
HETATM   14  N1  UNL     1       2.857  19.507  23.482  1.00  0.00    -0.076 N 
ATOM     15  H13 UNL     1       3.469  19.157  24.220  1.00  0.00     0.274 HD
ATOM     16  H12 UNL     1       2.402  20.261  23.995  1.00  0.00     0.274 HD
ATOM     17  H11 UNL     1       2.184  18.798  23.192  1.00  0.00     0.274 HD
ENDBRANCH  13  14
ENDBRANCH   1  13
TORSDOF 5
ENDMDL
MODEL 5
REMARK VINA RESULT: -5.902666798      3.309      3.854
REMARK  5 active torsions:
REMARK  status: ('A' for Active; 'I' for Inactive)
REMARK    1  A    between atoms: N1_1  and  C1_5 
REMARK    2  A    between atoms: C1_5  and  C2_6 
REMARK    3  A    between atoms: S1_8  and  C3_9 
REMARK    4  A    between atoms: C3_9  and  C4_10 
REMARK    5  A    between atoms: C4_10  and  C5_11 
ROOT
HETATM    1  C2  UNL     1       3.884  21.011  23.203  1.00  0.00     0.216 C 
HETATM    2  N2  UNL     1       3.196  22.175  22.674  1.00  0.00    -0.150 NA
HETATM    3  S1  UNL     1       3.845  21.774  21.132  1.00  0.00    -0.041 SA
HETATM    4  N3  UNL     1       3.502  20.315  21.987  1.00  0.00    -0.150 NA
ENDROOT
BRANCH   3   5
HETATM    5  C3  UNL     1       2.807  22.107  19.756  1.00  0.00     0.103 C 
BRANCH   5   6
HETATM    6  C4  UNL     1       3.194  23.348  18.997  1.00  0.00     0.050 C 
BRANCH   6   7
HETATM    7  C5  UNL     1       2.927  23.078  17.552  1.00  0.00    -0.057 A 
HETATM    8  C6  UNL     1       3.638  23.753  16.553  1.00  0.00     0.007 A 
HETATM    9  C7  UNL     1       3.404  23.517  15.221  1.00  0.00     0.001 A 
HETATM   10  C8  UNL     1       2.462  22.607  14.857  1.00  0.00     0.000 A 
HETATM   11  C9  UNL     1       1.738  21.920  15.804  1.00  0.00     0.001 A 
HETATM   12  C10 UNL     1       1.981  22.164  17.130  1.00  0.00     0.007 A 
ENDBRANCH   6   7
ENDBRANCH   5   6
ENDBRANCH   3   5
BRANCH   1  13
HETATM   13  C1  UNL     1       5.383  21.238  23.227  1.00  0.00     0.269 C 
BRANCH  13  14
HETATM   14  N1  UNL     1       5.776  22.130  24.289  1.00  0.00    -0.076 N 
ATOM     15  H13 UNL     1       5.016  22.762  24.543  1.00  0.00     0.274 HD
ATOM     16  H12 UNL     1       5.875  21.632  25.173  1.00  0.00     0.274 HD
ATOM     17  H11 UNL     1       6.625  22.647  24.059  1.00  0.00     0.274 HD
ENDBRANCH  13  14
ENDBRANCH   1  13
TORSDOF 5
ENDMDL
