MODEL 1
REMARK VINA RESULT: -6.890935511      0.000      0.000
REMARK  6 active torsions:
REMARK  status: ('A' for Active; 'I' for Inactive)
REMARK    1  A    between atoms: N3_4  and  C2_6 
REMARK    2  A    between atoms: C2_6  and  C3_7 
REMARK    3  A    between atoms: C4_8  and  C5_9 
REMARK    4  A    between atoms: C5_9  and  N4_10 
REMARK    5  A    between atoms: N4_10  and  C6_13 
REMARK    6  A    between atoms: C6_13  and  C7_14 
ROOT
HETATM    1  N4  UNL     1       1.590  20.043  18.350  1.00  0.00    -0.061 N 
ATOM      2  H41 UNL     1       2.539  20.056  17.978  1.00  0.00     0.278 HD
ATOM      3  H42 UNL     1       1.412  19.039  18.328  1.00  0.00     0.278 HD
ENDROOT
BRANCH   1   4
HETATM    4  C5  UNL     1       0.694  20.734  17.474  1.00  0.00     0.326 C 
BRANCH   4   5
HETATM    5  C4  UNL     1       1.454  21.542  16.517  1.00  0.00    -0.077 C 
HETATM    6  C3  UNL     1       2.072  22.226  15.736  1.00  0.00    -0.085 C 
BRANCH   6   7
HETATM    7  C2  UNL     1       2.827  23.090  14.791  1.00  0.00     0.216 C 
BRANCH   7   8
HETATM    8  N3  UNL     1       3.458  24.175  15.475  1.00  0.00    -0.357 N 
HETATM    9  C1  UNL     1       4.513  24.793  15.165  1.00  0.00     0.197 C 
HETATM   10  N1  UNL     1       4.986  25.851  15.976  1.00  0.00    -0.067 NA
HETATM   11  N2  UNL     1       5.251  24.448  14.008  1.00  0.00    -0.067 NA
ATOM     12  H3  UNL     1       2.993  24.492  16.326  1.00  0.00     0.162 HD
ENDBRANCH   7   8
ENDBRANCH   6   7
ENDBRANCH   4   5
ENDBRANCH   1   4
BRANCH   1  13
HETATM   13  C6  UNL     1       1.568  20.531  19.697  1.00  0.00     0.271 C 
BRANCH  13  14
HETATM   14  C7  UNL     1       2.846  21.208  20.067  1.00  0.00    -0.033 A 
HETATM   15  C8  UNL     1       3.105  22.497  19.663  1.00  0.00     0.009 A 
HETATM   16  C9  UNL     1       4.273  23.141  19.991  1.00  0.00     0.001 A 
HETATM   17  C10 UNL     1       5.260  22.518  20.754  1.00  0.00     0.000 A 
HETATM   18  C11 UNL     1       5.005  21.220  21.164  1.00  0.00     0.001 A 
HETATM   19  C12 UNL     1       3.823  20.584  20.826  1.00  0.00     0.009 A 
ENDBRANCH  13  14
ENDBRANCH   1  13
TORSDOF 6
ENDMDL
MODEL 2
REMARK VINA RESULT: -6.884177910      0.273      1.211
REMARK  6 active torsions:
REMARK  status: ('A' for Active; 'I' for Inactive)
REMARK    1  A    between atoms: N3_4  and  C2_6 
REMARK    2  A    between atoms: C2_6  and  C3_7 
REMARK    3  A    between atoms: C4_8  and  C5_9 
REMARK    4  A    between atoms: C5_9  and  N4_10 
REMARK    5  A    between atoms: N4_10  and  C6_13 
REMARK    6  A    between atoms: C6_13  and  C7_14 
ROOT
HETATM    1  N4  UNL     1       1.706  20.099  18.669  1.00  0.00    -0.061 N 
ATOM      2  H41 UNL     1       2.642  20.053  18.267  1.00  0.00     0.278 HD
ATOM      3  H42 UNL     1       1.528  19.103  18.801  1.00  0.00     0.278 HD
ENDROOT
BRANCH   1   4
HETATM    4  C5  UNL     1       0.781  20.658  17.731  1.00  0.00     0.326 C 
BRANCH   4   5
HETATM    5  C4  UNL     1       1.498  21.465  16.741  1.00  0.00    -0.077 C 
HETATM    6  C3  UNL     1       2.103  22.138  15.940  1.00  0.00    -0.085 C 
BRANCH   6   7
HETATM    7  C2  UNL     1       2.867  22.970  14.974  1.00  0.00     0.216 C 
BRANCH   7   8
HETATM    8  N3  UNL     1       3.509  24.066  15.629  1.00  0.00    -0.357 N 
HETATM    9  C1  UNL     1       4.494  24.749  15.238  1.00  0.00     0.197 C 
HETATM   10  N1  UNL     1       4.993  25.806  16.035  1.00  0.00    -0.067 NA
HETATM   11  N2  UNL     1       5.126  24.481  14.001  1.00  0.00    -0.067 NA
ATOM     12  H3  UNL     1       3.118  24.330  16.533  1.00  0.00     0.162 HD
ENDBRANCH   7   8
ENDBRANCH   6   7
ENDBRANCH   4   5
ENDBRANCH   1   4
BRANCH   1  13
HETATM   13  C6  UNL     1       1.730  20.780  19.929  1.00  0.00     0.271 C 
BRANCH  13  14
HETATM   14  C7  UNL     1       3.043  21.446  20.180  1.00  0.00    -0.033 A 
HETATM   15  C8  UNL     1       4.034  20.808  20.890  1.00  0.00     0.009 A 
HETATM   16  C9  UNL     1       5.249  21.400  21.133  1.00  0.00     0.001 A 
HETATM   17  C10 UNL     1       5.542  22.682  20.671  1.00  0.00     0.000 A 
HETATM   18  C11 UNL     1       4.548  23.330  19.956  1.00  0.00     0.001 A 
HETATM   19  C12 UNL     1       3.328  22.721  19.718  1.00  0.00     0.009 A 
ENDBRANCH  13  14
ENDBRANCH   1  13
TORSDOF 6
ENDMDL
MODEL 3
REMARK VINA RESULT: -6.866612147      2.409      3.615
REMARK  6 active torsions:
REMARK  status: ('A' for Active; 'I' for Inactive)
REMARK    1  A    between atoms: N3_4  and  C2_6 
REMARK    2  A    between atoms: C2_6  and  C3_7 
REMARK    3  A    between atoms: C4_8  and  C5_9 
REMARK    4  A    between atoms: C5_9  and  N4_10 
REMARK    5  A    between atoms: N4_10  and  C6_13 
REMARK    6  A    between atoms: C6_13  and  C7_14 
ROOT
HETATM    1  N4  UNL     1       3.905  23.244  20.486  1.00  0.00    -0.061 N 
ATOM      2  H41 UNL     1       3.557  23.429  21.426  1.00  0.00     0.278 HD
ATOM      3  H42 UNL     1       3.997  24.201  20.146  1.00  0.00     0.278 HD
ENDROOT
BRANCH   1   4
HETATM    4  C5  UNL     1       2.933  22.527  19.720  1.00  0.00     0.326 C 
BRANCH   4   5
HETATM    5  C4  UNL     1       2.792  23.134  18.394  1.00  0.00    -0.077 C 
HETATM    6  C3  UNL     1       2.656  23.641  17.306  1.00  0.00    -0.085 C 
BRANCH   6   7
HETATM    7  C2  UNL     1       2.466  24.279  15.977  1.00  0.00     0.216 C 
BRANCH   7   8
HETATM    8  N3  UNL     1       3.576  24.018  15.115  1.00  0.00    -0.357 N 
HETATM    9  C1  UNL     1       4.662  24.653  15.018  1.00  0.00     0.197 C 
HETATM   10  N1  UNL     1       5.652  24.237  14.096  1.00  0.00    -0.067 NA
HETATM   11  N2  UNL     1       4.921  25.789  15.820  1.00  0.00    -0.067 NA
ATOM     12  H3  UNL     1       3.477  23.213  14.497  1.00  0.00     0.162 HD
ENDBRANCH   7   8
ENDBRANCH   6   7
ENDBRANCH   4   5
ENDBRANCH   1   4
BRANCH   1  13
HETATM   13  C6  UNL     1       5.185  22.601  20.537  1.00  0.00     0.271 C 
BRANCH  13  14
HETATM   14  C7  UNL     1       6.305  23.587  20.571  1.00  0.00    -0.033 A 
HETATM   15  C8  UNL     1       7.239  23.560  21.581  1.00  0.00     0.009 A 
HETATM   16  C9  UNL     1       8.278  24.457  21.634  1.00  0.00     0.001 A 
HETATM   17  C10 UNL     1       8.440  25.444  20.663  1.00  0.00     0.000 A 
HETATM   18  C11 UNL     1       7.504  25.476  19.643  1.00  0.00     0.001 A 
HETATM   19  C12 UNL     1       6.462  24.566  19.603  1.00  0.00     0.009 A 
ENDBRANCH  13  14
ENDBRANCH   1  13
TORSDOF 6
ENDMDL
MODEL 4
REMARK VINA RESULT: -6.733897573      0.716      1.613
REMARK  6 active torsions:
REMARK  status: ('A' for Active; 'I' for Inactive)
REMARK    1  A    between atoms: N3_4  and  C2_6 
REMARK    2  A    between atoms: C2_6  and  C3_7 
REMARK    3  A    between atoms: C4_8  and  C5_9 
REMARK    4  A    between atoms: C5_9  and  N4_10 
REMARK    5  A    between atoms: N4_10  and  C6_13 
REMARK    6  A    between atoms: C6_13  and  C7_14 
ROOT
HETATM    1  N4  UNL     1       1.436  20.116  17.771  1.00  0.00    -0.061 N 
ATOM      2  H41 UNL     1       2.404  20.292  17.503  1.00  0.00     0.278 HD
ATOM      3  H42 UNL     1       1.381  19.118  17.572  1.00  0.00     0.278 HD
ENDROOT
BRANCH   1   4
HETATM    4  C5  UNL     1       0.538  20.849  16.931  1.00  0.00     0.326 C 
BRANCH   4   5
HETATM    5  C4  UNL     1       1.183  22.078  16.462  1.00  0.00    -0.077 C 
HETATM    6  C3  UNL     1       1.696  23.097  16.064  1.00  0.00    -0.085 C 
BRANCH   6   7
HETATM    7  C2  UNL     1       2.303  24.359  15.566  1.00  0.00     0.216 C 
BRANCH   7   8
HETATM    8  N3  UNL     1       3.488  24.100  14.810  1.00  0.00    -0.357 N 
HETATM    9  C1  UNL     1       4.610  24.671  14.888  1.00  0.00     0.197 C 
HETATM   10  N1  UNL     1       5.675  24.271  14.046  1.00  0.00    -0.067 NA
HETATM   11  N2  UNL     1       4.836  25.721  15.810  1.00  0.00    -0.067 NA
ATOM     12  H3  UNL     1       3.417  23.356  14.117  1.00  0.00     0.162 HD
ENDBRANCH   7   8
ENDBRANCH   6   7
ENDBRANCH   4   5
ENDBRANCH   1   4
BRANCH   1  13
HETATM   13  C6  UNL     1       1.245  20.365  19.169  1.00  0.00     0.271 C 
BRANCH  13  14
HETATM   14  C7  UNL     1       2.468  20.938  19.807  1.00  0.00    -0.033 A 
HETATM   15  C8  UNL     1       3.294  20.156  20.580  1.00  0.00     0.009 A 
HETATM   16  C9  UNL     1       4.424  20.660  21.176  1.00  0.00     0.001 A 
HETATM   17  C10 UNL     1       4.793  21.996  21.028  1.00  0.00     0.000 A 
HETATM   18  C11 UNL     1       3.965  22.789  20.250  1.00  0.00     0.001 A 
HETATM   19  C12 UNL     1       2.830  22.267  19.655  1.00  0.00     0.009 A 
ENDBRANCH  13  14
ENDBRANCH   1  13
TORSDOF 6
ENDMDL
MODEL 5
REMARK VINA RESULT: -6.631896379      1.424      1.701
REMARK  6 active torsions:
REMARK  status: ('A' for Active; 'I' for Inactive)
REMARK    1  A    between atoms: N3_4  and  C2_6 
REMARK    2  A    between atoms: C2_6  and  C3_7 
REMARK    3  A    between atoms: C4_8  and  C5_9 
REMARK    4  A    between atoms: C5_9  and  N4_10 
REMARK    5  A    between atoms: N4_10  and  C6_13 
REMARK    6  A    between atoms: C6_13  and  C7_14 
ROOT
HETATM    1  N4  UNL     1       2.177  20.330  19.373  1.00  0.00    -0.061 N 
ATOM      2  H41 UNL     1       3.084  20.205  18.923  1.00  0.00     0.278 HD
ATOM      3  H42 UNL     1       2.112  19.444  19.874  1.00  0.00     0.278 HD
ENDROOT
BRANCH   1   4
HETATM    4  C5  UNL     1       1.138  20.436  18.395  1.00  0.00     0.326 C 
BRANCH   4   5
HETATM    5  C4  UNL     1       1.549  21.349  17.325  1.00  0.00    -0.077 C 
HETATM    6  C3  UNL     1       1.868  22.113  16.445  1.00  0.00    -0.085 C 
BRANCH   6   7
HETATM    7  C2  UNL     1       2.240  23.069  15.370  1.00  0.00     0.216 C 
BRANCH   7   8
HETATM    8  N3  UNL     1       1.618  24.341  15.571  1.00  0.00    -0.357 N 
HETATM    9  C1  UNL     1       2.154  25.435  15.899  1.00  0.00     0.197 C 
HETATM   10  N1  UNL     1       1.364  26.598  16.052  1.00  0.00    -0.067 NA
HETATM   11  N2  UNL     1       3.547  25.531  16.123  1.00  0.00    -0.067 NA
ATOM     12  H3  UNL     1       0.609  24.366  15.432  1.00  0.00     0.162 HD
ENDBRANCH   7   8
ENDBRANCH   6   7
ENDBRANCH   4   5
ENDBRANCH   1   4
BRANCH   1  13
HETATM   13  C6  UNL     1       2.216  21.429  20.292  1.00  0.00     0.271 C 
BRANCH  13  14
HETATM   14  C7  UNL     1       3.572  22.051  20.363  1.00  0.00    -0.033 A 
HETATM   15  C8  UNL     1       3.867  23.185  19.642  1.00  0.00     0.009 A 
HETATM   16  C9  UNL     1       5.106  23.776  19.691  1.00  0.00     0.001 A 
HETATM   17  C10 UNL     1       6.133  23.253  20.477  1.00  0.00     0.000 A 
HETATM   18  C11 UNL     1       5.842  22.111  21.205  1.00  0.00     0.001 A 
HETATM   19  C12 UNL     1       4.588  21.528  21.146  1.00  0.00     0.009 A 
ENDBRANCH  13  14
ENDBRANCH   1  13
TORSDOF 6
ENDMDL
