MODEL 1
REMARK VINA RESULT: -6.380317347      0.000      0.000
REMARK  5 active torsions:
REMARK  status: ('A' for Active; 'I' for Inactive)
REMARK    1  A    between atoms: O1_1  and  N1_3 
REMARK    2  A    between atoms: C1_5  and  C2_6 
REMARK    3  A    between atoms: N3_11  and  C5_12 
REMARK    4  A    between atoms: C5_12  and  C6_13 
REMARK    5  A    between atoms: C6_13  and  N4_14 
ROOT
HETATM    1  C2  UNL     1       1.961  24.111  15.626  1.00  0.00     0.124 A 
HETATM    2  N2  UNL     1       1.105  25.178  15.611  1.00  0.00    -0.350 N 
ATOM      3  H2  UNL     1       1.368  26.128  15.347  1.00  0.00     0.166 HD
HETATM    4  C3  UNL     1      -0.125  24.810  15.991  1.00  0.00     0.107 A 
HETATM    5  C4  UNL     1      -0.042  23.462  16.252  1.00  0.00     0.109 A 
HETATM    6  N3  UNL     1       1.252  23.061  16.019  1.00  0.00    -0.339 N 
ENDROOT
BRANCH   6   7
HETATM    7  C5  UNL     1       1.687  21.699  16.187  1.00  0.00     0.152 C 
BRANCH   7   8
HETATM    8  C6  UNL     1       0.553  20.903  16.802  1.00  0.00     0.168 C 
BRANCH   8   9
HETATM    9  N4  UNL     1       0.842  20.572  18.189  1.00  0.00    -0.302 N 
HETATM   10  C7  UNL     1       1.932  21.002  18.854  1.00  0.00     0.111 A 
HETATM   11  C8  UNL     1       1.866  20.494  20.125  1.00  0.00     0.037 A 
HETATM   12  C9  UNL     1       0.713  19.746  20.218  1.00  0.00     0.108 A 
HETATM   13  N5  UNL     1       0.135  19.832  19.009  1.00  0.00    -0.310 N 
ATOM     14  H5  UNL     1      -0.745  19.379  18.759  1.00  0.00     0.186 HD
ENDBRANCH   8   9
ENDBRANCH   7   8
ENDBRANCH   6   7
BRANCH   1  15
HETATM   15  C1  UNL     1       3.356  24.205  15.269  1.00  0.00     0.162 C 
HETATM   16  N1  UNL     1       3.825  24.195  14.099  1.00  0.00    -0.277 N 
ATOM     17  H1  UNL     1       3.158  24.112  13.331  1.00  0.00     0.193 HD
BRANCH  16  18
HETATM   18  O1  UNL     1       5.129  24.283  13.773  1.00  0.00    -0.290 OA
ATOM     19  H1  UNL     1       5.590  25.080  13.540  1.00  0.00     0.244 HD
ENDBRANCH  16  18
ENDBRANCH   1  15
TORSDOF 5
ENDMDL
MODEL 2
REMARK VINA RESULT: -6.270889908      2.711      4.438
REMARK  5 active torsions:
REMARK  status: ('A' for Active; 'I' for Inactive)
REMARK    1  A    between atoms: O1_1  and  N1_3 
REMARK    2  A    between atoms: C1_5  and  C2_6 
REMARK    3  A    between atoms: N3_11  and  C5_12 
REMARK    4  A    between atoms: C5_12  and  C6_13 
REMARK    5  A    between atoms: C6_13  and  N4_14 
ROOT
HETATM    1  C2  UNL     1      -0.695  24.087  16.247  1.00  0.00     0.124 A 
HETATM    2  N2  UNL     1      -2.045  24.046  16.028  1.00  0.00    -0.350 N 
ATOM      3  H2  UNL     1      -2.645  24.867  15.956  1.00  0.00     0.166 HD
HETATM    4  C3  UNL     1      -2.473  22.782  15.920  1.00  0.00     0.107 A 
HETATM    5  C4  UNL     1      -1.353  21.999  16.074  1.00  0.00     0.109 A 
HETATM    6  N3  UNL     1      -0.276  22.829  16.274  1.00  0.00    -0.339 N 
ENDROOT
BRANCH   6   7
HETATM    7  C5  UNL     1       1.063  22.335  16.464  1.00  0.00     0.152 C 
BRANCH   7   8
HETATM    8  C6  UNL     1       1.779  22.358  15.129  1.00  0.00     0.168 C 
BRANCH   8   9
HETATM    9  N4  UNL     1       2.887  23.302  15.149  1.00  0.00    -0.302 N 
HETATM   10  C7  UNL     1       3.573  23.634  16.260  1.00  0.00     0.111 A 
HETATM   11  C8  UNL     1       4.534  24.541  15.895  1.00  0.00     0.037 A 
HETATM   12  C9  UNL     1       4.416  24.753  14.539  1.00  0.00     0.108 A 
HETATM   13  N5  UNL     1       3.397  23.971  14.143  1.00  0.00    -0.310 N 
ATOM     14  H5  UNL     1       3.063  23.907  13.182  1.00  0.00     0.186 HD
ENDBRANCH   8   9
ENDBRANCH   7   8
ENDBRANCH   6   7
BRANCH   1  15
HETATM   15  C1  UNL     1       0.047  25.314  16.410  1.00  0.00     0.162 C 
HETATM   16  N1  UNL     1       0.773  25.863  15.538  1.00  0.00    -0.277 N 
ATOM     17  H1  UNL     1       0.844  25.399  14.632  1.00  0.00     0.193 HD
BRANCH  16  18
HETATM   18  O1  UNL     1       1.464  27.009  15.697  1.00  0.00    -0.290 OA
ATOM     19  H1  UNL     1       2.336  27.085  16.066  1.00  0.00     0.244 HD
ENDBRANCH  16  18
ENDBRANCH   1  15
TORSDOF 5
ENDMDL
MODEL 3
REMARK VINA RESULT: -6.229918605      2.074      2.382
REMARK  5 active torsions:
REMARK  status: ('A' for Active; 'I' for Inactive)
REMARK    1  A    between atoms: O1_1  and  N1_3 
REMARK    2  A    between atoms: C1_5  and  C2_6 
REMARK    3  A    between atoms: N3_11  and  C5_12 
REMARK    4  A    between atoms: C5_12  and  C6_13 
REMARK    5  A    between atoms: C6_13  and  N4_14 
ROOT
HETATM    1  C2  UNL     1       2.784  25.144  15.835  1.00  0.00     0.124 A 
HETATM    2  N2  UNL     1       1.875  26.134  15.581  1.00  0.00    -0.350 N 
ATOM      3  H2  UNL     1       2.027  26.907  14.933  1.00  0.00     0.166 HD
HETATM    4  C3  UNL     1       0.759  25.953  16.297  1.00  0.00     0.107 A 
HETATM    5  C4  UNL     1       0.971  24.807  17.027  1.00  0.00     0.109 A 
HETATM    6  N3  UNL     1       2.224  24.332  16.722  1.00  0.00    -0.339 N 
ENDROOT
BRANCH   6   7
HETATM    7  C5  UNL     1       2.766  23.133  17.306  1.00  0.00     0.152 C 
BRANCH   7   8
HETATM    8  C6  UNL     1       3.500  23.506  18.578  1.00  0.00     0.168 C 
BRANCH   8   9
HETATM    9  N4  UNL     1       2.968  22.775  19.719  1.00  0.00    -0.302 N 
HETATM   10  C7  UNL     1       2.402  21.556  19.634  1.00  0.00     0.111 A 
HETATM   11  C8  UNL     1       2.023  21.188  20.899  1.00  0.00     0.037 A 
HETATM   12  C9  UNL     1       2.373  22.210  21.754  1.00  0.00     0.108 A 
HETATM   13  N5  UNL     1       2.943  23.146  20.977  1.00  0.00    -0.310 N 
ATOM     14  H5  UNL     1       3.310  24.033  21.322  1.00  0.00     0.186 HD
ENDBRANCH   8   9
ENDBRANCH   7   8
ENDBRANCH   6   7
BRANCH   1  15
HETATM   15  C1  UNL     1       4.084  25.078  15.211  1.00  0.00     0.162 C 
HETATM   16  N1  UNL     1       4.473  24.195  14.399  1.00  0.00    -0.277 N 
ATOM     17  H1  UNL     1       3.810  23.458  14.160  1.00  0.00     0.193 HD
BRANCH  16  18
HETATM   18  O1  UNL     1       5.689  24.140  13.821  1.00  0.00    -0.290 OA
ATOM     19  H1  UNL     1       6.373  24.794  13.904  1.00  0.00     0.244 HD
ENDBRANCH  16  18
ENDBRANCH   1  15
TORSDOF 5
ENDMDL
MODEL 4
REMARK VINA RESULT: -6.094394499      2.215      3.782
REMARK  5 active torsions:
REMARK  status: ('A' for Active; 'I' for Inactive)
REMARK    1  A    between atoms: O1_1  and  N1_3 
REMARK    2  A    between atoms: C1_5  and  C2_6 
REMARK    3  A    between atoms: N3_11  and  C5_12 
REMARK    4  A    between atoms: C5_12  and  C6_13 
REMARK    5  A    between atoms: C6_13  and  N4_14 
ROOT
HETATM    1  C2  UNL     1       3.082  23.619  17.826  1.00  0.00     0.124 A 
HETATM    2  N2  UNL     1       3.405  23.698  19.153  1.00  0.00    -0.350 N 
ATOM      3  H2  UNL     1       3.927  24.465  19.577  1.00  0.00     0.166 HD
HETATM    4  C3  UNL     1       2.945  22.633  19.821  1.00  0.00     0.107 A 
HETATM    5  C4  UNL     1       2.308  21.856  18.882  1.00  0.00     0.109 A 
HETATM    6  N3  UNL     1       2.408  22.488  17.666  1.00  0.00    -0.339 N 
ENDROOT
BRANCH   6   7
HETATM    7  C5  UNL     1       1.838  21.949  16.459  1.00  0.00     0.152 C 
BRANCH   7   8
HETATM    8  C6  UNL     1       0.534  21.260  16.808  1.00  0.00     0.168 C 
BRANCH   8   9
HETATM    9  N4  UNL     1      -0.606  22.058  16.380  1.00  0.00    -0.302 N 
HETATM   10  C7  UNL     1      -0.503  23.284  15.832  1.00  0.00     0.111 A 
HETATM   11  C8  UNL     1      -1.774  23.721  15.559  1.00  0.00     0.037 A 
HETATM   12  C9  UNL     1      -2.650  22.734  15.953  1.00  0.00     0.108 A 
HETATM   13  N5  UNL     1      -1.879  21.749  16.444  1.00  0.00    -0.310 N 
ATOM     14  H5  UNL     1      -2.239  20.871  16.819  1.00  0.00     0.186 HD
ENDBRANCH   8   9
ENDBRANCH   7   8
ENDBRANCH   6   7
BRANCH   1  15
HETATM   15  C1  UNL     1       3.450  24.623  16.856  1.00  0.00     0.162 C 
HETATM   16  N1  UNL     1       4.614  24.848  16.427  1.00  0.00    -0.277 N 
ATOM     17  H1  UNL     1       5.367  24.268  16.797  1.00  0.00     0.193 HD
BRANCH  16  18
HETATM   18  O1  UNL     1       4.951  25.787  15.522  1.00  0.00    -0.290 OA
ATOM     19  H1  UNL     1       5.816  26.163  15.408  1.00  0.00     0.244 HD
ENDBRANCH  16  18
ENDBRANCH   1  15
TORSDOF 5
ENDMDL
MODEL 5
REMARK VINA RESULT: -6.072926948      2.236      2.937
REMARK  5 active torsions:
REMARK  status: ('A' for Active; 'I' for Inactive)
REMARK    1  A    between atoms: O1_1  and  N1_3 
REMARK    2  A    between atoms: C1_5  and  C2_6 
REMARK    3  A    between atoms: N3_11  and  C5_12 
REMARK    4  A    between atoms: C5_12  and  C6_13 
REMARK    5  A    between atoms: C6_13  and  N4_14 
ROOT
HETATM    1  C2  UNL     1       1.112  24.285  15.870  1.00  0.00     0.124 A 
HETATM    2  N2  UNL     1       2.199  24.780  15.203  1.00  0.00    -0.350 N 
ATOM      3  H2  UNL     1       2.362  25.770  15.017  1.00  0.00     0.166 HD
HETATM    4  C3  UNL     1       3.020  23.792  14.827  1.00  0.00     0.107 A 
HETATM    5  C4  UNL     1       2.431  22.633  15.274  1.00  0.00     0.109 A 
HETATM    6  N3  UNL     1       1.260  22.967  15.911  1.00  0.00    -0.339 N 
ENDROOT
BRANCH   6   7
HETATM    7  C5  UNL     1       0.392  21.987  16.511  1.00  0.00     0.152 C 
BRANCH   7   8
HETATM    8  C6  UNL     1       1.221  20.777  16.891  1.00  0.00     0.168 C 
BRANCH   8   9
HETATM    9  N4  UNL     1       1.166  20.537  18.325  1.00  0.00    -0.302 N 
HETATM   10  C7  UNL     1       2.067  21.019  19.204  1.00  0.00     0.111 A 
HETATM   11  C8  UNL     1       1.693  20.592  20.452  1.00  0.00     0.037 A 
HETATM   12  C9  UNL     1       0.546  19.843  20.312  1.00  0.00     0.108 A 
HETATM   13  N5  UNL     1       0.276  19.846  18.996  1.00  0.00    -0.310 N 
ATOM     14  H5  UNL     1      -0.521  19.371  18.572  1.00  0.00     0.186 HD
ENDBRANCH   8   9
ENDBRANCH   7   8
ENDBRANCH   6   7
BRANCH   1  15
HETATM   15  C1  UNL     1       0.052  25.114  16.391  1.00  0.00     0.162 C 
HETATM   16  N1  UNL     1      -1.125  25.181  15.946  1.00  0.00    -0.277 N 
ATOM     17  H1  UNL     1      -1.353  24.595  15.142  1.00  0.00     0.193 HD
BRANCH  16  18
HETATM   18  O1  UNL     1      -2.110  25.959  16.437  1.00  0.00    -0.290 OA
ATOM     19  H1  UNL     1      -3.012  25.692  16.573  1.00  0.00     0.244 HD
ENDBRANCH  16  18
ENDBRANCH   1  15
TORSDOF 5
ENDMDL
