MODEL 1
REMARK VINA RESULT: -6.434822387      0.000      0.000
REMARK  6 active torsions:
REMARK  status: ('A' for Active; 'I' for Inactive)
REMARK    1  A    between atoms: N1_1  and  C1_4 
REMARK    2  A    between atoms: C2_9  and  N4_10 
REMARK    3  A    between atoms: N4_10  and  C3_12 
REMARK    4  A    between atoms: C3_12  and  C4_13 
REMARK    5  A    between atoms: C4_13  and  C5_14 
REMARK    6  A    between atoms: C5_14  and  N5_15 
ROOT
HETATM    1  C1  UNL     1       3.723  24.410  14.758  1.00  0.00     0.705 A 
HETATM    2  N2  UNL     1       3.055  23.966  13.696  1.00  0.00    -0.118 N 
ATOM      3  H2  UNL     1       3.081  24.373  12.761  1.00  0.00     0.206 HD
HETATM    4  N3  UNL     1       2.346  22.901  14.063  1.00  0.00    -0.117 N 
ATOM      5  H3  UNL     1       1.740  22.359  13.448  1.00  0.00     0.206 HD
HETATM    6  C2  UNL     1       2.550  22.644  15.366  1.00  0.00     0.707 A 
HETATM    7  N6  UNL     1       3.406  23.587  15.789  1.00  0.00    -0.020 N 
ATOM      8  H6  UNL     1       3.765  23.671  16.741  1.00  0.00     0.203 HD
ENDROOT
BRANCH   6   9
HETATM    9  N4  UNL     1       2.058  21.721  16.084  1.00  0.00    -0.224 N 
ATOM     10  H4  UNL     1       2.115  20.764  15.734  1.00  0.00     0.177 HD
BRANCH   9  11
HETATM   11  C3  UNL     1       1.421  21.935  17.368  1.00  0.00     0.139 C 
BRANCH  11  12
HETATM   12  C4  UNL     1       2.109  21.131  18.442  1.00  0.00     0.040 C 
BRANCH  12  13
HETATM   13  C5  UNL     1       2.252  21.830  19.738  1.00  0.00     0.129 C 
BRANCH  13  14
HETATM   14  N5  UNL     1       3.584  22.280  20.044  1.00  0.00    -0.366 N 
HETATM   15  C6  UNL     1       4.071  23.403  19.515  1.00  0.00     0.090 A 
HETATM   16  C7  UNL     1       5.350  23.798  19.832  1.00  0.00     0.017 A 
HETATM   17  C8  UNL     1       6.123  23.048  20.687  1.00  0.00     0.003 A 
HETATM   18  C9  UNL     1       5.624  21.901  21.227  1.00  0.00     0.017 A 
HETATM   19  C10 UNL     1       4.329  21.547  20.874  1.00  0.00     0.090 A 
ENDBRANCH  13  14
ENDBRANCH  12  13
ENDBRANCH  11  12
ENDBRANCH   9  11
ENDBRANCH   6   9
BRANCH   1  20
HETATM   20  N1  UNL     1       4.523  25.419  14.832  1.00  0.00    -0.233 N 
ATOM     21  H12 UNL     1       4.334  26.347  14.454  1.00  0.00     0.174 HD
ATOM     22  H11 UNL     1       5.447  25.460  15.264  1.00  0.00     0.174 HD
ENDBRANCH   1  20
TORSDOF 6
ENDMDL
MODEL 2
REMARK VINA RESULT: -6.415396150      2.837      4.320
REMARK  6 active torsions:
REMARK  status: ('A' for Active; 'I' for Inactive)
REMARK    1  A    between atoms: N1_1  and  C1_4 
REMARK    2  A    between atoms: C2_9  and  N4_10 
REMARK    3  A    between atoms: N4_10  and  C3_12 
REMARK    4  A    between atoms: C3_12  and  C4_13 
REMARK    5  A    between atoms: C4_13  and  C5_14 
REMARK    6  A    between atoms: C5_14  and  N5_15 
ROOT
HETATM    1  C1  UNL     1      -1.512  24.060  15.800  1.00  0.00     0.705 A 
HETATM    2  N2  UNL     1      -1.706  25.247  16.372  1.00  0.00    -0.118 N 
ATOM      3  H2  UNL     1      -2.609  25.645  16.630  1.00  0.00     0.206 HD
HETATM    4  N3  UNL     1      -0.519  25.824  16.548  1.00  0.00    -0.117 N 
ATOM      5  H3  UNL     1      -0.370  26.742  16.966  1.00  0.00     0.206 HD
HETATM    6  C2  UNL     1       0.453  25.017  16.092  1.00  0.00     0.707 A 
HETATM    7  N6  UNL     1      -0.173  23.923  15.630  1.00  0.00    -0.020 N 
ATOM      8  H6  UNL     1       0.288  23.113  15.214  1.00  0.00     0.203 HD
ENDROOT
BRANCH   6   9
HETATM    9  N4  UNL     1       1.707  25.206  16.081  1.00  0.00    -0.224 N 
ATOM     10  H4  UNL     1       2.081  25.957  16.662  1.00  0.00     0.177 HD
BRANCH   9  11
HETATM   11  C3  UNL     1       2.645  24.426  15.296  1.00  0.00     0.139 C 
BRANCH  11  12
HETATM   12  C4  UNL     1       3.517  23.586  16.194  1.00  0.00     0.040 C 
BRANCH  12  13
HETATM   13  C5  UNL     1       3.206  23.700  17.637  1.00  0.00     0.129 C 
BRANCH  13  14
HETATM   14  N5  UNL     1       2.617  22.528  18.227  1.00  0.00    -0.366 N 
HETATM   15  C6  UNL     1       1.859  21.700  17.507  1.00  0.00     0.090 A 
HETATM   16  C7  UNL     1       1.315  20.589  18.108  1.00  0.00     0.017 A 
HETATM   17  C8  UNL     1       1.546  20.329  19.439  1.00  0.00     0.003 A 
HETATM   18  C9  UNL     1       2.321  21.176  20.174  1.00  0.00     0.017 A 
HETATM   19  C10 UNL     1       2.846  22.281  19.519  1.00  0.00     0.090 A 
ENDBRANCH  13  14
ENDBRANCH  12  13
ENDBRANCH  11  12
ENDBRANCH   9  11
ENDBRANCH   6   9
BRANCH   1  20
HETATM   20  N1  UNL     1      -2.397  23.186  15.460  1.00  0.00    -0.233 N 
ATOM     21  H12 UNL     1      -2.885  23.161  14.564  1.00  0.00     0.174 HD
ATOM     22  H11 UNL     1      -2.748  22.399  16.007  1.00  0.00     0.174 HD
ENDBRANCH   1  20
TORSDOF 6
ENDMDL
MODEL 3
REMARK VINA RESULT: -6.319334342      3.044      4.339
REMARK  6 active torsions:
REMARK  status: ('A' for Active; 'I' for Inactive)
REMARK    1  A    between atoms: N1_1  and  C1_4 
REMARK    2  A    between atoms: C2_9  and  N4_10 
REMARK    3  A    between atoms: N4_10  and  C3_12 
REMARK    4  A    between atoms: C3_12  and  C4_13 
REMARK    5  A    between atoms: C4_13  and  C5_14 
REMARK    6  A    between atoms: C5_14  and  N5_15 
ROOT
HETATM    1  C1  UNL     1       0.246  26.490  18.214  1.00  0.00     0.705 A 
HETATM    2  N2  UNL     1      -0.914  26.146  17.660  1.00  0.00    -0.118 N 
ATOM      3  H2  UNL     1      -1.840  26.369  18.025  1.00  0.00     0.206 HD
HETATM    4  N3  UNL     1      -0.658  25.462  16.547  1.00  0.00    -0.117 N 
ATOM      5  H3  UNL     1      -1.365  25.075  15.921  1.00  0.00     0.206 HD
HETATM    6  C2  UNL     1       0.669  25.356  16.371  1.00  0.00     0.707 A 
HETATM    7  N6  UNL     1       1.223  25.998  17.411  1.00  0.00    -0.020 N 
ATOM      8  H6  UNL     1       2.225  26.101  17.573  1.00  0.00     0.203 HD
ENDROOT
BRANCH   6   9
HETATM    9  N4  UNL     1       1.307  24.783  15.436  1.00  0.00    -0.224 N 
ATOM     10  H4  UNL     1       0.770  24.399  14.658  1.00  0.00     0.177 HD
BRANCH   9  11
HETATM   11  C3  UNL     1       2.749  24.636  15.402  1.00  0.00     0.139 C 
BRANCH  11  12
HETATM   12  C4  UNL     1       3.144  23.217  15.726  1.00  0.00     0.040 C 
BRANCH  12  13
HETATM   13  C5  UNL     1       2.012  22.321  16.048  1.00  0.00     0.129 C 
BRANCH  13  14
HETATM   14  N5  UNL     1       1.982  21.841  17.404  1.00  0.00    -0.366 N 
HETATM   15  C6  UNL     1       1.350  20.710  17.722  1.00  0.00     0.090 A 
HETATM   16  C7  UNL     1       1.345  20.285  19.030  1.00  0.00     0.017 A 
HETATM   17  C8  UNL     1       1.983  21.014  20.005  1.00  0.00     0.003 A 
HETATM   18  C9  UNL     1       2.629  22.169  19.680  1.00  0.00     0.017 A 
HETATM   19  C10 UNL     1       2.604  22.553  18.346  1.00  0.00     0.090 A 
ENDBRANCH  13  14
ENDBRANCH  12  13
ENDBRANCH  11  12
ENDBRANCH   9  11
ENDBRANCH   6   9
BRANCH   1  20
HETATM   20  N1  UNL     1       0.443  27.158  19.300  1.00  0.00    -0.233 N 
ATOM     21  H12 UNL     1       0.687  28.148  19.344  1.00  0.00     0.174 HD
ATOM     22  H11 UNL     1       0.391  26.826  20.263  1.00  0.00     0.174 HD
ENDBRANCH   1  20
TORSDOF 6
ENDMDL
MODEL 4
REMARK VINA RESULT: -6.287373655      2.800      4.238
REMARK  6 active torsions:
REMARK  status: ('A' for Active; 'I' for Inactive)
REMARK    1  A    between atoms: N1_1  and  C1_4 
REMARK    2  A    between atoms: C2_9  and  N4_10 
REMARK    3  A    between atoms: N4_10  and  C3_12 
REMARK    4  A    between atoms: C3_12  and  C4_13 
REMARK    5  A    between atoms: C4_13  and  C5_14 
REMARK    6  A    between atoms: C5_14  and  N5_15 
ROOT
HETATM    1  C1  UNL     1      -1.560  23.942  15.843  1.00  0.00     0.705 A 
HETATM    2  N2  UNL     1      -1.713  25.152  16.377  1.00  0.00    -0.118 N 
ATOM      3  H2  UNL     1      -2.599  25.574  16.655  1.00  0.00     0.206 HD
HETATM    4  N3  UNL     1      -0.511  25.715  16.487  1.00  0.00    -0.117 N 
ATOM      5  H3  UNL     1      -0.332  26.645  16.866  1.00  0.00     0.206 HD
HETATM    6  C2  UNL     1       0.430  24.875  16.025  1.00  0.00     0.707 A 
HETATM    7  N6  UNL     1      -0.230  23.777  15.628  1.00  0.00    -0.020 N 
ATOM      8  H6  UNL     1       0.202  22.944  15.225  1.00  0.00     0.203 HD
ENDROOT
BRANCH   6   9
HETATM    9  N4  UNL     1       1.686  25.043  15.960  1.00  0.00    -0.224 N 
ATOM     10  H4  UNL     1       2.084  25.852  16.436  1.00  0.00     0.177 HD
BRANCH   9  11
HETATM   11  C3  UNL     1       2.592  24.159  15.252  1.00  0.00     0.139 C 
BRANCH  11  12
HETATM   12  C4  UNL     1       3.501  23.447  16.222  1.00  0.00     0.040 C 
BRANCH  12  13
HETATM   13  C5  UNL     1       3.268  23.782  17.644  1.00  0.00     0.129 C 
BRANCH  13  14
HETATM   14  N5  UNL     1       2.779  22.697  18.453  1.00  0.00    -0.366 N 
HETATM   15  C6  UNL     1       3.064  22.625  19.754  1.00  0.00     0.090 A 
HETATM   16  C7  UNL     1       2.578  21.572  20.493  1.00  0.00     0.017 A 
HETATM   17  C8  UNL     1       1.805  20.600  19.902  1.00  0.00     0.003 A 
HETATM   18  C9  UNL     1       1.514  20.675  18.573  1.00  0.00     0.017 A 
HETATM   19  C10 UNL     1       2.029  21.758  17.874  1.00  0.00     0.090 A 
ENDBRANCH  13  14
ENDBRANCH  12  13
ENDBRANCH  11  12
ENDBRANCH   9  11
ENDBRANCH   6   9
BRANCH   1  20
HETATM   20  N1  UNL     1      -2.471  23.071  15.569  1.00  0.00    -0.233 N 
ATOM     21  H12 UNL     1      -3.195  22.756  16.215  1.00  0.00     0.174 HD
ATOM     22  H11 UNL     1      -2.618  22.567  14.695  1.00  0.00     0.174 HD
ENDBRANCH   1  20
TORSDOF 6
ENDMDL
MODEL 5
REMARK VINA RESULT: -6.270275504      2.629      3.431
REMARK  6 active torsions:
REMARK  status: ('A' for Active; 'I' for Inactive)
REMARK    1  A    between atoms: N1_1  and  C1_4 
REMARK    2  A    between atoms: C2_9  and  N4_10 
REMARK    3  A    between atoms: N4_10  and  C3_12 
REMARK    4  A    between atoms: C3_12  and  C4_13 
REMARK    5  A    between atoms: C4_13  and  C5_14 
REMARK    6  A    between atoms: C5_14  and  N5_15 
ROOT
HETATM    1  C1  UNL     1      -1.390  24.065  15.807  1.00  0.00     0.705 A 
HETATM    2  N2  UNL     1      -1.399  25.308  16.283  1.00  0.00    -0.118 N 
ATOM      3  H2  UNL     1      -2.229  25.851  16.521  1.00  0.00     0.206 HD
HETATM    4  N3  UNL     1      -0.138  25.720  16.398  1.00  0.00    -0.117 N 
ATOM      5  H3  UNL     1       0.151  26.637  16.739  1.00  0.00     0.206 HD
HETATM    6  C2  UNL     1       0.698  24.748  15.996  1.00  0.00     0.707 A 
HETATM    7  N6  UNL     1      -0.088  23.724  15.631  1.00  0.00    -0.020 N 
ATOM      8  H6  UNL     1       0.242  22.826  15.276  1.00  0.00     0.203 HD
ENDROOT
BRANCH   6   9
HETATM    9  N4  UNL     1       1.966  24.754  15.954  1.00  0.00    -0.224 N 
ATOM     10  H4  UNL     1       2.430  25.613  15.660  1.00  0.00     0.177 HD
BRANCH   9  11
HETATM   11  C3  UNL     1       2.800  23.618  16.297  1.00  0.00     0.139 C 
BRANCH  11  12
HETATM   12  C4  UNL     1       3.699  23.953  17.459  1.00  0.00     0.040 C 
BRANCH  12  13
HETATM   13  C5  UNL     1       3.160  23.573  18.784  1.00  0.00     0.129 C 
BRANCH  13  14
HETATM   14  N5  UNL     1       4.135  23.072  19.717  1.00  0.00    -0.366 N 
HETATM   15  C6  UNL     1       5.335  23.641  19.832  1.00  0.00     0.090 A 
HETATM   16  C7  UNL     1       6.239  23.132  20.735  1.00  0.00     0.017 A 
HETATM   17  C8  UNL     1       5.914  22.047  21.515  1.00  0.00     0.003 A 
HETATM   18  C9  UNL     1       4.687  21.466  21.396  1.00  0.00     0.017 A 
HETATM   19  C10 UNL     1       3.813  22.018  20.470  1.00  0.00     0.090 A 
ENDBRANCH  13  14
ENDBRANCH  12  13
ENDBRANCH  11  12
ENDBRANCH   9  11
ENDBRANCH   6   9
BRANCH   1  20
HETATM   20  N1  UNL     1      -2.399  23.303  15.550  1.00  0.00    -0.233 N 
ATOM     21  H12 UNL     1      -3.285  23.617  15.153  1.00  0.00     0.174 HD
ATOM     22  H11 UNL     1      -2.481  22.297  15.694  1.00  0.00     0.174 HD
ENDBRANCH   1  20
TORSDOF 6
ENDMDL
