MODEL 1
REMARK VINA RESULT: -7.379164971      0.000      0.000
REMARK  4 active torsions:
REMARK  status: ('A' for Active; 'I' for Inactive)
REMARK    1  A    between atoms: C3_3  and  C4_4 
REMARK    2  A    between atoms: C4_4  and  C5_5 
REMARK    3  A    between atoms: C5_5  and  C6_6 
REMARK    4  A    between atoms: C6_6  and  N1_7 
ROOT
HETATM    1  C1  UNL     1       6.516  23.651  20.359  1.00  0.00     0.012 C 
HETATM    2  C2  UNL     1       5.985  22.692  20.865  1.00  0.00    -0.117 C 
HETATM    3  C3  UNL     1       5.334  21.547  21.496  1.00  0.00     0.093 C 
ENDROOT
BRANCH   3   4
HETATM    4  C4  UNL     1       4.069  21.126  20.821  1.00  0.00     0.014 C 
BRANCH   4   5
HETATM    5  C5  UNL     1       3.221  22.264  20.319  1.00  0.00     0.021 C 
BRANCH   5   6
HETATM    6  C6  UNL     1       2.430  21.989  19.096  1.00  0.00     0.130 C 
BRANCH   6   7
HETATM    7  N1  UNL     1       2.766  22.722  17.924  1.00  0.00    -0.344 N 
HETATM    8  C7  UNL     1       3.682  23.610  18.019  1.00  0.00     0.094 C 
HETATM    9  C8  UNL     1       4.302  24.549  17.096  1.00  0.00     0.048 C 
HETATM   10  C9  UNL     1       4.042  24.696  15.820  1.00  0.00     0.091 C 
HETATM   11  N2  UNL     1       4.792  25.687  15.149  1.00  0.00    -0.098 NA
HETATM   12  C10 UNL     1       3.086  23.972  14.990  1.00  0.00     0.125 C 
HETATM   13  N3  UNL     1       3.222  24.097  13.728  1.00  0.00    -0.384 N 
HETATM   14  N4  UNL     1       2.030  23.143  15.495  1.00  0.00    -0.328 N 
ATOM     15  H32 UNL     1       3.973  24.686  13.369  1.00  0.00     0.157 HD
ATOM     16  H31 UNL     1       2.553  23.590  13.147  1.00  0.00     0.157 HD
HETATM   17  C11 UNL     1       2.053  22.396  16.743  1.00  0.00     0.099 C 
ATOM     18  H4  UNL     1       1.186  23.071  14.928  1.00  0.00     0.169 HD
HETATM   19  C12 UNL     1       1.345  21.298  16.717  1.00  0.00     0.064 C 
ENDBRANCH   6   7
ENDBRANCH   5   6
ENDBRANCH   4   5
ENDBRANCH   3   4
TORSDOF 4
ENDMDL
MODEL 2
REMARK VINA RESULT: -6.980921826      1.381      2.392
REMARK  4 active torsions:
REMARK  status: ('A' for Active; 'I' for Inactive)
REMARK    1  A    between atoms: C3_3  and  C4_4 
REMARK    2  A    between atoms: C4_4  and  C5_5 
REMARK    3  A    between atoms: C5_5  and  C6_6 
REMARK    4  A    between atoms: C6_6  and  N1_7 
ROOT
HETATM    1  C1  UNL     1       3.144  17.448  19.428  1.00  0.00     0.012 C 
HETATM    2  C2  UNL     1       2.862  18.465  20.014  1.00  0.00    -0.117 C 
HETATM    3  C3  UNL     1       2.523  19.682  20.747  1.00  0.00     0.093 C 
ENDROOT
BRANCH   3   4
HETATM    4  C4  UNL     1       3.660  20.643  20.878  1.00  0.00     0.014 C 
BRANCH   4   5
HETATM    5  C5  UNL     1       3.426  21.978  20.222  1.00  0.00     0.021 C 
BRANCH   5   6
HETATM    6  C6  UNL     1       2.431  21.991  19.122  1.00  0.00     0.130 C 
BRANCH   6   7
HETATM    7  N1  UNL     1       2.769  22.718  17.946  1.00  0.00    -0.344 N 
HETATM    8  C7  UNL     1       3.681  23.611  18.039  1.00  0.00     0.094 C 
HETATM    9  C8  UNL     1       4.300  24.546  17.112  1.00  0.00     0.048 C 
HETATM   10  C9  UNL     1       4.045  24.683  15.834  1.00  0.00     0.091 C 
HETATM   11  N2  UNL     1       4.793  25.673  15.160  1.00  0.00    -0.098 NA
HETATM   12  C10 UNL     1       3.096  23.949  15.005  1.00  0.00     0.125 C 
HETATM   13  N3  UNL     1       3.236  24.066  13.743  1.00  0.00    -0.384 N 
HETATM   14  N4  UNL     1       2.042  23.119  15.512  1.00  0.00    -0.328 N 
ATOM     15  H32 UNL     1       3.987  24.656  13.383  1.00  0.00     0.157 HD
ATOM     16  H31 UNL     1       2.572  23.552  13.163  1.00  0.00     0.157 HD
HETATM   17  C11 UNL     1       2.063  22.381  16.765  1.00  0.00     0.099 C 
ATOM     18  H4  UNL     1       1.200  23.039  14.942  1.00  0.00     0.169 HD
HETATM   19  C12 UNL     1       1.360  21.279  16.744  1.00  0.00     0.064 C 
ENDBRANCH   6   7
ENDBRANCH   5   6
ENDBRANCH   4   5
ENDBRANCH   3   4
TORSDOF 4
ENDMDL
MODEL 3
REMARK VINA RESULT: -6.967762235      0.745      1.332
REMARK  4 active torsions:
REMARK  status: ('A' for Active; 'I' for Inactive)
REMARK    1  A    between atoms: C3_3  and  C4_4 
REMARK    2  A    between atoms: C4_4  and  C5_5 
REMARK    3  A    between atoms: C5_5  and  C6_6 
REMARK    4  A    between atoms: C6_6  and  N1_7 
ROOT
HETATM    1  C1  UNL     1       5.582  20.872  24.014  1.00  0.00     0.012 C 
HETATM    2  C2  UNL     1       5.474  21.218  22.862  1.00  0.00    -0.117 C 
HETATM    3  C3  UNL     1       5.362  21.616  21.461  1.00  0.00     0.093 C 
ENDROOT
BRANCH   3   4
HETATM    4  C4  UNL     1       4.087  21.182  20.813  1.00  0.00     0.014 C 
BRANCH   4   5
HETATM    5  C5  UNL     1       3.221  22.311  20.322  1.00  0.00     0.021 C 
BRANCH   5   6
HETATM    6  C6  UNL     1       2.428  22.033  19.100  1.00  0.00     0.130 C 
BRANCH   6   7
HETATM    7  N1  UNL     1       2.770  22.754  17.923  1.00  0.00    -0.344 N 
HETATM    8  C7  UNL     1       3.683  23.647  18.015  1.00  0.00     0.094 C 
HETATM    9  C8  UNL     1       4.306  24.578  17.086  1.00  0.00     0.048 C 
HETATM   10  C9  UNL     1       4.055  24.710  15.807  1.00  0.00     0.091 C 
HETATM   11  N2  UNL     1       4.806  25.697  15.131  1.00  0.00    -0.098 NA
HETATM   12  C10 UNL     1       3.108  23.974  14.978  1.00  0.00     0.125 C 
HETATM   13  N3  UNL     1       3.252  24.086  13.716  1.00  0.00    -0.384 N 
HETATM   14  N4  UNL     1       2.051  23.147  15.485  1.00  0.00    -0.328 N 
ATOM     15  H32 UNL     1       4.004  24.674  13.356  1.00  0.00     0.157 HD
ATOM     16  H31 UNL     1       2.589  23.571  13.136  1.00  0.00     0.157 HD
HETATM   17  C11 UNL     1       2.067  22.414  16.740  1.00  0.00     0.099 C 
ATOM     18  H4  UNL     1       1.211  23.066  14.913  1.00  0.00     0.169 HD
HETATM   19  C12 UNL     1       1.363  21.313  16.721  1.00  0.00     0.064 C 
ENDBRANCH   6   7
ENDBRANCH   5   6
ENDBRANCH   4   5
ENDBRANCH   3   4
TORSDOF 4
ENDMDL
MODEL 4
REMARK VINA RESULT: -6.697716118      2.630      6.012
REMARK  4 active torsions:
REMARK  status: ('A' for Active; 'I' for Inactive)
REMARK    1  A    between atoms: C3_3  and  C4_4 
REMARK    2  A    between atoms: C4_4  and  C5_5 
REMARK    3  A    between atoms: C5_5  and  C6_6 
REMARK    4  A    between atoms: C6_6  and  N1_7 
ROOT
HETATM    1  C1  UNL     1      -2.791  22.683  16.013  1.00  0.00     0.012 C 
HETATM    2  C2  UNL     1      -2.101  23.674  16.011  1.00  0.00    -0.117 C 
HETATM    3  C3  UNL     1      -1.273  24.877  16.036  1.00  0.00     0.093 C 
ENDROOT
BRANCH   3   4
HETATM    4  C4  UNL     1       0.192  24.598  16.135  1.00  0.00     0.014 C 
BRANCH   4   5
HETATM    5  C5  UNL     1       0.567  23.156  15.925  1.00  0.00     0.021 C 
BRANCH   5   6
HETATM    6  C6  UNL     1       2.020  22.859  15.936  1.00  0.00     0.130 C 
BRANCH   6   7
HETATM    7  N1  UNL     1       2.697  22.958  17.183  1.00  0.00    -0.344 N 
HETATM    8  C7  UNL     1       2.266  22.243  18.153  1.00  0.00     0.094 C 
HETATM    9  C8  UNL     1       2.654  22.057  19.543  1.00  0.00     0.048 C 
HETATM   10  C9  UNL     1       3.651  22.629  20.171  1.00  0.00     0.091 C 
HETATM   11  N2  UNL     1       3.811  22.270  21.528  1.00  0.00    -0.098 NA
HETATM   12  C10 UNL     1       4.628  23.585  19.663  1.00  0.00     0.125 C 
HETATM   13  N3  UNL     1       5.665  23.773  20.381  1.00  0.00    -0.384 N 
HETATM   14  N4  UNL     1       4.498  24.306  18.429  1.00  0.00    -0.328 N 
ATOM     15  H32 UNL     1       5.758  23.260  21.258  1.00  0.00     0.157 HD
ATOM     16  H31 UNL     1       6.349  24.442  20.025  1.00  0.00     0.157 HD
HETATM   17  C11 UNL     1       3.801  23.844  17.240  1.00  0.00     0.099 C 
ATOM     18  H4  UNL     1       4.934  25.226  18.382  1.00  0.00     0.169 HD
HETATM   19  C12 UNL     1       4.298  24.303  16.121  1.00  0.00     0.064 C 
ENDBRANCH   6   7
ENDBRANCH   5   6
ENDBRANCH   4   5
ENDBRANCH   3   4
TORSDOF 4
ENDMDL
MODEL 5
REMARK VINA RESULT: -6.526046287      2.528      3.625
REMARK  4 active torsions:
REMARK  status: ('A' for Active; 'I' for Inactive)
REMARK    1  A    between atoms: C3_3  and  C4_4 
REMARK    2  A    between atoms: C4_4  and  C5_5 
REMARK    3  A    between atoms: C5_5  and  C6_6 
REMARK    4  A    between atoms: C6_6  and  N1_7 
ROOT
HETATM    1  C1  UNL     1       6.829  24.752  19.789  1.00  0.00     0.012 C 
HETATM    2  C2  UNL     1       5.778  24.159  19.816  1.00  0.00    -0.117 C 
HETATM    3  C3  UNL     1       4.494  23.463  19.863  1.00  0.00     0.093 C 
ENDROOT
BRANCH   3   4
HETATM    4  C4  UNL     1       3.766  23.456  18.558  1.00  0.00     0.014 C 
BRANCH   4   5
HETATM    5  C5  UNL     1       4.376  24.335  17.499  1.00  0.00     0.021 C 
BRANCH   5   6
HETATM    6  C6  UNL     1       3.738  24.272  16.161  1.00  0.00     0.130 C 
BRANCH   6   7
HETATM    7  N1  UNL     1       2.316  24.298  16.115  1.00  0.00    -0.344 N 
HETATM    8  C7  UNL     1       1.729  25.380  16.465  1.00  0.00     0.094 C 
HETATM    9  C8  UNL     1       0.342  25.810  16.563  1.00  0.00     0.048 C 
HETATM   10  C9  UNL     1      -0.727  25.114  16.265  1.00  0.00     0.091 C 
HETATM   11  N2  UNL     1      -1.963  25.772  16.452  1.00  0.00    -0.098 NA
HETATM   12  C10 UNL     1      -0.821  23.749  15.759  1.00  0.00     0.125 C 
HETATM   13  N3  UNL     1      -1.949  23.399  15.277  1.00  0.00    -0.384 N 
HETATM   14  N4  UNL     1       0.255  22.801  15.767  1.00  0.00    -0.328 N 
ATOM     15  H32 UNL     1      -2.714  24.074  15.272  1.00  0.00     0.157 HD
ATOM     16  H31 UNL     1      -2.015  22.444  14.923  1.00  0.00     0.157 HD
HETATM   17  C11 UNL     1       1.671  23.115  15.676  1.00  0.00     0.099 C 
ATOM     18  H4  UNL     1       0.003  21.816  15.842  1.00  0.00     0.169 HD
HETATM   19  C12 UNL     1       2.386  22.187  15.097  1.00  0.00     0.064 C 
ENDBRANCH   6   7
ENDBRANCH   5   6
ENDBRANCH   4   5
ENDBRANCH   3   4
TORSDOF 4
ENDMDL
