MODEL 1
REMARK VINA RESULT: -7.655259992      0.000      0.000
REMARK  8 active torsions:
REMARK  status: ('A' for Active; 'I' for Inactive)
REMARK    1  A    between atoms: C2_2  and  C4_4 
REMARK    2  A    between atoms: C4_4  and  C11_13 
REMARK    3  A    between atoms: C5_5  and  C6_6 
REMARK    4  A    between atoms: C11_13  and  O1_14 
REMARK    5  A    between atoms: C11_13  and  N2_16 
REMARK       I    between atoms: N2_16  and  C12_18 
REMARK    6  A    between atoms: C12_18  and  C13_20 
REMARK    7  A    between atoms: C13_20  and  N3_22 
REMARK       I    between atoms: N3_22  and  C15_24 
REMARK    8  A    between atoms: C15_24  and  C16_26 
ROOT
HETATM    1  C11 UNL     1     -35.977  -1.736   6.655  1.00  0.00     0.251 C 
ENDROOT
BRANCH   1   2
HETATM    2  C4  UNL     1     -35.380  -2.174   7.911  1.00  0.00    -0.028 C 
HETATM    3  C5  UNL     1     -35.237  -3.458   8.158  1.00  0.00     0.020 C 
BRANCH   2   4
HETATM    4  C2  UNL     1     -34.945  -1.174   8.946  1.00  0.00     0.011 C 
HETATM    5  C1  UNL     1     -33.871  -0.276   8.433  1.00  0.00     0.014 C 
HETATM    6  C3  UNL     1     -36.075  -0.391   9.541  1.00  0.00     0.014 C 
ENDBRANCH   2   4
BRANCH   3   7
HETATM    7  C6  UNL     1     -35.564  -4.598   7.370  1.00  0.00    -0.020 A 
HETATM    8  C7  UNL     1     -34.549  -5.469   6.949  1.00  0.00     0.014 A 
HETATM    9  C8  UNL     1     -34.772  -6.609   6.240  1.00  0.00     0.018 A 
HETATM   10  C9  UNL     1     -36.080  -6.942   5.905  1.00  0.00     0.087 A 
HETATM   11  N1  UNL     1     -37.073  -6.125   6.296  1.00  0.00    -0.374 N 
HETATM   12  C10 UNL     1     -36.830  -4.985   7.008  1.00  0.00     0.099 A 
ATOM     13  H1  UNL     1     -38.035  -6.364   6.054  1.00  0.00     0.164 HD
ENDBRANCH   3   7
ENDBRANCH   1   2
BRANCH   1  14
HETATM   14  O1  UNL     1     -37.114  -2.487   6.362  1.00  0.00    -0.373 OA
ATOM     15  H1  UNL     1     -37.875  -2.132   6.807  1.00  0.00     0.212 HD
ENDBRANCH   1  14
BRANCH   1  16
HETATM   16  N2  UNL     1     -35.095  -1.624   5.527  1.00  0.00    -0.329 N 
HETATM   17  C12 UNL     1     -34.729  -0.392   4.974  1.00  0.00     0.242 C 
HETATM   18  O2  UNL     1     -35.177   0.698   5.486  1.00  0.00    -0.271 OA
ATOM     19  H2  UNL     1     -34.721  -2.476   5.111  1.00  0.00     0.165 HD
BRANCH  17  20
HETATM   20  C13 UNL     1     -33.840  -0.235   3.812  1.00  0.00     0.173 C 
HETATM   21  C14 UNL     1     -32.623  -1.097   3.817  1.00  0.00     0.042 C 
BRANCH  20  22
HETATM   22  N3  UNL     1     -33.482   1.164   3.589  1.00  0.00    -0.339 N 
HETATM   23  C15 UNL     1     -34.144   2.006   2.675  1.00  0.00     0.318 C 
HETATM   24  O3  UNL     1     -35.098   1.567   1.999  1.00  0.00    -0.261 OA
ATOM     25  H3  UNL     1     -32.707   1.553   4.126  1.00  0.00     0.163 HD
BRANCH  23  26
HETATM   26  C16 UNL     1     -33.734   3.383   2.506  1.00  0.00     0.270 C 
HETATM   27  O4  UNL     1     -34.217   4.308   3.174  1.00  0.00    -0.640 OA
HETATM   28  O5  UNL     1     -32.758   3.687   1.557  1.00  0.00    -0.640 OA
ENDBRANCH  23  26
ENDBRANCH  20  22
ENDBRANCH  17  20
ENDBRANCH   1  16
TORSDOF 8
ENDMDL
MODEL 2
REMARK VINA RESULT: -7.597893318      6.107      8.958
REMARK  8 active torsions:
REMARK  status: ('A' for Active; 'I' for Inactive)
REMARK    1  A    between atoms: C2_2  and  C4_4 
REMARK    2  A    between atoms: C4_4  and  C11_13 
REMARK    3  A    between atoms: C5_5  and  C6_6 
REMARK    4  A    between atoms: C11_13  and  O1_14 
REMARK    5  A    between atoms: C11_13  and  N2_16 
REMARK       I    between atoms: N2_16  and  C12_18 
REMARK    6  A    between atoms: C12_18  and  C13_20 
REMARK    7  A    between atoms: C13_20  and  N3_22 
REMARK       I    between atoms: N3_22  and  C15_24 
REMARK    8  A    between atoms: C15_24  and  C16_26 
ROOT
HETATM    1  C11 UNL     1     -34.499   4.517   1.850  1.00  0.00     0.251 C 
ENDROOT
BRANCH   1   2
HETATM    2  C4  UNL     1     -34.718   3.076   1.874  1.00  0.00    -0.028 C 
HETATM    3  C5  UNL     1     -35.649   2.540   1.115  1.00  0.00     0.020 C 
BRANCH   2   4
HETATM    4  C2  UNL     1     -33.905   2.190   2.776  1.00  0.00     0.011 C 
HETATM    5  C1  UNL     1     -34.745   1.146   3.432  1.00  0.00     0.014 C 
HETATM    6  C3  UNL     1     -32.706   1.588   2.110  1.00  0.00     0.014 C 
ENDBRANCH   2   4
BRANCH   3   7
HETATM    7  C6  UNL     1     -36.551   3.137   0.189  1.00  0.00    -0.020 A 
HETATM    8  C7  UNL     1     -36.137   3.382  -1.128  1.00  0.00     0.014 A 
HETATM    9  C8  UNL     1     -36.945   3.898  -2.094  1.00  0.00     0.018 A 
HETATM   10  C9  UNL     1     -38.262   4.208  -1.770  1.00  0.00     0.087 A 
HETATM   11  N1  UNL     1     -38.685   3.983  -0.514  1.00  0.00    -0.374 N 
HETATM   12  C10 UNL     1     -37.860   3.463   0.442  1.00  0.00     0.099 A 
ATOM     13  H1  UNL     1     -39.650   4.207  -0.270  1.00  0.00     0.164 HD
ENDBRANCH   3   7
ENDBRANCH   1   2
BRANCH   1  14
HETATM   14  O1  UNL     1     -33.508   4.850   0.928  1.00  0.00    -0.373 OA
ATOM     15  H1  UNL     1     -32.927   4.113   0.780  1.00  0.00     0.212 HD
ENDBRANCH   1  14
BRANCH   1  16
HETATM   16  N2  UNL     1     -34.298   5.160   3.119  1.00  0.00    -0.329 N 
HETATM   17  C12 UNL     1     -34.511   6.529   3.315  1.00  0.00     0.242 C 
HETATM   18  O2  UNL     1     -34.914   7.259   2.337  1.00  0.00    -0.271 OA
ATOM     19  H2  UNL     1     -33.988   4.596   3.910  1.00  0.00     0.165 HD
BRANCH  17  20
HETATM   20  C13 UNL     1     -34.304   7.226   4.593  1.00  0.00     0.173 C 
HETATM   21  C14 UNL     1     -34.908   8.586   4.686  1.00  0.00     0.042 C 
BRANCH  20  22
HETATM   22  N3  UNL     1     -32.893   7.260   4.970  1.00  0.00    -0.339 N 
HETATM   23  C15 UNL     1     -32.421   6.998   6.270  1.00  0.00     0.318 C 
HETATM   24  O3  UNL     1     -33.227   6.717   7.182  1.00  0.00    -0.261 OA
ATOM     25  H3  UNL     1     -32.209   7.486   4.247  1.00  0.00     0.163 HD
BRANCH  23  26
HETATM   26  C16 UNL     1     -31.006   7.051   6.569  1.00  0.00     0.270 C 
HETATM   27  O4  UNL     1     -30.410   6.117   7.124  1.00  0.00    -0.640 OA
HETATM   28  O5  UNL     1     -30.283   8.192   6.223  1.00  0.00    -0.640 OA
ENDBRANCH  23  26
ENDBRANCH  20  22
ENDBRANCH  17  20
ENDBRANCH   1  16
TORSDOF 8
ENDMDL
MODEL 3
REMARK VINA RESULT: -7.509208044      6.292      9.108
REMARK  8 active torsions:
REMARK  status: ('A' for Active; 'I' for Inactive)
REMARK    1  A    between atoms: C2_2  and  C4_4 
REMARK    2  A    between atoms: C4_4  and  C11_13 
REMARK    3  A    between atoms: C5_5  and  C6_6 
REMARK    4  A    between atoms: C11_13  and  O1_14 
REMARK    5  A    between atoms: C11_13  and  N2_16 
REMARK       I    between atoms: N2_16  and  C12_18 
REMARK    6  A    between atoms: C12_18  and  C13_20 
REMARK    7  A    between atoms: C13_20  and  N3_22 
REMARK       I    between atoms: N3_22  and  C15_24 
REMARK    8  A    between atoms: C15_24  and  C16_26 
ROOT
HETATM    1  C11 UNL     1     -34.453   4.501   1.172  1.00  0.00     0.251 C 
ENDROOT
BRANCH   1   2
HETATM    2  C4  UNL     1     -34.852   3.167   1.602  1.00  0.00    -0.028 C 
HETATM    3  C5  UNL     1     -35.974   2.641   1.159  1.00  0.00     0.020 C 
BRANCH   2   4
HETATM    4  C2  UNL     1     -34.008   2.386   2.570  1.00  0.00     0.011 C 
HETATM    5  C1  UNL     1     -34.831   1.472   3.414  1.00  0.00     0.014 C 
HETATM    6  C3  UNL     1     -32.869   1.657   1.924  1.00  0.00     0.014 C 
ENDBRANCH   2   4
BRANCH   3   7
HETATM    7  C6  UNL     1     -36.949   3.156   0.258  1.00  0.00    -0.020 A 
HETATM    8  C7  UNL     1     -38.154   3.672   0.755  1.00  0.00     0.014 A 
HETATM    9  C8  UNL     1     -39.119   4.231  -0.025  1.00  0.00     0.018 A 
HETATM   10  C9  UNL     1     -38.912   4.301  -1.399  1.00  0.00     0.087 A 
HETATM   11  N1  UNL     1     -37.764   3.814  -1.902  1.00  0.00    -0.374 N 
HETATM   12  C10 UNL     1     -36.807   3.256  -1.104  1.00  0.00     0.099 A 
ATOM     13  H1  UNL     1     -37.605   3.863  -2.908  1.00  0.00     0.164 HD
ENDBRANCH   3   7
ENDBRANCH   1   2
BRANCH   1  14
HETATM   14  O1  UNL     1     -33.080   4.552   0.934  1.00  0.00    -0.373 OA
ATOM     15  H1  UNL     1     -32.673   5.227   1.463  1.00  0.00     0.212 HD
ENDBRANCH   1  14
BRANCH   1  16
HETATM   16  N2  UNL     1     -34.905   5.601   1.979  1.00  0.00    -0.329 N 
HETATM   17  C12 UNL     1     -34.173   6.090   3.067  1.00  0.00     0.242 C 
HETATM   18  O2  UNL     1     -33.043   5.558   3.368  1.00  0.00    -0.271 OA
ATOM     19  H2  UNL     1     -35.795   6.043   1.750  1.00  0.00     0.165 HD
BRANCH  17  20
HETATM   20  C13 UNL     1     -34.607   7.204   3.924  1.00  0.00     0.173 C 
HETATM   21  C14 UNL     1     -34.701   8.531   3.251  1.00  0.00     0.042 C 
BRANCH  20  22
HETATM   22  N3  UNL     1     -33.801   7.297   5.139  1.00  0.00    -0.339 N 
HETATM   23  C15 UNL     1     -34.270   7.835   6.353  1.00  0.00     0.318 C 
HETATM   24  O3  UNL     1     -35.440   8.267   6.433  1.00  0.00    -0.261 OA
ATOM     25  H3  UNL     1     -32.841   6.952   5.107  1.00  0.00     0.163 HD
BRANCH  23  26
HETATM   26  C16 UNL     1     -33.413   7.895   7.517  1.00  0.00     0.270 C 
HETATM   27  O4  UNL     1     -32.395   7.199   7.629  1.00  0.00    -0.640 OA
HETATM   28  O5  UNL     1     -33.742   8.767   8.554  1.00  0.00    -0.640 OA
ENDBRANCH  23  26
ENDBRANCH  20  22
ENDBRANCH  17  20
ENDBRANCH   1  16
TORSDOF 8
ENDMDL
MODEL 4
REMARK VINA RESULT: -7.321327985      6.258      8.988
REMARK  8 active torsions:
REMARK  status: ('A' for Active; 'I' for Inactive)
REMARK    1  A    between atoms: C2_2  and  C4_4 
REMARK    2  A    between atoms: C4_4  and  C11_13 
REMARK    3  A    between atoms: C5_5  and  C6_6 
REMARK    4  A    between atoms: C11_13  and  O1_14 
REMARK    5  A    between atoms: C11_13  and  N2_16 
REMARK       I    between atoms: N2_16  and  C12_18 
REMARK    6  A    between atoms: C12_18  and  C13_20 
REMARK    7  A    between atoms: C13_20  and  N3_22 
REMARK       I    between atoms: N3_22  and  C15_24 
REMARK    8  A    between atoms: C15_24  and  C16_26 
ROOT
HETATM    1  C11 UNL     1     -34.180   4.436   1.356  1.00  0.00     0.251 C 
ENDROOT
BRANCH   1   2
HETATM    2  C4  UNL     1     -34.634   3.125   1.804  1.00  0.00    -0.028 C 
HETATM    3  C5  UNL     1     -35.787   2.651   1.385  1.00  0.00     0.020 C 
BRANCH   2   4
HETATM    4  C2  UNL     1     -33.810   2.312   2.762  1.00  0.00     0.011 C 
HETATM    5  C1  UNL     1     -34.655   1.404   3.591  1.00  0.00     0.014 C 
HETATM    6  C3  UNL     1     -32.685   1.568   2.109  1.00  0.00     0.014 C 
ENDBRANCH   2   4
BRANCH   3   7
HETATM    7  C6  UNL     1     -36.753   3.204   0.497  1.00  0.00    -0.020 A 
HETATM    8  C7  UNL     1     -37.816   3.962   1.008  1.00  0.00     0.014 A 
HETATM    9  C8  UNL     1     -38.754   4.573   0.234  1.00  0.00     0.018 A 
HETATM   10  C9  UNL     1     -38.666   4.445  -1.148  1.00  0.00     0.087 A 
HETATM   11  N1  UNL     1     -37.656   3.725  -1.665  1.00  0.00    -0.374 N 
HETATM   12  C10 UNL     1     -36.724   3.119  -0.873  1.00  0.00     0.099 A 
ATOM     13  H1  UNL     1     -37.585   3.628  -2.678  1.00  0.00     0.164 HD
ENDBRANCH   3   7
ENDBRANCH   1   2
BRANCH   1  14
HETATM   14  O1  UNL     1     -33.525   4.338   0.130  1.00  0.00    -0.373 OA
ATOM     15  H1  UNL     1     -32.634   4.661   0.199  1.00  0.00     0.212 HD
ENDBRANCH   1  14
BRANCH   1  16
HETATM   16  N2  UNL     1     -33.441   5.222   2.305  1.00  0.00    -0.329 N 
HETATM   17  C12 UNL     1     -33.086   6.555   2.070  1.00  0.00     0.242 C 
HETATM   18  O2  UNL     1     -33.435   7.124   0.972  1.00  0.00    -0.271 OA
ATOM     19  H2  UNL     1     -33.163   4.790   3.187  1.00  0.00     0.165 HD
BRANCH  17  20
HETATM   20  C13 UNL     1     -32.320   7.387   3.009  1.00  0.00     0.173 C 
HETATM   21  C14 UNL     1     -30.979   7.827   2.529  1.00  0.00     0.042 C 
BRANCH  20  22
HETATM   22  N3  UNL     1     -32.218   6.763   4.327  1.00  0.00    -0.339 N 
HETATM   23  C15 UNL     1     -32.240   7.479   5.539  1.00  0.00     0.318 C 
HETATM   24  O3  UNL     1     -32.352   8.724   5.526  1.00  0.00    -0.261 OA
ATOM     25  H3  UNL     1     -32.125   5.748   4.371  1.00  0.00     0.163 HD
BRANCH  23  26
HETATM   26  C16 UNL     1     -32.133   6.793   6.807  1.00  0.00     0.270 C 
HETATM   27  O4  UNL     1     -33.112   6.596   7.540  1.00  0.00    -0.640 OA
HETATM   28  O5  UNL     1     -30.884   6.334   7.225  1.00  0.00    -0.640 OA
ENDBRANCH  23  26
ENDBRANCH  20  22
ENDBRANCH  17  20
ENDBRANCH   1  16
TORSDOF 8
ENDMDL
MODEL 5
REMARK VINA RESULT: -7.302492888      3.133      8.817
REMARK  8 active torsions:
REMARK  status: ('A' for Active; 'I' for Inactive)
REMARK    1  A    between atoms: C2_2  and  C4_4 
REMARK    2  A    between atoms: C4_4  and  C11_13 
REMARK    3  A    between atoms: C5_5  and  C6_6 
REMARK    4  A    between atoms: C11_13  and  O1_14 
REMARK    5  A    between atoms: C11_13  and  N2_16 
REMARK       I    between atoms: N2_16  and  C12_18 
REMARK    6  A    between atoms: C12_18  and  C13_20 
REMARK    7  A    between atoms: C13_20  and  N3_22 
REMARK       I    between atoms: N3_22  and  C15_24 
REMARK    8  A    between atoms: C15_24  and  C16_26 
ROOT
HETATM    1  C11 UNL     1     -33.792   2.591   2.762  1.00  0.00     0.251 C 
ENDROOT
BRANCH   1   2
HETATM    2  C4  UNL     1     -34.603   3.484   1.943  1.00  0.00    -0.028 C 
HETATM    3  C5  UNL     1     -34.568   4.782   2.154  1.00  0.00     0.020 C 
BRANCH   2   4
HETATM    4  C2  UNL     1     -35.504   2.939   0.871  1.00  0.00     0.011 C 
HETATM    5  C1  UNL     1     -36.933   3.290   1.113  1.00  0.00     0.014 C 
HETATM    6  C3  UNL     1     -35.078   3.306  -0.518  1.00  0.00     0.014 C 
ENDBRANCH   2   4
BRANCH   3   7
HETATM    7  C6  UNL     1     -33.822   5.551   3.092  1.00  0.00    -0.020 A 
HETATM    8  C7  UNL     1     -32.536   6.001   2.759  1.00  0.00     0.014 A 
HETATM    9  C8  UNL     1     -31.772   6.784   3.569  1.00  0.00     0.018 A 
HETATM   10  C9  UNL     1     -32.285   7.169   4.804  1.00  0.00     0.087 A 
HETATM   11  N1  UNL     1     -33.515   6.753   5.148  1.00  0.00    -0.374 N 
HETATM   12  C10 UNL     1     -34.268   5.967   4.322  1.00  0.00     0.099 A 
ATOM     13  H1  UNL     1     -33.898   7.032   6.052  1.00  0.00     0.164 HD
ENDBRANCH   3   7
ENDBRANCH   1   2
BRANCH   1  14
HETATM   14  O1  UNL     1     -32.763   2.030   2.006  1.00  0.00    -0.373 OA
ATOM     15  H1  UNL     1     -32.636   1.118   2.239  1.00  0.00     0.212 HD
ENDBRANCH   1  14
BRANCH   1  16
HETATM   16  N2  UNL     1     -34.497   1.606   3.535  1.00  0.00    -0.329 N 
HETATM   17  C12 UNL     1     -33.842   0.606   4.262  1.00  0.00     0.242 C 
HETATM   18  O2  UNL     1     -32.559   0.553   4.263  1.00  0.00    -0.271 OA
ATOM     19  H2  UNL     1     -35.516   1.638   3.555  1.00  0.00     0.165 HD
BRANCH  17  20
HETATM   20  C13 UNL     1     -34.528  -0.426   5.055  1.00  0.00     0.173 C 
HETATM   21  C14 UNL     1     -35.623  -1.153   4.350  1.00  0.00     0.042 C 
BRANCH  20  22
HETATM   22  N3  UNL     1     -34.995   0.097   6.336  1.00  0.00    -0.339 N 
HETATM   23  C15 UNL     1     -35.162  -0.690   7.492  1.00  0.00     0.318 C 
HETATM   24  O3  UNL     1     -34.905  -1.913   7.456  1.00  0.00    -0.261 OA
ATOM     25  H3  UNL     1     -35.214   1.092   6.398  1.00  0.00     0.163 HD
BRANCH  23  26
HETATM   26  C16 UNL     1     -35.631  -0.103   8.728  1.00  0.00     0.270 C 
HETATM   27  O4  UNL     1     -35.321   1.044   9.077  1.00  0.00    -0.640 OA
HETATM   28  O5  UNL     1     -36.463  -0.851   9.560  1.00  0.00    -0.640 OA
ENDBRANCH  23  26
ENDBRANCH  20  22
ENDBRANCH  17  20
ENDBRANCH   1  16
TORSDOF 8
ENDMDL
