MODEL 1
REMARK VINA RESULT: -8.795673822      0.000      0.000
REMARK  10 active torsions:
REMARK  status: ('A' for Active; 'I' for Inactive)
REMARK    1  A    between atoms: O1_2  and  C2_3 
REMARK    2  A    between atoms: C2_3  and  C3_7 
REMARK    3  A    between atoms: C3_7  and  N2_8 
REMARK    4  A    between atoms: C3_7  and  N3_12 
REMARK       I    between atoms: N3_12  and  C4_14 
REMARK    5  A    between atoms: C4_14  and  C5_16 
REMARK    6  A    between atoms: C5_16  and  N4_17 
REMARK    7  A    between atoms: C5_16  and  C14_29 
REMARK       I    between atoms: N4_17  and  C6_19 
REMARK    8  A    between atoms: C6_19  and  O4_21 
REMARK    9  A    between atoms: O4_21  and  C7_22 
REMARK   10  A    between atoms: C7_22  and  C8_23 
ROOT
HETATM    1  C5  UNL     1     -35.778  -1.394   7.108  1.00  0.00     0.182 C 
ENDROOT
BRANCH   1   2
HETATM    2  C4  UNL     1     -36.555  -2.626   7.304  1.00  0.00     0.242 C 
HETATM    3  N3  UNL     1     -36.126  -3.867   6.784  1.00  0.00    -0.325 N 
ATOM      4  H3  UNL     1     -35.250  -3.889   6.262  1.00  0.00     0.165 HD
HETATM    5  O2  UNL     1     -37.627  -2.580   7.947  1.00  0.00    -0.271 OA
BRANCH   3   6
HETATM    6  C3  UNL     1     -36.849  -5.106   6.945  1.00  0.00     0.359 C 
BRANCH   6   7
HETATM    7  C2  UNL     1     -36.181  -6.170   6.174  1.00  0.00     0.162 C 
HETATM    8  N1  UNL     1     -36.853  -7.038   5.500  1.00  0.00    -0.380 N 
ATOM      9  H12 UNL     1     -36.390  -7.775   4.967  1.00  0.00     0.158 HD
ATOM     10  H11 UNL     1     -37.867  -6.936   5.539  1.00  0.00     0.158 HD
BRANCH   7  11
HETATM   11  O1  UNL     1     -34.787  -6.311   6.121  1.00  0.00    -0.341 OA
HETATM   12  C1  UNL     1     -34.095  -6.784   7.271  1.00  0.00     0.211 C 
ENDBRANCH   7  11
ENDBRANCH   6   7
BRANCH   6  13
HETATM   13  N2  UNL     1     -38.200  -4.975   6.395  1.00  0.00    -0.051 N 
ATOM     14  H23 UNL     1     -38.288  -5.347   5.449  1.00  0.00     0.277 HD
ATOM     15  H22 UNL     1     -38.877  -5.594   6.840  1.00  0.00     0.277 HD
ATOM     16  H21 UNL     1     -38.449  -3.988   6.464  1.00  0.00     0.277 HD
ENDBRANCH   6  13
ENDBRANCH   3   6
ENDBRANCH   1   2
BRANCH   1  17
HETATM   17  N4  UNL     1     -35.005  -1.367   5.916  1.00  0.00    -0.323 N 
HETATM   18  C6  UNL     1     -34.631  -0.214   5.192  1.00  0.00     0.361 C 
HETATM   19  O3  UNL     1     -35.010   0.901   5.627  1.00  0.00    -0.238 OA
ATOM     20  H4  UNL     1     -34.691  -2.265   5.549  1.00  0.00     0.165 HD
BRANCH  18  21
HETATM   21  O4  UNL     1     -33.878  -0.232   4.042  1.00  0.00    -0.299 OA
BRANCH  21  22
HETATM   22  C7  UNL     1     -33.083   0.802   3.540  1.00  0.00     0.219 C 
BRANCH  22  23
HETATM   23  C8  UNL     1     -33.774   1.601   2.496  1.00  0.00    -0.034 A 
HETATM   24  C9  UNL     1     -35.145   1.639   2.339  1.00  0.00     0.009 A 
HETATM   25  C10 UNL     1     -35.774   2.384   1.369  1.00  0.00     0.001 A 
HETATM   26  C11 UNL     1     -34.990   3.137   0.500  1.00  0.00     0.000 A 
HETATM   27  C12 UNL     1     -33.625   3.119   0.629  1.00  0.00     0.001 A 
HETATM   28  C13 UNL     1     -33.025   2.364   1.611  1.00  0.00     0.009 A 
ENDBRANCH  22  23
ENDBRANCH  21  22
ENDBRANCH  18  21
ENDBRANCH   1  17
BRANCH   1  29
HETATM   29  C14 UNL     1     -34.878  -1.159   8.328  1.00  0.00     0.009 C 
HETATM   30  C15 UNL     1     -35.329   0.063   9.101  1.00  0.00     0.012 C 
HETATM   31  C16 UNL     1     -34.960  -2.346   9.269  1.00  0.00     0.012 C 
ENDBRANCH   1  29
TORSDOF 10
ENDMDL
MODEL 2
REMARK VINA RESULT: -8.547487465      0.843      1.007
REMARK  10 active torsions:
REMARK  status: ('A' for Active; 'I' for Inactive)
REMARK    1  A    between atoms: O1_2  and  C2_3 
REMARK    2  A    between atoms: C2_3  and  C3_7 
REMARK    3  A    between atoms: C3_7  and  N2_8 
REMARK    4  A    between atoms: C3_7  and  N3_12 
REMARK       I    between atoms: N3_12  and  C4_14 
REMARK    5  A    between atoms: C4_14  and  C5_16 
REMARK    6  A    between atoms: C5_16  and  N4_17 
REMARK    7  A    between atoms: C5_16  and  C14_29 
REMARK       I    between atoms: N4_17  and  C6_19 
REMARK    8  A    between atoms: C6_19  and  O4_21 
REMARK    9  A    between atoms: O4_21  and  C7_22 
REMARK   10  A    between atoms: C7_22  and  C8_23 
ROOT
HETATM    1  C5  UNL     1     -35.749  -1.265   6.955  1.00  0.00     0.182 C 
ENDROOT
BRANCH   1   2
HETATM    2  C4  UNL     1     -36.434  -2.542   7.200  1.00  0.00     0.242 C 
HETATM    3  N3  UNL     1     -35.813  -3.782   6.939  1.00  0.00    -0.325 N 
ATOM      4  H3  UNL     1     -34.861  -3.772   6.571  1.00  0.00     0.165 HD
HETATM    5  O2  UNL     1     -37.601  -2.535   7.653  1.00  0.00    -0.271 OA
BRANCH   3   6
HETATM    6  C3  UNL     1     -36.439  -5.065   7.160  1.00  0.00     0.359 C 
BRANCH   6   7
HETATM    7  C2  UNL     1     -35.568  -6.134   6.640  1.00  0.00     0.162 C 
HETATM    8  N1  UNL     1     -34.543  -6.550   7.301  1.00  0.00    -0.380 N 
ATOM      9  H12 UNL     1     -33.940  -7.290   6.941  1.00  0.00     0.158 HD
ATOM     10  H11 UNL     1     -34.382  -6.091   8.197  1.00  0.00     0.158 HD
BRANCH   7  11
HETATM   11  O1  UNL     1     -35.789  -6.765   5.407  1.00  0.00    -0.341 OA
HETATM   12  C1  UNL     1     -36.596  -7.937   5.365  1.00  0.00     0.211 C 
ENDBRANCH   7  11
ENDBRANCH   6   7
BRANCH   6  13
HETATM   13  N2  UNL     1     -37.695  -5.146   6.412  1.00  0.00    -0.051 N 
ATOM     14  H23 UNL     1     -38.520  -5.158   7.012  1.00  0.00     0.277 HD
ATOM     15  H22 UNL     1     -37.917  -4.290   5.905  1.00  0.00     0.277 HD
ATOM     16  H21 UNL     1     -37.624  -5.966   5.809  1.00  0.00     0.277 HD
ENDBRANCH   6  13
ENDBRANCH   3   6
ENDBRANCH   1   2
BRANCH   1  17
HETATM   17  N4  UNL     1     -35.025  -1.210   5.733  1.00  0.00    -0.323 N 
HETATM   18  C6  UNL     1     -34.685  -0.040   5.020  1.00  0.00     0.361 C 
HETATM   19  O3  UNL     1     -35.050   1.064   5.493  1.00  0.00    -0.238 OA
ATOM     20  H4  UNL     1     -34.722  -2.099   5.335  1.00  0.00     0.165 HD
BRANCH  18  21
HETATM   21  O4  UNL     1     -33.979  -0.030   3.840  1.00  0.00    -0.299 OA
BRANCH  21  22
HETATM   22  C7  UNL     1     -33.184   1.007   3.343  1.00  0.00     0.219 C 
BRANCH  22  23
HETATM   23  C8  UNL     1     -33.858   1.781   2.269  1.00  0.00    -0.034 A 
HETATM   24  C9  UNL     1     -35.225   1.800   2.078  1.00  0.00     0.009 A 
HETATM   25  C10 UNL     1     -35.838   2.522   1.082  1.00  0.00     0.001 A 
HETATM   26  C11 UNL     1     -35.041   3.272   0.221  1.00  0.00     0.000 A 
HETATM   27  C12 UNL     1     -33.680   3.272   0.384  1.00  0.00     0.001 A 
HETATM   28  C13 UNL     1     -33.095   2.539   1.392  1.00  0.00     0.009 A 
ENDBRANCH  22  23
ENDBRANCH  21  22
ENDBRANCH  18  21
ENDBRANCH   1  17
BRANCH   1  29
HETATM   29  C14 UNL     1     -34.821  -0.949   8.135  1.00  0.00     0.009 C 
HETATM   30  C15 UNL     1     -35.309   0.269   8.892  1.00  0.00     0.012 C 
HETATM   31  C16 UNL     1     -34.806  -2.112   9.109  1.00  0.00     0.012 C 
ENDBRANCH   1  29
TORSDOF 10
ENDMDL
MODEL 3
REMARK VINA RESULT: -8.126150602      1.444      1.650
REMARK  10 active torsions:
REMARK  status: ('A' for Active; 'I' for Inactive)
REMARK    1  A    between atoms: O1_2  and  C2_3 
REMARK    2  A    between atoms: C2_3  and  C3_7 
REMARK    3  A    between atoms: C3_7  and  N2_8 
REMARK    4  A    between atoms: C3_7  and  N3_12 
REMARK       I    between atoms: N3_12  and  C4_14 
REMARK    5  A    between atoms: C4_14  and  C5_16 
REMARK    6  A    between atoms: C5_16  and  N4_17 
REMARK    7  A    between atoms: C5_16  and  C14_29 
REMARK       I    between atoms: N4_17  and  C6_19 
REMARK    8  A    between atoms: C6_19  and  O4_21 
REMARK    9  A    between atoms: O4_21  and  C7_22 
REMARK   10  A    between atoms: C7_22  and  C8_23 
ROOT
HETATM    1  C5  UNL     1     -35.192  -0.938   7.428  1.00  0.00     0.182 C 
ENDROOT
BRANCH   1   2
HETATM    2  C4  UNL     1     -35.295  -2.372   7.736  1.00  0.00     0.242 C 
HETATM    3  N3  UNL     1     -36.156  -3.227   7.014  1.00  0.00    -0.325 N 
ATOM      4  H3  UNL     1     -36.713  -2.821   6.262  1.00  0.00     0.165 HD
HETATM    5  O2  UNL     1     -34.604  -2.851   8.662  1.00  0.00    -0.271 OA
BRANCH   3   6
HETATM    6  C3  UNL     1     -36.298  -4.640   7.275  1.00  0.00     0.359 C 
BRANCH   6   7
HETATM    7  C2  UNL     1     -37.416  -5.178   6.479  1.00  0.00     0.162 C 
HETATM    8  N1  UNL     1     -38.474  -4.481   6.245  1.00  0.00    -0.380 N 
ATOM      9  H12 UNL     1     -39.248  -4.854   5.694  1.00  0.00     0.158 HD
ATOM     10  H11 UNL     1     -38.480  -3.544   6.646  1.00  0.00     0.158 HD
BRANCH   7  11
HETATM   11  O1  UNL     1     -37.407  -6.468   5.928  1.00  0.00    -0.341 OA
HETATM   12  C1  UNL     1     -36.168  -7.041   5.527  1.00  0.00     0.211 C 
ENDBRANCH   7  11
ENDBRANCH   6   7
BRANCH   6  13
HETATM   13  N2  UNL     1     -36.640  -4.860   8.681  1.00  0.00    -0.051 N 
ATOM     14  H23 UNL     1     -37.558  -4.493   8.934  1.00  0.00     0.277 HD
ATOM     15  H22 UNL     1     -36.828  -5.838   8.901  1.00  0.00     0.277 HD
ATOM     16  H21 UNL     1     -35.881  -4.461   9.233  1.00  0.00     0.277 HD
ENDBRANCH   6  13
ENDBRANCH   3   6
ENDBRANCH   1   2
BRANCH   1  17
HETATM   17  N4  UNL     1     -34.285  -0.623   6.381  1.00  0.00    -0.323 N 
HETATM   18  C6  UNL     1     -34.548  -0.714   4.996  1.00  0.00     0.361 C 
HETATM   19  O3  UNL     1     -35.684  -1.110   4.639  1.00  0.00    -0.238 OA
ATOM     20  H4  UNL     1     -33.357  -0.302   6.655  1.00  0.00     0.165 HD
BRANCH  18  21
HETATM   21  O4  UNL     1     -33.641  -0.397   4.013  1.00  0.00    -0.299 OA
BRANCH  21  22
HETATM   22  C7  UNL     1     -33.060   0.852   3.775  1.00  0.00     0.219 C 
BRANCH  22  23
HETATM   23  C8  UNL     1     -33.728   1.593   2.674  1.00  0.00    -0.034 A 
HETATM   24  C9  UNL     1     -35.094   1.609   2.477  1.00  0.00     0.009 A 
HETATM   25  C10 UNL     1     -35.702   2.301   1.455  1.00  0.00     0.001 A 
HETATM   26  C11 UNL     1     -34.899   3.020   0.574  1.00  0.00     0.000 A 
HETATM   27  C12 UNL     1     -33.539   3.022   0.742  1.00  0.00     0.001 A 
HETATM   28  C13 UNL     1     -32.960   2.320   1.775  1.00  0.00     0.009 A 
ENDBRANCH  22  23
ENDBRANCH  21  22
ENDBRANCH  18  21
ENDBRANCH   1  17
BRANCH   1  29
HETATM   29  C14 UNL     1     -34.818  -0.168   8.702  1.00  0.00     0.009 C 
HETATM   30  C15 UNL     1     -34.398   1.249   8.370  1.00  0.00     0.012 C 
HETATM   31  C16 UNL     1     -36.018  -0.080   9.626  1.00  0.00     0.012 C 
ENDBRANCH   1  29
TORSDOF 10
ENDMDL
MODEL 4
REMARK VINA RESULT: -7.163782394      1.536      1.803
REMARK  10 active torsions:
REMARK  status: ('A' for Active; 'I' for Inactive)
REMARK    1  A    between atoms: O1_2  and  C2_3 
REMARK    2  A    between atoms: C2_3  and  C3_7 
REMARK    3  A    between atoms: C3_7  and  N2_8 
REMARK    4  A    between atoms: C3_7  and  N3_12 
REMARK       I    between atoms: N3_12  and  C4_14 
REMARK    5  A    between atoms: C4_14  and  C5_16 
REMARK    6  A    between atoms: C5_16  and  N4_17 
REMARK    7  A    between atoms: C5_16  and  C14_29 
REMARK       I    between atoms: N4_17  and  C6_19 
REMARK    8  A    between atoms: C6_19  and  O4_21 
REMARK    9  A    between atoms: O4_21  and  C7_22 
REMARK   10  A    between atoms: C7_22  and  C8_23 
ROOT
HETATM    1  C5  UNL     1     -35.373  -0.596   6.631  1.00  0.00     0.182 C 
ENDROOT
BRANCH   1   2
HETATM    2  C4  UNL     1     -36.220  -1.797   6.646  1.00  0.00     0.242 C 
HETATM    3  N3  UNL     1     -36.643  -2.393   7.854  1.00  0.00    -0.325 N 
ATOM      4  H3  UNL     1     -36.344  -1.963   8.730  1.00  0.00     0.165 HD
HETATM    5  O2  UNL     1     -36.578  -2.310   5.562  1.00  0.00    -0.271 OA
BRANCH   3   6
HETATM    6  C3  UNL     1     -37.474  -3.572   7.928  1.00  0.00     0.359 C 
BRANCH   6   7
HETATM    7  C2  UNL     1     -36.752  -4.720   7.349  1.00  0.00     0.162 C 
HETATM    8  N1  UNL     1     -35.498  -4.911   7.575  1.00  0.00    -0.380 N 
ATOM      9  H12 UNL     1     -34.999  -5.706   7.175  1.00  0.00     0.158 HD
ATOM     10  H11 UNL     1     -35.049  -4.221   8.176  1.00  0.00     0.158 HD
BRANCH   7  11
HETATM   11  O1  UNL     1     -37.369  -5.670   6.523  1.00  0.00    -0.341 OA
HETATM   12  C1  UNL     1     -36.600  -6.759   6.025  1.00  0.00     0.211 C 
ENDBRANCH   7  11
ENDBRANCH   6   7
BRANCH   6  13
HETATM   13  N2  UNL     1     -38.682  -3.387   7.124  1.00  0.00    -0.051 N 
ATOM     14  H23 UNL     1     -38.780  -4.078   6.380  1.00  0.00     0.277 HD
ATOM     15  H22 UNL     1     -39.539  -3.617   7.626  1.00  0.00     0.277 HD
ATOM     16  H21 UNL     1     -38.661  -2.427   6.780  1.00  0.00     0.277 HD
ENDBRANCH   6  13
ENDBRANCH   3   6
ENDBRANCH   1   2
BRANCH   1  17
HETATM   17  N4  UNL     1     -34.497  -0.507   5.515  1.00  0.00    -0.323 N 
HETATM   18  C6  UNL     1     -34.487   0.520   4.545  1.00  0.00     0.361 C 
HETATM   19  O3  UNL     1     -35.325   1.446   4.662  1.00  0.00    -0.238 OA
ATOM     20  H4  UNL     1     -33.811  -1.253   5.405  1.00  0.00     0.165 HD
BRANCH  18  21
HETATM   21  O4  UNL     1     -33.619   0.570   3.480  1.00  0.00    -0.299 OA
BRANCH  21  22
HETATM   22  C7  UNL     1     -33.050   1.713   2.912  1.00  0.00     0.219 C 
BRANCH  22  23
HETATM   23  C8  UNL     1     -33.873   2.277   1.812  1.00  0.00    -0.034 A 
HETATM   24  C9  UNL     1     -35.241   2.118   1.717  1.00  0.00     0.009 A 
HETATM   25  C10 UNL     1     -35.994   2.647   0.695  1.00  0.00     0.001 A 
HETATM   26  C11 UNL     1     -35.345   3.379  -0.295  1.00  0.00     0.000 A 
HETATM   27  C12 UNL     1     -33.986   3.554  -0.229  1.00  0.00     0.001 A 
HETATM   28  C13 UNL     1     -33.260   3.013   0.807  1.00  0.00     0.009 A 
ENDBRANCH  22  23
ENDBRANCH  21  22
ENDBRANCH  18  21
ENDBRANCH   1  17
BRANCH   1  29
HETATM   29  C14 UNL     1     -34.574  -0.518   7.938  1.00  0.00     0.009 C 
HETATM   30  C15 UNL     1     -33.086  -0.467   7.658  1.00  0.00     0.012 C 
HETATM   31  C16 UNL     1     -34.937   0.747   8.693  1.00  0.00     0.012 C 
ENDBRANCH   1  29
TORSDOF 10
ENDMDL
MODEL 5
REMARK VINA RESULT: -6.788181365      4.738      9.457
REMARK  10 active torsions:
REMARK  status: ('A' for Active; 'I' for Inactive)
REMARK    1  A    between atoms: O1_2  and  C2_3 
REMARK    2  A    between atoms: C2_3  and  C3_7 
REMARK    3  A    between atoms: C3_7  and  N2_8 
REMARK    4  A    between atoms: C3_7  and  N3_12 
REMARK       I    between atoms: N3_12  and  C4_14 
REMARK    5  A    between atoms: C4_14  and  C5_16 
REMARK    6  A    between atoms: C5_16  and  N4_17 
REMARK    7  A    between atoms: C5_16  and  C14_29 
REMARK       I    between atoms: N4_17  and  C6_19 
REMARK    8  A    between atoms: C6_19  and  O4_21 
REMARK    9  A    between atoms: O4_21  and  C7_22 
REMARK   10  A    between atoms: C7_22  and  C8_23 
ROOT
HETATM    1  C5  UNL     1     -33.955   4.198   2.146  1.00  0.00     0.182 C 
ENDROOT
BRANCH   1   2
HETATM    2  C4  UNL     1     -33.332   5.320   2.864  1.00  0.00     0.242 C 
HETATM    3  N3  UNL     1     -33.931   5.896   4.006  1.00  0.00    -0.325 N 
ATOM      4  H3  UNL     1     -34.820   5.510   4.326  1.00  0.00     0.165 HD
HETATM    5  O2  UNL     1     -32.242   5.780   2.457  1.00  0.00    -0.271 OA
BRANCH   3   6
HETATM    6  C3  UNL     1     -33.366   6.998   4.748  1.00  0.00     0.359 C 
BRANCH   6   7
HETATM    7  C2  UNL     1     -34.248   7.334   5.880  1.00  0.00     0.162 C 
HETATM    8  N1  UNL     1     -35.491   7.622   5.704  1.00  0.00    -0.380 N 
ATOM      9  H12 UNL     1     -36.102   7.854   6.488  1.00  0.00     0.158 HD
ATOM     10  H11 UNL     1     -35.815   7.600   4.737  1.00  0.00     0.158 HD
BRANCH   7  11
HETATM   11  O1  UNL     1     -33.803   7.364   7.209  1.00  0.00    -0.341 OA
HETATM   12  C1  UNL     1     -32.491   6.903   7.510  1.00  0.00     0.211 C 
ENDBRANCH   7  11
ENDBRANCH   6   7
BRANCH   6  13
HETATM   13  N2  UNL     1     -33.296   8.190   3.902  1.00  0.00    -0.051 N 
ATOM     14  H23 UNL     1     -33.839   8.974   4.265  1.00  0.00     0.277 HD
ATOM     15  H22 UNL     1     -32.384   8.646   3.923  1.00  0.00     0.277 HD
ATOM     16  H21 UNL     1     -33.582   7.902   2.966  1.00  0.00     0.277 HD
ENDBRANCH   6  13
ENDBRANCH   3   6
ENDBRANCH   1   2
BRANCH   1  17
HETATM   17  N4  UNL     1     -33.363   2.932   2.403  1.00  0.00    -0.323 N 
HETATM   18  C6  UNL     1     -33.993   1.830   3.022  1.00  0.00     0.361 C 
HETATM   19  O3  UNL     1     -35.186   1.964   3.387  1.00  0.00    -0.238 OA
ATOM     20  H4  UNL     1     -32.393   2.808   2.113  1.00  0.00     0.165 HD
BRANCH  18  21
HETATM   21  O4  UNL     1     -33.384   0.618   3.250  1.00  0.00    -0.299 OA
BRANCH  21  22
HETATM   22  C7  UNL     1     -32.834   0.166   4.452  1.00  0.00     0.219 C 
BRANCH  22  23
HETATM   23  C8  UNL     1     -33.865  -0.311   5.409  1.00  0.00    -0.034 A 
HETATM   24  C9  UNL     1     -34.945  -1.093   5.050  1.00  0.00     0.009 A 
HETATM   25  C10 UNL     1     -35.892  -1.531   5.945  1.00  0.00     0.001 A 
HETATM   26  C11 UNL     1     -35.758  -1.167   7.282  1.00  0.00     0.000 A 
HETATM   27  C12 UNL     1     -34.697  -0.390   7.670  1.00  0.00     0.001 A 
HETATM   28  C13 UNL     1     -33.765   0.032   6.750  1.00  0.00     0.009 A 
ENDBRANCH  22  23
ENDBRANCH  21  22
ENDBRANCH  18  21
ENDBRANCH   1  17
BRANCH   1  29
HETATM   29  C14 UNL     1     -33.947   4.490   0.640  1.00  0.00     0.009 C 
HETATM   30  C15 UNL     1     -34.445   3.293  -0.143  1.00  0.00     0.012 C 
HETATM   31  C16 UNL     1     -34.875   5.650   0.332  1.00  0.00     0.012 C 
ENDBRANCH   1  29
TORSDOF 10
ENDMDL
