MODEL 1
REMARK VINA RESULT: -5.959475753      0.000      0.000
REMARK  10 active torsions:
REMARK  status: ('A' for Active; 'I' for Inactive)
REMARK    1  A    between atoms: C2_2  and  C4_4 
REMARK    2  A    between atoms: C4_4  and  C5_6 
REMARK    3  A    between atoms: C5_6  and  C6_7 
REMARK    4  A    between atoms: C5_6  and  N1_11 
REMARK    5  A    between atoms: C6_7  and  C7_8 
REMARK       I    between atoms: N1_11  and  C8_12 
REMARK    6  A    between atoms: C8_12  and  C9_14 
REMARK    7  A    between atoms: C9_14  and  N2_15 
REMARK    8  A    between atoms: C13_19  and  C15_21 
REMARK    9  A    between atoms: C15_21  and  O5_22 
REMARK   10  A    between atoms: N3_24  and  O6_26 
ROOT
HETATM    1  C9  UNL     1     -34.835   0.100   5.991  1.00  0.00     0.151 C 
ENDROOT
BRANCH   1   2
HETATM    2  C8  UNL     1     -35.014   0.169   4.485  1.00  0.00     0.321 C 
HETATM    3  N1  UNL     1     -34.856   1.358   3.841  1.00  0.00    -0.397 NA
HETATM    4  O4  UNL     1     -35.304  -0.940   3.969  1.00  0.00    -0.251 OA
BRANCH   3   5
HETATM    5  C5  UNL     1     -34.698   2.562   3.186  1.00  0.00     0.246 C 
BRANCH   5   6
HETATM    6  C4  UNL     1     -34.708   2.422   1.710  1.00  0.00     0.166 C 
HETATM    7  O1  UNL     1     -33.664   2.011   1.174  1.00  0.00    -0.294 OA
BRANCH   6   8
HETATM    8  C2  UNL     1     -35.825   2.723   0.810  1.00  0.00     0.050 C 
HETATM    9  C1  UNL     1     -36.904   3.560   1.504  1.00  0.00     0.017 C 
HETATM   10  C3  UNL     1     -35.473   3.415  -0.466  1.00  0.00     0.017 C 
ENDBRANCH   6   8
ENDBRANCH   5   6
BRANCH   5  11
HETATM   11  C6  UNL     1     -33.471   3.419   3.504  1.00  0.00     0.160 C 
BRANCH  11  12
HETATM   12  C7  UNL     1     -33.607   4.768   2.909  1.00  0.00     0.176 C 
HETATM   13  O2  UNL     1     -34.483   5.571   3.294  1.00  0.00    -0.648 OA
HETATM   14  O3  UNL     1     -32.747   5.147   1.906  1.00  0.00    -0.648 OA
ENDBRANCH  11  12
ENDBRANCH   5  11
ENDBRANCH   3   5
ENDBRANCH   1   2
BRANCH   1  15
HETATM   15  N2  UNL     1     -35.862  -0.513   6.718  1.00  0.00    -0.270 NA
HETATM   16  C10 UNL     1     -36.222   0.522   7.763  1.00  0.00     0.096 C 
HETATM   17  C11 UNL     1     -35.040   0.504   8.670  1.00  0.00     0.017 C 
HETATM   18  C12 UNL     1     -34.582  -0.922   8.623  1.00  0.00     0.035 C 
HETATM   19  C13 UNL     1     -35.471  -1.570   7.591  1.00  0.00     0.080 C 
HETATM   20  C14 UNL     1     -34.757  -2.753   6.958  1.00  0.00     0.042 C 
BRANCH  19  21
HETATM   21  C15 UNL     1     -36.659  -2.157   8.281  1.00  0.00     0.159 C 
HETATM   22  N3  UNL     1     -37.549  -2.802   7.713  1.00  0.00    -0.249 N 
ATOM     23  H3  UNL     1     -38.277  -3.126   8.349  1.00  0.00     0.196 HD
BRANCH  21  24
HETATM   24  O5  UNL     1     -36.794  -1.964   9.677  1.00  0.00    -0.347 OA
ATOM     25  H5  UNL     1     -37.151  -2.671  10.200  1.00  0.00     0.219 HD
ENDBRANCH  21  24
BRANCH  22  26
HETATM   26  O6  UNL     1     -37.759  -3.164   6.445  1.00  0.00    -0.288 OA
ATOM     27  H6  UNL     1     -38.511  -3.119   5.866  1.00  0.00     0.244 HD
ENDBRANCH  22  26
ENDBRANCH  19  21
ENDBRANCH   1  15
TORSDOF 10
ENDMDL
MODEL 2
REMARK VINA RESULT: -5.944534447      3.731      8.691
REMARK  10 active torsions:
REMARK  status: ('A' for Active; 'I' for Inactive)
REMARK    1  A    between atoms: C2_2  and  C4_4 
REMARK    2  A    between atoms: C4_4  and  C5_6 
REMARK    3  A    between atoms: C5_6  and  C6_7 
REMARK    4  A    between atoms: C5_6  and  N1_11 
REMARK    5  A    between atoms: C6_7  and  C7_8 
REMARK       I    between atoms: N1_11  and  C8_12 
REMARK    6  A    between atoms: C8_12  and  C9_14 
REMARK    7  A    between atoms: C9_14  and  N2_15 
REMARK    8  A    between atoms: C13_19  and  C15_21 
REMARK    9  A    between atoms: C15_21  and  O5_22 
REMARK   10  A    between atoms: N3_24  and  O6_26 
ROOT
HETATM    1  C9  UNL     1     -36.645   3.119  -0.789  1.00  0.00     0.151 C 
ENDROOT
BRANCH   1   2
HETATM    2  C8  UNL     1     -36.512   3.027   0.721  1.00  0.00     0.321 C 
HETATM    3  N1  UNL     1     -35.399   2.463   1.266  1.00  0.00    -0.397 NA
HETATM    4  O4  UNL     1     -37.497   3.508   1.336  1.00  0.00    -0.251 OA
BRANCH   3   5
HETATM    5  C5  UNL     1     -34.274   1.891   1.821  1.00  0.00     0.246 C 
BRANCH   5   6
HETATM    6  C4  UNL     1     -34.516   1.332   3.173  1.00  0.00     0.166 C 
HETATM    7  O1  UNL     1     -35.110   2.060   3.988  1.00  0.00    -0.294 OA
BRANCH   6   8
HETATM    8  C2  UNL     1     -34.122   0.005   3.654  1.00  0.00     0.050 C 
HETATM    9  C1  UNL     1     -32.781   0.042   4.393  1.00  0.00     0.017 C 
HETATM   10  C3  UNL     1     -35.103  -0.691   4.540  1.00  0.00     0.017 C 
ENDBRANCH   6   8
ENDBRANCH   5   6
BRANCH   5  11
HETATM   11  C6  UNL     1     -33.005   2.737   1.954  1.00  0.00     0.160 C 
BRANCH  11  12
HETATM   12  C7  UNL     1     -33.327   4.180   1.872  1.00  0.00     0.176 C 
HETATM   13  O2  UNL     1     -33.747   4.818   2.860  1.00  0.00    -0.648 OA
HETATM   14  O3  UNL     1     -33.163   4.834   0.674  1.00  0.00    -0.648 OA
ENDBRANCH  11  12
ENDBRANCH   5  11
ENDBRANCH   3   5
ENDBRANCH   1   2
BRANCH   1  15
HETATM   15  N2  UNL     1     -35.631   3.806  -1.468  1.00  0.00    -0.270 NA
HETATM   16  C10 UNL     1     -35.974   5.262  -1.236  1.00  0.00     0.096 C 
HETATM   17  C11 UNL     1     -37.196   5.452  -2.067  1.00  0.00     0.017 C 
HETATM   18  C12 UNL     1     -36.980   4.527  -3.226  1.00  0.00     0.035 C 
HETATM   19  C13 UNL     1     -35.706   3.794  -2.891  1.00  0.00     0.080 C 
HETATM   20  C14 UNL     1     -35.697   2.431  -3.566  1.00  0.00     0.042 C 
BRANCH  19  21
HETATM   21  C15 UNL     1     -34.554   4.532  -3.491  1.00  0.00     0.159 C 
HETATM   22  N3  UNL     1     -33.387   4.452  -3.090  1.00  0.00    -0.249 N 
ATOM     23  H3  UNL     1     -32.738   5.027  -3.627  1.00  0.00     0.196 HD
BRANCH  21  24
HETATM   24  O5  UNL     1     -34.801   5.393  -4.588  1.00  0.00    -0.347 OA
ATOM     25  H5  UNL     1     -34.778   5.027  -5.465  1.00  0.00     0.219 HD
ENDBRANCH  21  24
BRANCH  22  26
HETATM   26  O6  UNL     1     -32.796   3.773  -2.103  1.00  0.00    -0.288 OA
ATOM     27  H6  UNL     1     -32.791   3.860  -1.158  1.00  0.00     0.244 HD
ENDBRANCH  22  26
ENDBRANCH  19  21
ENDBRANCH   1  15
TORSDOF 10
ENDMDL
MODEL 3
REMARK VINA RESULT: -5.708170360      5.692      7.737
REMARK  10 active torsions:
REMARK  status: ('A' for Active; 'I' for Inactive)
REMARK    1  A    between atoms: C2_2  and  C4_4 
REMARK    2  A    between atoms: C4_4  and  C5_6 
REMARK    3  A    between atoms: C5_6  and  C6_7 
REMARK    4  A    between atoms: C5_6  and  N1_11 
REMARK    5  A    between atoms: C6_7  and  C7_8 
REMARK       I    between atoms: N1_11  and  C8_12 
REMARK    6  A    between atoms: C8_12  and  C9_14 
REMARK    7  A    between atoms: C9_14  and  N2_15 
REMARK    8  A    between atoms: C13_19  and  C15_21 
REMARK    9  A    between atoms: C15_21  and  O5_22 
REMARK   10  A    between atoms: N3_24  and  O6_26 
ROOT
HETATM    1  C9  UNL     1     -32.462   7.325   2.438  1.00  0.00     0.151 C 
ENDROOT
BRANCH   1   2
HETATM    2  C8  UNL     1     -33.064   7.214   1.048  1.00  0.00     0.321 C 
HETATM    3  N1  UNL     1     -33.501   6.005   0.598  1.00  0.00    -0.397 NA
HETATM    4  O4  UNL     1     -33.096   8.309   0.432  1.00  0.00    -0.251 OA
BRANCH   3   5
HETATM    5  C5  UNL     1     -33.942   4.783   0.139  1.00  0.00     0.246 C 
BRANCH   5   6
HETATM    6  C4  UNL     1     -33.723   3.686   1.112  1.00  0.00     0.166 C 
HETATM    7  O1  UNL     1     -32.727   3.776   1.852  1.00  0.00    -0.294 OA
BRANCH   6   8
HETATM    8  C2  UNL     1     -34.561   2.497   1.294  1.00  0.00     0.050 C 
HETATM    9  C1  UNL     1     -34.423   1.913   2.703  1.00  0.00     0.017 C 
HETATM   10  C3  UNL     1     -36.019   2.672   1.022  1.00  0.00     0.017 C 
ENDBRANCH   6   8
ENDBRANCH   5   6
BRANCH   5  11
HETATM   11  C6  UNL     1     -33.402   4.255  -1.192  1.00  0.00     0.160 C 
BRANCH  11  12
HETATM   12  C7  UNL     1     -33.000   5.375  -2.075  1.00  0.00     0.176 C 
HETATM   13  O2  UNL     1     -31.807   5.728  -2.186  1.00  0.00    -0.648 OA
HETATM   14  O3  UNL     1     -33.965   6.044  -2.787  1.00  0.00    -0.648 OA
ENDBRANCH  11  12
ENDBRANCH   5  11
ENDBRANCH   3   5
ENDBRANCH   1   2
BRANCH   1  15
HETATM   15  N2  UNL     1     -33.275   7.884   3.432  1.00  0.00    -0.270 NA
HETATM   16  C10 UNL     1     -32.369   8.896   4.102  1.00  0.00     0.096 C 
HETATM   17  C11 UNL     1     -31.396   8.037   4.833  1.00  0.00     0.017 C 
HETATM   18  C12 UNL     1     -32.206   6.837   5.218  1.00  0.00     0.035 C 
HETATM   19  C13 UNL     1     -33.545   7.059   4.562  1.00  0.00     0.080 C 
HETATM   20  C14 UNL     1     -34.219   5.724   4.290  1.00  0.00     0.042 C 
BRANCH  19  21
HETATM   21  C15 UNL     1     -34.444   7.759   5.529  1.00  0.00     0.159 C 
HETATM   22  N3  UNL     1     -35.478   8.359   5.212  1.00  0.00    -0.249 N 
ATOM     23  H3  UNL     1     -35.962   8.771   6.010  1.00  0.00     0.196 HD
BRANCH  21  24
HETATM   24  O5  UNL     1     -34.098   7.750   6.902  1.00  0.00    -0.347 OA
ATOM     25  H5  UNL     1     -33.337   8.246   7.180  1.00  0.00     0.219 HD
ENDBRANCH  21  24
BRANCH  22  26
HETATM   26  O6  UNL     1     -36.096   8.583   4.050  1.00  0.00    -0.288 OA
ATOM     27  H6  UNL     1     -37.008   8.643   3.792  1.00  0.00     0.244 HD
ENDBRANCH  22  26
ENDBRANCH  19  21
ENDBRANCH   1  15
TORSDOF 10
ENDMDL
MODEL 4
REMARK VINA RESULT: -5.701857602      5.961      7.876
REMARK  10 active torsions:
REMARK  status: ('A' for Active; 'I' for Inactive)
REMARK    1  A    between atoms: C2_2  and  C4_4 
REMARK    2  A    between atoms: C4_4  and  C5_6 
REMARK    3  A    between atoms: C5_6  and  C6_7 
REMARK    4  A    between atoms: C5_6  and  N1_11 
REMARK    5  A    between atoms: C6_7  and  C7_8 
REMARK       I    between atoms: N1_11  and  C8_12 
REMARK    6  A    between atoms: C8_12  and  C9_14 
REMARK    7  A    between atoms: C9_14  and  N2_15 
REMARK    8  A    between atoms: C13_19  and  C15_21 
REMARK    9  A    between atoms: C15_21  and  O5_22 
REMARK   10  A    between atoms: N3_24  and  O6_26 
ROOT
HETATM    1  C9  UNL     1     -37.811   3.500  -0.144  1.00  0.00     0.151 C 
ENDROOT
BRANCH   1   2
HETATM    2  C8  UNL     1     -36.848   3.578  -1.315  1.00  0.00     0.321 C 
HETATM    3  N1  UNL     1     -35.513   3.712  -1.082  1.00  0.00    -0.397 NA
HETATM    4  O4  UNL     1     -37.419   3.508  -2.433  1.00  0.00    -0.251 OA
BRANCH   3   5
HETATM    5  C5  UNL     1     -34.161   3.849  -0.850  1.00  0.00     0.246 C 
BRANCH   5   6
HETATM    6  C4  UNL     1     -33.784   3.564   0.556  1.00  0.00     0.166 C 
HETATM    7  O1  UNL     1     -33.068   4.402   1.131  1.00  0.00    -0.294 OA
BRANCH   6   8
HETATM    8  C2  UNL     1     -34.167   2.388   1.343  1.00  0.00     0.050 C 
HETATM    9  C1  UNL     1     -32.981   1.816   2.126  1.00  0.00     0.017 C 
HETATM   10  C3  UNL     1     -35.291   2.580   2.308  1.00  0.00     0.017 C 
ENDBRANCH   6   8
ENDBRANCH   5   6
BRANCH   5  11
HETATM   11  C6  UNL     1     -33.485   5.180  -1.186  1.00  0.00     0.160 C 
BRANCH  11  12
HETATM   12  C7  UNL     1     -32.724   5.076  -2.452  1.00  0.00     0.176 C 
HETATM   13  O2  UNL     1     -31.510   5.366  -2.516  1.00  0.00    -0.648 OA
HETATM   14  O3  UNL     1     -33.370   4.651  -3.588  1.00  0.00    -0.648 OA
ENDBRANCH  11  12
ENDBRANCH   5  11
ENDBRANCH   3   5
ENDBRANCH   1   2
BRANCH   1  15
HETATM   15  N2  UNL     1     -38.869   4.417  -0.138  1.00  0.00    -0.270 NA
HETATM   16  C10 UNL     1     -38.177   5.754   0.020  1.00  0.00     0.096 C 
HETATM   17  C11 UNL     1     -37.691   5.712   1.428  1.00  0.00     0.017 C 
HETATM   18  C12 UNL     1     -38.737   4.905   2.137  1.00  0.00     0.035 C 
HETATM   19  C13 UNL     1     -39.667   4.449   1.042  1.00  0.00     0.080 C 
HETATM   20  C14 UNL     1     -40.348   3.151   1.444  1.00  0.00     0.042 C 
BRANCH  19  21
HETATM   21  C15 UNL     1     -40.775   5.443   0.908  1.00  0.00     0.159 C 
HETATM   22  N3  UNL     1     -41.613   5.437  -0.003  1.00  0.00    -0.249 N 
ATOM     23  H3  UNL     1     -42.294   6.192   0.075  1.00  0.00     0.196 HD
BRANCH  21  24
HETATM   24  O5  UNL     1     -40.881   6.472   1.875  1.00  0.00    -0.347 OA
ATOM     25  H5  UNL     1     -41.589   7.099   1.793  1.00  0.00     0.219 HD
ENDBRANCH  21  24
BRANCH  22  26
HETATM   26  O6  UNL     1     -41.815   4.653  -1.065  1.00  0.00    -0.288 OA
ATOM     27  H6  UNL     1     -42.498   4.040  -1.307  1.00  0.00     0.244 HD
ENDBRANCH  22  26
ENDBRANCH  19  21
ENDBRANCH   1  15
TORSDOF 10
ENDMDL
MODEL 5
REMARK VINA RESULT: -5.617283414      3.952      7.692
REMARK  10 active torsions:
REMARK  status: ('A' for Active; 'I' for Inactive)
REMARK    1  A    between atoms: C2_2  and  C4_4 
REMARK    2  A    between atoms: C4_4  and  C5_6 
REMARK    3  A    between atoms: C5_6  and  C6_7 
REMARK    4  A    between atoms: C5_6  and  N1_11 
REMARK    5  A    between atoms: C6_7  and  C7_8 
REMARK       I    between atoms: N1_11  and  C8_12 
REMARK    6  A    between atoms: C8_12  and  C9_14 
REMARK    7  A    between atoms: C9_14  and  N2_15 
REMARK    8  A    between atoms: C13_19  and  C15_21 
REMARK    9  A    between atoms: C15_21  and  O5_22 
REMARK   10  A    between atoms: N3_24  and  O6_26 
ROOT
HETATM    1  C9  UNL     1     -37.306   3.117   0.372  1.00  0.00     0.151 C 
ENDROOT
BRANCH   1   2
HETATM    2  C8  UNL     1     -35.852   3.027  -0.061  1.00  0.00     0.321 C 
HETATM    3  N1  UNL     1     -34.894   2.723   0.858  1.00  0.00    -0.397 NA
HETATM    4  O4  UNL     1     -35.684   3.257  -1.285  1.00  0.00    -0.251 OA
BRANCH   3   5
HETATM    5  C5  UNL     1     -33.922   2.416   1.786  1.00  0.00     0.246 C 
BRANCH   5   6
HETATM    6  C4  UNL     1     -34.449   1.663   2.949  1.00  0.00     0.166 C 
HETATM    7  O1  UNL     1     -35.331   2.218   3.629  1.00  0.00    -0.294 OA
BRANCH   6   8
HETATM    8  C2  UNL     1     -34.037   0.327   3.387  1.00  0.00     0.050 C 
HETATM    9  C1  UNL     1     -32.719   0.365   4.167  1.00  0.00     0.017 C 
HETATM   10  C3  UNL     1     -35.025  -0.429   4.213  1.00  0.00     0.017 C 
ENDBRANCH   6   8
ENDBRANCH   5   6
BRANCH   5  11
HETATM   11  C6  UNL     1     -33.087   3.551   2.383  1.00  0.00     0.160 C 
BRANCH  11  12
HETATM   12  C7  UNL     1     -33.623   4.868   1.969  1.00  0.00     0.176 C 
HETATM   13  O2  UNL     1     -33.145   5.498   1.002  1.00  0.00    -0.648 OA
HETATM   14  O3  UNL     1     -34.671   5.415   2.670  1.00  0.00    -0.648 OA
ENDBRANCH  11  12
ENDBRANCH   5  11
ENDBRANCH   3   5
ENDBRANCH   1   2
BRANCH   1  15
HETATM   15  N2  UNL     1     -37.745   4.361   0.840  1.00  0.00    -0.270 NA
HETATM   16  C10 UNL     1     -38.703   4.000   1.957  1.00  0.00     0.096 C 
HETATM   17  C11 UNL     1     -39.866   3.427   1.223  1.00  0.00     0.017 C 
HETATM   18  C12 UNL     1     -39.889   4.201  -0.060  1.00  0.00     0.035 C 
HETATM   19  C13 UNL     1     -38.655   5.065  -0.001  1.00  0.00     0.080 C 
HETATM   20  C14 UNL     1     -38.178   5.388  -1.408  1.00  0.00     0.042 C 
BRANCH  19  21
HETATM   21  C15 UNL     1     -39.021   6.385   0.597  1.00  0.00     0.159 C 
HETATM   22  N3  UNL     1     -38.231   7.121   1.201  1.00  0.00    -0.249 N 
ATOM     23  H3  UNL     1     -38.662   7.983   1.536  1.00  0.00     0.196 HD
BRANCH  21  24
HETATM   24  O5  UNL     1     -40.359   6.832   0.481  1.00  0.00    -0.347 OA
ATOM     25  H5  UNL     1     -40.572   7.449  -0.209  1.00  0.00     0.219 HD
ENDBRANCH  21  24
BRANCH  22  26
HETATM   26  O6  UNL     1     -36.935   7.028   1.509  1.00  0.00    -0.288 OA
ATOM     27  H6  UNL     1     -36.291   7.647   1.833  1.00  0.00     0.244 HD
ENDBRANCH  22  26
ENDBRANCH  19  21
ENDBRANCH   1  15
TORSDOF 10
ENDMDL
