MODEL 1
REMARK VINA RESULT: -5.000848685      0.000      0.000
REMARK  8 active torsions:
REMARK  status: ('A' for Active; 'I' for Inactive)
REMARK    1  A    between atoms: C2_2  and  C3_6 
REMARK    2  A    between atoms: C3_6  and  N2_7 
REMARK    3  A    between atoms: N2_7  and  C4_9 
REMARK    4  A    between atoms: C5_10  and  C6_11 
REMARK    5  A    between atoms: C7_15  and  C8_16 
REMARK    6  A    between atoms: C9_19  and  N5_20 
REMARK       I    between atoms: N5_20  and  C10_22 
REMARK    7  A    between atoms: C12_25  and  N6_26 
REMARK       I    between atoms: N6_26  and  C13_28 
REMARK    8  A    between atoms: C13_28  and  C14_30 
ROOT
HETATM    1  C4  UNL     1      -1.352  -8.593  18.068  1.00  0.00     0.139 C 
HETATM    2  C5  UNL     1      -1.481  -9.005  16.631  1.00  0.00     0.235 C 
HETATM    3  O2  UNL     1      -2.770  -9.190  16.236  1.00  0.00    -0.358 OA
HETATM    4  C7  UNL     1      -3.669  -9.764  17.042  1.00  0.00     0.236 C 
HETATM    5  C9  UNL     1      -3.749  -9.222  18.405  1.00  0.00     0.147 C 
HETATM    6  C12 UNL     1      -2.695  -8.185  18.635  1.00  0.00     0.135 C 
ENDROOT
BRANCH   1   7
HETATM    7  N2  UNL     1      -0.832  -9.642  18.880  1.00  0.00    -0.407 N 
ATOM      8  H2  UNL     1      -0.674 -10.575  18.500  1.00  0.00     0.154 HD
BRANCH   7   9
HETATM    9  C3  UNL     1      -0.543  -9.341  20.234  1.00  0.00     0.166 C 
BRANCH   9  10
HETATM   10  C2  UNL     1       0.605  -8.395  20.251  1.00  0.00    -0.007 C 
HETATM   11  C1  UNL     1       1.928  -8.742  19.682  1.00  0.00     0.064 C 
HETATM   12  N1  UNL     1       0.459  -7.247  20.768  1.00  0.00    -0.405 N 
ATOM     13  H12 UNL     1       1.246  -6.598  20.779  1.00  0.00     0.155 HD
ATOM     14  H11 UNL     1      -0.452  -7.008  21.160  1.00  0.00     0.155 HD
ENDBRANCH   9  10
ENDBRANCH   7   9
ENDBRANCH   1   7
BRANCH   2  15
HETATM   15  C6  UNL     1      -0.869  -7.989  15.750  1.00  0.00     0.262 C 
HETATM   16  N3  UNL     1      -0.666  -8.222  14.371  1.00  0.00    -0.060 NA
HETATM   17  O1  UNL     1      -0.521  -6.894  16.239  1.00  0.00    -0.274 OA
ENDBRANCH   2  15
BRANCH   6  18
HETATM   18  N6  UNL     1      -3.163  -6.931  18.083  1.00  0.00    -0.352 N 
HETATM   19  C13 UNL     1      -2.628  -5.685  18.517  1.00  0.00     0.221 C 
HETATM   20  O5  UNL     1      -1.723  -5.665  19.399  1.00  0.00    -0.273 OA
ATOM     21  H6  UNL     1      -3.890  -6.940  17.369  1.00  0.00     0.163 HD
BRANCH  19  22
HETATM   22  C14 UNL     1      -3.102  -4.391  17.965  1.00  0.00     0.070 C 
HETATM   23  C15 UNL     1      -3.474  -4.628  16.513  1.00  0.00     0.019 C 
HETATM   24  C16 UNL     1      -4.322  -3.986  18.764  1.00  0.00     0.019 C 
ENDBRANCH  19  22
ENDBRANCH   6  18
BRANCH   5  25
HETATM   25  N5  UNL     1      -5.063  -8.691  18.745  1.00  0.00    -0.352 N 
HETATM   26  C10 UNL     1      -6.071  -9.416  19.418  1.00  0.00     0.214 C 
HETATM   27  C11 UNL     1      -7.392  -8.887  19.764  1.00  0.00     0.117 C 
HETATM   28  O4  UNL     1      -5.842 -10.629  19.762  1.00  0.00    -0.274 OA
ATOM     29  H5  UNL     1      -5.268  -7.728  18.479  1.00  0.00     0.163 HD
ENDBRANCH   5  25
BRANCH   4  30
HETATM   30  C8  UNL     1      -3.499 -11.249  17.005  1.00  0.00     0.262 C 
HETATM   31  N4  UNL     1      -3.021 -11.921  18.129  1.00  0.00    -0.060 NA
HETATM   32  O3  UNL     1      -3.787 -11.863  15.966  1.00  0.00    -0.274 OA
ENDBRANCH   4  30
TORSDOF 8
ENDMDL
MODEL 2
REMARK VINA RESULT: -4.972306942      2.246      5.700
REMARK  8 active torsions:
REMARK  status: ('A' for Active; 'I' for Inactive)
REMARK    1  A    between atoms: C2_2  and  C3_6 
REMARK    2  A    between atoms: C3_6  and  N2_7 
REMARK    3  A    between atoms: N2_7  and  C4_9 
REMARK    4  A    between atoms: C5_10  and  C6_11 
REMARK    5  A    between atoms: C7_15  and  C8_16 
REMARK    6  A    between atoms: C9_19  and  N5_20 
REMARK       I    between atoms: N5_20  and  C10_22 
REMARK    7  A    between atoms: C12_25  and  N6_26 
REMARK       I    between atoms: N6_26  and  C13_28 
REMARK    8  A    between atoms: C13_28  and  C14_30 
ROOT
HETATM    1  C4  UNL     1      -3.034  -8.515  18.047  1.00  0.00     0.139 C 
HETATM    2  C5  UNL     1      -4.174  -7.722  17.479  1.00  0.00     0.235 C 
HETATM    3  O2  UNL     1      -3.816  -6.944  16.422  1.00  0.00    -0.358 OA
HETATM    4  C7  UNL     1      -2.648  -6.295  16.400  1.00  0.00     0.236 C 
HETATM    5  C9  UNL     1      -1.460  -7.101  16.716  1.00  0.00     0.147 C 
HETATM    6  C12 UNL     1      -1.843  -8.491  17.115  1.00  0.00     0.135 C 
ENDROOT
BRANCH   1   7
HETATM    7  N2  UNL     1      -2.613  -8.014  19.313  1.00  0.00    -0.407 N 
ATOM      8  H2  UNL     1      -3.105  -7.244  19.767  1.00  0.00     0.154 HD
BRANCH   7   9
HETATM    9  C3  UNL     1      -1.486  -8.624  19.917  1.00  0.00     0.166 C 
BRANCH   9  10
HETATM   10  C2  UNL     1      -0.629  -7.542  20.470  1.00  0.00    -0.007 C 
HETATM   11  C1  UNL     1      -0.626  -7.187  21.908  1.00  0.00     0.064 C 
HETATM   12  N1  UNL     1       0.133  -6.891  19.692  1.00  0.00    -0.405 N 
ATOM     13  H12 UNL     1       0.721  -6.149  20.071  1.00  0.00     0.155 HD
ATOM     14  H11 UNL     1       0.131  -7.135  18.702  1.00  0.00     0.155 HD
ENDBRANCH   9  10
ENDBRANCH   7   9
ENDBRANCH   1   7
BRANCH   2  15
HETATM   15  C6  UNL     1      -5.259  -8.625  17.042  1.00  0.00     0.262 C 
HETATM   16  N3  UNL     1      -6.370  -8.911  17.868  1.00  0.00    -0.060 NA
HETATM   17  O1  UNL     1      -5.191  -9.150  15.912  1.00  0.00    -0.274 OA
ENDBRANCH   2  15
BRANCH   6  18
HETATM   18  N6  UNL     1      -2.075  -9.262  15.912  1.00  0.00    -0.352 N 
HETATM   19  C13 UNL     1      -1.139 -10.237  15.464  1.00  0.00     0.221 C 
HETATM   20  O5  UNL     1      -0.084 -10.444  16.129  1.00  0.00    -0.273 OA
ATOM     21  H6  UNL     1      -2.926  -9.102  15.373  1.00  0.00     0.163 HD
BRANCH  19  22
HETATM   22  C14 UNL     1      -1.361 -11.032  14.230  1.00  0.00     0.070 C 
HETATM   23  C15 UNL     1      -2.822 -11.442  14.212  1.00  0.00     0.019 C 
HETATM   24  C16 UNL     1      -1.051 -10.126  13.057  1.00  0.00     0.019 C 
ENDBRANCH  19  22
ENDBRANCH   6  18
BRANCH   5  25
HETATM   25  N5  UNL     1      -0.477  -7.136  15.640  1.00  0.00    -0.352 N 
HETATM   26  C10 UNL     1       0.922  -7.134  15.832  1.00  0.00     0.214 C 
HETATM   27  C11 UNL     1       1.915  -7.172  14.756  1.00  0.00     0.117 C 
HETATM   28  O4  UNL     1       1.387  -7.096  17.026  1.00  0.00    -0.274 OA
ATOM     29  H5  UNL     1      -0.824  -7.164  14.682  1.00  0.00     0.163 HD
ENDBRANCH   5  25
BRANCH   4  30
HETATM   30  C8  UNL     1      -2.751  -5.047  17.217  1.00  0.00     0.262 C 
HETATM   31  N4  UNL     1      -1.939  -4.884  18.339  1.00  0.00    -0.060 NA
HETATM   32  O3  UNL     1      -3.564  -4.173  16.881  1.00  0.00    -0.274 OA
ENDBRANCH   4  30
TORSDOF 8
ENDMDL
MODEL 3
REMARK VINA RESULT: -4.896108985      2.428      6.303
REMARK  8 active torsions:
REMARK  status: ('A' for Active; 'I' for Inactive)
REMARK    1  A    between atoms: C2_2  and  C3_6 
REMARK    2  A    between atoms: C3_6  and  N2_7 
REMARK    3  A    between atoms: N2_7  and  C4_9 
REMARK    4  A    between atoms: C5_10  and  C6_11 
REMARK    5  A    between atoms: C7_15  and  C8_16 
REMARK    6  A    between atoms: C9_19  and  N5_20 
REMARK       I    between atoms: N5_20  and  C10_22 
REMARK    7  A    between atoms: C12_25  and  N6_26 
REMARK       I    between atoms: N6_26  and  C13_28 
REMARK    8  A    between atoms: C13_28  and  C14_30 
ROOT
HETATM    1  C4  UNL     1      -1.649  -6.967  19.280  1.00  0.00     0.139 C 
HETATM    2  C5  UNL     1      -2.093  -8.252  18.644  1.00  0.00     0.235 C 
HETATM    3  O2  UNL     1      -1.113  -8.866  17.928  1.00  0.00    -0.358 OA
HETATM    4  C7  UNL     1      -0.255  -8.166  17.180  1.00  0.00     0.236 C 
HETATM    5  C9  UNL     1       0.398  -7.029  17.844  1.00  0.00     0.147 C 
HETATM    6  C12 UNL     1      -0.143  -6.831  19.225  1.00  0.00     0.135 C 
ENDROOT
BRANCH   1   7
HETATM    7  N2  UNL     1      -2.218  -5.829  18.638  1.00  0.00    -0.407 N 
ATOM      8  H2  UNL     1      -1.681  -4.971  18.511  1.00  0.00     0.154 HD
BRANCH   7   9
HETATM    9  C3  UNL     1      -3.556  -5.932  18.185  1.00  0.00     0.166 C 
BRANCH   9  10
HETATM   10  C2  UNL     1      -3.823  -4.769  17.297  1.00  0.00    -0.007 C 
HETATM   11  C1  UNL     1      -4.547  -3.563  17.764  1.00  0.00     0.064 C 
HETATM   12  N1  UNL     1      -3.421  -4.796  16.095  1.00  0.00    -0.405 N 
ATOM     13  H12 UNL     1      -3.604  -3.998  15.486  1.00  0.00     0.155 HD
ATOM     14  H11 UNL     1      -2.923  -5.626  15.773  1.00  0.00     0.155 HD
ENDBRANCH   9  10
ENDBRANCH   7   9
ENDBRANCH   1   7
BRANCH   2  15
HETATM   15  C6  UNL     1      -2.573  -9.194  19.675  1.00  0.00     0.262 C 
HETATM   16  N3  UNL     1      -3.950  -9.371  19.943  1.00  0.00    -0.060 NA
HETATM   17  O1  UNL     1      -1.737  -9.853  20.329  1.00  0.00    -0.274 OA
ENDBRANCH   2  15
BRANCH   6  18
HETATM   18  N6  UNL     1       0.522  -7.761  20.112  1.00  0.00    -0.352 N 
HETATM   19  C13 UNL     1       0.571  -7.540  21.517  1.00  0.00     0.221 C 
HETATM   20  O5  UNL     1       0.021  -6.514  22.010  1.00  0.00    -0.273 OA
ATOM     21  H6  UNL     1       0.965  -8.593  19.722  1.00  0.00     0.163 HD
BRANCH  19  22
HETATM   22  C14 UNL     1       1.255  -8.483  22.439  1.00  0.00     0.070 C 
HETATM   23  C15 UNL     1       2.743  -8.204  22.349  1.00  0.00     0.019 C 
HETATM   24  C16 UNL     1       0.745  -8.190  23.834  1.00  0.00     0.019 C 
ENDBRANCH  19  22
ENDBRANCH   6  18
BRANCH   5  25
HETATM   25  N5  UNL     1       1.851  -7.130  17.880  1.00  0.00    -0.352 N 
HETATM   26  C10 UNL     1       2.698  -6.894  16.776  1.00  0.00     0.214 C 
HETATM   27  C11 UNL     1       4.160  -6.992  16.806  1.00  0.00     0.117 C 
HETATM   28  O4  UNL     1       2.180  -6.569  15.650  1.00  0.00    -0.274 OA
ATOM     29  H5  UNL     1       2.286  -7.391  18.765  1.00  0.00     0.163 HD
ENDBRANCH   5  25
BRANCH   4  30
HETATM   30  C8  UNL     1      -0.902  -7.800  15.882  1.00  0.00     0.262 C 
HETATM   31  N4  UNL     1      -1.148  -8.785  14.927  1.00  0.00    -0.060 NA
HETATM   32  O3  UNL     1      -1.210  -6.616  15.676  1.00  0.00    -0.274 OA
ENDBRANCH   4  30
TORSDOF 8
ENDMDL
MODEL 4
REMARK VINA RESULT: -4.891237964      2.140      4.341
REMARK  8 active torsions:
REMARK  status: ('A' for Active; 'I' for Inactive)
REMARK    1  A    between atoms: C2_2  and  C3_6 
REMARK    2  A    between atoms: C3_6  and  N2_7 
REMARK    3  A    between atoms: N2_7  and  C4_9 
REMARK    4  A    between atoms: C5_10  and  C6_11 
REMARK    5  A    between atoms: C7_15  and  C8_16 
REMARK    6  A    between atoms: C9_19  and  N5_20 
REMARK       I    between atoms: N5_20  and  C10_22 
REMARK    7  A    between atoms: C12_25  and  N6_26 
REMARK       I    between atoms: N6_26  and  C13_28 
REMARK    8  A    between atoms: C13_28  and  C14_30 
ROOT
HETATM    1  C4  UNL     1      -2.544  -9.034  17.305  1.00  0.00     0.139 C 
HETATM    2  C5  UNL     1      -3.907  -9.506  17.720  1.00  0.00     0.235 C 
HETATM    3  O2  UNL     1      -4.165  -9.313  19.042  1.00  0.00    -0.358 OA
HETATM    4  C7  UNL     1      -3.224  -9.507  19.971  1.00  0.00     0.236 C 
HETATM    5  C9  UNL     1      -1.932  -8.853  19.723  1.00  0.00     0.147 C 
HETATM    6  C12 UNL     1      -1.916  -8.182  18.386  1.00  0.00     0.135 C 
ENDROOT
BRANCH   1   7
HETATM    7  N2  UNL     1      -1.662 -10.120  17.034  1.00  0.00    -0.407 N 
ATOM      8  H2  UNL     1      -0.689 -10.099  17.337  1.00  0.00     0.154 HD
BRANCH   7   9
HETATM    9  C3  UNL     1      -2.188 -11.231  16.327  1.00  0.00     0.166 C 
BRANCH   9  10
HETATM   10  C2  UNL     1      -2.191 -10.884  14.881  1.00  0.00    -0.007 C 
HETATM   11  C1  UNL     1      -0.955 -10.527  14.146  1.00  0.00     0.064 C 
HETATM   12  N1  UNL     1      -3.285 -10.891  14.240  1.00  0.00    -0.405 N 
ATOM     13  H12 UNL     1      -3.288 -10.653  13.248  1.00  0.00     0.155 HD
ATOM     14  H11 UNL     1      -4.137 -11.136  14.745  1.00  0.00     0.155 HD
ENDBRANCH   9  10
ENDBRANCH   7   9
ENDBRANCH   1   7
BRANCH   2  15
HETATM   15  C6  UNL     1      -4.949  -8.811  16.938  1.00  0.00     0.262 C 
HETATM   16  N3  UNL     1      -5.595  -9.426  15.842  1.00  0.00    -0.060 NA
HETATM   17  O1  UNL     1      -5.268  -7.646  17.255  1.00  0.00    -0.274 OA
ENDBRANCH   2  15
BRANCH   6  18
HETATM   18  N6  UNL     1      -2.569  -6.896  18.516  1.00  0.00    -0.352 N 
HETATM   19  C13 UNL     1      -2.312  -5.838  17.598  1.00  0.00     0.221 C 
HETATM   20  O5  UNL     1      -1.502  -6.019  16.645  1.00  0.00    -0.273 OA
ATOM     21  H6  UNL     1      -3.226  -6.744  19.281  1.00  0.00     0.163 HD
BRANCH  19  22
HETATM   22  C14 UNL     1      -2.970  -4.513  17.722  1.00  0.00     0.070 C 
HETATM   23  C15 UNL     1      -3.722  -4.259  16.429  1.00  0.00     0.019 C 
HETATM   24  C16 UNL     1      -3.933  -4.601  18.886  1.00  0.00     0.019 C 
ENDBRANCH  19  22
ENDBRANCH   6  18
BRANCH   5  25
HETATM   25  N5  UNL     1      -1.545  -7.912  20.767  1.00  0.00    -0.352 N 
HETATM   26  C10 UNL     1      -0.222  -7.717  21.220  1.00  0.00     0.214 C 
HETATM   27  C11 UNL     1       0.173  -6.770  22.267  1.00  0.00     0.117 C 
HETATM   28  O4  UNL     1       0.724  -8.405  20.697  1.00  0.00    -0.274 OA
ATOM     29  H5  UNL     1      -2.282  -7.356  21.200  1.00  0.00     0.163 HD
ENDBRANCH   5  25
BRANCH   4  30
HETATM   30  C8  UNL     1      -3.101 -10.969  20.262  1.00  0.00     0.262 C 
HETATM   31  N4  UNL     1      -1.927 -11.645  19.934  1.00  0.00    -0.060 NA
HETATM   32  O3  UNL     1      -4.054 -11.559  20.794  1.00  0.00    -0.274 OA
ENDBRANCH   4  30
TORSDOF 8
ENDMDL
MODEL 5
REMARK VINA RESULT: -4.882910984      3.264      6.067
REMARK  8 active torsions:
REMARK  status: ('A' for Active; 'I' for Inactive)
REMARK    1  A    between atoms: C2_2  and  C3_6 
REMARK    2  A    between atoms: C3_6  and  N2_7 
REMARK    3  A    between atoms: N2_7  and  C4_9 
REMARK    4  A    between atoms: C5_10  and  C6_11 
REMARK    5  A    between atoms: C7_15  and  C8_16 
REMARK    6  A    between atoms: C9_19  and  N5_20 
REMARK       I    between atoms: N5_20  and  C10_22 
REMARK    7  A    between atoms: C12_25  and  N6_26 
REMARK       I    between atoms: N6_26  and  C13_28 
REMARK    8  A    between atoms: C13_28  and  C14_30 
ROOT
HETATM    1  C4  UNL     1      -5.247  -9.378  16.841  1.00  0.00     0.139 C 
HETATM    2  C5  UNL     1      -4.907 -10.297  17.977  1.00  0.00     0.235 C 
HETATM    3  O2  UNL     1      -5.987 -10.957  18.478  1.00  0.00    -0.358 OA
HETATM    4  C7  UNL     1      -7.172 -10.354  18.611  1.00  0.00     0.236 C 
HETATM    5  C9  UNL     1      -7.664  -9.636  17.427  1.00  0.00     0.147 C 
HETATM    6  C12 UNL     1      -6.646  -9.645  16.331  1.00  0.00     0.135 C 
ENDROOT
BRANCH   1   7
HETATM    7  N2  UNL     1      -5.171  -8.007  17.221  1.00  0.00    -0.407 N 
ATOM      8  H2  UNL     1      -5.915  -7.351  16.983  1.00  0.00     0.154 HD
BRANCH   7   9
HETATM    9  C3  UNL     1      -4.024  -7.588  17.941  1.00  0.00     0.166 C 
BRANCH   9  10
HETATM   10  C2  UNL     1      -3.023  -7.104  16.954  1.00  0.00    -0.007 C 
HETATM   11  C1  UNL     1      -2.912  -5.677  16.571  1.00  0.00     0.064 C 
HETATM   12  N1  UNL     1      -2.229  -7.932  16.413  1.00  0.00    -0.405 N 
ATOM     13  H12 UNL     1      -1.543  -7.600  15.736  1.00  0.00     0.155 HD
ATOM     14  H11 UNL     1      -2.306  -8.914  16.677  1.00  0.00     0.155 HD
ENDBRANCH   9  10
ENDBRANCH   7   9
ENDBRANCH   1   7
BRANCH   2  15
HETATM   15  C6  UNL     1      -3.911 -11.299  17.546  1.00  0.00     0.262 C 
HETATM   16  N3  UNL     1      -2.523 -11.035  17.584  1.00  0.00    -0.060 NA
HETATM   17  O1  UNL     1      -4.308 -12.410  17.137  1.00  0.00    -0.274 OA
ENDBRANCH   2  15
BRANCH   6  18
HETATM   18  N6  UNL     1      -6.741 -10.910  15.633  1.00  0.00    -0.352 N 
HETATM   19  C13 UNL     1      -6.206 -11.077  14.324  1.00  0.00     0.221 C 
HETATM   20  O5  UNL     1      -5.630 -10.106  13.755  1.00  0.00    -0.273 OA
ATOM     21  H6  UNL     1      -7.202 -11.698  16.088  1.00  0.00     0.163 HD
BRANCH  19  22
HETATM   22  C14 UNL     1      -6.301 -12.366  13.594  1.00  0.00     0.070 C 
HETATM   23  C15 UNL     1      -7.555 -13.068  14.077  1.00  0.00     0.019 C 
HETATM   24  C16 UNL     1      -6.413 -12.036  12.121  1.00  0.00     0.019 C 
ENDBRANCH  19  22
ENDBRANCH   6  18
BRANCH   5  25
HETATM   25  N5  UNL     1      -8.943 -10.132  16.934  1.00  0.00    -0.352 N 
HETATM   26  C10 UNL     1     -10.095  -9.336  16.751  1.00  0.00     0.214 C 
HETATM   27  C11 UNL     1     -11.382  -9.829  16.254  1.00  0.00     0.117 C 
HETATM   28  O4  UNL     1     -10.041  -8.087  17.033  1.00  0.00    -0.274 OA
ATOM     29  H5  UNL     1      -9.010 -11.124  16.706  1.00  0.00     0.163 HD
ENDBRANCH   5  25
BRANCH   4  30
HETATM   30  C8  UNL     1      -7.173  -9.519  19.852  1.00  0.00     0.262 C 
HETATM   31  N4  UNL     1      -7.193 -10.134  21.102  1.00  0.00    -0.060 NA
HETATM   32  O3  UNL     1      -7.157  -8.283  19.745  1.00  0.00    -0.274 OA
ENDBRANCH   4  30
TORSDOF 8
ENDMDL
