MODEL 1
REMARK VINA RESULT: -7.905109155      0.000      0.000
REMARK  10 active torsions:
REMARK  status: ('A' for Active; 'I' for Inactive)
REMARK    1  A    between atoms: C1_2  and  C2_4 
REMARK    2  A    between atoms: C2_4  and  C3_5 
REMARK    3  A    between atoms: C3_5  and  N2_6 
REMARK    4  A    between atoms: C3_5  and  C10_17 
REMARK    5  A    between atoms: N2_6  and  S1_8 
REMARK    6  A    between atoms: S1_8  and  C4_11 
REMARK       I    between atoms: C10_17  and  N3_19 
REMARK    7  A    between atoms: N3_19  and  C11_21 
REMARK    8  A    between atoms: C11_21  and  N4_22 
REMARK       I    between atoms: N4_22  and  C12_24 
REMARK    9  A    between atoms: N6_26  and  O5_28 
REMARK   10  A    between atoms: O5_28  and  C13_29 
ROOT
HETATM    1  C3  UNL     1      -5.404  -0.933  20.939  1.00  0.00     0.193 C 
ENDROOT
BRANCH   1   2
HETATM    2  C2  UNL     1      -6.279  -1.947  21.626  1.00  0.00     0.135 C 
BRANCH   2   3
HETATM    3  C1  UNL     1      -7.696  -1.487  21.510  1.00  0.00     0.233 C 
HETATM    4  N1  UNL     1      -8.368  -0.901  22.634  1.00  0.00    -0.062 NA
HETATM    5  O1  UNL     1      -8.262  -1.637  20.404  1.00  0.00    -0.277 OA
ENDBRANCH   2   3
ENDBRANCH   1   2
BRANCH   1   6
HETATM    6  N2  UNL     1      -6.013   0.322  20.941  1.00  0.00    -0.301 N 
ATOM      7  H2  UNL     1      -6.768   0.491  20.277  1.00  0.00     0.173 HD
BRANCH   6   8
HETATM    8  S1  UNL     1      -5.579   1.553  21.963  1.00  0.00     0.259 S 
HETATM    9  O2  UNL     1      -6.774   2.030  22.739  1.00  0.00    -0.201 OA
HETATM   10  O3  UNL     1      -4.502   1.250  22.965  1.00  0.00    -0.201 OA
BRANCH   8  11
HETATM   11  C4  UNL     1      -4.948   2.963  21.081  1.00  0.00     0.079 A 
HETATM   12  C5  UNL     1      -5.654   3.520  20.026  1.00  0.00     0.025 A 
HETATM   13  C6  UNL     1      -5.192   4.625  19.323  1.00  0.00     0.002 A 
HETATM   14  C7  UNL     1      -3.973   5.212  19.675  1.00  0.00     0.000 A 
HETATM   15  C8  UNL     1      -3.289   4.651  20.716  1.00  0.00     0.002 A 
HETATM   16  C9  UNL     1      -3.749   3.553  21.416  1.00  0.00     0.025 A 
ENDBRANCH   8  11
ENDBRANCH   6   8
ENDBRANCH   1   6
BRANCH   1  17
HETATM   17  C10 UNL     1      -4.833  -1.404  19.655  1.00  0.00     0.242 C 
HETATM   18  O4  UNL     1      -3.606  -1.550  19.545  1.00  0.00    -0.271 OA
HETATM   19  N3  UNL     1      -5.690  -1.679  18.581  1.00  0.00    -0.343 N 
ATOM     20  H3  UNL     1      -6.697  -1.545  18.673  1.00  0.00     0.164 HD
BRANCH  19  21
HETATM   21  C11 UNL     1      -5.121  -2.159  17.334  1.00  0.00     0.249 C 
BRANCH  21  22
HETATM   22  N4  UNL     1      -5.100  -3.625  17.326  1.00  0.00    -0.347 N 
HETATM   23  C12 UNL     1      -3.814  -4.232  17.268  1.00  0.00     0.209 C 
HETATM   24  N5  UNL     1      -3.371  -4.829  16.068  1.00  0.00    -0.062 NA
HETATM   25  N6  UNL     1      -3.072  -4.231  18.310  1.00  0.00    -0.228 N 
ATOM     26  H6  UNL     1      -3.443  -3.788  19.150  1.00  0.00     0.197 HD
ATOM     27  H4  UNL     1      -5.957  -4.178  17.360  1.00  0.00     0.163 HD
BRANCH  25  28
HETATM   28  O5  UNL     1      -1.838  -4.770  18.387  1.00  0.00    -0.181 OA
BRANCH  28  29
HETATM   29  C13 UNL     1      -1.549  -6.019  18.935  1.00  0.00     0.394 C 
HETATM   30  N7  UNL     1      -2.309  -7.177  18.620  1.00  0.00    -0.031 NA
HETATM   31  O6  UNL     1      -0.597  -6.132  19.727  1.00  0.00    -0.240 OA
ENDBRANCH  28  29
ENDBRANCH  25  28
ENDBRANCH  21  22
ENDBRANCH  19  21
ENDBRANCH   1  17
TORSDOF 10
ENDMDL
MODEL 2
REMARK VINA RESULT: -7.436446007      1.557      1.794
REMARK  10 active torsions:
REMARK  status: ('A' for Active; 'I' for Inactive)
REMARK    1  A    between atoms: C1_2  and  C2_4 
REMARK    2  A    between atoms: C2_4  and  C3_5 
REMARK    3  A    between atoms: C3_5  and  N2_6 
REMARK    4  A    between atoms: C3_5  and  C10_17 
REMARK    5  A    between atoms: N2_6  and  S1_8 
REMARK    6  A    between atoms: S1_8  and  C4_11 
REMARK       I    between atoms: C10_17  and  N3_19 
REMARK    7  A    between atoms: N3_19  and  C11_21 
REMARK    8  A    between atoms: C11_21  and  N4_22 
REMARK       I    between atoms: N4_22  and  C12_24 
REMARK    9  A    between atoms: N6_26  and  O5_28 
REMARK   10  A    between atoms: O5_28  and  C13_29 
ROOT
HETATM    1  C3  UNL     1      -5.538  -1.107  20.940  1.00  0.00     0.193 C 
ENDROOT
BRANCH   1   2
HETATM    2  C2  UNL     1      -6.293  -2.042  21.845  1.00  0.00     0.135 C 
BRANCH   2   3
HETATM    3  C1  UNL     1      -7.752  -1.760  21.686  1.00  0.00     0.233 C 
HETATM    4  N1  UNL     1      -8.470  -1.034  22.694  1.00  0.00    -0.062 NA
HETATM    5  O1  UNL     1      -8.310  -2.183  20.649  1.00  0.00    -0.277 OA
ENDBRANCH   2   3
ENDBRANCH   1   2
BRANCH   1   6
HETATM    6  N2  UNL     1      -6.151   0.146  20.907  1.00  0.00    -0.301 N 
ATOM      7  H2  UNL     1      -6.884   0.304  20.217  1.00  0.00     0.173 HD
BRANCH   6   8
HETATM    8  S1  UNL     1      -5.753   1.391  21.926  1.00  0.00     0.259 S 
HETATM    9  O2  UNL     1      -6.971   1.867  22.665  1.00  0.00    -0.201 OA
HETATM   10  O3  UNL     1      -4.700   1.107  22.959  1.00  0.00    -0.201 OA
BRANCH   8  11
HETATM   11  C4  UNL     1      -5.110   2.796  21.046  1.00  0.00     0.079 A 
HETATM   12  C5  UNL     1      -5.774   3.315  19.945  1.00  0.00     0.025 A 
HETATM   13  C6  UNL     1      -5.301   4.415  19.241  1.00  0.00     0.002 A 
HETATM   14  C7  UNL     1      -4.114   5.037  19.640  1.00  0.00     0.000 A 
HETATM   15  C8  UNL     1      -3.471   4.514  20.726  1.00  0.00     0.002 A 
HETATM   16  C9  UNL     1      -3.941   3.420  21.426  1.00  0.00     0.025 A 
ENDBRANCH   8  11
ENDBRANCH   6   8
ENDBRANCH   1   6
BRANCH   1  17
HETATM   17  C10 UNL     1      -5.158  -1.707  19.639  1.00  0.00     0.242 C 
HETATM   18  O4  UNL     1      -5.133  -1.000  18.620  1.00  0.00    -0.271 OA
HETATM   19  N3  UNL     1      -4.831  -3.069  19.578  1.00  0.00    -0.343 N 
ATOM     20  H3  UNL     1      -4.866  -3.648  20.417  1.00  0.00     0.164 HD
BRANCH  19  21
HETATM   21  C11 UNL     1      -4.441  -3.641  18.302  1.00  0.00     0.249 C 
BRANCH  21  22
HETATM   22  N4  UNL     1      -2.999  -3.907  18.293  1.00  0.00    -0.347 N 
HETATM   23  C12 UNL     1      -2.610  -5.238  17.972  1.00  0.00     0.209 C 
HETATM   24  N5  UNL     1      -2.143  -6.099  18.989  1.00  0.00    -0.062 NA
HETATM   25  N6  UNL     1      -2.687  -5.640  16.760  1.00  0.00    -0.228 N 
ATOM     26  H6  UNL     1      -3.030  -4.975  16.066  1.00  0.00     0.197 HD
ATOM     27  H4  UNL     1      -2.315  -3.181  18.505  1.00  0.00     0.163 HD
BRANCH  25  28
HETATM   28  O5  UNL     1      -2.352  -6.871  16.326  1.00  0.00    -0.181 OA
BRANCH  28  29
HETATM   29  C13 UNL     1      -1.099  -7.224  15.825  1.00  0.00     0.394 C 
HETATM   30  N7  UNL     1      -0.947  -8.096  14.714  1.00  0.00    -0.031 NA
HETATM   31  O6  UNL     1      -0.077  -6.765  16.363  1.00  0.00    -0.240 OA
ENDBRANCH  28  29
ENDBRANCH  25  28
ENDBRANCH  21  22
ENDBRANCH  19  21
ENDBRANCH   1  17
TORSDOF 10
ENDMDL
MODEL 3
REMARK VINA RESULT: -7.409049794      1.518      1.671
REMARK  10 active torsions:
REMARK  status: ('A' for Active; 'I' for Inactive)
REMARK    1  A    between atoms: C1_2  and  C2_4 
REMARK    2  A    between atoms: C2_4  and  C3_5 
REMARK    3  A    between atoms: C3_5  and  N2_6 
REMARK    4  A    between atoms: C3_5  and  C10_17 
REMARK    5  A    between atoms: N2_6  and  S1_8 
REMARK    6  A    between atoms: S1_8  and  C4_11 
REMARK       I    between atoms: C10_17  and  N3_19 
REMARK    7  A    between atoms: N3_19  and  C11_21 
REMARK    8  A    between atoms: C11_21  and  N4_22 
REMARK       I    between atoms: N4_22  and  C12_24 
REMARK    9  A    between atoms: N6_26  and  O5_28 
REMARK   10  A    between atoms: O5_28  and  C13_29 
ROOT
HETATM    1  C3  UNL     1      -5.658  -0.938  20.840  1.00  0.00     0.193 C 
ENDROOT
BRANCH   1   2
HETATM    2  C2  UNL     1      -6.255  -1.964  21.764  1.00  0.00     0.135 C 
BRANCH   2   3
HETATM    3  C1  UNL     1      -7.737  -1.772  21.769  1.00  0.00     0.233 C 
HETATM    4  N1  UNL     1      -8.365  -0.960  22.772  1.00  0.00    -0.062 NA
HETATM    5  O1  UNL     1      -8.396  -2.347  20.874  1.00  0.00    -0.277 OA
ENDBRANCH   2   3
ENDBRANCH   1   2
BRANCH   1   6
HETATM    6  N2  UNL     1      -6.294   0.294  20.998  1.00  0.00    -0.301 N 
ATOM      7  H2  UNL     1      -7.151   0.463  20.473  1.00  0.00     0.173 HD
BRANCH   6   8
HETATM    8  S1  UNL     1      -5.734   1.497  21.992  1.00  0.00     0.259 S 
HETATM    9  O2  UNL     1      -6.854   2.037  22.835  1.00  0.00    -0.201 OA
HETATM   10  O3  UNL     1      -4.619   1.132  22.931  1.00  0.00    -0.201 OA
BRANCH   8  11
HETATM   11  C4  UNL     1      -5.078   2.871  21.074  1.00  0.00     0.079 A 
HETATM   12  C5  UNL     1      -5.727   3.353  19.947  1.00  0.00     0.025 A 
HETATM   13  C6  UNL     1      -5.245   4.428  19.213  1.00  0.00     0.002 A 
HETATM   14  C7  UNL     1      -4.063   5.064  19.608  1.00  0.00     0.000 A 
HETATM   15  C8  UNL     1      -3.435   4.578  20.719  1.00  0.00     0.002 A 
HETATM   16  C9  UNL     1      -3.915   3.508  21.449  1.00  0.00     0.025 A 
ENDBRANCH   8  11
ENDBRANCH   6   8
ENDBRANCH   1   6
BRANCH   1  17
HETATM   17  C10 UNL     1      -5.458  -1.421  19.454  1.00  0.00     0.242 C 
HETATM   18  O4  UNL     1      -5.105  -0.625  18.570  1.00  0.00    -0.271 OA
HETATM   19  N3  UNL     1      -5.671  -2.775  19.159  1.00  0.00    -0.343 N 
ATOM     20  H3  UNL     1      -5.974  -3.422  19.887  1.00  0.00     0.164 HD
BRANCH  19  21
HETATM   21  C11 UNL     1      -5.453  -3.241  17.801  1.00  0.00     0.249 C 
BRANCH  21  22
HETATM   22  N4  UNL     1      -4.017  -3.268  17.507  1.00  0.00    -0.347 N 
HETATM   23  C12 UNL     1      -3.399  -4.551  17.522  1.00  0.00     0.209 C 
HETATM   24  N5  UNL     1      -2.563  -4.915  18.599  1.00  0.00    -0.062 NA
HETATM   25  N6  UNL     1      -3.609  -5.360  16.554  1.00  0.00    -0.228 N 
ATOM     26  H6  UNL     1      -4.220  -5.044  15.801  1.00  0.00     0.197 HD
ATOM     27  H4  UNL     1      -3.491  -2.418  17.303  1.00  0.00     0.163 HD
BRANCH  25  28
HETATM   28  O5  UNL     1      -3.086  -6.598  16.449  1.00  0.00    -0.181 OA
BRANCH  28  29
HETATM   29  C13 UNL     1      -3.709  -7.765  16.892  1.00  0.00     0.394 C 
HETATM   30  N7  UNL     1      -4.792  -7.740  17.813  1.00  0.00    -0.031 NA
HETATM   31  O6  UNL     1      -3.311  -8.865  16.475  1.00  0.00    -0.240 OA
ENDBRANCH  28  29
ENDBRANCH  25  28
ENDBRANCH  21  22
ENDBRANCH  19  21
ENDBRANCH   1  17
TORSDOF 10
ENDMDL
MODEL 4
REMARK VINA RESULT: -7.342937624      2.946      7.660
REMARK  10 active torsions:
REMARK  status: ('A' for Active; 'I' for Inactive)
REMARK    1  A    between atoms: C1_2  and  C2_4 
REMARK    2  A    between atoms: C2_4  and  C3_5 
REMARK    3  A    between atoms: C3_5  and  N2_6 
REMARK    4  A    between atoms: C3_5  and  C10_17 
REMARK    5  A    between atoms: N2_6  and  S1_8 
REMARK    6  A    between atoms: S1_8  and  C4_11 
REMARK       I    between atoms: C10_17  and  N3_19 
REMARK    7  A    between atoms: N3_19  and  C11_21 
REMARK    8  A    between atoms: C11_21  and  N4_22 
REMARK       I    between atoms: N4_22  and  C12_24 
REMARK    9  A    between atoms: N6_26  and  O5_28 
REMARK   10  A    between atoms: O5_28  and  C13_29 
ROOT
HETATM    1  C3  UNL     1      -6.778  -1.903  19.546  1.00  0.00     0.193 C 
ENDROOT
BRANCH   1   2
HETATM    2  C2  UNL     1      -7.637  -2.668  20.516  1.00  0.00     0.135 C 
BRANCH   2   3
HETATM    3  C1  UNL     1      -7.513  -2.018  21.856  1.00  0.00     0.233 C 
HETATM    4  N1  UNL     1      -6.222  -1.694  22.393  1.00  0.00    -0.062 NA
HETATM    5  O1  UNL     1      -8.570  -1.775  22.479  1.00  0.00    -0.277 OA
ENDBRANCH   2   3
ENDBRANCH   1   2
BRANCH   1   6
HETATM    6  N2  UNL     1      -5.619  -2.619  19.247  1.00  0.00    -0.301 N 
ATOM      7  H2  UNL     1      -5.177  -3.152  19.995  1.00  0.00     0.173 HD
BRANCH   6   8
HETATM    8  S1  UNL     1      -4.920  -2.651  17.744  1.00  0.00     0.259 S 
HETATM    9  O2  UNL     1      -5.961  -2.916  16.693  1.00  0.00    -0.201 OA
HETATM   10  O3  UNL     1      -4.176  -1.417  17.319  1.00  0.00    -0.201 OA
BRANCH   8  11
HETATM   11  C4  UNL     1      -3.708  -3.944  17.598  1.00  0.00     0.079 A 
HETATM   12  C5  UNL     1      -3.594  -4.689  16.434  1.00  0.00     0.025 A 
HETATM   13  C6  UNL     1      -2.653  -5.699  16.287  1.00  0.00     0.002 A 
HETATM   14  C7  UNL     1      -1.778  -5.992  17.337  1.00  0.00     0.000 A 
HETATM   15  C8  UNL     1      -1.903  -5.250  18.478  1.00  0.00     0.002 A 
HETATM   16  C9  UNL     1      -2.839  -4.245  18.624  1.00  0.00     0.025 A 
ENDBRANCH   8  11
ENDBRANCH   6   8
ENDBRANCH   1   6
BRANCH   1  17
HETATM   17  C10 UNL     1      -6.617  -0.470  19.888  1.00  0.00     0.242 C 
HETATM   18  O4  UNL     1      -5.594   0.135  19.532  1.00  0.00    -0.271 OA
HETATM   19  N3  UNL     1      -7.626   0.184  20.610  1.00  0.00    -0.343 N 
ATOM     20  H3  UNL     1      -8.458  -0.323  20.910  1.00  0.00     0.164 HD
BRANCH  19  21
HETATM   21  C11 UNL     1      -7.466   1.593  20.922  1.00  0.00     0.249 C 
BRANCH  21  22
HETATM   22  N4  UNL     1      -6.659   1.747  22.137  1.00  0.00    -0.347 N 
HETATM   23  C12 UNL     1      -5.356   2.291  21.958  1.00  0.00     0.209 C 
HETATM   24  N5  UNL     1      -4.225   1.452  22.049  1.00  0.00    -0.062 NA
HETATM   25  N6  UNL     1      -5.225   3.541  21.718  1.00  0.00    -0.228 N 
ATOM     26  H6  UNL     1      -6.077   4.100  21.665  1.00  0.00     0.197 HD
ATOM     27  H4  UNL     1      -7.011   1.479  23.056  1.00  0.00     0.163 HD
BRANCH  25  28
HETATM   28  O5  UNL     1      -4.052   4.178  21.529  1.00  0.00    -0.181 OA
BRANCH  28  29
HETATM   29  C13 UNL     1      -3.703   4.875  20.373  1.00  0.00     0.394 C 
HETATM   30  N7  UNL     1      -4.417   4.723  19.154  1.00  0.00    -0.031 NA
HETATM   31  O6  UNL     1      -2.737   5.656  20.400  1.00  0.00    -0.240 OA
ENDBRANCH  28  29
ENDBRANCH  25  28
ENDBRANCH  21  22
ENDBRANCH  19  21
ENDBRANCH   1  17
TORSDOF 10
ENDMDL
MODEL 5
REMARK VINA RESULT: -7.199841708      2.368      2.535
REMARK  10 active torsions:
REMARK  status: ('A' for Active; 'I' for Inactive)
REMARK    1  A    between atoms: C1_2  and  C2_4 
REMARK    2  A    between atoms: C2_4  and  C3_5 
REMARK    3  A    between atoms: C3_5  and  N2_6 
REMARK    4  A    between atoms: C3_5  and  C10_17 
REMARK    5  A    between atoms: N2_6  and  S1_8 
REMARK    6  A    between atoms: S1_8  and  C4_11 
REMARK       I    between atoms: C10_17  and  N3_19 
REMARK    7  A    between atoms: N3_19  and  C11_21 
REMARK    8  A    between atoms: C11_21  and  N4_22 
REMARK       I    between atoms: N4_22  and  C12_24 
REMARK    9  A    between atoms: N6_26  and  O5_28 
REMARK   10  A    between atoms: O5_28  and  C13_29 
ROOT
HETATM    1  C3  UNL     1      -5.796  -1.340  20.039  1.00  0.00     0.193 C 
ENDROOT
BRANCH   1   2
HETATM    2  C2  UNL     1      -7.159  -1.890  19.717  1.00  0.00     0.135 C 
BRANCH   2   3
HETATM    3  C1  UNL     1      -7.822  -2.262  21.003  1.00  0.00     0.233 C 
HETATM    4  N1  UNL     1      -7.294  -1.804  22.257  1.00  0.00    -0.062 NA
HETATM    5  O1  UNL     1      -8.841  -2.984  20.939  1.00  0.00    -0.277 OA
ENDBRANCH   2   3
ENDBRANCH   1   2
BRANCH   1   6
HETATM    6  N2  UNL     1      -5.749   0.032  19.788  1.00  0.00    -0.301 N 
ATOM      7  H2  UNL     1      -5.480   0.341  18.854  1.00  0.00     0.173 HD
BRANCH   6   8
HETATM    8  S1  UNL     1      -6.105   1.188  20.922  1.00  0.00     0.259 S 
HETATM    9  O2  UNL     1      -7.584   1.444  20.955  1.00  0.00    -0.201 OA
HETATM   10  O3  UNL     1      -5.681   0.899  22.335  1.00  0.00    -0.201 OA
BRANCH   8  11
HETATM   11  C4  UNL     1      -5.325   2.744  20.559  1.00  0.00     0.079 A 
HETATM   12  C5  UNL     1      -5.787   3.551  19.530  1.00  0.00     0.025 A 
HETATM   13  C6  UNL     1      -5.204   4.775  19.226  1.00  0.00     0.002 A 
HETATM   14  C7  UNL     1      -4.111   5.228  19.972  1.00  0.00     0.000 A 
HETATM   15  C8  UNL     1      -3.668   4.421  20.981  1.00  0.00     0.002 A 
HETATM   16  C9  UNL     1      -4.248   3.204  21.284  1.00  0.00     0.025 A 
ENDBRANCH   8  11
ENDBRANCH   6   8
ENDBRANCH   1   6
BRANCH   1  17
HETATM   17  C10 UNL     1      -4.678  -2.160  19.517  1.00  0.00     0.242 C 
HETATM   18  O4  UNL     1      -3.586  -1.625  19.270  1.00  0.00    -0.271 OA
HETATM   19  N3  UNL     1      -4.870  -3.533  19.310  1.00  0.00    -0.343 N 
ATOM     20  H3  UNL     1      -5.773  -3.965  19.503  1.00  0.00     0.164 HD
BRANCH  19  21
HETATM   21  C11 UNL     1      -3.761  -4.331  18.817  1.00  0.00     0.249 C 
BRANCH  21  22
HETATM   22  N4  UNL     1      -3.861  -4.478  17.361  1.00  0.00    -0.347 N 
HETATM   23  C12 UNL     1      -3.627  -5.785  16.848  1.00  0.00     0.209 C 
HETATM   24  N5  UNL     1      -2.417  -6.071  16.180  1.00  0.00    -0.062 NA
HETATM   25  N6  UNL     1      -4.522  -6.687  16.996  1.00  0.00    -0.228 N 
ATOM     26  H6  UNL     1      -5.377  -6.424  17.485  1.00  0.00     0.197 HD
ATOM     27  H4  UNL     1      -4.085  -3.691  16.753  1.00  0.00     0.163 HD
BRANCH  25  28
HETATM   28  O5  UNL     1      -4.424  -7.959  16.558  1.00  0.00    -0.181 OA
BRANCH  28  29
HETATM   29  C13 UNL     1      -5.457  -8.895  16.596  1.00  0.00     0.394 C 
HETATM   30  N7  UNL     1      -5.980  -9.491  15.417  1.00  0.00    -0.031 NA
HETATM   31  O6  UNL     1      -5.942  -9.222  17.692  1.00  0.00    -0.240 OA
ENDBRANCH  28  29
ENDBRANCH  25  28
ENDBRANCH  21  22
ENDBRANCH  19  21
ENDBRANCH   1  17
TORSDOF 10
ENDMDL
