MODEL 1
REMARK VINA RESULT: -7.553760626      0.000      0.000
REMARK  9 active torsions:
REMARK  status: ('A' for Active; 'I' for Inactive)
REMARK    1  A    between atoms: C2_2  and  C4_4 
REMARK    2  A    between atoms: C4_4  and  N1_5 
REMARK    3  A    between atoms: C4_4  and  C15_28 
REMARK       I    between atoms: N1_5  and  C5_7 
REMARK    4  A    between atoms: C5_7  and  C6_9 
REMARK    5  A    between atoms: C6_9  and  N2_10 
REMARK       I    between atoms: N2_10  and  C7_12 
REMARK    6  A    between atoms: C7_12  and  C8_14 
REMARK    7  A    between atoms: C8_14  and  C9_15 
REMARK    8  A    between atoms: C9_15  and  C10_16 
REMARK       I    between atoms: C10_16  and  N3_18 
REMARK       I    between atoms: N3_18  and  C11_20 
REMARK    9  A    between atoms: C15_28  and  C16_30 
ROOT
HETATM    1  C6  UNL     1      -6.128  -1.733  19.962  1.00  0.00     0.113 A 
HETATM    2  C12 UNL     1      -6.713  -2.295  21.242  1.00  0.00     0.041 A 
HETATM    3  C13 UNL     1      -8.087  -2.204  20.650  1.00  0.00     0.006 A 
HETATM    4  C14 UNL     1      -7.512  -1.547  19.417  1.00  0.00     0.041 A 
ENDROOT
BRANCH   1   5
HETATM    5  C5  UNL     1      -5.409  -0.473  20.292  1.00  0.00     0.246 C 
HETATM    6  N1  UNL     1      -6.016   0.766  20.430  1.00  0.00    -0.347 N 
ATOM      7  H1  UNL     1      -7.023   0.867  20.307  1.00  0.00     0.163 HD
HETATM    8  O1  UNL     1      -4.148  -0.568  20.454  1.00  0.00    -0.271 OA
BRANCH   6   9
HETATM    9  C4  UNL     1      -5.179   1.939  20.759  1.00  0.00     0.167 C 
BRANCH   9  10
HETATM   10  C2  UNL     1      -5.361   2.079  22.257  1.00  0.00     0.008 C 
HETATM   11  C1  UNL     1      -4.124   1.683  22.989  1.00  0.00     0.012 C 
HETATM   12  C3  UNL     1      -6.561   1.434  22.838  1.00  0.00     0.012 C 
ENDBRANCH   9  10
BRANCH   9  13
HETATM   13  C15 UNL     1      -5.611   3.100  19.982  1.00  0.00     0.236 C 
HETATM   14  O4  UNL     1      -6.797   3.069  19.490  1.00  0.00    -0.285 OA
BRANCH  13  15
HETATM   15  C16 UNL     1      -4.843   4.290  19.699  1.00  0.00     0.302 C 
HETATM   16  N6  UNL     1      -3.558   4.516  20.334  1.00  0.00    -0.054 NA
HETATM   17  O5  UNL     1      -5.175   5.213  18.917  1.00  0.00    -0.268 OA
ENDBRANCH  13  15
ENDBRANCH   9  13
ENDBRANCH   6   9
ENDBRANCH   1   5
BRANCH   1  18
HETATM   18  N2  UNL     1      -5.361  -2.715  19.246  1.00  0.00    -0.343 N 
HETATM   19  C7  UNL     1      -4.939  -2.593  17.895  1.00  0.00     0.219 C 
HETATM   20  O2  UNL     1      -5.266  -1.524  17.288  1.00  0.00    -0.274 OA
ATOM     21  H2  UNL     1      -5.100  -3.565  19.746  1.00  0.00     0.163 HD
BRANCH  19  22
HETATM   22  C8  UNL     1      -4.152  -3.678  17.238  1.00  0.00     0.112 C 
BRANCH  22  23
HETATM   23  C9  UNL     1      -3.270  -4.333  18.243  1.00  0.00     0.112 C 
BRANCH  23  24
HETATM   24  C10 UNL     1      -2.250  -5.235  17.657  1.00  0.00     0.224 C 
HETATM   25  O3  UNL     1      -2.326  -5.653  16.463  1.00  0.00    -0.273 OA
HETATM   26  N3  UNL     1      -1.161  -5.638  18.460  1.00  0.00    -0.301 N 
HETATM   27  C11 UNL     1      -0.178  -6.495  17.921  1.00  0.00     0.188 C 
ATOM     28  H3  UNL     1      -1.085  -5.312  19.424  1.00  0.00     0.171 HD
HETATM   29  N4  UNL     1       0.809  -6.861  18.653  1.00  0.00    -0.373 N 
HETATM   30  N5  UNL     1      -0.234  -6.972  16.594  1.00  0.00    -0.064 NA
ATOM     31  H42 UNL     1       0.849  -6.516  19.612  1.00  0.00     0.158 HD
ATOM     32  H41 UNL     1       1.520  -7.480  18.264  1.00  0.00     0.158 HD
ENDBRANCH  23  24
ENDBRANCH  22  23
ENDBRANCH  19  22
ENDBRANCH   1  18
TORSDOF 9
ENDMDL
MODEL 2
REMARK VINA RESULT: -7.471208686      1.836      8.285
REMARK  9 active torsions:
REMARK  status: ('A' for Active; 'I' for Inactive)
REMARK    1  A    between atoms: C2_2  and  C4_4 
REMARK    2  A    between atoms: C4_4  and  N1_5 
REMARK    3  A    between atoms: C4_4  and  C15_28 
REMARK       I    between atoms: N1_5  and  C5_7 
REMARK    4  A    between atoms: C5_7  and  C6_9 
REMARK    5  A    between atoms: C6_9  and  N2_10 
REMARK       I    between atoms: N2_10  and  C7_12 
REMARK    6  A    between atoms: C7_12  and  C8_14 
REMARK    7  A    between atoms: C8_14  and  C9_15 
REMARK    8  A    between atoms: C9_15  and  C10_16 
REMARK       I    between atoms: C10_16  and  N3_18 
REMARK       I    between atoms: N3_18  and  C11_20 
REMARK    9  A    between atoms: C15_28  and  C16_30 
ROOT
HETATM    1  C6  UNL     1      -6.095  -1.450  20.485  1.00  0.00     0.113 A 
HETATM    2  C12 UNL     1      -7.333  -1.631  19.629  1.00  0.00     0.041 A 
HETATM    3  C13 UNL     1      -7.967  -2.438  20.722  1.00  0.00     0.006 A 
HETATM    4  C14 UNL     1      -6.693  -2.344  21.530  1.00  0.00     0.041 A 
ENDROOT
BRANCH   1   5
HETATM    5  C5  UNL     1      -4.935  -2.027  19.755  1.00  0.00     0.246 C 
HETATM    6  N1  UNL     1      -4.923  -3.279  19.160  1.00  0.00    -0.347 N 
ATOM      7  H1  UNL     1      -5.746  -3.880  19.200  1.00  0.00     0.163 HD
HETATM    8  O1  UNL     1      -3.892  -1.298  19.686  1.00  0.00    -0.271 OA
BRANCH   6   9
HETATM    9  C4  UNL     1      -3.699  -3.729  18.466  1.00  0.00     0.167 C 
BRANCH   9  10
HETATM   10  C2  UNL     1      -3.979  -3.380  17.018  1.00  0.00     0.008 C 
HETATM   11  C1  UNL     1      -5.395  -2.952  16.832  1.00  0.00     0.012 C 
HETATM   12  C3  UNL     1      -3.583  -4.390  16.008  1.00  0.00     0.012 C 
ENDBRANCH   9  10
BRANCH   9  13
HETATM   13  C15 UNL     1      -3.472  -5.153  18.716  1.00  0.00     0.236 C 
HETATM   14  O4  UNL     1      -4.507  -5.911  18.775  1.00  0.00    -0.285 OA
BRANCH  13  15
HETATM   15  C16 UNL     1      -2.200  -5.807  18.911  1.00  0.00     0.302 C 
HETATM   16  N6  UNL     1      -2.131  -7.183  19.367  1.00  0.00    -0.054 NA
HETATM   17  O5  UNL     1      -1.070  -5.294  18.720  1.00  0.00    -0.268 OA
ENDBRANCH  13  15
ENDBRANCH   9  13
ENDBRANCH   6   9
ENDBRANCH   1   5
BRANCH   1  18
HETATM   18  N2  UNL     1      -5.939  -0.090  20.922  1.00  0.00    -0.343 N 
HETATM   19  C7  UNL     1      -6.408   0.428  22.159  1.00  0.00     0.219 C 
HETATM   20  O2  UNL     1      -7.004  -0.388  22.931  1.00  0.00    -0.274 OA
ATOM     21  H2  UNL     1      -5.454   0.553  20.296  1.00  0.00     0.163 HD
BRANCH  19  22
HETATM   22  C8  UNL     1      -6.203   1.863  22.515  1.00  0.00     0.112 C 
BRANCH  22  23
HETATM   23  C9  UNL     1      -4.755   2.198  22.425  1.00  0.00     0.112 C 
BRANCH  23  24
HETATM   24  C10 UNL     1      -4.441   3.275  21.458  1.00  0.00     0.224 C 
HETATM   25  O3  UNL     1      -3.309   3.844  21.428  1.00  0.00    -0.273 OA
HETATM   26  N3  UNL     1      -5.437   3.676  20.542  1.00  0.00    -0.301 N 
HETATM   27  C11 UNL     1      -5.158   4.698  19.611  1.00  0.00     0.188 C 
ATOM     28  H3  UNL     1      -6.354   3.228  20.553  1.00  0.00     0.171 HD
HETATM   29  N4  UNL     1      -6.066   5.061  18.782  1.00  0.00    -0.373 N 
HETATM   30  N5  UNL     1      -3.905   5.347  19.552  1.00  0.00    -0.064 NA
ATOM     31  H42 UNL     1      -6.970   4.592  18.825  1.00  0.00     0.158 HD
ATOM     32  H41 UNL     1      -5.864   5.800  18.109  1.00  0.00     0.158 HD
ENDBRANCH  23  24
ENDBRANCH  22  23
ENDBRANCH  19  22
ENDBRANCH   1  18
TORSDOF 9
ENDMDL
MODEL 3
REMARK VINA RESULT: -7.414697176      1.826      2.060
REMARK  9 active torsions:
REMARK  status: ('A' for Active; 'I' for Inactive)
REMARK    1  A    between atoms: C2_2  and  C4_4 
REMARK    2  A    between atoms: C4_4  and  N1_5 
REMARK    3  A    between atoms: C4_4  and  C15_28 
REMARK       I    between atoms: N1_5  and  C5_7 
REMARK    4  A    between atoms: C5_7  and  C6_9 
REMARK    5  A    between atoms: C6_9  and  N2_10 
REMARK       I    between atoms: N2_10  and  C7_12 
REMARK    6  A    between atoms: C7_12  and  C8_14 
REMARK    7  A    between atoms: C8_14  and  C9_15 
REMARK    8  A    between atoms: C9_15  and  C10_16 
REMARK       I    between atoms: C10_16  and  N3_18 
REMARK       I    between atoms: N3_18  and  C11_20 
REMARK    9  A    between atoms: C15_28  and  C16_30 
ROOT
HETATM    1  C6  UNL     1      -6.347  -1.502  19.604  1.00  0.00     0.113 A 
HETATM    2  C12 UNL     1      -6.455  -2.529  20.713  1.00  0.00     0.041 A 
HETATM    3  C13 UNL     1      -7.949  -2.401  20.680  1.00  0.00     0.006 A 
HETATM    4  C14 UNL     1      -7.832  -1.303  19.650  1.00  0.00     0.041 A 
ENDROOT
BRANCH   1   5
HETATM    5  C5  UNL     1      -5.544  -0.355  20.108  1.00  0.00     0.246 C 
HETATM    6  N1  UNL     1      -6.040   0.925  20.308  1.00  0.00    -0.347 N 
ATOM      7  H1  UNL     1      -7.017   1.140  20.111  1.00  0.00     0.163 HD
HETATM    8  O1  UNL     1      -4.319  -0.593  20.366  1.00  0.00    -0.271 OA
BRANCH   6   9
HETATM    9  C4  UNL     1      -5.128   1.973  20.813  1.00  0.00     0.167 C 
BRANCH   9  10
HETATM   10  C2  UNL     1      -5.445   2.015  22.295  1.00  0.00     0.008 C 
HETATM   11  C1  UNL     1      -4.282   1.557  23.107  1.00  0.00     0.012 C 
HETATM   12  C3  UNL     1      -6.697   1.349  22.720  1.00  0.00     0.012 C 
ENDBRANCH   9  10
BRANCH   9  13
HETATM   13  C15 UNL     1      -5.365   3.230  20.104  1.00  0.00     0.236 C 
HETATM   14  O4  UNL     1      -6.447   3.324  19.418  1.00  0.00    -0.285 OA
BRANCH  13  15
HETATM   15  C16 UNL     1      -4.505   4.391  20.086  1.00  0.00     0.302 C 
HETATM   16  N6  UNL     1      -3.443   4.547  21.061  1.00  0.00    -0.054 NA
HETATM   17  O5  UNL     1      -4.571   5.344  19.272  1.00  0.00    -0.268 OA
ENDBRANCH  13  15
ENDBRANCH   9  13
ENDBRANCH   6   9
ENDBRANCH   1   5
BRANCH   1  18
HETATM   18  N2  UNL     1      -5.888  -2.086  18.374  1.00  0.00    -0.343 N 
HETATM   19  C7  UNL     1      -4.964  -3.161  18.277  1.00  0.00     0.219 C 
HETATM   20  O2  UNL     1      -4.524  -3.636  19.371  1.00  0.00    -0.274 OA
ATOM     21  H2  UNL     1      -6.254  -1.699  17.504  1.00  0.00     0.163 HD
BRANCH  19  22
HETATM   22  C8  UNL     1      -4.543  -3.691  16.946  1.00  0.00     0.112 C 
BRANCH  22  23
HETATM   23  C9  UNL     1      -3.301  -4.497  17.101  1.00  0.00     0.112 C 
BRANCH  23  24
HETATM   24  C10 UNL     1      -3.507  -5.959  16.964  1.00  0.00     0.224 C 
HETATM   25  O3  UNL     1      -2.857  -6.656  16.130  1.00  0.00    -0.273 OA
HETATM   26  N3  UNL     1      -4.460  -6.589  17.793  1.00  0.00    -0.301 N 
HETATM   27  C11 UNL     1      -4.671  -7.979  17.681  1.00  0.00     0.188 C 
ATOM     28  H3  UNL     1      -4.994  -6.042  18.470  1.00  0.00     0.171 HD
HETATM   29  N4  UNL     1      -5.538  -8.549  18.435  1.00  0.00    -0.373 N 
HETATM   30  N5  UNL     1      -3.958  -8.782  16.764  1.00  0.00    -0.064 NA
ATOM     31  H42 UNL     1      -6.053  -7.969  19.097  1.00  0.00     0.158 HD
ATOM     32  H41 UNL     1      -5.690  -9.553  18.354  1.00  0.00     0.158 HD
ENDBRANCH  23  24
ENDBRANCH  22  23
ENDBRANCH  19  22
ENDBRANCH   1  18
TORSDOF 9
ENDMDL
MODEL 4
REMARK VINA RESULT: -7.401555838      3.664      9.805
REMARK  9 active torsions:
REMARK  status: ('A' for Active; 'I' for Inactive)
REMARK    1  A    between atoms: C2_2  and  C4_4 
REMARK    2  A    between atoms: C4_4  and  N1_5 
REMARK    3  A    between atoms: C4_4  and  C15_28 
REMARK       I    between atoms: N1_5  and  C5_7 
REMARK    4  A    between atoms: C5_7  and  C6_9 
REMARK    5  A    between atoms: C6_9  and  N2_10 
REMARK       I    between atoms: N2_10  and  C7_12 
REMARK    6  A    between atoms: C7_12  and  C8_14 
REMARK    7  A    between atoms: C8_14  and  C9_15 
REMARK    8  A    between atoms: C9_15  and  C10_16 
REMARK       I    between atoms: C10_16  and  N3_18 
REMARK       I    between atoms: N3_18  and  C11_20 
REMARK    9  A    between atoms: C15_28  and  C16_30 
ROOT
HETATM    1  C6  UNL     1      -3.224  -5.717  18.218  1.00  0.00     0.113 A 
HETATM    2  C12 UNL     1      -2.406  -6.346  19.328  1.00  0.00     0.041 A 
HETATM    3  C13 UNL     1      -1.167  -5.714  18.769  1.00  0.00     0.006 A 
HETATM    4  C14 UNL     1      -1.967  -5.175  17.606  1.00  0.00     0.041 A 
ENDROOT
BRANCH   1   5
HETATM    5  C5  UNL     1      -3.878  -6.807  17.445  1.00  0.00     0.246 C 
HETATM    6  N1  UNL     1      -4.581  -7.861  18.010  1.00  0.00    -0.347 N 
ATOM      7  H1  UNL     1      -4.683  -7.932  19.022  1.00  0.00     0.163 HD
HETATM    8  O1  UNL     1      -3.769  -6.744  16.177  1.00  0.00    -0.271 OA
BRANCH   6   9
HETATM    9  C4  UNL     1      -5.180  -8.878  17.122  1.00  0.00     0.167 C 
BRANCH   9  10
HETATM   10  C2  UNL     1      -6.449  -9.266  17.854  1.00  0.00     0.008 C 
HETATM   11  C1  UNL     1      -7.656  -8.962  17.035  1.00  0.00     0.012 C 
HETATM   12  C3  UNL     1      -6.592  -8.757  19.238  1.00  0.00     0.012 C 
ENDBRANCH   9  10
BRANCH   9  13
HETATM   13  C15 UNL     1      -4.239  -9.978  16.910  1.00  0.00     0.236 C 
HETATM   14  O4  UNL     1      -3.862 -10.205  15.703  1.00  0.00    -0.285 OA
BRANCH  13  15
HETATM   15  C16 UNL     1      -3.682 -10.850  17.918  1.00  0.00     0.302 C 
HETATM   16  N6  UNL     1      -3.068 -10.308  19.115  1.00  0.00    -0.054 NA
HETATM   17  O5  UNL     1      -3.667 -12.104  17.880  1.00  0.00    -0.268 OA
ENDBRANCH  13  15
ENDBRANCH   9  13
ENDBRANCH   6   9
ENDBRANCH   1   5
BRANCH   1  18
HETATM   18  N2  UNL     1      -4.103  -4.694  18.712  1.00  0.00    -0.343 N 
HETATM   19  C7  UNL     1      -4.561  -3.579  17.960  1.00  0.00     0.219 C 
HETATM   20  O2  UNL     1      -4.159  -3.497  16.756  1.00  0.00    -0.274 OA
ATOM     21  H2  UNL     1      -4.424  -4.775  19.677  1.00  0.00     0.163 HD
BRANCH  19  22
HETATM   22  C8  UNL     1      -5.469  -2.564  18.572  1.00  0.00     0.112 C 
BRANCH  22  23
HETATM   23  C9  UNL     1      -4.681  -1.655  19.449  1.00  0.00     0.112 C 
BRANCH  23  24
HETATM   24  C10 UNL     1      -5.458  -1.066  20.565  1.00  0.00     0.224 C 
HETATM   25  O3  UNL     1      -5.111   0.012  21.133  1.00  0.00    -0.273 OA
HETATM   26  N3  UNL     1      -6.621  -1.733  21.007  1.00  0.00    -0.301 N 
HETATM   27  C11 UNL     1      -7.377  -1.188  22.067  1.00  0.00     0.188 C 
ATOM     28  H3  UNL     1      -6.914  -2.603  20.562  1.00  0.00     0.171 HD
HETATM   29  N4  UNL     1      -8.432  -1.797  22.466  1.00  0.00    -0.373 N 
HETATM   30  N5  UNL     1      -7.016   0.013  22.714  1.00  0.00    -0.064 NA
ATOM     31  H42 UNL     1      -8.692  -2.665  21.998  1.00  0.00     0.158 HD
ATOM     32  H41 UNL     1      -8.978  -1.404  23.232  1.00  0.00     0.158 HD
ENDBRANCH  23  24
ENDBRANCH  22  23
ENDBRANCH  19  22
ENDBRANCH   1  18
TORSDOF 9
ENDMDL
MODEL 5
REMARK VINA RESULT: -7.237286522      1.827      2.966
REMARK  9 active torsions:
REMARK  status: ('A' for Active; 'I' for Inactive)
REMARK    1  A    between atoms: C2_2  and  C4_4 
REMARK    2  A    between atoms: C4_4  and  N1_5 
REMARK    3  A    between atoms: C4_4  and  C15_28 
REMARK       I    between atoms: N1_5  and  C5_7 
REMARK    4  A    between atoms: C5_7  and  C6_9 
REMARK    5  A    between atoms: C6_9  and  N2_10 
REMARK       I    between atoms: N2_10  and  C7_12 
REMARK    6  A    between atoms: C7_12  and  C8_14 
REMARK    7  A    between atoms: C8_14  and  C9_15 
REMARK    8  A    between atoms: C9_15  and  C10_16 
REMARK       I    between atoms: C10_16  and  N3_18 
REMARK       I    between atoms: N3_18  and  C11_20 
REMARK    9  A    between atoms: C15_28  and  C16_30 
ROOT
HETATM    1  C6  UNL     1      -4.562  -2.185  18.488  1.00  0.00     0.113 A 
HETATM    2  C12 UNL     1      -5.684  -2.957  17.823  1.00  0.00     0.041 A 
HETATM    3  C13 UNL     1      -5.684  -1.974  16.690  1.00  0.00     0.006 A 
HETATM    4  C14 UNL     1      -4.640  -1.150  17.406  1.00  0.00     0.041 A 
ENDROOT
BRANCH   1   5
HETATM    5  C5  UNL     1      -5.037  -1.733  19.824  1.00  0.00     0.246 C 
HETATM    6  N1  UNL     1      -5.305  -0.414  20.159  1.00  0.00    -0.347 N 
ATOM      7  H1  UNL     1      -5.184   0.330  19.473  1.00  0.00     0.163 HD
HETATM    8  O1  UNL     1      -5.199  -2.642  20.703  1.00  0.00    -0.271 OA
BRANCH   6   9
HETATM    9  C4  UNL     1      -5.770  -0.105  21.528  1.00  0.00     0.167 C 
BRANCH   9  10
HETATM   10  C2  UNL     1      -7.277  -0.069  21.376  1.00  0.00     0.008 C 
HETATM   11  C1  UNL     1      -7.946  -0.833  22.467  1.00  0.00     0.012 C 
HETATM   12  C3  UNL     1      -7.815  -0.443  20.047  1.00  0.00     0.012 C 
ENDBRANCH   9  10
BRANCH   9  13
HETATM   13  C15 UNL     1      -5.174   1.148  21.991  1.00  0.00     0.236 C 
HETATM   14  O4  UNL     1      -4.721   1.175  23.192  1.00  0.00    -0.285 OA
BRANCH  13  15
HETATM   15  C16 UNL     1      -5.041   2.374  21.240  1.00  0.00     0.302 C 
HETATM   16  N6  UNL     1      -4.174   3.441  21.702  1.00  0.00    -0.054 NA
HETATM   17  O5  UNL     1      -5.624   2.646  20.162  1.00  0.00    -0.268 OA
ENDBRANCH  13  15
ENDBRANCH   9  13
ENDBRANCH   6   9
ENDBRANCH   1   5
BRANCH   1  18
HETATM   18  N2  UNL     1      -3.329  -2.921  18.485  1.00  0.00    -0.343 N 
HETATM   19  C7  UNL     1      -3.225  -4.338  18.465  1.00  0.00     0.219 C 
HETATM   20  O2  UNL     1      -4.316  -4.991  18.442  1.00  0.00    -0.274 OA
ATOM     21  H2  UNL     1      -2.461  -2.386  18.498  1.00  0.00     0.163 HD
BRANCH  19  22
HETATM   22  C8  UNL     1      -1.891  -5.008  18.474  1.00  0.00     0.112 C 
BRANCH  22  23
HETATM   23  C9  UNL     1      -2.071  -6.481  18.348  1.00  0.00     0.112 C 
BRANCH  23  24
HETATM   24  C10 UNL     1      -1.647  -7.034  17.041  1.00  0.00     0.224 C 
HETATM   25  O3  UNL     1      -2.430  -7.709  16.309  1.00  0.00    -0.273 OA
HETATM   26  N3  UNL     1      -0.326  -6.797  16.601  1.00  0.00    -0.301 N 
HETATM   27  C11 UNL     1       0.098  -7.313  15.358  1.00  0.00     0.188 C 
ATOM     28  H3  UNL     1       0.318  -6.256  17.179  1.00  0.00     0.171 HD
HETATM   29  N4  UNL     1       1.298  -7.098  14.963  1.00  0.00    -0.373 N 
HETATM   30  N5  UNL     1      -0.754  -8.065  14.520  1.00  0.00    -0.064 NA
ATOM     31  H42 UNL     1       1.913  -6.554  15.568  1.00  0.00     0.158 HD
ATOM     32  H41 UNL     1       1.604  -7.470  14.065  1.00  0.00     0.158 HD
ENDBRANCH  23  24
ENDBRANCH  22  23
ENDBRANCH  19  22
ENDBRANCH   1  18
TORSDOF 9
ENDMDL
