MODEL 1
REMARK VINA RESULT: -8.121546628      0.000      0.000
REMARK  9 active torsions:
REMARK  status: ('A' for Active; 'I' for Inactive)
REMARK    1  A    between atoms: C3_3  and  C4_5 
REMARK    2  A    between atoms: C4_5  and  C5_6 
REMARK    3  A    between atoms: C4_5  and  C13_21 
REMARK       I    between atoms: C5_6  and  N1_8 
REMARK    4  A    between atoms: N1_8  and  C6_10 
REMARK    5  A    between atoms: C10_14  and  C11_15 
REMARK    6  A    between atoms: C13_21  and  N4_22 
REMARK    7  A    between atoms: C13_21  and  C14_30 
REMARK    8  A    between atoms: N4_22  and  S1_24 
REMARK    9  A    between atoms: S1_24  and  N5_25 
ROOT
HETATM    1  C1  UNL     1      -8.464  -2.668  21.493  1.00  0.00     0.021 C 
HETATM    2  C2  UNL     1      -7.817  -1.709  21.150  1.00  0.00    -0.039 C 
HETATM    3  C3  UNL     1      -7.039  -0.561  20.713  1.00  0.00     0.217 C 
HETATM    4  O1  UNL     1      -7.675   0.425  20.318  1.00  0.00    -0.282 OA
ENDROOT
BRANCH   3   5
HETATM    5  C4  UNL     1      -5.570  -0.591  20.749  1.00  0.00     0.193 C 
BRANCH   5   6
HETATM    6  C5  UNL     1      -4.961  -1.296  19.586  1.00  0.00     0.237 C 
HETATM    7  O2  UNL     1      -4.793  -0.652  18.523  1.00  0.00    -0.272 OA
HETATM    8  N1  UNL     1      -4.578  -2.634  19.649  1.00  0.00    -0.326 N 
ATOM      9  H1  UNL     1      -4.746  -3.089  20.546  1.00  0.00     0.169 HD
BRANCH   8  10
HETATM   10  C6  UNL     1      -3.999  -3.447  18.671  1.00  0.00     0.035 A 
HETATM   11  C7  UNL     1      -4.578  -3.531  17.386  1.00  0.00     0.029 A 
HETATM   12  C8  UNL     1      -4.054  -4.325  16.396  1.00  0.00     0.003 A 
HETATM   13  C9  UNL     1      -2.942  -5.072  16.625  1.00  0.00     0.015 A 
HETATM   14  C10 UNL     1      -2.338  -5.031  17.853  1.00  0.00     0.007 A 
HETATM   15  C12 UNL     1      -2.887  -4.217  18.843  1.00  0.00     0.044 A 
BRANCH  14  16
HETATM   16  C11 UNL     1      -1.139  -5.826  18.126  1.00  0.00     0.120 C 
HETATM   17  N2  UNL     1      -0.524  -5.650  19.229  1.00  0.00    -0.387 N 
ATOM     18  H22 UNL     1      -0.859  -4.967  19.909  1.00  0.00     0.157 HD
ATOM     19  H21 UNL     1       0.311  -6.203  19.420  1.00  0.00     0.157 HD
HETATM   20  N3  UNL     1      -0.677  -6.766  17.188  1.00  0.00    -0.082 NA
ENDBRANCH  14  16
ENDBRANCH   8  10
ENDBRANCH   5   6
BRANCH   5  21
HETATM   21  C13 UNL     1      -4.929   0.714  21.102  1.00  0.00     0.204 C 
BRANCH  21  22
HETATM   22  N4  UNL     1      -5.459   1.846  20.442  1.00  0.00    -0.288 N 
ATOM     23  H4  UNL     1      -6.176   1.758  19.722  1.00  0.00     0.174 HD
BRANCH  22  24
HETATM   24  S1  UNL     1      -4.845   3.359  20.903  1.00  0.00     0.313 S 
HETATM   25  O3  UNL     1      -4.985   4.291  19.706  1.00  0.00    -0.183 OA
HETATM   26  O4  UNL     1      -5.614   4.005  22.015  1.00  0.00    -0.183 OA
BRANCH  24  27
HETATM   27  N5  UNL     1      -3.187   3.346  21.369  1.00  0.00    -0.312 N 
ATOM     28  H52 UNL     1      -2.659   2.478  21.456  1.00  0.00     0.170 HD
ATOM     29  H51 UNL     1      -2.790   4.269  21.547  1.00  0.00     0.170 HD
ENDBRANCH  24  27
ENDBRANCH  22  24
ENDBRANCH  21  22
BRANCH  21  30
HETATM   30  C14 UNL     1      -5.167   0.859  22.589  1.00  0.00     0.255 C 
HETATM   31  N6  UNL     1      -4.144   1.250  23.480  1.00  0.00    -0.060 NA
HETATM   32  O5  UNL     1      -6.310   0.621  23.016  1.00  0.00    -0.275 OA
ENDBRANCH  21  30
ENDBRANCH   5  21
ENDBRANCH   3   5
TORSDOF 9
ENDMDL
MODEL 2
REMARK VINA RESULT: -8.037840232      1.156      1.318
REMARK  9 active torsions:
REMARK  status: ('A' for Active; 'I' for Inactive)
REMARK    1  A    between atoms: C3_3  and  C4_5 
REMARK    2  A    between atoms: C4_5  and  C5_6 
REMARK    3  A    between atoms: C4_5  and  C13_21 
REMARK       I    between atoms: C5_6  and  N1_8 
REMARK    4  A    between atoms: N1_8  and  C6_10 
REMARK    5  A    between atoms: C10_14  and  C11_15 
REMARK    6  A    between atoms: C13_21  and  N4_22 
REMARK    7  A    between atoms: C13_21  and  C14_30 
REMARK    8  A    between atoms: N4_22  and  S1_24 
REMARK    9  A    between atoms: S1_24  and  N5_25 
ROOT
HETATM    1  C1  UNL     1      -8.257  -2.202  21.906  1.00  0.00     0.021 C 
HETATM    2  C2  UNL     1      -7.799  -1.141  21.561  1.00  0.00    -0.039 C 
HETATM    3  C3  UNL     1      -7.253   0.133  21.121  1.00  0.00     0.217 C 
HETATM    4  O1  UNL     1      -8.059   1.061  20.967  1.00  0.00    -0.282 OA
ENDROOT
BRANCH   3   5
HETATM    5  C4  UNL     1      -5.812   0.290  20.878  1.00  0.00     0.193 C 
BRANCH   5   6
HETATM    6  C5  UNL     1      -5.313  -0.507  19.722  1.00  0.00     0.237 C 
HETATM    7  O2  UNL     1      -5.215   0.061  18.609  1.00  0.00    -0.272 OA
HETATM    8  N1  UNL     1      -4.959  -1.849  19.845  1.00  0.00    -0.326 N 
ATOM      9  H1  UNL     1      -5.067  -2.240  20.781  1.00  0.00     0.169 HD
BRANCH   8  10
HETATM   10  C6  UNL     1      -4.479  -2.741  18.883  1.00  0.00     0.035 A 
HETATM   11  C7  UNL     1      -4.884  -2.616  17.536  1.00  0.00     0.029 A 
HETATM   12  C8  UNL     1      -4.450  -3.475  16.556  1.00  0.00     0.003 A 
HETATM   13  C9  UNL     1      -3.602  -4.493  16.857  1.00  0.00     0.015 A 
HETATM   14  C10 UNL     1      -3.176  -4.664  18.146  1.00  0.00     0.007 A 
HETATM   15  C12 UNL     1      -3.629  -3.780  19.125  1.00  0.00     0.044 A 
BRANCH  14  16
HETATM   16  C11 UNL     1      -2.262  -5.753  18.496  1.00  0.00     0.120 C 
HETATM   17  N2  UNL     1      -1.037  -5.478  18.719  1.00  0.00    -0.387 N 
ATOM     18  H22 UNL     1      -0.697  -4.519  18.653  1.00  0.00     0.157 HD
ATOM     19  H21 UNL     1      -0.400  -6.237  18.963  1.00  0.00     0.157 HD
HETATM   20  N3  UNL     1      -2.730  -7.076  18.586  1.00  0.00    -0.082 NA
ENDBRANCH  14  16
ENDBRANCH   8  10
ENDBRANCH   5   6
BRANCH   5  21
HETATM   21  C13 UNL     1      -5.322   1.702  20.929  1.00  0.00     0.204 C 
BRANCH  21  22
HETATM   22  N4  UNL     1      -6.167   2.658  20.320  1.00  0.00    -0.288 N 
ATOM     23  H4  UNL     1      -7.168   2.494  20.213  1.00  0.00     0.174 HD
BRANCH  22  24
HETATM   24  S1  UNL     1      -5.439   4.090  19.777  1.00  0.00     0.313 S 
HETATM   25  O3  UNL     1      -4.624   3.745  18.538  1.00  0.00    -0.183 OA
HETATM   26  O4  UNL     1      -6.421   5.135  19.342  1.00  0.00    -0.183 OA
BRANCH  24  27
HETATM   27  N5  UNL     1      -4.378   4.829  20.915  1.00  0.00    -0.312 N 
ATOM     28  H52 UNL     1      -3.525   4.369  21.233  1.00  0.00     0.170 HD
ATOM     29  H51 UNL     1      -4.676   5.750  21.235  1.00  0.00     0.170 HD
ENDBRANCH  24  27
ENDBRANCH  22  24
ENDBRANCH  21  22
BRANCH  21  30
HETATM   30  C14 UNL     1      -5.219   2.011  22.406  1.00  0.00     0.255 C 
HETATM   31  N6  UNL     1      -4.344   1.307  23.262  1.00  0.00    -0.060 NA
HETATM   32  O5  UNL     1      -5.938   2.919  22.858  1.00  0.00    -0.275 OA
ENDBRANCH  21  30
ENDBRANCH   5  21
ENDBRANCH   3   5
TORSDOF 9
ENDMDL
MODEL 3
REMARK VINA RESULT: -7.467911006      5.025      8.984
REMARK  9 active torsions:
REMARK  status: ('A' for Active; 'I' for Inactive)
REMARK    1  A    between atoms: C3_3  and  C4_5 
REMARK    2  A    between atoms: C4_5  and  C5_6 
REMARK    3  A    between atoms: C4_5  and  C13_21 
REMARK       I    between atoms: C5_6  and  N1_8 
REMARK    4  A    between atoms: N1_8  and  C6_10 
REMARK    5  A    between atoms: C10_14  and  C11_15 
REMARK    6  A    between atoms: C13_21  and  N4_22 
REMARK    7  A    between atoms: C13_21  and  C14_30 
REMARK    8  A    between atoms: N4_22  and  S1_24 
REMARK    9  A    between atoms: S1_24  and  N5_25 
ROOT
HETATM    1  C1  UNL     1      -0.158  -7.511  15.097  1.00  0.00     0.021 C 
HETATM    2  C2  UNL     1      -1.095  -7.414  15.850  1.00  0.00    -0.039 C 
HETATM    3  C3  UNL     1      -2.230  -7.272  16.748  1.00  0.00     0.217 C 
HETATM    4  O1  UNL     1      -3.345  -7.545  16.284  1.00  0.00    -0.282 OA
ENDROOT
BRANCH   3   5
HETATM    5  C4  UNL     1      -2.039  -6.828  18.136  1.00  0.00     0.193 C 
BRANCH   5   6
HETATM    6  C5  UNL     1      -2.503  -5.434  18.385  1.00  0.00     0.237 C 
HETATM    7  O2  UNL     1      -1.678  -4.605  18.835  1.00  0.00    -0.272 OA
HETATM    8  N1  UNL     1      -3.815  -5.035  18.134  1.00  0.00    -0.326 N 
ATOM      9  H1  UNL     1      -4.426  -5.766  17.769  1.00  0.00     0.169 HD
BRANCH   8  10
HETATM   10  C6  UNL     1      -4.420  -3.788  18.305  1.00  0.00     0.035 A 
HETATM   11  C7  UNL     1      -4.199  -2.758  17.364  1.00  0.00     0.029 A 
HETATM   12  C8  UNL     1      -4.760  -1.511  17.494  1.00  0.00     0.003 A 
HETATM   13  C9  UNL     1      -5.560  -1.222  18.554  1.00  0.00     0.015 A 
HETATM   14  C10 UNL     1      -5.809  -2.181  19.498  1.00  0.00     0.007 A 
HETATM   15  C12 UNL     1      -5.229  -3.439  19.346  1.00  0.00     0.044 A 
BRANCH  14  16
HETATM   16  C11 UNL     1      -6.667  -1.894  20.650  1.00  0.00     0.120 C 
HETATM   17  N2  UNL     1      -7.933  -1.965  20.505  1.00  0.00    -0.387 N 
ATOM     18  H22 UNL     1      -8.341  -2.215  19.604  1.00  0.00     0.157 HD
ATOM     19  H21 UNL     1      -8.531  -1.766  21.307  1.00  0.00     0.157 HD
HETATM   20  N3  UNL     1      -6.104  -1.549  21.891  1.00  0.00    -0.082 NA
ENDBRANCH  14  16
ENDBRANCH   8  10
ENDBRANCH   5   6
BRANCH   5  21
HETATM   21  C13 UNL     1      -2.453  -7.825  19.172  1.00  0.00     0.204 C 
BRANCH  21  22
HETATM   22  N4  UNL     1      -2.796  -9.103  18.677  1.00  0.00    -0.288 N 
ATOM     23  H4  UNL     1      -2.151  -9.644  18.102  1.00  0.00     0.174 HD
BRANCH  22  24
HETATM   24  S1  UNL     1      -4.333  -9.696  19.084  1.00  0.00     0.313 S 
HETATM   25  O3  UNL     1      -5.334  -8.577  18.834  1.00  0.00    -0.183 OA
HETATM   26  O4  UNL     1      -4.780 -10.843  18.230  1.00  0.00    -0.183 OA
BRANCH  24  27
HETATM   27  N5  UNL     1      -4.496 -10.190  20.726  1.00  0.00    -0.312 N 
ATOM     28  H52 UNL     1      -5.395 -10.169  21.208  1.00  0.00     0.170 HD
ATOM     29  H51 UNL     1      -3.628 -10.498  21.164  1.00  0.00     0.170 HD
ENDBRANCH  24  27
ENDBRANCH  22  24
ENDBRANCH  21  22
BRANCH  21  30
HETATM   30  C14 UNL     1      -1.244  -7.957  20.071  1.00  0.00     0.255 C 
HETATM   31  N6  UNL     1      -1.104  -7.205  21.258  1.00  0.00    -0.060 NA
HETATM   32  O5  UNL     1      -0.358  -8.760  19.733  1.00  0.00    -0.275 OA
ENDBRANCH  21  30
ENDBRANCH   5  21
ENDBRANCH   3   5
TORSDOF 9
ENDMDL
MODEL 4
REMARK VINA RESULT: -7.371446847      5.369      9.044
REMARK  9 active torsions:
REMARK  status: ('A' for Active; 'I' for Inactive)
REMARK    1  A    between atoms: C3_3  and  C4_5 
REMARK    2  A    between atoms: C4_5  and  C5_6 
REMARK    3  A    between atoms: C4_5  and  C13_21 
REMARK       I    between atoms: C5_6  and  N1_8 
REMARK    4  A    between atoms: N1_8  and  C6_10 
REMARK    5  A    between atoms: C10_14  and  C11_15 
REMARK    6  A    between atoms: C13_21  and  N4_22 
REMARK    7  A    between atoms: C13_21  and  C14_30 
REMARK    8  A    between atoms: N4_22  and  S1_24 
REMARK    9  A    between atoms: S1_24  and  N5_25 
ROOT
HETATM    1  C1  UNL     1      -0.061  -7.100  21.870  1.00  0.00     0.021 C 
HETATM    2  C2  UNL     1      -0.465  -6.886  20.754  1.00  0.00    -0.039 C 
HETATM    3  C3  UNL     1      -0.965  -6.606  19.417  1.00  0.00     0.217 C 
HETATM    4  O1  UNL     1      -0.322  -5.793  18.741  1.00  0.00    -0.282 OA
ENDROOT
BRANCH   3   5
HETATM    5  C4  UNL     1      -2.176  -7.270  18.914  1.00  0.00     0.193 C 
BRANCH   5   6
HETATM    6  C5  UNL     1      -3.255  -6.321  18.519  1.00  0.00     0.237 C 
HETATM    7  O2  UNL     1      -4.245  -6.773  17.897  1.00  0.00    -0.272 OA
HETATM    8  N1  UNL     1      -3.192  -4.962  18.821  1.00  0.00    -0.326 N 
ATOM      9  H1  UNL     1      -2.357  -4.670  19.329  1.00  0.00     0.169 HD
BRANCH   8  10
HETATM   10  C6  UNL     1      -4.098  -3.938  18.533  1.00  0.00     0.035 A 
HETATM   11  C7  UNL     1      -4.191  -3.421  17.223  1.00  0.00     0.029 A 
HETATM   12  C8  UNL     1      -5.056  -2.407  16.893  1.00  0.00     0.003 A 
HETATM   13  C9  UNL     1      -5.865  -1.856  17.836  1.00  0.00     0.015 A 
HETATM   14  C10 UNL     1      -5.819  -2.316  19.124  1.00  0.00     0.007 A 
HETATM   15  C12 UNL     1      -4.933  -3.347  19.436  1.00  0.00     0.044 A 
BRANCH  14  16
HETATM   16  C11 UNL     1      -6.679  -1.740  20.159  1.00  0.00     0.120 C 
HETATM   17  N2  UNL     1      -7.900  -1.501  19.878  1.00  0.00    -0.387 N 
ATOM     18  H22 UNL     1      -8.272  -1.705  18.950  1.00  0.00     0.157 HD
ATOM     19  H21 UNL     1      -8.500  -1.099  20.598  1.00  0.00     0.157 HD
HETATM   20  N3  UNL     1      -6.168  -1.457  21.437  1.00  0.00    -0.082 NA
ENDBRANCH  14  16
ENDBRANCH   8  10
ENDBRANCH   5   6
BRANCH   5  21
HETATM   21  C13 UNL     1      -1.921  -8.376  17.939  1.00  0.00     0.204 C 
BRANCH  21  22
HETATM   22  N4  UNL     1      -0.684  -8.308  17.259  1.00  0.00    -0.288 N 
ATOM     23  H4  UNL     1       0.186  -8.598  17.704  1.00  0.00     0.174 HD
BRANCH  22  24
HETATM   24  S1  UNL     1      -0.714  -7.722  15.668  1.00  0.00     0.313 S 
HETATM   25  O3  UNL     1      -1.184  -8.860  14.772  1.00  0.00    -0.183 OA
HETATM   26  O4  UNL     1      -1.692  -6.606  15.457  1.00  0.00    -0.183 OA
BRANCH  24  27
HETATM   27  N5  UNL     1       0.811  -7.182  15.076  1.00  0.00    -0.312 N 
ATOM     28  H52 UNL     1       1.397  -6.537  15.606  1.00  0.00     0.170 HD
ATOM     29  H51 UNL     1       1.069  -7.559  14.164  1.00  0.00     0.170 HD
ENDBRANCH  24  27
ENDBRANCH  22  24
ENDBRANCH  21  22
BRANCH  21  30
HETATM   30  C14 UNL     1      -1.949  -9.632  18.780  1.00  0.00     0.255 C 
HETATM   31  N6  UNL     1      -2.917  -9.842  19.787  1.00  0.00    -0.060 NA
HETATM   32  O5  UNL     1      -1.081 -10.494  18.559  1.00  0.00    -0.275 OA
ENDBRANCH  21  30
ENDBRANCH   5  21
ENDBRANCH   3   5
TORSDOF 9
ENDMDL
MODEL 5
REMARK VINA RESULT: -7.361236041      5.373      9.286
REMARK  9 active torsions:
REMARK  status: ('A' for Active; 'I' for Inactive)
REMARK    1  A    between atoms: C3_3  and  C4_5 
REMARK    2  A    between atoms: C4_5  and  C5_6 
REMARK    3  A    between atoms: C4_5  and  C13_21 
REMARK       I    between atoms: C5_6  and  N1_8 
REMARK    4  A    between atoms: N1_8  and  C6_10 
REMARK    5  A    between atoms: C10_14  and  C11_15 
REMARK    6  A    between atoms: C13_21  and  N4_22 
REMARK    7  A    between atoms: C13_21  and  C14_30 
REMARK    8  A    between atoms: N4_22  and  S1_24 
REMARK    9  A    between atoms: S1_24  and  N5_25 
ROOT
HETATM    1  C1  UNL     1      -0.597  -7.621  21.587  1.00  0.00     0.021 C 
HETATM    2  C2  UNL     1      -0.815  -7.124  20.510  1.00  0.00    -0.039 C 
HETATM    3  C3  UNL     1      -1.092  -6.506  19.223  1.00  0.00     0.217 C 
HETATM    4  O1  UNL     1      -0.396  -5.531  18.911  1.00  0.00    -0.282 OA
ENDROOT
BRANCH   3   5
HETATM    5  C4  UNL     1      -2.151  -7.032  18.350  1.00  0.00     0.193 C 
BRANCH   5   6
HETATM    6  C5  UNL     1      -3.289  -6.088  18.159  1.00  0.00     0.237 C 
HETATM    7  O2  UNL     1      -4.336  -6.522  17.625  1.00  0.00    -0.272 OA
HETATM    8  N1  UNL     1      -3.217  -4.754  18.553  1.00  0.00    -0.326 N 
ATOM      9  H1  UNL     1      -2.334  -4.476  18.980  1.00  0.00     0.169 HD
BRANCH   8  10
HETATM   10  C6  UNL     1      -4.172  -3.738  18.454  1.00  0.00     0.035 A 
HETATM   11  C7  UNL     1      -4.323  -3.024  17.246  1.00  0.00     0.029 A 
HETATM   12  C8  UNL     1      -5.238  -2.009  17.102  1.00  0.00     0.003 A 
HETATM   13  C9  UNL     1      -6.041  -1.652  18.139  1.00  0.00     0.015 A 
HETATM   14  C10 UNL     1      -5.938  -2.309  19.335  1.00  0.00     0.007 A 
HETATM   15  C12 UNL     1      -5.003  -3.336  19.458  1.00  0.00     0.044 A 
BRANCH  14  16
HETATM   16  C11 UNL     1      -6.791  -1.943  20.468  1.00  0.00     0.120 C 
HETATM   17  N2  UNL     1      -8.057  -1.990  20.322  1.00  0.00    -0.387 N 
ATOM     18  H22 UNL     1      -8.470  -2.274  19.434  1.00  0.00     0.157 HD
ATOM     19  H21 UNL     1      -8.652  -1.735  21.111  1.00  0.00     0.157 HD
HETATM   20  N3  UNL     1      -6.222  -1.550  21.692  1.00  0.00    -0.082 NA
ENDBRANCH  14  16
ENDBRANCH   8  10
ENDBRANCH   5   6
BRANCH   5  21
HETATM   21  C13 UNL     1      -1.659  -7.687  17.098  1.00  0.00     0.204 C 
BRANCH  21  22
HETATM   22  N4  UNL     1      -0.256  -7.689  16.929  1.00  0.00    -0.288 N 
ATOM     23  H4  UNL     1       0.376  -7.484  17.702  1.00  0.00     0.174 HD
BRANCH  22  24
HETATM   24  S1  UNL     1       0.329  -8.049  15.378  1.00  0.00     0.313 S 
HETATM   25  O3  UNL     1       0.827  -9.488  15.401  1.00  0.00    -0.183 OA
HETATM   26  O4  UNL     1      -0.724  -7.998  14.312  1.00  0.00    -0.183 OA
BRANCH  24  27
HETATM   27  N5  UNL     1       1.631  -7.050  14.855  1.00  0.00    -0.312 N 
ATOM     28  H52 UNL     1       2.122  -6.426  15.496  1.00  0.00     0.170 HD
ATOM     29  H51 UNL     1       1.861  -7.137  13.866  1.00  0.00     0.170 HD
ENDBRANCH  24  27
ENDBRANCH  22  24
ENDBRANCH  21  22
BRANCH  21  30
HETATM   30  C14 UNL     1      -2.140  -9.117  17.209  1.00  0.00     0.255 C 
HETATM   31  N6  UNL     1      -3.098  -9.659  16.324  1.00  0.00    -0.060 NA
HETATM   32  O5  UNL     1      -1.661  -9.819  18.116  1.00  0.00    -0.275 OA
ENDBRANCH  21  30
ENDBRANCH   5  21
ENDBRANCH   3   5
TORSDOF 9
ENDMDL
