MODEL 1
REMARK VINA RESULT: -9.028413846      0.000      0.000
REMARK  6 active torsions:
REMARK  status: ('A' for Active; 'I' for Inactive)
REMARK    1  A    between atoms: C6_6  and  C7_7 
REMARK    2  A    between atoms: C11_13  and  N1_14 
REMARK       I    between atoms: N1_14  and  C12_16 
REMARK    3  A    between atoms: C12_16  and  C13_18 
REMARK    4  A    between atoms: C13_18  and  N2_19 
REMARK    5  A    between atoms: N2_19  and  S1_21 
REMARK    6  A    between atoms: S1_21  and  C14_24 
ROOT
HETATM    1  N1  UNL     1     -39.453  23.132 104.667  1.00  0.00    -0.354 N 
ATOM      2  H1  UNL     1     -39.814  24.082 104.573  1.00  0.00     0.162 HD
HETATM    3  C12 UNL     1     -39.833  22.126 103.661  1.00  0.00     0.236 C 
HETATM    4  O3  UNL     1     -39.373  21.007 103.803  1.00  0.00    -0.272 OA
ENDROOT
BRANCH   1   5
HETATM    5  C11 UNL     1     -38.612  22.829 105.750  1.00  0.00     0.092 C 
HETATM    6  C4  UNL     1     -37.142  23.009 105.364  1.00  0.00     0.011 C 
HETATM    7  C3  UNL     1     -36.693  24.437 105.441  1.00  0.00     0.015 C 
HETATM    8  C5  UNL     1     -36.348  22.204 106.360  1.00  0.00     0.027 C 
HETATM    9  C2  UNL     1     -36.906  24.962 106.848  1.00  0.00    -0.042 C 
HETATM   10  C1  UNL     1     -36.362  26.380 106.948  1.00  0.00     0.015 C 
HETATM   11  C10 UNL     1     -38.387  24.933 107.106  1.00  0.00     0.015 C 
HETATM   12  C19 UNL     1     -36.120  24.128 107.826  1.00  0.00     0.029 C 
HETATM   13  C9  UNL     1     -38.883  23.518 107.045  1.00  0.00     0.011 C 
HETATM   14  C8  UNL     1     -38.093  22.736 108.096  1.00  0.00     0.027 C 
HETATM   15  C6  UNL     1     -36.633  22.701 107.750  1.00  0.00     0.050 C 
BRANCH  15  16
HETATM   16  C7  UNL     1     -35.941  21.805 108.696  1.00  0.00     0.181 C 
HETATM   17  O1  UNL     1     -36.209  21.768 109.930  1.00  0.00    -0.647 OA
HETATM   18  O2  UNL     1     -34.940  20.962 108.240  1.00  0.00    -0.647 OA
ENDBRANCH  15  16
ENDBRANCH   1   5
BRANCH   3  19
HETATM   19  C13 UNL     1     -40.701  22.584 102.555  1.00  0.00     0.234 C 
BRANCH  19  20
HETATM   20  N2  UNL     1     -41.237  21.319 102.081  1.00  0.00    -0.310 N 
ATOM     21  H2  UNL     1     -41.616  20.506 102.565  1.00  0.00     0.172 HD
BRANCH  20  22
HETATM   22  S1  UNL     1     -40.991  21.697 100.330  1.00  0.00     0.231 S 
HETATM   23  O4  UNL     1     -40.514  20.668  99.471  1.00  0.00    -0.206 OA
HETATM   24  O5  UNL     1     -39.802  22.723 100.501  1.00  0.00    -0.206 OA
BRANCH  22  25
HETATM   25  C14 UNL     1     -42.363  22.589  99.740  1.00  0.00     0.129 C 
HETATM   26  C15 UNL     1     -42.571  22.232  98.270  1.00  0.00     0.022 C 
HETATM   27  C16 UNL     1     -43.299  23.455  97.776  1.00  0.00     0.001 C 
HETATM   28  C17 UNL     1     -42.391  24.562  98.291  1.00  0.00     0.001 C 
HETATM   29  C18 UNL     1     -42.127  24.120  99.701  1.00  0.00     0.022 C 
ENDBRANCH  22  25
ENDBRANCH  20  22
ENDBRANCH  19  20
ENDBRANCH   3  19
TORSDOF 6
ENDMDL
MODEL 2
REMARK VINA RESULT: -8.726907753      1.274      2.015
REMARK  6 active torsions:
REMARK  status: ('A' for Active; 'I' for Inactive)
REMARK    1  A    between atoms: C6_6  and  C7_7 
REMARK    2  A    between atoms: C11_13  and  N1_14 
REMARK       I    between atoms: N1_14  and  C12_16 
REMARK    3  A    between atoms: C12_16  and  C13_18 
REMARK    4  A    between atoms: C13_18  and  N2_19 
REMARK    5  A    between atoms: N2_19  and  S1_21 
REMARK    6  A    between atoms: S1_21  and  C14_24 
ROOT
HETATM    1  N1  UNL     1     -39.732  22.909 104.532  1.00  0.00    -0.354 N 
ATOM      2  H1  UNL     1     -40.272  23.706 104.870  1.00  0.00     0.162 HD
HETATM    3  C12 UNL     1     -40.155  22.240 103.290  1.00  0.00     0.236 C 
HETATM    4  O3  UNL     1     -39.477  21.300 102.915  1.00  0.00    -0.272 OA
ENDROOT
BRANCH   1   5
HETATM    5  C11 UNL     1     -38.611  22.488 105.266  1.00  0.00     0.092 C 
HETATM    6  C4  UNL     1     -37.959  23.669 105.988  1.00  0.00     0.011 C 
HETATM    7  C3  UNL     1     -38.647  24.013 107.275  1.00  0.00     0.015 C 
HETATM    8  C5  UNL     1     -36.549  23.240 106.301  1.00  0.00     0.027 C 
HETATM    9  C2  UNL     1     -38.644  22.806 108.192  1.00  0.00    -0.042 C 
HETATM   10  C1  UNL     1     -39.258  23.186 109.532  1.00  0.00     0.015 C 
HETATM   11  C10 UNL     1     -39.454  21.737 107.512  1.00  0.00     0.015 C 
HETATM   12  C19 UNL     1     -37.225  22.384 108.472  1.00  0.00     0.029 C 
HETATM   13  C9  UNL     1     -38.798  21.355 106.217  1.00  0.00     0.011 C 
HETATM   14  C8  UNL     1     -37.387  20.881 106.570  1.00  0.00     0.027 C 
HETATM   15  C6  UNL     1     -36.577  22.001 107.153  1.00  0.00     0.050 C 
BRANCH  15  16
HETATM   16  C7  UNL     1     -35.185  21.544 107.323  1.00  0.00     0.181 C 
HETATM   17  O1  UNL     1     -34.278  21.767 106.473  1.00  0.00    -0.647 OA
HETATM   18  O2  UNL     1     -34.830  20.825 108.455  1.00  0.00    -0.647 OA
ENDBRANCH  15  16
ENDBRANCH   1   5
BRANCH   3  19
HETATM   19  C13 UNL     1     -41.335  22.802 102.599  1.00  0.00     0.234 C 
BRANCH  19  20
HETATM   20  N2  UNL     1     -40.747  23.213 101.336  1.00  0.00    -0.310 N 
ATOM     21  H2  UNL     1     -40.057  23.923 101.095  1.00  0.00     0.172 HD
BRANCH  20  22
HETATM   22  S1  UNL     1     -41.675  22.021 100.341  1.00  0.00     0.231 S 
HETATM   23  O4  UNL     1     -42.271  20.907 100.994  1.00  0.00    -0.206 OA
HETATM   24  O5  UNL     1     -40.460  21.452  99.507  1.00  0.00    -0.206 OA
BRANCH  22  25
HETATM   25  C14 UNL     1     -42.705  22.879  99.233  1.00  0.00     0.129 C 
HETATM   26  C15 UNL     1     -42.365  22.428  97.815  1.00  0.00     0.022 C 
HETATM   27  C16 UNL     1     -42.823  23.621  97.016  1.00  0.00     0.001 C 
HETATM   28  C17 UNL     1     -42.139  24.754  97.765  1.00  0.00     0.001 C 
HETATM   29  C18 UNL     1     -42.428  24.403  99.196  1.00  0.00     0.022 C 
ENDBRANCH  22  25
ENDBRANCH  20  22
ENDBRANCH  19  20
ENDBRANCH   3  19
TORSDOF 6
ENDMDL
MODEL 3
REMARK VINA RESULT: -8.715732033      1.267      2.081
REMARK  6 active torsions:
REMARK  status: ('A' for Active; 'I' for Inactive)
REMARK    1  A    between atoms: C6_6  and  C7_7 
REMARK    2  A    between atoms: C11_13  and  N1_14 
REMARK       I    between atoms: N1_14  and  C12_16 
REMARK    3  A    between atoms: C12_16  and  C13_18 
REMARK    4  A    between atoms: C13_18  and  N2_19 
REMARK    5  A    between atoms: N2_19  and  S1_21 
REMARK    6  A    between atoms: S1_21  and  C14_24 
ROOT
HETATM    1  N1  UNL     1     -39.561  22.867 104.538  1.00  0.00    -0.354 N 
ATOM      2  H1  UNL     1     -39.992  23.767 104.748  1.00  0.00     0.162 HD
HETATM    3  C12 UNL     1     -40.095  22.065 103.426  1.00  0.00     0.236 C 
HETATM    4  O3  UNL     1     -39.545  21.001 103.202  1.00  0.00    -0.272 OA
ENDROOT
BRANCH   1   5
HETATM    5  C11 UNL     1     -38.478  22.435 105.322  1.00  0.00     0.092 C 
HETATM    6  C4  UNL     1     -37.831  23.613 106.053  1.00  0.00     0.011 C 
HETATM    7  C3  UNL     1     -38.561  23.990 107.306  1.00  0.00     0.015 C 
HETATM    8  C5  UNL     1     -36.443  23.161 106.426  1.00  0.00     0.027 C 
HETATM    9  C2  UNL     1     -38.618  22.797 108.239  1.00  0.00    -0.042 C 
HETATM   10  C1  UNL     1     -39.275  23.208 109.549  1.00  0.00     0.015 C 
HETATM   11  C10 UNL     1     -39.422  21.734 107.544  1.00  0.00     0.015 C 
HETATM   12  C19 UNL     1     -37.220  22.351 108.581  1.00  0.00     0.029 C 
HETATM   13  C9  UNL     1     -38.724  21.320 106.281  1.00  0.00     0.011 C 
HETATM   14  C8  UNL     1     -37.337  20.824 106.695  1.00  0.00     0.027 C 
HETATM   15  C6  UNL     1     -36.529  21.937 107.293  1.00  0.00     0.050 C 
BRANCH  15  16
HETATM   16  C7  UNL     1     -35.154  21.455 107.524  1.00  0.00     0.181 C 
HETATM   17  O1  UNL     1     -34.810  20.829 108.566  1.00  0.00    -0.647 OA
HETATM   18  O2  UNL     1     -34.171  21.695 106.576  1.00  0.00    -0.647 OA
ENDBRANCH  15  16
ENDBRANCH   1   5
BRANCH   3  19
HETATM   19  C13 UNL     1     -41.219  22.649 102.663  1.00  0.00     0.234 C 
BRANCH  19  20
HETATM   20  N2  UNL     1     -40.516  23.226 101.530  1.00  0.00    -0.310 N 
ATOM     21  H2  UNL     1     -39.808  23.957 101.457  1.00  0.00     0.172 HD
BRANCH  20  22
HETATM   22  S1  UNL     1     -41.339  22.192 100.296  1.00  0.00     0.231 S 
HETATM   23  O4  UNL     1     -42.375  21.316 100.723  1.00  0.00    -0.206 OA
HETATM   24  O5  UNL     1     -40.103  21.277  99.930  1.00  0.00    -0.206 OA
BRANCH  22  25
HETATM   25  C14 UNL     1     -41.702  23.154  98.894  1.00  0.00     0.129 C 
HETATM   26  C15 UNL     1     -42.591  24.317  99.328  1.00  0.00     0.022 C 
HETATM   27  C16 UNL     1     -43.293  24.642  98.035  1.00  0.00     0.001 C 
HETATM   28  C17 UNL     1     -43.789  23.265  97.619  1.00  0.00     0.001 C 
HETATM   29  C18 UNL     1     -42.576  22.412  97.852  1.00  0.00     0.022 C 
ENDBRANCH  22  25
ENDBRANCH  20  22
ENDBRANCH  19  20
ENDBRANCH   3  19
TORSDOF 6
ENDMDL
MODEL 4
REMARK VINA RESULT: -8.682050522      9.021     12.383
REMARK  6 active torsions:
REMARK  status: ('A' for Active; 'I' for Inactive)
REMARK    1  A    between atoms: C6_6  and  C7_7 
REMARK    2  A    between atoms: C11_13  and  N1_14 
REMARK       I    between atoms: N1_14  and  C12_16 
REMARK    3  A    between atoms: C12_16  and  C13_18 
REMARK    4  A    between atoms: C13_18  and  N2_19 
REMARK    5  A    between atoms: N2_19  and  S1_21 
REMARK    6  A    between atoms: S1_21  and  C14_24 
ROOT
HETATM    1  N1  UNL     1     -38.918  22.754  92.907  1.00  0.00    -0.354 N 
ATOM      2  H1  UNL     1     -38.591  23.709  93.057  1.00  0.00     0.162 HD
HETATM    3  C12 UNL     1     -40.360  22.475  93.001  1.00  0.00     0.236 C 
HETATM    4  O3  UNL     1     -40.710  21.324  92.804  1.00  0.00    -0.272 OA
ENDROOT
BRANCH   1   5
HETATM    5  C11 UNL     1     -37.977  21.752  92.617  1.00  0.00     0.092 C 
HETATM    6  C4  UNL     1     -37.566  21.802  91.144  1.00  0.00     0.011 C 
HETATM    7  C3  UNL     1     -36.518  22.837  90.869  1.00  0.00     0.015 C 
HETATM    8  C5  UNL     1     -36.993  20.445  90.825  1.00  0.00     0.027 C 
HETATM    9  C2  UNL     1     -35.293  22.559  91.719  1.00  0.00    -0.042 C 
HETATM   10  C1  UNL     1     -34.196  23.554  91.369  1.00  0.00     0.015 C 
HETATM   11  C10 UNL     1     -35.713  22.703  93.155  1.00  0.00     0.015 C 
HETATM   12  C19 UNL     1     -34.751  21.190  91.397  1.00  0.00     0.029 C 
HETATM   13  C9  UNL     1     -36.762  21.679  93.479  1.00  0.00     0.011 C 
HETATM   14  C8  UNL     1     -36.138  20.313  93.190  1.00  0.00     0.027 C 
HETATM   15  C6  UNL     1     -35.824  20.167  91.730  1.00  0.00     0.050 C 
BRANCH  15  16
HETATM   16  C7  UNL     1     -35.380  18.785  91.474  1.00  0.00     0.181 C 
HETATM   17  O1  UNL     1     -36.133  17.899  90.978  1.00  0.00    -0.647 OA
HETATM   18  O2  UNL     1     -34.084  18.407  91.793  1.00  0.00    -0.647 OA
ENDBRANCH  15  16
ENDBRANCH   1   5
BRANCH   3  19
HETATM   19  C13 UNL     1     -41.245  23.625  93.284  1.00  0.00     0.234 C 
BRANCH  19  20
HETATM   20  N2  UNL     1     -40.478  24.322  94.302  1.00  0.00    -0.310 N 
ATOM     21  H2  UNL     1     -39.479  24.493  94.417  1.00  0.00     0.172 HD
BRANCH  20  22
HETATM   22  S1  UNL     1     -41.920  24.778  95.293  1.00  0.00     0.231 S 
HETATM   23  O4  UNL     1     -43.216  24.506  94.775  1.00  0.00    -0.206 OA
HETATM   24  O5  UNL     1     -41.733  26.345  95.228  1.00  0.00    -0.206 OA
BRANCH  22  25
HETATM   25  C14 UNL     1     -41.656  24.295  96.943  1.00  0.00     0.129 C 
HETATM   26  C15 UNL     1     -42.495  23.049  97.218  1.00  0.00     0.022 C 
HETATM   27  C16 UNL     1     -42.660  23.136  98.713  1.00  0.00     0.001 C 
HETATM   28  C17 UNL     1     -43.141  24.571  98.870  1.00  0.00     0.001 C 
HETATM   29  C18 UNL     1     -42.195  25.318  97.974  1.00  0.00     0.022 C 
ENDBRANCH  22  25
ENDBRANCH  20  22
ENDBRANCH  19  20
ENDBRANCH   3  19
TORSDOF 6
ENDMDL
MODEL 5
REMARK VINA RESULT: -8.668699143      8.542     12.424
REMARK  6 active torsions:
REMARK  status: ('A' for Active; 'I' for Inactive)
REMARK    1  A    between atoms: C6_6  and  C7_7 
REMARK    2  A    between atoms: C11_13  and  N1_14 
REMARK       I    between atoms: N1_14  and  C12_16 
REMARK    3  A    between atoms: C12_16  and  C13_18 
REMARK    4  A    between atoms: C13_18  and  N2_19 
REMARK    5  A    between atoms: N2_19  and  S1_21 
REMARK    6  A    between atoms: S1_21  and  C14_24 
ROOT
HETATM    1  N1  UNL     1     -39.110  22.676  93.014  1.00  0.00    -0.354 N 
ATOM      2  H1  UNL     1     -39.749  21.897  92.847  1.00  0.00     0.162 HD
HETATM    3  C12 UNL     1     -39.575  23.814  93.823  1.00  0.00     0.236 C 
HETATM    4  O3  UNL     1     -38.779  24.718  94.008  1.00  0.00    -0.272 OA
ENDROOT
BRANCH   1   5
HETATM    5  C11 UNL     1     -37.819  22.624  92.465  1.00  0.00     0.092 C 
HETATM    6  C4  UNL     1     -36.818  22.064  93.478  1.00  0.00     0.011 C 
HETATM    7  C3  UNL     1     -36.831  20.566  93.538  1.00  0.00     0.015 C 
HETATM    8  C5  UNL     1     -35.457  22.512  93.012  1.00  0.00     0.027 C 
HETATM    9  C2  UNL     1     -36.520  19.999  92.167  1.00  0.00    -0.042 C 
HETATM   10  C1  UNL     1     -36.439  18.482  92.251  1.00  0.00     0.015 C 
HETATM   11  C10 UNL     1     -37.632  20.430  91.252  1.00  0.00     0.015 C 
HETATM   12  C19 UNL     1     -35.164  20.478  91.714  1.00  0.00     0.029 C 
HETATM   13  C9  UNL     1     -37.655  21.928  91.156  1.00  0.00     0.011 C 
HETATM   14  C8  UNL     1     -36.279  22.350  90.638  1.00  0.00     0.027 C 
HETATM   15  C6  UNL     1     -35.205  21.994  91.624  1.00  0.00     0.050 C 
BRANCH  15  16
HETATM   16  C7  UNL     1     -33.926  22.563  91.159  1.00  0.00     0.181 C 
HETATM   17  O1  UNL     1     -32.862  21.886  91.074  1.00  0.00    -0.647 OA
HETATM   18  O2  UNL     1     -33.855  23.901  90.804  1.00  0.00    -0.647 OA
ENDBRANCH  15  16
ENDBRANCH   1   5
BRANCH   3  19
HETATM   19  C13 UNL     1     -40.947  23.730  94.366  1.00  0.00     0.234 C 
BRANCH  19  20
HETATM   20  N2  UNL     1     -40.830  24.567  95.548  1.00  0.00    -0.310 N 
ATOM     21  H2  UNL     1     -40.031  24.857  96.111  1.00  0.00     0.172 HD
BRANCH  20  22
HETATM   22  S1  UNL     1     -42.601  24.910  95.669  1.00  0.00     0.231 S 
HETATM   23  O4  UNL     1     -43.441  24.544  94.581  1.00  0.00    -0.206 OA
HETATM   24  O5  UNL     1     -42.512  26.487  95.653  1.00  0.00    -0.206 OA
BRANCH  22  25
HETATM   25  C14 UNL     1     -43.169  24.441  97.245  1.00  0.00     0.129 C 
HETATM   26  C15 UNL     1     -42.228  25.035  98.290  1.00  0.00     0.022 C 
HETATM   27  C16 UNL     1     -42.441  24.088  99.442  1.00  0.00     0.001 C 
HETATM   28  C17 UNL     1     -42.252  22.745  98.753  1.00  0.00     0.001 C 
HETATM   29  C18 UNL     1     -43.066  22.916  97.503  1.00  0.00     0.022 C 
ENDBRANCH  22  25
ENDBRANCH  20  22
ENDBRANCH  19  20
ENDBRANCH   3  19
TORSDOF 6
ENDMDL
