MODEL 1
REMARK VINA RESULT: -7.636793147      0.000      0.000
REMARK  8 active torsions:
REMARK  status: ('A' for Active; 'I' for Inactive)
REMARK    1  A    between atoms: C2_2  and  N1_4 
REMARK       I    between atoms: N1_4  and  C4_6 
REMARK       I    between atoms: C4_6  and  N2_8 
REMARK    2  A    between atoms: N2_8  and  C5_10 
REMARK    3  A    between atoms: C5_10  and  C6_11 
REMARK    4  A    between atoms: C5_10  and  C16_28 
REMARK       I    between atoms: C6_11  and  N3_13 
REMARK    5  A    between atoms: C10_17  and  C11_18 
REMARK    6  A    between atoms: C11_18  and  O3_19 
REMARK    7  A    between atoms: C11_18  and  N4_21 
REMARK    8  A    between atoms: N4_21  and  C12_23 
ROOT
HETATM    1  C12 UNL     1     -35.866  23.883 107.986  1.00  0.00     0.121 A 
HETATM    2  C13 UNL     1     -35.817  22.584 108.684  1.00  0.00     0.091 C 
HETATM    3  N5  UNL     1     -35.802  21.564 109.236  1.00  0.00    -0.195 NA
HETATM    4  C14 UNL     1     -35.225  24.003 106.646  1.00  0.00     0.050 A 
HETATM    5  C15 UNL     1     -34.604  24.611 107.901  1.00  0.00     0.050 A 
ENDROOT
BRANCH   1   6
HETATM    6  N4  UNL     1     -37.174  24.511 108.157  1.00  0.00    -0.351 N 
ATOM      7  H4  UNL     1     -37.272  25.300 108.797  1.00  0.00     0.163 HD
BRANCH   6   8
HETATM    8  C11 UNL     1     -38.314  24.042 107.445  1.00  0.00     0.136 C 
BRANCH   8   9
HETATM    9  C10 UNL     1     -39.124  22.890 107.596  1.00  0.00     0.162 C 
HETATM   10  N3  UNL     1     -39.027  21.665 106.959  1.00  0.00    -0.335 N 
HETATM   11  C6  UNL     1     -38.206  20.840 106.208  1.00  0.00     0.267 C 
HETATM   12  C7  UNL     1     -40.404  21.103 107.333  1.00  0.00     0.127 C 
HETATM   13  O2  UNL     1     -36.942  20.974 106.184  1.00  0.00    -0.266 OA
HETATM   14  C8  UNL     1     -40.076  21.115 108.882  1.00  0.00     0.022 C 
HETATM   15  C9  UNL     1     -39.208  22.369 109.058  1.00  0.00     0.035 C 
BRANCH  11  16
HETATM   16  C5  UNL     1     -38.756  19.698 105.370  1.00  0.00     0.086 C 
BRANCH  16  17
HETATM   17  N2  UNL     1     -39.380  20.101 104.188  1.00  0.00    -0.307 N 
HETATM   18  C4  UNL     1     -39.528  21.293 103.482  1.00  0.00     0.320 C 
HETATM   19  N1  UNL     1     -40.246  21.254 102.230  1.00  0.00    -0.339 N 
HETATM   20  O1  UNL     1     -39.082  22.423 103.820  1.00  0.00    -0.247 OA
ATOM     21  H1  UNL     1     -40.674  20.376 101.936  1.00  0.00     0.164 HD
ATOM     22  H2  UNL     1     -39.847  19.324 103.722  1.00  0.00     0.170 HD
BRANCH  19  23
HETATM   23  C2  UNL     1     -40.378  22.402 101.388  1.00  0.00     0.078 C 
HETATM   24  C1  UNL     1     -41.556  23.266 101.778  1.00  0.00     0.032 C 
HETATM   25  C3  UNL     1     -40.690  21.799  99.979  1.00  0.00     0.032 C 
ENDBRANCH  19  23
ENDBRANCH  16  17
BRANCH  16  26
HETATM   26  C16 UNL     1     -38.060  18.415 105.485  1.00  0.00     0.041 C 
HETATM   27  C17 UNL     1     -38.347  17.463 104.311  1.00  0.00     0.011 C 
HETATM   28  C18 UNL     1     -39.542  16.589 104.506  1.00  0.00     0.001 C 
HETATM   29  C19 UNL     1     -39.197  15.462 105.482  1.00  0.00     0.000 C 
HETATM   30  C20 UNL     1     -38.319  16.124 106.540  1.00  0.00     0.001 C 
HETATM   31  C21 UNL     1     -38.626  17.596 106.687  1.00  0.00     0.011 C 
ENDBRANCH  16  26
ENDBRANCH  11  16
ENDBRANCH   8   9
BRANCH   8  32
HETATM   32  O3  UNL     1     -38.656  24.829 106.462  1.00  0.00    -0.348 OA
ATOM     33  H3  UNL     1     -37.930  25.170 105.953  1.00  0.00     0.219 HD
ENDBRANCH   8  32
ENDBRANCH   6   8
ENDBRANCH   1   6
TORSDOF 8
ENDMDL
MODEL 2
REMARK VINA RESULT: -7.087929117      2.161      6.033
REMARK  8 active torsions:
REMARK  status: ('A' for Active; 'I' for Inactive)
REMARK    1  A    between atoms: C2_2  and  N1_4 
REMARK       I    between atoms: N1_4  and  C4_6 
REMARK       I    between atoms: C4_6  and  N2_8 
REMARK    2  A    between atoms: N2_8  and  C5_10 
REMARK    3  A    between atoms: C5_10  and  C6_11 
REMARK    4  A    between atoms: C5_10  and  C16_28 
REMARK       I    between atoms: C6_11  and  N3_13 
REMARK    5  A    between atoms: C10_17  and  C11_18 
REMARK    6  A    between atoms: C11_18  and  O3_19 
REMARK    7  A    between atoms: C11_18  and  N4_21 
REMARK    8  A    between atoms: N4_21  and  C12_23 
ROOT
HETATM    1  C12 UNL     1     -38.730  16.326 106.037  1.00  0.00     0.121 A 
HETATM    2  C13 UNL     1     -39.567  15.545 105.106  1.00  0.00     0.091 C 
HETATM    3  N5  UNL     1     -40.233  14.951 104.365  1.00  0.00    -0.195 NA
HETATM    4  C14 UNL     1     -37.283  15.990 106.157  1.00  0.00     0.050 A 
HETATM    5  C15 UNL     1     -38.293  15.630 107.243  1.00  0.00     0.050 A 
ENDROOT
BRANCH   1   6
HETATM    6  N4  UNL     1     -39.082  17.743 105.982  1.00  0.00    -0.351 N 
ATOM      7  H4  UNL     1     -39.657  18.088 105.213  1.00  0.00     0.163 HD
BRANCH   6   8
HETATM    8  C11 UNL     1     -38.635  18.650 106.984  1.00  0.00     0.136 C 
BRANCH   8   9
HETATM    9  C10 UNL     1     -37.850  19.828 106.923  1.00  0.00     0.162 C 
HETATM   10  N3  UNL     1     -38.132  21.034 106.306  1.00  0.00    -0.335 N 
HETATM   11  C6  UNL     1     -39.131  21.818 105.754  1.00  0.00     0.267 C 
HETATM   12  C7  UNL     1     -36.724  21.643 106.339  1.00  0.00     0.127 C 
HETATM   13  O2  UNL     1     -40.361  21.649 106.028  1.00  0.00    -0.266 OA
HETATM   14  C8  UNL     1     -36.683  21.658 107.922  1.00  0.00     0.022 C 
HETATM   15  C9  UNL     1     -37.445  20.385 108.316  1.00  0.00     0.035 C 
BRANCH  11  16
HETATM   16  C5  UNL     1     -38.829  22.955 104.792  1.00  0.00     0.086 C 
BRANCH  16  17
HETATM   17  N2  UNL     1     -39.218  22.711 103.474  1.00  0.00    -0.307 N 
HETATM   18  C4  UNL     1     -40.421  22.634 102.775  1.00  0.00     0.320 C 
HETATM   19  N1  UNL     1     -40.365  22.392 101.353  1.00  0.00    -0.339 N 
HETATM   20  O1  UNL     1     -41.577  22.771 103.260  1.00  0.00    -0.247 OA
ATOM     21  H1  UNL     1     -39.457  22.222 100.919  1.00  0.00     0.164 HD
ATOM     22  H2  UNL     1     -38.416  22.547 102.866  1.00  0.00     0.170 HD
BRANCH  19  23
HETATM   23  C2  UNL     1     -41.535  22.382 100.531  1.00  0.00     0.078 C 
HETATM   24  C1  UNL     1     -41.480  21.308  99.470  1.00  0.00     0.032 C 
HETATM   25  C3  UNL     1     -41.490  23.763  99.799  1.00  0.00     0.032 C 
ENDBRANCH  19  23
ENDBRANCH  16  17
BRANCH  16  26
HETATM   26  C16 UNL     1     -38.815  24.303 105.364  1.00  0.00     0.041 C 
HETATM   27  C17 UNL     1     -37.520  25.076 105.060  1.00  0.00     0.011 C 
HETATM   28  C18 UNL     1     -36.432  24.871 106.062  1.00  0.00     0.001 C 
HETATM   29  C19 UNL     1     -36.746  25.671 107.328  1.00  0.00     0.000 C 
HETATM   30  C20 UNL     1     -38.252  25.521 107.515  1.00  0.00     0.001 C 
HETATM   31  C21 UNL     1     -38.768  24.231 106.922  1.00  0.00     0.011 C 
ENDBRANCH  16  26
ENDBRANCH  11  16
ENDBRANCH   8   9
BRANCH   8  32
HETATM   32  O3  UNL     1     -39.024  18.312 108.182  1.00  0.00    -0.348 OA
ATOM     33  H3  UNL     1     -38.888  17.397 108.402  1.00  0.00     0.219 HD
ENDBRANCH   8  32
ENDBRANCH   6   8
ENDBRANCH   1   6
TORSDOF 8
ENDMDL
MODEL 3
REMARK VINA RESULT: -7.078612735      2.171      5.610
REMARK  8 active torsions:
REMARK  status: ('A' for Active; 'I' for Inactive)
REMARK    1  A    between atoms: C2_2  and  N1_4 
REMARK       I    between atoms: N1_4  and  C4_6 
REMARK       I    between atoms: C4_6  and  N2_8 
REMARK    2  A    between atoms: N2_8  and  C5_10 
REMARK    3  A    between atoms: C5_10  and  C6_11 
REMARK    4  A    between atoms: C5_10  and  C16_28 
REMARK       I    between atoms: C6_11  and  N3_13 
REMARK    5  A    between atoms: C10_17  and  C11_18 
REMARK    6  A    between atoms: C11_18  and  O3_19 
REMARK    7  A    between atoms: C11_18  and  N4_21 
REMARK    8  A    between atoms: N4_21  and  C12_23 
ROOT
HETATM    1  C12 UNL     1     -38.345  17.577 105.597  1.00  0.00     0.121 A 
HETATM    2  C13 UNL     1     -37.021  17.038 105.965  1.00  0.00     0.091 C 
HETATM    3  N5  UNL     1     -35.988  16.613 106.276  1.00  0.00    -0.195 NA
HETATM    4  C14 UNL     1     -39.089  16.948 104.470  1.00  0.00     0.050 A 
HETATM    5  C15 UNL     1     -38.410  18.309 104.336  1.00  0.00     0.050 A 
ENDROOT
BRANCH   1   6
HETATM    6  N4  UNL     1     -39.112  17.920 106.793  1.00  0.00    -0.351 N 
ATOM      7  H4  UNL     1     -39.964  17.402 107.008  1.00  0.00     0.163 HD
BRANCH   6   8
HETATM    8  C11 UNL     1     -38.689  18.964 107.663  1.00  0.00     0.136 C 
BRANCH   8   9
HETATM    9  C10 UNL     1     -37.880  20.109 107.455  1.00  0.00     0.162 C 
HETATM   10  N3  UNL     1     -38.131  21.225 106.677  1.00  0.00    -0.335 N 
HETATM   11  C6  UNL     1     -39.108  21.944 106.007  1.00  0.00     0.267 C 
HETATM   12  C7  UNL     1     -36.713  21.808 106.649  1.00  0.00     0.127 C 
HETATM   13  O2  UNL     1     -40.344  21.834 106.282  1.00  0.00    -0.266 OA
HETATM   14  C8  UNL     1     -36.692  22.037 108.216  1.00  0.00     0.022 C 
HETATM   15  C9  UNL     1     -37.483  20.842 108.767  1.00  0.00     0.035 C 
BRANCH  11  16
HETATM   16  C5  UNL     1     -38.771  22.934 104.906  1.00  0.00     0.086 C 
BRANCH  16  17
HETATM   17  N2  UNL     1     -39.163  22.529 103.629  1.00  0.00    -0.307 N 
HETATM   18  C4  UNL     1     -40.354  22.485 102.906  1.00  0.00     0.320 C 
HETATM   19  N1  UNL     1     -40.302  22.011 101.544  1.00  0.00    -0.339 N 
HETATM   20  O1  UNL     1     -41.492  22.836 103.319  1.00  0.00    -0.247 OA
ATOM     21  H1  UNL     1     -39.415  21.665 101.176  1.00  0.00     0.164 HD
ATOM     22  H2  UNL     1     -38.377  22.174 103.085  1.00  0.00     0.170 HD
BRANCH  19  23
HETATM   23  C2  UNL     1     -41.450  22.010 100.690  1.00  0.00     0.078 C 
HETATM   24  C1  UNL     1     -41.320  21.016  99.558  1.00  0.00     0.032 C 
HETATM   25  C3  UNL     1     -41.448  23.439 100.057  1.00  0.00     0.032 C 
ENDBRANCH  19  23
ENDBRANCH  16  17
BRANCH  16  26
HETATM   26  C16 UNL     1     -38.720  24.345 105.295  1.00  0.00     0.041 C 
HETATM   27  C17 UNL     1     -37.370  25.013 104.976  1.00  0.00     0.011 C 
HETATM   28  C18 UNL     1     -36.355  24.897 106.064  1.00  0.00     0.001 C 
HETATM   29  C19 UNL     1     -36.700  25.874 107.190  1.00  0.00     0.000 C 
HETATM   30  C20 UNL     1     -38.220  25.816 107.298  1.00  0.00     0.001 C 
HETATM   31  C21 UNL     1     -38.768  24.482 106.848  1.00  0.00     0.011 C 
ENDBRANCH  16  26
ENDBRANCH  11  16
ENDBRANCH   8   9
BRANCH   8  32
HETATM   32  O3  UNL     1     -39.130  18.817 108.881  1.00  0.00    -0.348 OA
ATOM     33  H3  UNL     1     -40.065  18.666 108.952  1.00  0.00     0.219 HD
ENDBRANCH   8  32
ENDBRANCH   6   8
ENDBRANCH   1   6
TORSDOF 8
ENDMDL
MODEL 4
REMARK VINA RESULT: -6.870355848      2.216      5.825
REMARK  8 active torsions:
REMARK  status: ('A' for Active; 'I' for Inactive)
REMARK    1  A    between atoms: C2_2  and  N1_4 
REMARK       I    between atoms: N1_4  and  C4_6 
REMARK       I    between atoms: C4_6  and  N2_8 
REMARK    2  A    between atoms: N2_8  and  C5_10 
REMARK    3  A    between atoms: C5_10  and  C6_11 
REMARK    4  A    between atoms: C5_10  and  C16_28 
REMARK       I    between atoms: C6_11  and  N3_13 
REMARK    5  A    between atoms: C10_17  and  C11_18 
REMARK    6  A    between atoms: C11_18  and  O3_19 
REMARK    7  A    between atoms: C11_18  and  N4_21 
REMARK    8  A    between atoms: N4_21  and  C12_23 
ROOT
HETATM    1  C12 UNL     1     -37.881  16.351 106.392  1.00  0.00     0.121 A 
HETATM    2  C13 UNL     1     -36.435  16.647 106.363  1.00  0.00     0.091 C 
HETATM    3  N5  UNL     1     -35.303  16.902 106.341  1.00  0.00    -0.195 NA
HETATM    4  C14 UNL     1     -38.390  15.356 107.376  1.00  0.00     0.050 A 
HETATM    5  C15 UNL     1     -38.275  15.039 105.888  1.00  0.00     0.050 A 
ENDROOT
BRANCH   1   6
HETATM    6  N4  UNL     1     -38.660  17.574 106.216  1.00  0.00    -0.351 N 
ATOM      7  H4  UNL     1     -39.326  17.638 105.445  1.00  0.00     0.163 HD
BRANCH   6   8
HETATM    8  C11 UNL     1     -38.507  18.677 107.102  1.00  0.00     0.136 C 
BRANCH   8   9
HETATM    9  C10 UNL     1     -37.761  19.878 107.009  1.00  0.00     0.162 C 
HETATM   10  N3  UNL     1     -38.082  21.055 106.356  1.00  0.00    -0.335 N 
HETATM   11  C6  UNL     1     -39.104  21.788 105.776  1.00  0.00     0.267 C 
HETATM   12  C7  UNL     1     -36.696  21.713 106.376  1.00  0.00     0.127 C 
HETATM   13  O2  UNL     1     -40.329  21.584 106.049  1.00  0.00    -0.266 OA
HETATM   14  C8  UNL     1     -36.663  21.776 107.958  1.00  0.00     0.022 C 
HETATM   15  C9  UNL     1     -37.383  20.490 108.387  1.00  0.00     0.035 C 
BRANCH  11  16
HETATM   16  C5  UNL     1     -38.836  22.905 104.782  1.00  0.00     0.086 C 
BRANCH  16  17
HETATM   17  N2  UNL     1     -39.233  22.619 103.474  1.00  0.00    -0.307 N 
HETATM   18  C4  UNL     1     -40.436  22.572 102.773  1.00  0.00     0.320 C 
HETATM   19  N1  UNL     1     -40.388  22.259 101.365  1.00  0.00    -0.339 N 
HETATM   20  O1  UNL     1     -41.585  22.793 103.244  1.00  0.00    -0.247 OA
ATOM     21  H1  UNL     1     -39.489  22.020 100.945  1.00  0.00     0.164 HD
ATOM     22  H2  UNL     1     -38.439  22.384 102.879  1.00  0.00     0.170 HD
BRANCH  19  23
HETATM   23  C2  UNL     1     -41.555  22.272 100.538  1.00  0.00     0.078 C 
HETATM   24  C1  UNL     1     -41.477  21.253  99.423  1.00  0.00     0.032 C 
HETATM   25  C3  UNL     1     -41.529  23.688  99.876  1.00  0.00     0.032 C 
ENDBRANCH  19  23
ENDBRANCH  16  17
BRANCH  16  26
HETATM   26  C16 UNL     1     -38.845  24.267 105.319  1.00  0.00     0.041 C 
HETATM   27  C17 UNL     1     -37.556  25.050 105.006  1.00  0.00     0.011 C 
HETATM   28  C18 UNL     1     -36.476  24.885 106.022  1.00  0.00     0.001 C 
HETATM   29  C19 UNL     1     -36.811  25.713 107.264  1.00  0.00     0.000 C 
HETATM   30  C20 UNL     1     -38.317  25.548 107.442  1.00  0.00     0.001 C 
HETATM   31  C21 UNL     1     -38.811  24.237 106.878  1.00  0.00     0.011 C 
ENDBRANCH  16  26
ENDBRANCH  11  16
ENDBRANCH   8   9
BRANCH   8  32
HETATM   32  O3  UNL     1     -39.178  18.532 108.211  1.00  0.00    -0.348 OA
ATOM     33  H3  UNL     1     -39.108  17.673 108.611  1.00  0.00     0.219 HD
ENDBRANCH   8  32
ENDBRANCH   6   8
ENDBRANCH   1   6
TORSDOF 8
ENDMDL
MODEL 5
REMARK VINA RESULT: -6.704451307      5.555      8.261
REMARK  8 active torsions:
REMARK  status: ('A' for Active; 'I' for Inactive)
REMARK    1  A    between atoms: C2_2  and  N1_4 
REMARK       I    between atoms: N1_4  and  C4_6 
REMARK       I    between atoms: C4_6  and  N2_8 
REMARK    2  A    between atoms: N2_8  and  C5_10 
REMARK    3  A    between atoms: C5_10  and  C6_11 
REMARK    4  A    between atoms: C5_10  and  C16_28 
REMARK       I    between atoms: C6_11  and  N3_13 
REMARK    5  A    between atoms: C10_17  and  C11_18 
REMARK    6  A    between atoms: C11_18  and  O3_19 
REMARK    7  A    between atoms: C11_18  and  N4_21 
REMARK    8  A    between atoms: N4_21  and  C12_23 
ROOT
HETATM    1  C12 UNL     1     -37.823  19.555 106.227  1.00  0.00     0.121 A 
HETATM    2  C13 UNL     1     -36.767  20.354 106.880  1.00  0.00     0.091 C 
HETATM    3  N5  UNL     1     -35.922  20.972 107.379  1.00  0.00    -0.195 NA
HETATM    4  C14 UNL     1     -39.024  20.254 105.690  1.00  0.00     0.050 A 
HETATM    5  C15 UNL     1     -39.073  19.420 106.968  1.00  0.00     0.050 A 
ENDROOT
BRANCH   1   6
HETATM    6  N4  UNL     1     -37.235  18.506 105.397  1.00  0.00    -0.351 N 
ATOM      7  H4  UNL     1     -36.402  18.710 104.845  1.00  0.00     0.163 HD
BRANCH   6   8
HETATM    8  C11 UNL     1     -37.807  17.203 105.347  1.00  0.00     0.136 C 
BRANCH   8   9
HETATM    9  C10 UNL     1     -37.541  16.016 106.073  1.00  0.00     0.162 C 
HETATM   10  N3  UNL     1     -36.338  15.554 106.577  1.00  0.00    -0.335 N 
HETATM   11  C6  UNL     1     -35.037  15.899 106.901  1.00  0.00     0.267 C 
HETATM   12  C7  UNL     1     -36.756  14.108 106.875  1.00  0.00     0.127 C 
HETATM   13  O2  UNL     1     -34.683  17.102 107.109  1.00  0.00    -0.266 OA
HETATM   14  C8  UNL     1     -37.836  14.557 107.942  1.00  0.00     0.022 C 
HETATM   15  C9  UNL     1     -38.391  15.868 107.366  1.00  0.00     0.035 C 
BRANCH  11  16
HETATM   16  C5  UNL     1     -33.938  14.861 107.052  1.00  0.00     0.086 C 
BRANCH  16  17
HETATM   17  N2  UNL     1     -33.363  14.453 105.847  1.00  0.00    -0.307 N 
HETATM   18  C4  UNL     1     -33.267  13.264 105.128  1.00  0.00     0.320 C 
HETATM   19  N1  UNL     1     -32.591  13.296 103.853  1.00  0.00    -0.339 N 
HETATM   20  O1  UNL     1     -33.729  12.142 105.472  1.00  0.00    -0.247 OA
ATOM     21  H1  UNL     1     -32.152  14.167 103.551  1.00  0.00     0.164 HD
ATOM     22  H2  UNL     1     -32.893  15.223 105.371  1.00  0.00     0.170 HD
BRANCH  19  23
HETATM   23  C2  UNL     1     -32.514  12.152 102.997  1.00  0.00     0.078 C 
HETATM   24  C1  UNL     1     -31.099  11.868 102.547  1.00  0.00     0.032 C 
HETATM   25  C3  UNL     1     -33.329  12.576 101.732  1.00  0.00     0.032 C 
ENDBRANCH  19  23
ENDBRANCH  16  17
BRANCH  16  26
HETATM   26  C16 UNL     1     -33.180  14.896 108.305  1.00  0.00     0.041 C 
HETATM   27  C17 UNL     1     -32.162  13.748 108.429  1.00  0.00     0.011 C 
HETATM   28  C18 UNL     1     -32.712  12.504 109.045  1.00  0.00     0.001 C 
HETATM   29  C19 UNL     1     -32.846  12.698 110.557  1.00  0.00     0.000 C 
HETATM   30  C20 UNL     1     -33.333  14.135 110.719  1.00  0.00     0.001 C 
HETATM   31  C21 UNL     1     -34.119  14.603 109.516  1.00  0.00     0.011 C 
ENDBRANCH  16  26
ENDBRANCH  11  16
ENDBRANCH   8   9
BRANCH   8  32
HETATM   32  O3  UNL     1     -38.746  17.097 104.447  1.00  0.00    -0.348 OA
ATOM     33  H3  UNL     1     -39.364  17.819 104.428  1.00  0.00     0.219 HD
ENDBRANCH   8  32
ENDBRANCH   6   8
ENDBRANCH   1   6
TORSDOF 8
ENDMDL
