MODEL 1
REMARK VINA RESULT: -6.459725523      0.000      0.000
REMARK  7 active torsions:
REMARK  status: ('A' for Active; 'I' for Inactive)
REMARK    1  A    between atoms: C2_2  and  N1_4 
REMARK       I    between atoms: N1_4  and  C4_6 
REMARK    2  A    between atoms: C4_6  and  C5_8 
REMARK       I    between atoms: N2_13  and  C10_14 
REMARK    3  A    between atoms: C10_14  and  C11_16 
REMARK    4  A    between atoms: C11_16  and  N3_17 
REMARK    5  A    between atoms: C11_16  and  C17_26 
REMARK    6  A    between atoms: N3_17  and  C12_20 
REMARK    7  A    between atoms: C17_26  and  N4_27 
ROOT
HETATM    1  C11 UNL     1     -32.956  14.909 108.201  1.00  0.00     0.313 C 
ENDROOT
BRANCH   1   2
HETATM    2  C10 UNL     1     -34.422  14.998 108.194  1.00  0.00     0.254 C 
HETATM    3  N2  UNL     1     -35.347  14.007 108.558  1.00  0.00    -0.337 N 
HETATM    4  C5  UNL     1     -36.781  14.207 108.444  1.00  0.00     0.179 C 
HETATM    5  C9  UNL     1     -34.939  12.743 109.114  1.00  0.00     0.127 C 
HETATM    6  C6  UNL     1     -37.531  12.963 108.872  1.00  0.00     0.035 C 
HETATM    7  C7  UNL     1     -37.134  12.371 110.161  1.00  0.00     0.004 C 
HETATM    8  C8  UNL     1     -35.689  12.464 110.424  1.00  0.00     0.020 C 
HETATM    9  O2  UNL     1     -34.873  16.139 107.802  1.00  0.00    -0.271 OA
BRANCH   4  10
HETATM   10  C4  UNL     1     -37.238  14.468 107.067  1.00  0.00     0.240 C 
HETATM   11  N1  UNL     1     -37.873  15.683 106.760  1.00  0.00    -0.355 N 
ATOM     12  H1  UNL     1     -38.013  16.377 107.494  1.00  0.00     0.162 HD
HETATM   13  O1  UNL     1     -37.065  13.620 106.182  1.00  0.00    -0.271 OA
BRANCH  11  14
HETATM   14  C2  UNL     1     -38.330  15.965 105.414  1.00  0.00     0.076 C 
HETATM   15  C1  UNL     1     -38.260  17.477 105.217  1.00  0.00     0.032 C 
HETATM   16  C3  UNL     1     -39.755  15.550 105.176  1.00  0.00     0.032 C 
ENDBRANCH  11  14
ENDBRANCH   4  10
ENDBRANCH   1   2
BRANCH   1  17
HETATM   17  N3  UNL     1     -32.374  15.951 109.069  1.00  0.00    -0.049 N 
ATOM     18  H32 UNL     1     -31.678  16.522 108.590  1.00  0.00     0.279 HD
ATOM     19  H31 UNL     1     -33.034  16.698 109.288  1.00  0.00     0.279 HD
BRANCH  17  20
HETATM   20  C12 UNL     1     -31.847  15.294 110.259  1.00  0.00     0.256 C 
HETATM   21  C13 UNL     1     -32.016  13.790 110.101  1.00  0.00     0.041 C 
HETATM   22  C14 UNL     1     -31.936  13.294 111.528  1.00  0.00     0.010 C 
HETATM   23  C15 UNL     1     -32.299  14.459 112.425  1.00  0.00     0.080 C 
HETATM   24  C16 UNL     1     -32.676  15.522 111.464  1.00  0.00     0.157 C 
HETATM   25  O3  UNL     1     -33.498  16.382 111.661  1.00  0.00    -0.296 OA
ENDBRANCH  17  20
ENDBRANCH   1  17
BRANCH   1  26
HETATM   26  C17 UNL     1     -32.312  15.137 106.838  1.00  0.00     0.160 C 
HETATM   27  C18 UNL     1     -32.102  16.565 106.487  1.00  0.00     0.041 C 
HETATM   28  C19 UNL     1     -31.116  16.674 105.345  1.00  0.00     0.002 C 
HETATM   29  C20 UNL     1     -29.736  16.174 105.680  1.00  0.00     0.000 C 
HETATM   30  C21 UNL     1     -29.822  15.335 106.932  1.00  0.00     0.002 C 
HETATM   31  C22 UNL     1     -30.998  14.404 106.734  1.00  0.00     0.041 C 
BRANCH  26  32
HETATM   32  N4  UNL     1     -33.175  14.542 105.805  1.00  0.00    -0.068 N 
ATOM     33  H43 UNL     1     -33.084  13.528 105.755  1.00  0.00     0.275 HD
ATOM     34  H42 UNL     1     -34.165  14.582 106.052  1.00  0.00     0.275 HD
ATOM     35  H41 UNL     1     -32.977  14.996 104.913  1.00  0.00     0.275 HD
ENDBRANCH  26  32
ENDBRANCH   1  26
TORSDOF 7
ENDMDL
MODEL 2
REMARK VINA RESULT: -6.322255024      0.880      1.104
REMARK  7 active torsions:
REMARK  status: ('A' for Active; 'I' for Inactive)
REMARK    1  A    between atoms: C2_2  and  N1_4 
REMARK       I    between atoms: N1_4  and  C4_6 
REMARK    2  A    between atoms: C4_6  and  C5_8 
REMARK       I    between atoms: N2_13  and  C10_14 
REMARK    3  A    between atoms: C10_14  and  C11_16 
REMARK    4  A    between atoms: C11_16  and  N3_17 
REMARK    5  A    between atoms: C11_16  and  C17_26 
REMARK    6  A    between atoms: N3_17  and  C12_20 
REMARK    7  A    between atoms: C17_26  and  N4_27 
ROOT
HETATM    1  C11 UNL     1     -32.872  14.715 108.129  1.00  0.00     0.313 C 
ENDROOT
BRANCH   1   2
HETATM    2  C10 UNL     1     -34.331  14.879 108.182  1.00  0.00     0.254 C 
HETATM    3  N2  UNL     1     -35.292  13.927 108.557  1.00  0.00    -0.337 N 
HETATM    4  C5  UNL     1     -36.717  14.203 108.504  1.00  0.00     0.179 C 
HETATM    5  C9  UNL     1     -34.930  12.629 109.063  1.00  0.00     0.127 C 
HETATM    6  C6  UNL     1     -37.514  12.987 108.929  1.00  0.00     0.035 C 
HETATM    7  C7  UNL     1     -37.099  12.341 110.186  1.00  0.00     0.004 C 
HETATM    8  C8  UNL     1     -35.642  12.353 110.395  1.00  0.00     0.020 C 
HETATM    9  O2  UNL     1     -34.737  16.052 107.838  1.00  0.00    -0.271 OA
BRANCH   4  10
HETATM   10  C4  UNL     1     -37.212  14.524 107.153  1.00  0.00     0.240 C 
HETATM   11  N1  UNL     1     -37.720  15.806 106.882  1.00  0.00    -0.355 N 
ATOM     12  H1  UNL     1     -37.743  16.506 107.624  1.00  0.00     0.162 HD
HETATM   13  O1  UNL     1     -37.182  13.670 106.259  1.00  0.00    -0.271 OA
BRANCH  11  14
HETATM   14  C2  UNL     1     -38.211  16.149 105.562  1.00  0.00     0.076 C 
HETATM   15  C1  UNL     1     -38.125  17.666 105.424  1.00  0.00     0.032 C 
HETATM   16  C3  UNL     1     -39.647  15.762 105.349  1.00  0.00     0.032 C 
ENDBRANCH  11  14
ENDBRANCH   4  10
ENDBRANCH   1   2
BRANCH   1  17
HETATM   17  N3  UNL     1     -32.214  15.584 109.123  1.00  0.00    -0.049 N 
ATOM     18  H32 UNL     1     -31.281  15.880 108.835  1.00  0.00     0.279 HD
ATOM     19  H31 UNL     1     -32.636  16.511 109.181  1.00  0.00     0.279 HD
BRANCH  17  20
HETATM   20  C12 UNL     1     -32.216  14.879 110.399  1.00  0.00     0.256 C 
HETATM   21  C13 UNL     1     -32.935  15.738 111.430  1.00  0.00     0.041 C 
HETATM   22  C14 UNL     1     -32.426  15.179 112.741  1.00  0.00     0.010 C 
HETATM   23  C15 UNL     1     -31.106  14.497 112.453  1.00  0.00     0.080 C 
HETATM   24  C16 UNL     1     -30.874  14.799 111.020  1.00  0.00     0.157 C 
HETATM   25  O3  UNL     1     -29.795  14.943 110.503  1.00  0.00    -0.296 OA
ENDBRANCH  17  20
ENDBRANCH   1  17
BRANCH   1  26
HETATM   26  C17 UNL     1     -32.250  15.111 106.795  1.00  0.00     0.160 C 
HETATM   27  C18 UNL     1     -32.107  16.576 106.592  1.00  0.00     0.041 C 
HETATM   28  C19 UNL     1     -31.136  16.848 105.466  1.00  0.00     0.002 C 
HETATM   29  C20 UNL     1     -29.733  16.380 105.743  1.00  0.00     0.000 C 
HETATM   30  C21 UNL     1     -29.770  15.414 106.903  1.00  0.00     0.002 C 
HETATM   31  C22 UNL     1     -30.904  14.455 106.613  1.00  0.00     0.041 C 
BRANCH  26  32
HETATM   32  N4  UNL     1     -33.092  14.587 105.708  1.00  0.00    -0.068 N 
ATOM     33  H43 UNL     1     -33.232  13.579 105.773  1.00  0.00     0.275 HD
ATOM     34  H42 UNL     1     -34.068  14.870 105.800  1.00  0.00     0.275 HD
ATOM     35  H41 UNL     1     -32.686  14.868 104.816  1.00  0.00     0.275 HD
ENDBRANCH  26  32
ENDBRANCH   1  26
TORSDOF 7
ENDMDL
MODEL 3
REMARK VINA RESULT: -5.926373030      1.265      1.643
REMARK  7 active torsions:
REMARK  status: ('A' for Active; 'I' for Inactive)
REMARK    1  A    between atoms: C2_2  and  N1_4 
REMARK       I    between atoms: N1_4  and  C4_6 
REMARK    2  A    between atoms: C4_6  and  C5_8 
REMARK       I    between atoms: N2_13  and  C10_14 
REMARK    3  A    between atoms: C10_14  and  C11_16 
REMARK    4  A    between atoms: C11_16  and  N3_17 
REMARK    5  A    between atoms: C11_16  and  C17_26 
REMARK    6  A    between atoms: N3_17  and  C12_20 
REMARK    7  A    between atoms: C17_26  and  N4_27 
ROOT
HETATM    1  C11 UNL     1     -32.689  14.793 108.794  1.00  0.00     0.313 C 
ENDROOT
BRANCH   1   2
HETATM    2  C10 UNL     1     -34.155  14.766 108.699  1.00  0.00     0.254 C 
HETATM    3  N2  UNL     1     -35.008  13.661 108.848  1.00  0.00    -0.337 N 
HETATM    4  C5  UNL     1     -36.445  13.763 108.665  1.00  0.00     0.179 C 
HETATM    5  C9  UNL     1     -34.522  12.364 109.239  1.00  0.00     0.127 C 
HETATM    6  C6  UNL     1     -37.105  12.414 108.852  1.00  0.00     0.035 C 
HETATM    7  C7  UNL     1     -36.732  11.666 110.065  1.00  0.00     0.004 C 
HETATM    8  C8  UNL     1     -35.318  11.831 110.439  1.00  0.00     0.020 C 
HETATM    9  O2  UNL     1     -34.681  15.914 108.448  1.00  0.00    -0.271 OA
BRANCH   4  10
HETATM   10  C4  UNL     1     -36.844  14.194 107.312  1.00  0.00     0.240 C 
HETATM   11  N1  UNL     1     -37.428  15.458 107.126  1.00  0.00    -0.355 N 
ATOM     12  H1  UNL     1     -37.571  16.070 107.930  1.00  0.00     0.162 HD
HETATM   13  O1  UNL     1     -36.667  13.446 106.343  1.00  0.00    -0.271 OA
BRANCH  11  14
HETATM   14  C2  UNL     1     -37.828  15.906 105.807  1.00  0.00     0.076 C 
HETATM   15  C1  UNL     1     -37.572  17.410 105.740  1.00  0.00     0.032 C 
HETATM   16  C3  UNL     1     -39.288  15.690 105.528  1.00  0.00     0.032 C 
ENDBRANCH  11  14
ENDBRANCH   4  10
ENDBRANCH   1   2
BRANCH   1  17
HETATM   17  N3  UNL     1     -32.253  15.708 109.866  1.00  0.00    -0.049 N 
ATOM     18  H32 UNL     1     -31.317  16.082 109.711  1.00  0.00     0.279 HD
ATOM     19  H31 UNL     1     -32.755  16.596 109.857  1.00  0.00     0.279 HD
BRANCH  17  20
HETATM   20  C12 UNL     1     -32.378  14.999 111.134  1.00  0.00     0.256 C 
HETATM   21  C13 UNL     1     -33.175  15.863 112.100  1.00  0.00     0.041 C 
HETATM   22  C14 UNL     1     -32.793  15.293 113.449  1.00  0.00     0.010 C 
HETATM   23  C15 UNL     1     -31.460  14.596 113.277  1.00  0.00     0.080 C 
HETATM   24  C16 UNL     1     -31.098  14.899 111.872  1.00  0.00     0.157 C 
HETATM   25  O3  UNL     1     -29.975  15.032 111.454  1.00  0.00    -0.296 OA
ENDBRANCH  17  20
ENDBRANCH   1  17
BRANCH   1  26
HETATM   26  C17 UNL     1     -31.992  15.306 107.539  1.00  0.00     0.160 C 
HETATM   27  C18 UNL     1     -30.515  15.152 107.547  1.00  0.00     0.041 C 
HETATM   28  C19 UNL     1     -29.974  15.300 106.144  1.00  0.00     0.002 C 
HETATM   29  C20 UNL     1     -30.446  14.234 105.191  1.00  0.00     0.000 C 
HETATM   30  C21 UNL     1     -31.643  13.544 105.801  1.00  0.00     0.002 C 
HETATM   31  C22 UNL     1     -32.551  14.644 106.304  1.00  0.00     0.041 C 
BRANCH  26  32
HETATM   32  N4  UNL     1     -32.294  16.739 107.386  1.00  0.00    -0.068 N 
ATOM     33  H43 UNL     1     -32.998  17.063 108.049  1.00  0.00     0.275 HD
ATOM     34  H42 UNL     1     -31.525  17.334 107.695  1.00  0.00     0.275 HD
ATOM     35  H41 UNL     1     -32.559  16.915 106.418  1.00  0.00     0.275 HD
ENDBRANCH  26  32
ENDBRANCH   1  26
TORSDOF 7
ENDMDL
MODEL 4
REMARK VINA RESULT: -5.873120354     15.085     17.768
REMARK  7 active torsions:
REMARK  status: ('A' for Active; 'I' for Inactive)
REMARK    1  A    between atoms: C2_2  and  N1_4 
REMARK       I    between atoms: N1_4  and  C4_6 
REMARK    2  A    between atoms: C4_6  and  C5_8 
REMARK       I    between atoms: N2_13  and  C10_14 
REMARK    3  A    between atoms: C10_14  and  C11_16 
REMARK    4  A    between atoms: C11_16  and  N3_17 
REMARK    5  A    between atoms: C11_16  and  C17_26 
REMARK    6  A    between atoms: N3_17  and  C12_20 
REMARK    7  A    between atoms: C17_26  and  N4_27 
ROOT
HETATM    1  C11 UNL     1     -34.308  18.852  92.074  1.00  0.00     0.313 C 
ENDROOT
BRANCH   1   2
HETATM    2  C10 UNL     1     -33.038  18.126  92.210  1.00  0.00     0.254 C 
HETATM    3  N2  UNL     1     -32.114  17.811  91.202  1.00  0.00    -0.337 N 
HETATM    4  C5  UNL     1     -30.919  17.027  91.464  1.00  0.00     0.179 C 
HETATM    5  C9  UNL     1     -32.262  18.282  89.850  1.00  0.00     0.127 C 
HETATM    6  C6  UNL     1     -30.129  16.813  90.191  1.00  0.00     0.035 C 
HETATM    7  C7  UNL     1     -29.863  18.012  89.378  1.00  0.00     0.004 C 
HETATM    8  C8  UNL     1     -30.976  18.975  89.378  1.00  0.00     0.020 C 
HETATM    9  O2  UNL     1     -32.778  17.752  93.415  1.00  0.00    -0.271 OA
BRANCH   4  10
HETATM   10  C4  UNL     1     -31.196  15.670  91.969  1.00  0.00     0.240 C 
HETATM   11  N1  UNL     1     -32.085  14.834  91.274  1.00  0.00    -0.355 N 
ATOM     12  H1  UNL     1     -32.535  15.174  90.423  1.00  0.00     0.162 HD
HETATM   13  O1  UNL     1     -30.647  15.266  93.002  1.00  0.00    -0.271 OA
BRANCH  11  14
HETATM   14  C2  UNL     1     -32.373  13.495  91.748  1.00  0.00     0.076 C 
HETATM   15  C1  UNL     1     -31.598  12.522  90.863  1.00  0.00     0.032 C 
HETATM   16  C3  UNL     1     -33.828  13.132  91.642  1.00  0.00     0.032 C 
ENDBRANCH  11  14
ENDBRANCH   4  10
ENDBRANCH   1   2
BRANCH   1  17
HETATM   17  N3  UNL     1     -34.277  20.106  92.851  1.00  0.00    -0.049 N 
ATOM     18  H32 UNL     1     -34.887  20.082  93.667  1.00  0.00     0.279 HD
ATOM     19  H31 UNL     1     -33.396  20.244  93.346  1.00  0.00     0.279 HD
BRANCH  17  20
HETATM   20  C12 UNL     1     -34.593  21.200  91.940  1.00  0.00     0.256 C 
HETATM   21  C13 UNL     1     -33.294  21.753  91.373  1.00  0.00     0.041 C 
HETATM   22  C14 UNL     1     -33.697  23.133  90.902  1.00  0.00     0.010 C 
HETATM   23  C15 UNL     1     -34.934  23.526  91.681  1.00  0.00     0.080 C 
HETATM   24  C16 UNL     1     -35.106  22.403  92.633  1.00  0.00     0.157 C 
HETATM   25  O3  UNL     1     -35.572  22.492  93.741  1.00  0.00    -0.296 OA
ENDBRANCH  17  20
ENDBRANCH   1  17
BRANCH   1  26
HETATM   26  C17 UNL     1     -35.518  18.095  92.609  1.00  0.00     0.160 C 
HETATM   27  C18 UNL     1     -35.739  18.239  94.071  1.00  0.00     0.041 C 
HETATM   28  C19 UNL     1     -37.145  17.812  94.424  1.00  0.00     0.002 C 
HETATM   29  C20 UNL     1     -38.217  18.670  93.808  1.00  0.00     0.000 C 
HETATM   30  C21 UNL     1     -37.602  19.475  92.688  1.00  0.00     0.002 C 
HETATM   31  C22 UNL     1     -36.774  18.502  91.878  1.00  0.00     0.041 C 
BRANCH  26  32
HETATM   32  N4  UNL     1     -35.343  16.662  92.320  1.00  0.00    -0.068 N 
ATOM     33  H43 UNL     1     -34.632  16.229  92.910  1.00  0.00     0.275 HD
ATOM     34  H42 UNL     1     -36.139  16.102  92.625  1.00  0.00     0.275 HD
ATOM     35  H41 UNL     1     -35.145  16.551  91.326  1.00  0.00     0.275 HD
ENDBRANCH  26  32
ENDBRANCH   1  26
TORSDOF 7
ENDMDL
MODEL 5
REMARK VINA RESULT: -5.834832146      1.574      7.042
REMARK  7 active torsions:
REMARK  status: ('A' for Active; 'I' for Inactive)
REMARK    1  A    between atoms: C2_2  and  N1_4 
REMARK       I    between atoms: N1_4  and  C4_6 
REMARK    2  A    between atoms: C4_6  and  C5_8 
REMARK       I    between atoms: N2_13  and  C10_14 
REMARK    3  A    between atoms: C10_14  and  C11_16 
REMARK    4  A    between atoms: C11_16  and  N3_17 
REMARK    5  A    between atoms: C11_16  and  C17_26 
REMARK    6  A    between atoms: N3_17  and  C12_20 
REMARK    7  A    between atoms: C17_26  and  N4_27 
ROOT
HETATM    1  C11 UNL     1     -35.468  14.855 106.917  1.00  0.00     0.313 C 
ENDROOT
BRANCH   1   2
HETATM    2  C10 UNL     1     -34.301  15.275 107.704  1.00  0.00     0.254 C 
HETATM    3  N2  UNL     1     -32.944  15.156 107.365  1.00  0.00    -0.337 N 
HETATM    4  C5  UNL     1     -31.882  15.558 108.269  1.00  0.00     0.179 C 
HETATM    5  C9  UNL     1     -32.514  14.673 106.078  1.00  0.00     0.127 C 
HETATM    6  C6  UNL     1     -30.525  15.285 107.656  1.00  0.00     0.035 C 
HETATM    7  C7  UNL     1     -30.320  15.766 106.280  1.00  0.00     0.004 C 
HETATM    8  C8  UNL     1     -31.523  15.655 105.439  1.00  0.00     0.020 C 
HETATM    9  O2  UNL     1     -34.602  15.813 108.835  1.00  0.00    -0.271 OA
BRANCH   4  10
HETATM   10  C4  UNL     1     -31.875  14.820 109.545  1.00  0.00     0.240 C 
HETATM   11  N1  UNL     1     -32.165  15.493 110.744  1.00  0.00    -0.355 N 
ATOM     12  H1  UNL     1     -32.378  16.491 110.722  1.00  0.00     0.162 HD
HETATM   13  O1  UNL     1     -31.614  13.611 109.563  1.00  0.00    -0.271 OA
BRANCH  11  14
HETATM   14  C2  UNL     1     -32.166  14.791 112.011  1.00  0.00     0.076 C 
HETATM   15  C1  UNL     1     -33.257  15.415 112.877  1.00  0.00     0.032 C 
HETATM   16  C3  UNL     1     -30.871  14.924 112.761  1.00  0.00     0.032 C 
ENDBRANCH  11  14
ENDBRANCH   4  10
ENDBRANCH   1   2
BRANCH   1  17
HETATM   17  N3  UNL     1     -36.642  15.688 107.238  1.00  0.00    -0.049 N 
ATOM     18  H32 UNL     1     -37.404  15.156 107.657  1.00  0.00     0.279 HD
ATOM     19  H31 UNL     1     -36.476  16.322 108.020  1.00  0.00     0.279 HD
BRANCH  17  20
HETATM   20  C12 UNL     1     -37.039  16.384 106.020  1.00  0.00     0.256 C 
HETATM   21  C13 UNL     1     -37.331  17.838 106.361  1.00  0.00     0.041 C 
HETATM   22  C14 UNL     1     -38.195  18.285 105.202  1.00  0.00     0.010 C 
HETATM   23  C15 UNL     1     -38.817  17.041 104.604  1.00  0.00     0.080 C 
HETATM   24  C16 UNL     1     -38.368  15.965 105.519  1.00  0.00     0.157 C 
HETATM   25  O3  UNL     1     -38.988  14.964 105.777  1.00  0.00    -0.296 OA
ENDBRANCH  17  20
ENDBRANCH   1  17
BRANCH   1  26
HETATM   26  C17 UNL     1     -35.922  13.425 107.190  1.00  0.00     0.160 C 
HETATM   27  C18 UNL     1     -34.836  12.505 107.616  1.00  0.00     0.041 C 
HETATM   28  C19 UNL     1     -35.430  11.264 108.242  1.00  0.00     0.002 C 
HETATM   29  C20 UNL     1     -36.202  11.528 109.508  1.00  0.00     0.000 C 
HETATM   30  C21 UNL     1     -36.505  13.005 109.584  1.00  0.00     0.002 C 
HETATM   31  C22 UNL     1     -37.025  13.398 108.219  1.00  0.00     0.041 C 
BRANCH  26  32
HETATM   32  N4  UNL     1     -36.518  12.878 105.961  1.00  0.00    -0.068 N 
ATOM     33  H43 UNL     1     -35.859  12.856 105.183  1.00  0.00     0.275 HD
ATOM     34  H42 UNL     1     -36.694  11.875 106.025  1.00  0.00     0.275 HD
ATOM     35  H41 UNL     1     -37.362  13.409 105.742  1.00  0.00     0.275 HD
ENDBRANCH  26  32
ENDBRANCH   1  26
TORSDOF 7
ENDMDL
