MODEL 1
REMARK VINA RESULT: -9.866728230      0.000      0.000
REMARK  11 active torsions:
REMARK  status: ('A' for Active; 'I' for Inactive)
REMARK    1  A    between atoms: C2_2  and  C3_3 
REMARK    2  A    between atoms: C5_5  and  N1_6 
REMARK    3  A    between atoms: C5_5  and  C36_46 
REMARK       I    between atoms: N1_6  and  C6_8 
REMARK    4  A    between atoms: C6_8  and  C7_10 
REMARK    5  A    between atoms: C7_10  and  N2_11 
REMARK       I    between atoms: N2_11  and  C8_13 
REMARK    6  A    between atoms: C8_13  and  C9_15 
REMARK    7  A    between atoms: C21_27  and  O3_28 
REMARK    8  A    between atoms: C29_37  and  O4_38 
REMARK    9  A    between atoms: O4_38  and  C30_39 
REMARK   10  A    between atoms: C36_46  and  C37_48 
REMARK   11  A    between atoms: C37_48  and  O7_49 
ROOT
HETATM    1  C9  UNL     1      39.045  57.691 137.862  1.00  0.00     0.068 C 
HETATM    2  C10 UNL     1      39.719  58.892 137.231  1.00  0.00     0.022 C 
HETATM    3  C11 UNL     1      40.459  59.818 138.093  1.00  0.00     0.011 C 
HETATM    4  C12 UNL     1      40.813  59.418 139.478  1.00  0.00    -0.035 C 
HETATM    5  C13 UNL     1      41.966  60.384 139.867  1.00  0.00     0.016 C 
HETATM    6  C14 UNL     1      41.640  58.149 139.308  1.00  0.00     0.017 C 
HETATM    7  C15 UNL     1      40.784  57.002 139.694  1.00  0.00     0.017 C 
HETATM    8  C16 UNL     1      40.500  57.185 141.097  1.00  0.00     0.013 C 
HETATM    9  C17 UNL     1      40.481  58.629 141.632  1.00  0.00     0.006 C 
HETATM   10  C18 UNL     1      39.983  58.802 143.005  1.00  0.00    -0.017 C 
HETATM   11  C19 UNL     1      40.210  57.486 143.789  1.00  0.00     0.018 C 
HETATM   12  C20 UNL     1      40.876  59.781 143.792  1.00  0.00     0.018 C 
HETATM   13  C21 UNL     1      38.578  59.275 143.153  1.00  0.00     0.127 C 
HETATM   14  C22 UNL     1      37.891  59.778 141.912  1.00  0.00     0.042 C 
HETATM   15  C23 UNL     1      38.436  59.036 140.658  1.00  0.00    -0.033 C 
HETATM   16  C24 UNL     1      37.761  57.787 140.962  1.00  0.00     0.016 C 
HETATM   17  C25 UNL     1      37.778  59.395 139.372  1.00  0.00     0.011 C 
HETATM   18  C26 UNL     1      37.794  58.181 138.473  1.00  0.00     0.022 C 
HETATM   19  C27 UNL     1      39.812  59.446 140.549  1.00  0.00    -0.025 C 
HETATM   20  C28 UNL     1      39.726  60.958 140.801  1.00  0.00     0.017 C 
HETATM   21  C29 UNL     1      39.964  56.757 138.510  1.00  0.00     0.153 C 
ENDROOT
BRANCH   1  22
HETATM   22  C8  UNL     1      38.458  56.985 136.658  1.00  0.00     0.230 C 
HETATM   23  N2  UNL     1      37.921  55.707 136.556  1.00  0.00    -0.342 N 
ATOM     24  H2  UNL     1      37.913  55.159 137.417  1.00  0.00     0.163 HD
HETATM   25  O2  UNL     1      38.425  57.591 135.561  1.00  0.00    -0.273 OA
BRANCH  23  26
HETATM   26  C7  UNL     1      37.386  55.069 135.415  1.00  0.00     0.114 C 
HETATM   27  C32 UNL     1      36.057  55.616 134.957  1.00  0.00     0.041 C 
HETATM   28  C33 UNL     1      34.983  54.892 135.748  1.00  0.00     0.003 C 
HETATM   29  C34 UNL     1      35.667  53.805 136.522  1.00  0.00     0.003 C 
HETATM   30  C35 UNL     1      36.945  53.632 135.781  1.00  0.00     0.041 C 
BRANCH  26  31
HETATM   31  C6  UNL     1      38.274  55.022 134.232  1.00  0.00     0.247 C 
HETATM   32  N1  UNL     1      38.174  55.960 133.191  1.00  0.00    -0.342 N 
ATOM     33  H1  UNL     1      37.443  56.666 133.283  1.00  0.00     0.163 HD
HETATM   34  O1  UNL     1      39.135  54.125 134.155  1.00  0.00    -0.271 OA
BRANCH  32  35
HETATM   35  C5  UNL     1      38.994  56.034 132.004  1.00  0.00     0.103 A 
HETATM   36  C3  UNL     1      38.208  56.477 130.734  1.00  0.00     0.046 A 
HETATM   37  C4  UNL     1      38.887  55.133 130.861  1.00  0.00     0.051 A 
BRANCH  36  38
HETATM   38  C2  UNL     1      36.732  56.477 130.811  1.00  0.00    -0.029 C 
HETATM   39  C1  UNL     1      36.069  56.070 129.718  1.00  0.00     0.007 C 
ENDBRANCH  36  38
BRANCH  35  40
HETATM   40  C36 UNL     1      40.238  56.910 132.039  1.00  0.00     0.178 C 
HETATM   41  O6  UNL     1      40.689  57.259 133.125  1.00  0.00    -0.293 OA
BRANCH  40  42
HETATM   42  C37 UNL     1      40.928  57.348 130.825  1.00  0.00     0.245 C 
BRANCH  42  43
HETATM   43  O7  UNL     1      40.579  58.697 130.548  1.00  0.00    -0.393 OA
ATOM     44  H7  UNL     1      40.637  59.207 131.347  1.00  0.00     0.209 HD
ENDBRANCH  42  43
ENDBRANCH  40  42
ENDBRANCH  35  40
ENDBRANCH  32  35
ENDBRANCH  26  31
ENDBRANCH  23  26
ENDBRANCH   1  22
BRANCH  21  45
HETATM   45  O4  UNL     1      40.993  56.526 137.508  1.00  0.00    -0.315 OA
BRANCH  45  46
HETATM   46  C30 UNL     1      41.151  55.361 136.810  1.00  0.00     0.255 C 
HETATM   47  C31 UNL     1      40.780  54.029 137.364  1.00  0.00     0.126 C 
HETATM   48  O5  UNL     1      41.628  55.403 135.655  1.00  0.00    -0.266 OA
ENDBRANCH  45  46
ENDBRANCH  21  45
BRANCH  13  49
HETATM   49  O3  UNL     1      38.442  60.299 144.139  1.00  0.00    -0.395 OA
ATOM     50  H3  UNL     1      37.545  60.596 144.238  1.00  0.00     0.210 HD
ENDBRANCH  13  49
TORSDOF 11
ENDMDL
MODEL 2
REMARK VINA RESULT: -9.841907701      1.893      3.771
REMARK  11 active torsions:
REMARK  status: ('A' for Active; 'I' for Inactive)
REMARK    1  A    between atoms: C2_2  and  C3_3 
REMARK    2  A    between atoms: C5_5  and  N1_6 
REMARK    3  A    between atoms: C5_5  and  C36_46 
REMARK       I    between atoms: N1_6  and  C6_8 
REMARK    4  A    between atoms: C6_8  and  C7_10 
REMARK    5  A    between atoms: C7_10  and  N2_11 
REMARK       I    between atoms: N2_11  and  C8_13 
REMARK    6  A    between atoms: C8_13  and  C9_15 
REMARK    7  A    between atoms: C21_27  and  O3_28 
REMARK    8  A    between atoms: C29_37  and  O4_38 
REMARK    9  A    between atoms: O4_38  and  C30_39 
REMARK   10  A    between atoms: C36_46  and  C37_48 
REMARK   11  A    between atoms: C37_48  and  O7_49 
ROOT
HETATM    1  C9  UNL     1      39.858  56.634 137.269  1.00  0.00     0.068 C 
HETATM    2  C10 UNL     1      40.334  55.449 138.083  1.00  0.00     0.022 C 
HETATM    3  C11 UNL     1      40.346  55.558 139.545  1.00  0.00     0.011 C 
HETATM    4  C12 UNL     1      39.613  56.663 140.212  1.00  0.00    -0.035 C 
HETATM    5  C13 UNL     1      39.438  56.171 141.675  1.00  0.00     0.016 C 
HETATM    6  C14 UNL     1      38.170  56.494 139.752  1.00  0.00     0.017 C 
HETATM    7  C15 UNL     1      37.895  57.545 138.743  1.00  0.00     0.017 C 
HETATM    8  C16 UNL     1      38.012  58.799 139.448  1.00  0.00     0.013 C 
HETATM    9  C17 UNL     1      38.965  58.843 140.658  1.00  0.00     0.006 C 
HETATM   10  C18 UNL     1      39.228  60.175 141.223  1.00  0.00    -0.017 C 
HETATM   11  C19 UNL     1      38.026  61.099 140.908  1.00  0.00     0.018 C 
HETATM   12  C20 UNL     1      39.184  60.134 142.763  1.00  0.00     0.018 C 
HETATM   13  C21 UNL     1      40.513  60.824 140.838  1.00  0.00     0.127 C 
HETATM   14  C22 UNL     1      41.529  59.967 140.132  1.00  0.00     0.042 C 
HETATM   15  C23 UNL     1      40.814  58.875 139.286  1.00  0.00    -0.033 C 
HETATM   16  C24 UNL     1      40.354  59.801 138.267  1.00  0.00     0.016 C 
HETATM   17  C25 UNL     1      41.714  58.006 138.478  1.00  0.00     0.011 C 
HETATM   18  C26 UNL     1      40.980  57.593 137.225  1.00  0.00     0.022 C 
HETATM   19  C27 UNL     1      40.166  58.020 140.247  1.00  0.00    -0.025 C 
HETATM   20  C28 UNL     1      41.255  57.840 141.314  1.00  0.00     0.017 C 
HETATM   21  C29 UNL     1      38.466  57.011 137.509  1.00  0.00     0.153 C 
ENDROOT
BRANCH   1  22
HETATM   22  C8  UNL     1      39.945  56.106 135.853  1.00  0.00     0.230 C 
HETATM   23  N2  UNL     1      39.380  54.964 135.298  1.00  0.00    -0.342 N 
ATOM     24  H2  UNL     1      38.817  54.396 135.930  1.00  0.00     0.163 HD
HETATM   25  O2  UNL     1      40.616  56.749 135.010  1.00  0.00    -0.273 OA
BRANCH  23  26
HETATM   26  C7  UNL     1      39.486  54.489 133.972  1.00  0.00     0.114 C 
HETATM   27  C32 UNL     1      38.645  53.273 133.673  1.00  0.00     0.041 C 
HETATM   28  C33 UNL     1      39.466  52.059 134.072  1.00  0.00     0.003 C 
HETATM   29  C34 UNL     1      40.838  52.553 134.423  1.00  0.00     0.003 C 
HETATM   30  C35 UNL     1      40.889  53.878 133.747  1.00  0.00     0.041 C 
BRANCH  26  31
HETATM   31  C6  UNL     1      39.210  55.484 132.911  1.00  0.00     0.247 C 
HETATM   32  N1  UNL     1      40.168  55.818 131.940  1.00  0.00    -0.342 N 
ATOM     33  H1  UNL     1      41.073  55.354 132.015  1.00  0.00     0.163 HD
HETATM   34  O1  UNL     1      38.097  56.042 132.877  1.00  0.00    -0.271 OA
BRANCH  32  35
HETATM   35  C5  UNL     1      40.011  56.749 130.846  1.00  0.00     0.103 A 
HETATM   36  C3  UNL     1      41.324  56.990 130.043  1.00  0.00     0.046 A 
HETATM   37  C4  UNL     1      40.601  58.083 130.797  1.00  0.00     0.051 A 
BRANCH  36  38
HETATM   38  C2  UNL     1      42.587  56.506 130.640  1.00  0.00    -0.029 C 
HETATM   39  C1  UNL     1      43.652  56.435 129.828  1.00  0.00     0.007 C 
ENDBRANCH  36  38
BRANCH  35  40
HETATM   40  C36 UNL     1      38.941  56.462 129.802  1.00  0.00     0.178 C 
HETATM   41  O6  UNL     1      38.002  57.240 129.684  1.00  0.00    -0.293 OA
BRANCH  40  42
HETATM   42  C37 UNL     1      38.993  55.293 128.923  1.00  0.00     0.245 C 
BRANCH  42  43
HETATM   43  O7  UNL     1      39.349  54.148 129.685  1.00  0.00    -0.393 OA
ATOM     44  H7  UNL     1      39.046  53.366 129.238  1.00  0.00     0.209 HD
ENDBRANCH  42  43
ENDBRANCH  40  42
ENDBRANCH  35  40
ENDBRANCH  32  35
ENDBRANCH  26  31
ENDBRANCH  23  26
ENDBRANCH   1  22
BRANCH  21  45
HETATM   45  O4  UNL     1      37.739  55.756 137.393  1.00  0.00    -0.315 OA
BRANCH  45  46
HETATM   46  C30 UNL     1      36.770  55.502 136.462  1.00  0.00     0.255 C 
HETATM   47  C31 UNL     1      35.990  54.233 136.434  1.00  0.00     0.126 C 
HETATM   48  O5  UNL     1      36.520  56.364 135.592  1.00  0.00    -0.266 OA
ENDBRANCH  45  46
ENDBRANCH  21  45
BRANCH  13  49
HETATM   49  O3  UNL     1      41.184  61.420 141.950  1.00  0.00    -0.395 OA
ATOM     50  H3  UNL     1      41.488  62.301 141.765  1.00  0.00     0.210 HD
ENDBRANCH  13  49
TORSDOF 11
ENDMDL
MODEL 3
REMARK VINA RESULT: -9.591109690      2.572      8.718
REMARK  11 active torsions:
REMARK  status: ('A' for Active; 'I' for Inactive)
REMARK    1  A    between atoms: C2_2  and  C3_3 
REMARK    2  A    between atoms: C5_5  and  N1_6 
REMARK    3  A    between atoms: C5_5  and  C36_46 
REMARK       I    between atoms: N1_6  and  C6_8 
REMARK    4  A    between atoms: C6_8  and  C7_10 
REMARK    5  A    between atoms: C7_10  and  N2_11 
REMARK       I    between atoms: N2_11  and  C8_13 
REMARK    6  A    between atoms: C8_13  and  C9_15 
REMARK    7  A    between atoms: C21_27  and  O3_28 
REMARK    8  A    between atoms: C29_37  and  O4_38 
REMARK    9  A    between atoms: O4_38  and  C30_39 
REMARK   10  A    between atoms: C36_46  and  C37_48 
REMARK   11  A    between atoms: C37_48  and  O7_49 
ROOT
HETATM    1  C9  UNL     1      39.422  56.907 137.054  1.00  0.00     0.068 C 
HETATM    2  C10 UNL     1      37.934  56.977 137.331  1.00  0.00     0.022 C 
HETATM    3  C11 UNL     1      37.079  55.878 136.872  1.00  0.00     0.011 C 
HETATM    4  C12 UNL     1      37.689  54.594 136.445  1.00  0.00    -0.035 C 
HETATM    5  C13 UNL     1      36.519  53.575 136.525  1.00  0.00     0.016 C 
HETATM    6  C14 UNL     1      38.473  54.121 137.665  1.00  0.00     0.017 C 
HETATM    7  C15 UNL     1      39.911  54.358 137.392  1.00  0.00     0.017 C 
HETATM    8  C16 UNL     1      40.238  53.507 136.273  1.00  0.00     0.013 C 
HETATM    9  C17 UNL     1      39.106  53.176 135.281  1.00  0.00     0.006 C 
HETATM   10  C18 UNL     1      39.511  52.490 134.046  1.00  0.00    -0.017 C 
HETATM   11  C19 UNL     1      40.818  51.703 134.315  1.00  0.00     0.018 C 
HETATM   12  C20 UNL     1      38.534  51.348 133.708  1.00  0.00     0.018 C 
HETATM   13  C21 UNL     1      39.640  53.333 132.823  1.00  0.00     0.127 C 
HETATM   14  C22 UNL     1      39.098  54.735 132.898  1.00  0.00     0.042 C 
HETATM   15  C23 UNL     1      39.216  55.279 134.350  1.00  0.00    -0.033 C 
HETATM   16  C24 UNL     1      40.657  55.452 134.292  1.00  0.00     0.016 C 
HETATM   17  C25 UNL     1      38.780  56.690 134.537  1.00  0.00     0.011 C 
HETATM   18  C26 UNL     1      39.606  57.302 135.643  1.00  0.00     0.022 C 
HETATM   19  C27 UNL     1      38.323  54.462 135.130  1.00  0.00    -0.025 C 
HETATM   20  C28 UNL     1      37.077  54.390 134.236  1.00  0.00     0.017 C 
HETATM   21  C29 UNL     1      40.099  55.776 137.685  1.00  0.00     0.153 C 
ENDROOT
BRANCH   1  22
HETATM   22  C8  UNL     1      39.930  58.168 137.719  1.00  0.00     0.230 C 
HETATM   23  N2  UNL     1      41.236  58.572 137.969  1.00  0.00    -0.342 N 
ATOM     24  H2  UNL     1      41.966  57.932 137.655  1.00  0.00     0.163 HD
HETATM   25  O2  UNL     1      39.098  59.011 138.130  1.00  0.00    -0.273 OA
BRANCH  23  26
HETATM   26  C7  UNL     1      41.684  59.753 138.601  1.00  0.00     0.114 C 
HETATM   27  C32 UNL     1      41.130  61.027 138.013  1.00  0.00     0.041 C 
HETATM   28  C33 UNL     1      42.038  61.414 136.860  1.00  0.00     0.003 C 
HETATM   29  C34 UNL     1      43.212  60.481 136.894  1.00  0.00     0.003 C 
HETATM   30  C35 UNL     1      43.184  59.973 138.292  1.00  0.00     0.041 C 
BRANCH  26  31
HETATM   31  C6  UNL     1      41.472  59.816 140.065  1.00  0.00     0.247 C 
HETATM   32  N1  UNL     1      40.231  59.509 140.649  1.00  0.00    -0.342 N 
ATOM     33  H1  UNL     1      39.477  59.259 140.010  1.00  0.00     0.163 HD
HETATM   34  O1  UNL     1      42.419  60.151 140.801  1.00  0.00    -0.271 OA
BRANCH  32  35
HETATM   35  C5  UNL     1      39.908  59.510 142.057  1.00  0.00     0.103 A 
HETATM   36  C3  UNL     1      38.965  60.676 142.477  1.00  0.00     0.046 A 
HETATM   37  C4  UNL     1      40.368  60.510 143.016  1.00  0.00     0.051 A 
BRANCH  36  38
HETATM   38  C2  UNL     1      38.761  61.771 141.505  1.00  0.00    -0.029 C 
HETATM   39  C1  UNL     1      39.600  62.815 141.584  1.00  0.00     0.007 C 
ENDBRANCH  36  38
BRANCH  35  40
HETATM   40  C36 UNL     1      39.295  58.253 142.658  1.00  0.00     0.178 C 
HETATM   41  O6  UNL     1      39.857  57.710 143.603  1.00  0.00    -0.293 OA
BRANCH  40  42
HETATM   42  C37 UNL     1      38.051  57.666 142.155  1.00  0.00     0.245 C 
BRANCH  42  43
HETATM   43  O7  UNL     1      37.998  57.819 140.744  1.00  0.00    -0.393 OA
ATOM     44  H7  UNL     1      37.224  58.319 140.511  1.00  0.00     0.209 HD
ENDBRANCH  42  43
ENDBRANCH  40  42
ENDBRANCH  35  40
ENDBRANCH  32  35
ENDBRANCH  26  31
ENDBRANCH  23  26
ENDBRANCH   1  22
BRANCH  21  45
HETATM   45  O4  UNL     1      39.656  55.831 139.069  1.00  0.00    -0.315 OA
BRANCH  45  46
HETATM   46  C30 UNL     1      40.482  55.743 140.154  1.00  0.00     0.255 C 
HETATM   47  C31 UNL     1      40.392  54.640 141.151  1.00  0.00     0.126 C 
HETATM   48  O5  UNL     1      41.354  56.621 140.329  1.00  0.00    -0.266 OA
ENDBRANCH  45  46
ENDBRANCH  21  45
BRANCH  13  49
HETATM   49  O3  UNL     1      39.050  52.727 131.672  1.00  0.00    -0.395 OA
ATOM     50  H3  UNL     1      38.199  52.346 131.855  1.00  0.00     0.210 HD
ENDBRANCH  13  49
TORSDOF 11
ENDMDL
MODEL 4
REMARK VINA RESULT: -9.582956906      2.560      8.707
REMARK  11 active torsions:
REMARK  status: ('A' for Active; 'I' for Inactive)
REMARK    1  A    between atoms: C2_2  and  C3_3 
REMARK    2  A    between atoms: C5_5  and  N1_6 
REMARK    3  A    between atoms: C5_5  and  C36_46 
REMARK       I    between atoms: N1_6  and  C6_8 
REMARK    4  A    between atoms: C6_8  and  C7_10 
REMARK    5  A    between atoms: C7_10  and  N2_11 
REMARK       I    between atoms: N2_11  and  C8_13 
REMARK    6  A    between atoms: C8_13  and  C9_15 
REMARK    7  A    between atoms: C21_27  and  O3_28 
REMARK    8  A    between atoms: C29_37  and  O4_38 
REMARK    9  A    between atoms: O4_38  and  C30_39 
REMARK   10  A    between atoms: C36_46  and  C37_48 
REMARK   11  A    between atoms: C37_48  and  O7_49 
ROOT
HETATM    1  C9  UNL     1      39.599  57.159 137.012  1.00  0.00     0.068 C 
HETATM    2  C10 UNL     1      38.109  57.351 137.205  1.00  0.00     0.022 C 
HETATM    3  C11 UNL     1      37.202  56.273 136.801  1.00  0.00     0.011 C 
HETATM    4  C12 UNL     1      37.740  54.918 136.520  1.00  0.00    -0.035 C 
HETATM    5  C13 UNL     1      36.499  53.989 136.629  1.00  0.00     0.016 C 
HETATM    6  C14 UNL     1      38.432  54.508 137.815  1.00  0.00     0.017 C 
HETATM    7  C15 UNL     1      39.894  54.625 137.596  1.00  0.00     0.017 C 
HETATM    8  C16 UNL     1      40.212  53.656 136.574  1.00  0.00     0.013 C 
HETATM    9  C17 UNL     1      39.106  53.311 135.559  1.00  0.00     0.006 C 
HETATM   10  C18 UNL     1      39.517  52.491 134.410  1.00  0.00    -0.017 C 
HETATM   11  C19 UNL     1      40.753  51.648 134.814  1.00  0.00     0.018 C 
HETATM   12  C20 UNL     1      38.479  51.389 134.124  1.00  0.00     0.018 C 
HETATM   13  C21 UNL     1      39.760  53.209 133.127  1.00  0.00     0.127 C 
HETATM   14  C22 UNL     1      39.314  54.645 133.050  1.00  0.00     0.042 C 
HETATM   15  C23 UNL     1      39.404  55.309 134.454  1.00  0.00    -0.033 C 
HETATM   16  C24 UNL     1      40.854  55.382 134.455  1.00  0.00     0.016 C 
HETATM   17  C25 UNL     1      39.059  56.757 134.494  1.00  0.00     0.011 C 
HETATM   18  C26 UNL     1      39.874  57.412 135.584  1.00  0.00     0.022 C 
HETATM   19  C27 UNL     1      38.422  54.626 135.255  1.00  0.00    -0.025 C 
HETATM   20  C28 UNL     1      37.215  54.555 134.308  1.00  0.00     0.017 C 
HETATM   21  C29 UNL     1      40.167  56.048 137.773  1.00  0.00     0.153 C 
ENDROOT
BRANCH   1  22
HETATM   22  C8  UNL     1      40.164  58.439 137.590  1.00  0.00     0.230 C 
HETATM   23  N2  UNL     1      41.337  58.645 138.305  1.00  0.00    -0.342 N 
ATOM     24  H2  UNL     1      41.911  57.817 138.464  1.00  0.00     0.163 HD
HETATM   25  O2  UNL     1      39.522  59.505 137.435  1.00  0.00    -0.273 OA
BRANCH  23  26
HETATM   26  C7  UNL     1      41.837  59.853 138.841  1.00  0.00     0.114 C 
HETATM   27  C32 UNL     1      41.647  61.058 137.955  1.00  0.00     0.041 C 
HETATM   28  C33 UNL     1      42.831  61.101 137.005  1.00  0.00     0.003 C 
HETATM   29  C34 UNL     1      43.793  60.042 137.455  1.00  0.00     0.003 C 
HETATM   30  C35 UNL     1      43.384  59.810 138.867  1.00  0.00     0.041 C 
BRANCH  26  31
HETATM   31  C6  UNL     1      41.335  60.213 140.187  1.00  0.00     0.247 C 
HETATM   32  N1  UNL     1      40.125  59.706 140.687  1.00  0.00    -0.342 N 
ATOM     33  H1  UNL     1      39.598  59.091 140.067  1.00  0.00     0.163 HD
HETATM   34  O1  UNL     1      42.005  60.988 140.895  1.00  0.00    -0.271 OA
BRANCH  32  35
HETATM   35  C5  UNL     1      39.545  59.961 141.986  1.00  0.00     0.103 A 
HETATM   36  C3  UNL     1      38.085  59.439 142.127  1.00  0.00     0.046 A 
HETATM   37  C4  UNL     1      38.456  60.899 142.241  1.00  0.00     0.051 A 
BRANCH  36  38
HETATM   38  C2  UNL     1      37.382  59.035 140.890  1.00  0.00    -0.029 C 
HETATM   39  C1  UNL     1      37.057  57.739 140.773  1.00  0.00     0.007 C 
ENDBRANCH  36  38
BRANCH  35  40
HETATM   40  C36 UNL     1      40.280  59.453 143.218  1.00  0.00     0.178 C 
HETATM   41  O6  UNL     1      40.904  60.251 143.908  1.00  0.00    -0.293 OA
BRANCH  40  42
HETATM   42  C37 UNL     1      40.267  58.045 143.618  1.00  0.00     0.245 C 
BRANCH  42  43
HETATM   43  O7  UNL     1      39.921  57.952 144.993  1.00  0.00    -0.393 OA
ATOM     44  H7  UNL     1      40.570  58.413 145.512  1.00  0.00     0.209 HD
ENDBRANCH  42  43
ENDBRANCH  40  42
ENDBRANCH  35  40
ENDBRANCH  32  35
ENDBRANCH  26  31
ENDBRANCH  23  26
ENDBRANCH   1  22
BRANCH  21  45
HETATM   45  O4  UNL     1      39.667  56.257 139.122  1.00  0.00    -0.315 OA
BRANCH  45  46
HETATM   46  C30 UNL     1      40.400  56.072 140.261  1.00  0.00     0.255 C 
HETATM   47  C31 UNL     1      40.096  55.004 141.254  1.00  0.00     0.126 C 
HETATM   48  O5  UNL     1      41.369  56.828 140.491  1.00  0.00    -0.266 OA
ENDBRANCH  45  46
ENDBRANCH  21  45
BRANCH  13  49
HETATM   49  O3  UNL     1      39.181  52.541 132.004  1.00  0.00    -0.395 OA
ATOM     50  H3  UNL     1      39.379  52.971 131.180  1.00  0.00     0.210 HD
ENDBRANCH  13  49
TORSDOF 11
ENDMDL
MODEL 5
REMARK VINA RESULT: -9.369643008      1.595      3.301
REMARK  11 active torsions:
REMARK  status: ('A' for Active; 'I' for Inactive)
REMARK    1  A    between atoms: C2_2  and  C3_3 
REMARK    2  A    between atoms: C5_5  and  N1_6 
REMARK    3  A    between atoms: C5_5  and  C36_46 
REMARK       I    between atoms: N1_6  and  C6_8 
REMARK    4  A    between atoms: C6_8  and  C7_10 
REMARK    5  A    between atoms: C7_10  and  N2_11 
REMARK       I    between atoms: N2_11  and  C8_13 
REMARK    6  A    between atoms: C8_13  and  C9_15 
REMARK    7  A    between atoms: C21_27  and  O3_28 
REMARK    8  A    between atoms: C29_37  and  O4_38 
REMARK    9  A    between atoms: O4_38  and  C30_39 
REMARK   10  A    between atoms: C36_46  and  C37_48 
REMARK   11  A    between atoms: C37_48  and  O7_49 
ROOT
HETATM    1  C9  UNL     1      40.021  56.408 137.425  1.00  0.00     0.068 C 
HETATM    2  C10 UNL     1      40.506  55.303 138.341  1.00  0.00     0.022 C 
HETATM    3  C11 UNL     1      40.438  55.509 139.791  1.00  0.00     0.011 C 
HETATM    4  C12 UNL     1      39.623  56.619 140.344  1.00  0.00    -0.035 C 
HETATM    5  C13 UNL     1      39.394  56.216 141.827  1.00  0.00     0.016 C 
HETATM    6  C14 UNL     1      38.214  56.350 139.827  1.00  0.00     0.017 C 
HETATM    7  C15 UNL     1      37.946  57.318 138.737  1.00  0.00     0.017 C 
HETATM    8  C16 UNL     1      37.970  58.620 139.359  1.00  0.00     0.013 C 
HETATM    9  C17 UNL     1      38.855  58.790 140.608  1.00  0.00     0.006 C 
HETATM   10  C18 UNL     1      39.029  60.166 141.094  1.00  0.00    -0.017 C 
HETATM   11  C19 UNL     1      37.804  61.009 140.658  1.00  0.00     0.018 C 
HETATM   12  C20 UNL     1      38.906  60.225 142.629  1.00  0.00     0.018 C 
HETATM   13  C21 UNL     1      40.301  60.851 140.729  1.00  0.00     0.127 C 
HETATM   14  C22 UNL     1      41.390  59.998 140.133  1.00  0.00     0.042 C 
HETATM   15  C23 UNL     1      40.769  58.820 139.330  1.00  0.00    -0.033 C 
HETATM   16  C24 UNL     1      40.322  59.654 138.229  1.00  0.00     0.016 C 
HETATM   17  C25 UNL     1      41.748  57.945 138.628  1.00  0.00     0.011 C 
HETATM   18  C26 UNL     1      41.100  57.415 137.372  1.00  0.00     0.022 C 
HETATM   19  C27 UNL     1      40.112  58.000 140.314  1.00  0.00    -0.025 C 
HETATM   20  C28 UNL     1      41.151  57.943 141.443  1.00  0.00     0.017 C 
HETATM   21  C29 UNL     1      38.603  56.732 137.572  1.00  0.00     0.153 C 
ENDROOT
BRANCH   1  22
HETATM   22  C8  UNL     1      40.206  55.792 136.055  1.00  0.00     0.230 C 
HETATM   23  N2  UNL     1      39.251  55.416 135.118  1.00  0.00    -0.342 N 
ATOM     24  H2  UNL     1      38.280  55.581 135.382  1.00  0.00     0.163 HD
HETATM   25  O2  UNL     1      41.370  55.561 135.650  1.00  0.00    -0.273 OA
BRANCH  23  26
HETATM   26  C7  UNL     1      39.452  54.834 133.846  1.00  0.00     0.114 C 
HETATM   27  C32 UNL     1      38.330  53.940 133.382  1.00  0.00     0.041 C 
HETATM   28  C33 UNL     1      38.600  52.559 133.951  1.00  0.00     0.003 C 
HETATM   29  C34 UNL     1      39.959  52.603 134.582  1.00  0.00     0.003 C 
HETATM   30  C35 UNL     1      40.585  53.783 133.927  1.00  0.00     0.041 C 
BRANCH  26  31
HETATM   31  C6  UNL     1      39.742  55.782 132.747  1.00  0.00     0.247 C 
HETATM   32  N1  UNL     1      39.422  55.489 131.411  1.00  0.00    -0.342 N 
ATOM     33  H1  UNL     1      38.996  54.580 131.234  1.00  0.00     0.163 HD
HETATM   34  O1  UNL     1      40.286  56.871 133.013  1.00  0.00    -0.271 OA
BRANCH  32  35
HETATM   35  C5  UNL     1      39.631  56.338 130.260  1.00  0.00     0.103 A 
HETATM   36  C3  UNL     1      38.394  57.215 129.903  1.00  0.00     0.046 A 
HETATM   37  C4  UNL     1      38.965  56.171 128.972  1.00  0.00     0.051 A 
BRANCH  36  38
HETATM   38  C2  UNL     1      37.110  56.881 130.555  1.00  0.00    -0.029 C 
HETATM   39  C1  UNL     1      36.201  56.237 129.808  1.00  0.00     0.007 C 
ENDBRANCH  36  38
BRANCH  35  40
HETATM   40  C36 UNL     1      40.817  57.290 130.271  1.00  0.00     0.178 C 
HETATM   41  O6  UNL     1      40.629  58.472 130.536  1.00  0.00    -0.293 OA
BRANCH  40  42
HETATM   42  C37 UNL     1      42.184  56.849 129.984  1.00  0.00     0.245 C 
BRANCH  42  43
HETATM   43  O7  UNL     1      42.753  56.293 131.161  1.00  0.00    -0.393 OA
ATOM     44  H7  UNL     1      43.679  56.505 131.192  1.00  0.00     0.209 HD
ENDBRANCH  42  43
ENDBRANCH  40  42
ENDBRANCH  35  40
ENDBRANCH  32  35
ENDBRANCH  26  31
ENDBRANCH  23  26
ENDBRANCH   1  22
BRANCH  21  45
HETATM   45  O4  UNL     1      37.941  55.439 137.505  1.00  0.00    -0.315 OA
BRANCH  45  46
HETATM   46  C30 UNL     1      36.899  55.140 136.672  1.00  0.00     0.255 C 
HETATM   47  C31 UNL     1      36.293  53.782 136.590  1.00  0.00     0.126 C 
HETATM   48  O5  UNL     1      36.427  56.037 135.941  1.00  0.00    -0.266 OA
ENDBRANCH  45  46
ENDBRANCH  21  45
BRANCH  13  49
HETATM   49  O3  UNL     1      40.886  61.550 141.829  1.00  0.00    -0.395 OA
ATOM     50  H3  UNL     1      41.344  60.973 142.428  1.00  0.00     0.210 HD
ENDBRANCH  13  49
TORSDOF 11
ENDMDL
