MODEL 1
REMARK VINA RESULT: -9.298181002      0.000      0.000
REMARK  9 active torsions:
REMARK  status: ('A' for Active; 'I' for Inactive)
REMARK    1  A    between atoms: C3_3  and  C4_4 
REMARK    2  A    between atoms: C8_8  and  O1_9 
REMARK    3  A    between atoms: C16_18  and  C17_19 
REMARK    4  A    between atoms: C17_19  and  C18_20 
REMARK    5  A    between atoms: C19_23  and  C20_24 
REMARK    6  A    between atoms: C20_24  and  C21_25 
REMARK       I    between atoms: C21_25  and  N1_27 
REMARK    7  A    between atoms: N1_27  and  C22_29 
REMARK    8  A    between atoms: C28_38  and  C29_39 
REMARK    9  A    between atoms: C29_39  and  N3_40 
ROOT
HETATM    1  C1  UNL     1      43.897  59.802 138.053  1.00  0.00     0.112 C 
HETATM    2  C2  UNL     1      42.448  59.610 138.120  1.00  0.00    -0.111 C 
HETATM    3  C3  UNL     1      41.250  59.460 138.197  1.00  0.00    -0.102 C 
ENDROOT
BRANCH   3   4
HETATM    4  C4  UNL     1      39.775  59.292 138.312  1.00  0.00     0.070 C 
HETATM    5  C5  UNL     1      39.401  59.964 139.582  1.00  0.00     0.023 C 
HETATM    6  C6  UNL     1      38.372  59.366 140.445  1.00  0.00    -0.002 C 
HETATM    7  C7  UNL     1      38.643  59.600 141.913  1.00  0.00     0.037 C 
HETATM    8  C11 UNL     1      38.226  57.848 140.281  1.00  0.00    -0.036 C 
HETATM    9  C8  UNL     1      37.580  59.078 142.817  1.00  0.00     0.118 C 
HETATM   10  C9  UNL     1      37.077  57.713 142.493  1.00  0.00     0.032 C 
HETATM   11  C10 UNL     1      37.006  57.405 141.028  1.00  0.00     0.012 C 
HETATM   12  C12 UNL     1      39.453  57.239 140.910  1.00  0.00     0.016 C 
HETATM   13  C13 UNL     1      38.099  57.637 138.830  1.00  0.00     0.000 C 
HETATM   14  C14 UNL     1      37.841  56.224 138.392  1.00  0.00     0.011 C 
HETATM   15  C37 UNL     1      39.488  57.849 138.210  1.00  0.00     0.010 C 
HETATM   16  C15 UNL     1      38.027  56.438 136.882  1.00  0.00    -0.005 C 
HETATM   17  C16 UNL     1      38.121  55.196 136.099  1.00  0.00     0.004 C 
HETATM   18  C36 UNL     1      39.375  57.196 136.917  1.00  0.00    -0.004 C 
HETATM   19  C19 UNL     1      37.260  55.227 134.849  1.00  0.00    -0.001 C 
HETATM   20  C27 UNL     1      37.607  56.432 134.003  1.00  0.00     0.011 C 
HETATM   21  C28 UNL     1      39.006  56.626 133.604  1.00  0.00     0.014 C 
HETATM   22  C34 UNL     1      39.963  57.281 134.524  1.00  0.00     0.007 C 
HETATM   23  C35 UNL     1      39.424  58.021 135.683  1.00  0.00     0.006 C 
BRANCH   9  24
HETATM   24  O1  UNL     1      38.130  59.022 144.115  1.00  0.00    -0.396 OA
ATOM     25  H1  UNL     1      38.187  58.104 144.355  1.00  0.00     0.210 HD
ENDBRANCH   9  24
BRANCH  17  26
HETATM   26  C17 UNL     1      37.747  53.956 136.892  1.00  0.00     0.118 C 
BRANCH  26  27
HETATM   27  C18 UNL     1      38.386  52.729 136.400  1.00  0.00     0.172 C 
HETATM   28  O2  UNL     1      37.756  51.662 136.278  1.00  0.00    -0.648 OA
HETATM   29  O3  UNL     1      39.728  52.752 136.058  1.00  0.00    -0.648 OA
ENDBRANCH  26  27
ENDBRANCH  17  26
BRANCH  19  30
HETATM   30  C20 UNL     1      35.840  55.422 135.311  1.00  0.00     0.108 C 
BRANCH  30  31
HETATM   31  C21 UNL     1      35.040  54.211 135.020  1.00  0.00     0.218 C 
HETATM   32  O4  UNL     1      35.335  53.354 134.180  1.00  0.00    -0.274 OA
HETATM   33  N1  UNL     1      33.809  53.964 135.744  1.00  0.00    -0.356 N 
ATOM     34  H1  UNL     1      33.513  54.637 136.451  1.00  0.00     0.162 HD
BRANCH  33  35
HETATM   35  C22 UNL     1      32.988  52.807 135.507  1.00  0.00     0.087 C 
HETATM   36  C23 UNL     1      31.512  53.216 135.461  1.00  0.00     0.052 C 
HETATM   37  C24 UNL     1      30.794  52.838 136.733  1.00  0.00     0.234 C 
HETATM   38  N2  UNL     1      30.828  51.415 136.938  1.00  0.00    -0.075 N 
HETATM   39  C25 UNL     1      31.994  50.767 136.408  1.00  0.00     0.234 C 
ATOM     40  H22 UNL     1      30.718  51.195 137.929  1.00  0.00     0.277 HD
ATOM     41  H21 UNL     1      29.982  50.982 136.568  1.00  0.00     0.277 HD
HETATM   42  C26 UNL     1      33.194  51.707 136.518  1.00  0.00     0.052 C 
ENDBRANCH  33  35
ENDBRANCH  30  31
ENDBRANCH  19  30
BRANCH  21  43
HETATM   43  C29 UNL     1      39.588  55.392 132.981  1.00  0.00     0.277 C 
BRANCH  43  44
HETATM   44  N3  UNL     1      39.714  55.438 131.539  1.00  0.00     0.090 N 
HETATM   45  C30 UNL     1      39.478  56.795 131.113  1.00  0.00     0.282 C 
HETATM   46  C31 UNL     1      38.560  56.962 129.953  1.00  0.00     0.104 C 
HETATM   47  S1  UNL     1      36.950  56.214 130.427  1.00  0.00    -0.166 SA
HETATM   48  C32 UNL     1      37.428  54.581 131.124  1.00  0.00     0.104 C 
HETATM   49  C33 UNL     1      38.910  54.475 130.844  1.00  0.00     0.282 C 
ENDBRANCH  43  44
ENDBRANCH  21  43
ENDBRANCH   3   4
TORSDOF 9
ENDMDL
MODEL 2
REMARK VINA RESULT: -9.105601306      0.947      1.125
REMARK  9 active torsions:
REMARK  status: ('A' for Active; 'I' for Inactive)
REMARK    1  A    between atoms: C3_3  and  C4_4 
REMARK    2  A    between atoms: C8_8  and  O1_9 
REMARK    3  A    between atoms: C16_18  and  C17_19 
REMARK    4  A    between atoms: C17_19  and  C18_20 
REMARK    5  A    between atoms: C19_23  and  C20_24 
REMARK    6  A    between atoms: C20_24  and  C21_25 
REMARK       I    between atoms: C21_25  and  N1_27 
REMARK    7  A    between atoms: N1_27  and  C22_29 
REMARK    8  A    between atoms: C28_38  and  C29_39 
REMARK    9  A    between atoms: C29_39  and  N3_40 
ROOT
HETATM    1  C1  UNL     1      43.834  59.744 138.101  1.00  0.00     0.112 C 
HETATM    2  C2  UNL     1      42.382  59.568 138.156  1.00  0.00    -0.111 C 
HETATM    3  C3  UNL     1      41.183  59.422 138.224  1.00  0.00    -0.102 C 
ENDROOT
BRANCH   3   4
HETATM    4  C4  UNL     1      39.708  59.247 138.334  1.00  0.00     0.070 C 
HETATM    5  C5  UNL     1      39.326  59.925 139.598  1.00  0.00     0.023 C 
HETATM    6  C6  UNL     1      38.295  59.328 140.460  1.00  0.00    -0.002 C 
HETATM    7  C7  UNL     1      38.560  59.572 141.928  1.00  0.00     0.037 C 
HETATM    8  C11 UNL     1      38.158  57.809 140.304  1.00  0.00    -0.036 C 
HETATM    9  C8  UNL     1      37.494  59.051 142.830  1.00  0.00     0.118 C 
HETATM   10  C9  UNL     1      36.999  57.682 142.512  1.00  0.00     0.032 C 
HETATM   11  C10 UNL     1      36.936  57.364 141.049  1.00  0.00     0.012 C 
HETATM   12  C12 UNL     1      39.384  57.209 140.942  1.00  0.00     0.016 C 
HETATM   13  C13 UNL     1      38.038  57.588 138.854  1.00  0.00     0.000 C 
HETATM   14  C14 UNL     1      37.788  56.171 138.423  1.00  0.00     0.011 C 
HETATM   15  C37 UNL     1      39.429  57.803 138.239  1.00  0.00     0.010 C 
HETATM   16  C15 UNL     1      37.980  56.377 136.912  1.00  0.00    -0.005 C 
HETATM   17  C16 UNL     1      38.083  55.131 136.137  1.00  0.00     0.004 C 
HETATM   18  C36 UNL     1      39.324  57.142 136.949  1.00  0.00    -0.004 C 
HETATM   19  C19 UNL     1      37.227  55.151 134.883  1.00  0.00    -0.001 C 
HETATM   20  C27 UNL     1      37.573  56.352 134.032  1.00  0.00     0.011 C 
HETATM   21  C28 UNL     1      38.973  56.551 133.638  1.00  0.00     0.014 C 
HETATM   22  C34 UNL     1      39.923  57.215 134.559  1.00  0.00     0.007 C 
HETATM   23  C35 UNL     1      39.375  57.959 135.711  1.00  0.00     0.006 C 
BRANCH   9  24
HETATM   24  O1  UNL     1      38.038  59.004 144.131  1.00  0.00    -0.396 OA
ATOM     25  H1  UNL     1      37.618  58.284 144.584  1.00  0.00     0.210 HD
ENDBRANCH   9  24
BRANCH  17  26
HETATM   26  C17 UNL     1      37.711  53.894 136.936  1.00  0.00     0.118 C 
BRANCH  26  27
HETATM   27  C18 UNL     1      38.103  52.637 136.288  1.00  0.00     0.172 C 
HETATM   28  O2  UNL     1      37.299  51.699 136.129  1.00  0.00    -0.648 OA
HETATM   29  O3  UNL     1      39.403  52.481 135.838  1.00  0.00    -0.648 OA
ENDBRANCH  26  27
ENDBRANCH  17  26
BRANCH  19  30
HETATM   30  C20 UNL     1      35.804  55.342 135.338  1.00  0.00     0.108 C 
BRANCH  30  31
HETATM   31  C21 UNL     1      34.928  54.331 134.706  1.00  0.00     0.218 C 
HETATM   32  O4  UNL     1      34.437  54.428 133.575  1.00  0.00    -0.274 OA
HETATM   33  N1  UNL     1      34.587  53.117 135.422  1.00  0.00    -0.356 N 
ATOM     34  H1  UNL     1      34.962  52.981 136.360  1.00  0.00     0.162 HD
BRANCH  33  35
HETATM   35  C22 UNL     1      33.741  52.098 134.863  1.00  0.00     0.087 C 
HETATM   36  C23 UNL     1      32.848  51.504 135.957  1.00  0.00     0.052 C 
HETATM   37  C24 UNL     1      33.338  50.146 136.394  1.00  0.00     0.234 C 
HETATM   38  N2  UNL     1      33.327  49.218 135.294  1.00  0.00    -0.075 N 
HETATM   39  C25 UNL     1      33.551  49.818 134.010  1.00  0.00     0.234 C 
ATOM     40  H22 UNL     1      33.997  48.466 135.457  1.00  0.00     0.277 HD
ATOM     41  H21 UNL     1      32.460  48.682 135.290  1.00  0.00     0.277 HD
HETATM   42  C26 UNL     1      34.503  51.003 134.160  1.00  0.00     0.052 C 
ENDBRANCH  33  35
ENDBRANCH  30  31
ENDBRANCH  19  30
BRANCH  21  43
HETATM   43  C29 UNL     1      39.563  55.316 133.025  1.00  0.00     0.277 C 
BRANCH  43  44
HETATM   44  N3  UNL     1      39.610  55.315 131.578  1.00  0.00     0.090 N 
HETATM   45  C30 UNL     1      39.137  56.596 131.116  1.00  0.00     0.282 C 
HETATM   46  C31 UNL     1      38.148  56.561 130.003  1.00  0.00     0.104 C 
HETATM   47  S1  UNL     1      36.706  55.586 130.592  1.00  0.00    -0.166 SA
HETATM   48  C32 UNL     1      37.477  54.084 131.321  1.00  0.00     0.104 C 
HETATM   49  C33 UNL     1      38.941  54.205 130.964  1.00  0.00     0.282 C 
ENDBRANCH  43  44
ENDBRANCH  21  43
ENDBRANCH   3   4
TORSDOF 9
ENDMDL
MODEL 3
REMARK VINA RESULT: -9.090241764      1.716      2.241
REMARK  9 active torsions:
REMARK  status: ('A' for Active; 'I' for Inactive)
REMARK    1  A    between atoms: C3_3  and  C4_4 
REMARK    2  A    between atoms: C8_8  and  O1_9 
REMARK    3  A    between atoms: C16_18  and  C17_19 
REMARK    4  A    between atoms: C17_19  and  C18_20 
REMARK    5  A    between atoms: C19_23  and  C20_24 
REMARK    6  A    between atoms: C20_24  and  C21_25 
REMARK       I    between atoms: C21_25  and  N1_27 
REMARK    7  A    between atoms: N1_27  and  C22_29 
REMARK    8  A    between atoms: C28_38  and  C29_39 
REMARK    9  A    between atoms: C29_39  and  N3_40 
ROOT
HETATM    1  C1  UNL     1      43.900  59.656 138.256  1.00  0.00     0.112 C 
HETATM    2  C2  UNL     1      42.444  59.515 138.279  1.00  0.00    -0.111 C 
HETATM    3  C3  UNL     1      41.240  59.395 138.320  1.00  0.00    -0.102 C 
ENDROOT
BRANCH   3   4
HETATM    4  C4  UNL     1      39.760  59.250 138.397  1.00  0.00     0.070 C 
HETATM    5  C5  UNL     1      39.366  59.914 139.665  1.00  0.00     0.023 C 
HETATM    6  C6  UNL     1      38.306  59.325 140.495  1.00  0.00    -0.002 C 
HETATM    7  C7  UNL     1      38.545  59.538 141.973  1.00  0.00     0.037 C 
HETATM    8  C11 UNL     1      38.140  57.811 140.310  1.00  0.00    -0.036 C 
HETATM    9  C8  UNL     1      37.451  59.024 142.844  1.00  0.00     0.118 C 
HETATM   10  C9  UNL     1      36.934  57.671 142.491  1.00  0.00     0.032 C 
HETATM   11  C10 UNL     1      36.895  57.380 141.022  1.00  0.00     0.012 C 
HETATM   12  C12 UNL     1      39.340  57.175 140.962  1.00  0.00     0.016 C 
HETATM   13  C13 UNL     1      38.045  57.618 138.855  1.00  0.00     0.000 C 
HETATM   14  C14 UNL     1      37.775  56.214 138.394  1.00  0.00     0.011 C 
HETATM   15  C37 UNL     1      39.453  57.813 138.271  1.00  0.00     0.010 C 
HETATM   16  C15 UNL     1      38.002  56.442 136.891  1.00  0.00    -0.005 C 
HETATM   17  C16 UNL     1      38.095  55.207 136.097  1.00  0.00     0.004 C 
HETATM   18  C36 UNL     1      39.361  57.177 136.969  1.00  0.00    -0.004 C 
HETATM   19  C19 UNL     1      37.266  55.266 134.826  1.00  0.00    -0.001 C 
HETATM   20  C27 UNL     1      37.654  56.474 134.004  1.00  0.00     0.011 C 
HETATM   21  C28 UNL     1      39.065  56.650 133.641  1.00  0.00     0.014 C 
HETATM   22  C34 UNL     1      40.010  57.278 134.592  1.00  0.00     0.007 C 
HETATM   23  C35 UNL     1      39.454  58.014 135.746  1.00  0.00     0.006 C 
BRANCH   9  24
HETATM   24  O1  UNL     1      37.967  58.944 144.154  1.00  0.00    -0.396 OA
ATOM     25  H1  UNL     1      37.237  59.062 144.750  1.00  0.00     0.210 HD
ENDBRANCH   9  24
BRANCH  17  26
HETATM   26  C17 UNL     1      37.681  53.965 136.867  1.00  0.00     0.118 C 
BRANCH  26  27
HETATM   27  C18 UNL     1      38.347  52.740 136.407  1.00  0.00     0.172 C 
HETATM   28  O2  UNL     1      37.733  51.664 136.280  1.00  0.00    -0.648 OA
HETATM   29  O3  UNL     1      39.697  52.775 136.103  1.00  0.00    -0.648 OA
ENDBRANCH  26  27
ENDBRANCH  17  26
BRANCH  19  30
HETATM   30  C20 UNL     1      35.838  55.480 135.256  1.00  0.00     0.108 C 
BRANCH  30  31
HETATM   31  C21 UNL     1      34.950  54.518 134.565  1.00  0.00     0.218 C 
HETATM   32  O4  UNL     1      34.672  53.388 134.982  1.00  0.00    -0.274 OA
HETATM   33  N1  UNL     1      34.335  54.875 133.303  1.00  0.00    -0.356 N 
ATOM     34  H1  UNL     1      34.528  55.796 132.908  1.00  0.00     0.162 HD
BRANCH  33  35
HETATM   35  C22 UNL     1      33.465  53.985 132.583  1.00  0.00     0.087 C 
HETATM   36  C23 UNL     1      34.264  53.215 131.526  1.00  0.00     0.052 C 
HETATM   37  C24 UNL     1      34.017  53.760 130.142  1.00  0.00     0.234 C 
HETATM   38  N2  UNL     1      32.629  53.644 129.784  1.00  0.00    -0.075 N 
HETATM   39  C25 UNL     1      31.722  53.728 130.893  1.00  0.00     0.234 C 
ATOM     40  H22 UNL     1      32.386  54.334 129.073  1.00  0.00     0.277 HD
ATOM     41  H21 UNL     1      32.468  52.786 129.258  1.00  0.00     0.277 HD
HETATM   42  C26 UNL     1      32.289  54.680 131.945  1.00  0.00     0.052 C 
ENDBRANCH  33  35
ENDBRANCH  30  31
ENDBRANCH  19  30
BRANCH  21  43
HETATM   43  C29 UNL     1      39.642  55.413 133.019  1.00  0.00     0.277 C 
BRANCH  43  44
HETATM   44  N3  UNL     1      39.818  55.478 131.584  1.00  0.00     0.090 N 
HETATM   45  C30 UNL     1      39.605  56.841 131.168  1.00  0.00     0.282 C 
HETATM   46  C31 UNL     1      38.729  57.030 129.979  1.00  0.00     0.104 C 
HETATM   47  S1  UNL     1      37.099  56.284 130.387  1.00  0.00    -0.166 SA
HETATM   48  C32 UNL     1      37.545  54.639 131.077  1.00  0.00     0.104 C 
HETATM   49  C33 UNL     1      39.035  54.528 130.847  1.00  0.00     0.282 C 
ENDBRANCH  43  44
ENDBRANCH  21  43
ENDBRANCH   3   4
TORSDOF 9
ENDMDL
MODEL 4
REMARK VINA RESULT: -8.970591433      1.678      2.211
REMARK  9 active torsions:
REMARK  status: ('A' for Active; 'I' for Inactive)
REMARK    1  A    between atoms: C3_3  and  C4_4 
REMARK    2  A    between atoms: C8_8  and  O1_9 
REMARK    3  A    between atoms: C16_18  and  C17_19 
REMARK    4  A    between atoms: C17_19  and  C18_20 
REMARK    5  A    between atoms: C19_23  and  C20_24 
REMARK    6  A    between atoms: C20_24  and  C21_25 
REMARK       I    between atoms: C21_25  and  N1_27 
REMARK    7  A    between atoms: N1_27  and  C22_29 
REMARK    8  A    between atoms: C28_38  and  C29_39 
REMARK    9  A    between atoms: C29_39  and  N3_40 
ROOT
HETATM    1  C1  UNL     1      43.757  60.068 138.103  1.00  0.00     0.112 C 
HETATM    2  C2  UNL     1      42.322  59.794 138.189  1.00  0.00    -0.111 C 
HETATM    3  C3  UNL     1      41.133  59.585 138.273  1.00  0.00    -0.102 C 
ENDROOT
BRANCH   3   4
HETATM    4  C4  UNL     1      39.667  59.351 138.388  1.00  0.00     0.070 C 
HETATM    5  C5  UNL     1      39.262  60.010 139.655  1.00  0.00     0.023 C 
HETATM    6  C6  UNL     1      38.260  59.370 140.519  1.00  0.00    -0.002 C 
HETATM    7  C7  UNL     1      38.520  59.621 141.987  1.00  0.00     0.037 C 
HETATM    8  C11 UNL     1      38.182  57.847 140.360  1.00  0.00    -0.036 C 
HETATM    9  C8  UNL     1      37.480  59.055 142.892  1.00  0.00     0.118 C 
HETATM   10  C9  UNL     1      37.038  57.668 142.572  1.00  0.00     0.032 C 
HETATM   11  C10 UNL     1      36.983  57.352 141.109  1.00  0.00     0.012 C 
HETATM   12  C12 UNL     1      39.434  57.295 140.992  1.00  0.00     0.016 C 
HETATM   13  C13 UNL     1      38.066  57.625 138.910  1.00  0.00     0.000 C 
HETATM   14  C14 UNL     1      37.871  56.200 138.477  1.00  0.00     0.011 C 
HETATM   15  C37 UNL     1      39.445  57.897 138.290  1.00  0.00     0.010 C 
HETATM   16  C15 UNL     1      38.049  56.418 136.966  1.00  0.00    -0.005 C 
HETATM   17  C16 UNL     1      38.199  55.179 136.187  1.00  0.00     0.004 C 
HETATM   18  C36 UNL     1      39.362  57.235 136.999  1.00  0.00    -0.004 C 
HETATM   19  C19 UNL     1      37.338  55.167 134.936  1.00  0.00    -0.001 C 
HETATM   20  C27 UNL     1      37.632  56.383 134.087  1.00  0.00     0.011 C 
HETATM   21  C28 UNL     1      39.021  56.639 133.688  1.00  0.00     0.014 C 
HETATM   22  C34 UNL     1      39.948  57.339 134.607  1.00  0.00     0.007 C 
HETATM   23  C35 UNL     1      39.375  58.058 135.763  1.00  0.00     0.006 C 
BRANCH   9  24
HETATM   24  O1  UNL     1      38.030  59.027 144.191  1.00  0.00    -0.396 OA
ATOM     25  H1  UNL     1      37.505  59.608 144.729  1.00  0.00     0.210 HD
ENDBRANCH   9  24
BRANCH  17  26
HETATM   26  C17 UNL     1      37.880  53.926 136.984  1.00  0.00     0.118 C 
BRANCH  26  27
HETATM   27  C18 UNL     1      38.256  52.683 136.300  1.00  0.00     0.172 C 
HETATM   28  O2  UNL     1      37.440  51.761 136.113  1.00  0.00    -0.648 OA
HETATM   29  O3  UNL     1      39.554  52.523 135.846  1.00  0.00    -0.648 OA
ENDBRANCH  26  27
ENDBRANCH  17  26
BRANCH  19  30
HETATM   30  C20 UNL     1      35.910  55.300 135.397  1.00  0.00     0.108 C 
BRANCH  30  31
HETATM   31  C21 UNL     1      35.089  54.209 134.828  1.00  0.00     0.218 C 
HETATM   32  O4  UNL     1      33.915  53.972 135.137  1.00  0.00    -0.274 OA
HETATM   33  N1  UNL     1      35.652  53.321 133.831  1.00  0.00    -0.356 N 
ATOM     34  H1  UNL     1      36.618  53.466 133.535  1.00  0.00     0.162 HD
BRANCH  33  35
HETATM   35  C22 UNL     1      34.907  52.242 133.241  1.00  0.00     0.087 C 
HETATM   36  C23 UNL     1      35.794  50.998 133.121  1.00  0.00     0.052 C 
HETATM   37  C24 UNL     1      36.255  50.784 131.701  1.00  0.00     0.234 C 
HETATM   38  N2  UNL     1      35.134  50.584 130.822  1.00  0.00    -0.075 N 
HETATM   39  C25 UNL     1      33.938  51.270 131.222  1.00  0.00     0.234 C 
ATOM     40  H22 UNL     1      35.383  50.833 129.865  1.00  0.00     0.277 HD
ATOM     41  H21 UNL     1      34.949  49.589 130.702  1.00  0.00     0.277 HD
HETATM   42  C26 UNL     1      34.308  52.588 131.901  1.00  0.00     0.052 C 
ENDBRANCH  33  35
ENDBRANCH  30  31
ENDBRANCH  19  30
BRANCH  21  43
HETATM   43  C29 UNL     1      39.658  55.430 133.070  1.00  0.00     0.277 C 
BRANCH  43  44
HETATM   44  N3  UNL     1      39.822  55.494 131.633  1.00  0.00     0.090 N 
HETATM   45  C30 UNL     1      39.544  56.844 131.212  1.00  0.00     0.282 C 
HETATM   46  C31 UNL     1      38.652  56.987 130.028  1.00  0.00     0.104 C 
HETATM   47  S1  UNL     1      37.061  56.170 130.451  1.00  0.00    -0.166 SA
HETATM   48  C32 UNL     1      37.585  54.551 131.147  1.00  0.00     0.104 C 
HETATM   49  C33 UNL     1      39.076  54.506 130.907  1.00  0.00     0.282 C 
ENDBRANCH  43  44
ENDBRANCH  21  43
ENDBRANCH   3   4
TORSDOF 9
ENDMDL
MODEL 5
REMARK VINA RESULT: -8.881391116      3.984      8.803
REMARK  9 active torsions:
REMARK  status: ('A' for Active; 'I' for Inactive)
REMARK    1  A    between atoms: C3_3  and  C4_4 
REMARK    2  A    between atoms: C8_8  and  O1_9 
REMARK    3  A    between atoms: C16_18  and  C17_19 
REMARK    4  A    between atoms: C17_19  and  C18_20 
REMARK    5  A    between atoms: C19_23  and  C20_24 
REMARK    6  A    between atoms: C20_24  and  C21_25 
REMARK       I    between atoms: C21_25  and  N1_27 
REMARK    7  A    between atoms: N1_27  and  C22_29 
REMARK    8  A    between atoms: C28_38  and  C29_39 
REMARK    9  A    between atoms: C29_39  and  N3_40 
ROOT
HETATM    1  C1  UNL     1      37.988  56.295 130.025  1.00  0.00     0.112 C 
HETATM    2  C2  UNL     1      38.451  55.505 131.166  1.00  0.00    -0.111 C 
HETATM    3  C3  UNL     1      38.853  54.863 132.110  1.00  0.00    -0.102 C 
ENDROOT
BRANCH   3   4
HETATM    4  C4  UNL     1      39.367  54.091 133.275  1.00  0.00     0.070 C 
HETATM    5  C5  UNL     1      39.175  52.664 132.915  1.00  0.00     0.023 C 
HETATM    6  C6  UNL     1      38.747  51.706 133.945  1.00  0.00    -0.002 C 
HETATM    7  C7  UNL     1      37.854  50.621 133.387  1.00  0.00     0.037 C 
HETATM    8  C11 UNL     1      37.965  52.343 135.100  1.00  0.00    -0.036 C 
HETATM    9  C8  UNL     1      37.464  49.586 134.385  1.00  0.00     0.118 C 
HETATM   10  C9  UNL     1      37.044  50.106 135.717  1.00  0.00     0.032 C 
HETATM   11  C10 UNL     1      37.794  51.318 136.179  1.00  0.00     0.012 C 
HETATM   12  C12 UNL     1      36.616  52.714 134.539  1.00  0.00     0.016 C 
HETATM   13  C13 UNL     1      38.793  53.478 135.535  1.00  0.00     0.000 C 
HETATM   14  C14 UNL     1      38.300  54.229 136.739  1.00  0.00     0.011 C 
HETATM   15  C37 UNL     1      38.660  54.580 134.472  1.00  0.00     0.010 C 
HETATM   16  C15 UNL     1      39.285  55.406 136.667  1.00  0.00    -0.005 C 
HETATM   17  C16 UNL     1      38.948  56.535 137.548  1.00  0.00     0.004 C 
HETATM   18  C36 UNL     1      39.107  55.771 135.174  1.00  0.00    -0.004 C 
HETATM   19  C19 UNL     1      40.148  57.051 138.322  1.00  0.00    -0.001 C 
HETATM   20  C27 UNL     1      41.267  57.415 137.372  1.00  0.00     0.011 C 
HETATM   21  C28 UNL     1      40.981  58.358 136.284  1.00  0.00     0.014 C 
HETATM   22  C34 UNL     1      40.371  57.881 135.021  1.00  0.00     0.007 C 
HETATM   23  C35 UNL     1      40.368  56.429 134.751  1.00  0.00     0.006 C 
BRANCH   9  24
HETATM   24  O1  UNL     1      36.364  48.885 133.847  1.00  0.00    -0.396 OA
ATOM     25  H1  UNL     1      36.447  47.980 134.122  1.00  0.00     0.210 HD
ENDBRANCH   9  24
BRANCH  17  26
HETATM   26  C17 UNL     1      37.853  56.211 138.548  1.00  0.00     0.118 C 
BRANCH  26  27
HETATM   27  C18 UNL     1      37.520  57.330 139.438  1.00  0.00     0.172 C 
HETATM   28  O2  UNL     1      37.028  57.150 140.568  1.00  0.00    -0.648 OA
HETATM   29  O3  UNL     1      37.756  58.627 139.015  1.00  0.00    -0.648 OA
ENDBRANCH  26  27
ENDBRANCH  17  26
BRANCH  19  30
HETATM   30  C20 UNL     1      40.650  55.899 139.153  1.00  0.00     0.108 C 
BRANCH  30  31
HETATM   31  C21 UNL     1      40.552  56.230 140.592  1.00  0.00     0.218 C 
HETATM   32  O4  UNL     1      40.363  55.407 141.496  1.00  0.00    -0.274 OA
HETATM   33  N1  UNL     1      40.678  57.605 141.030  1.00  0.00    -0.356 N 
ATOM     34  H1  UNL     1      40.835  58.330 140.330  1.00  0.00     0.162 HD
BRANCH  33  35
HETATM   35  C22 UNL     1      40.591  57.991 142.413  1.00  0.00     0.087 C 
HETATM   36  C23 UNL     1      39.126  58.213 142.801  1.00  0.00     0.052 C 
HETATM   37  C24 UNL     1      38.795  59.682 142.895  1.00  0.00     0.234 C 
HETATM   38  N2  UNL     1      39.597  60.325 143.901  1.00  0.00    -0.075 N 
HETATM   39  C25 UNL     1      40.897  59.743 144.085  1.00  0.00     0.234 C 
ATOM     40  H22 UNL     1      39.679  61.323 143.707  1.00  0.00     0.277 HD
ATOM     41  H21 UNL     1      39.095  60.360 144.788  1.00  0.00     0.277 HD
HETATM   42  C26 UNL     1      41.411  59.211 142.749  1.00  0.00     0.052 C 
ENDBRANCH  33  35
ENDBRANCH  30  31
ENDBRANCH  19  30
BRANCH  21  43
HETATM   43  C29 UNL     1      40.321  59.608 136.784  1.00  0.00     0.277 C 
BRANCH  43  44
HETATM   44  N3  UNL     1      41.205  60.744 136.941  1.00  0.00     0.090 N 
HETATM   45  C30 UNL     1      42.558  60.288 136.740  1.00  0.00     0.282 C 
HETATM   46  C31 UNL     1      43.556  60.750 137.743  1.00  0.00     0.104 C 
HETATM   47  S1  UNL     1      42.981  60.160 139.386  1.00  0.00    -0.166 SA
HETATM   48  C32 UNL     1      41.206  60.641 139.414  1.00  0.00     0.104 C 
HETATM   49  C33 UNL     1      41.024  61.471 138.164  1.00  0.00     0.282 C 
ENDBRANCH  43  44
ENDBRANCH  21  43
ENDBRANCH   3   4
TORSDOF 9
ENDMDL
