MODEL 1
REMARK VINA RESULT: -9.070477862      0.000      0.000
REMARK  17 active torsions:
REMARK  status: ('A' for Active; 'I' for Inactive)
REMARK       I    between atoms: C2_2  and  N1_4 
REMARK    1  A    between atoms: N1_4  and  C3_6 
REMARK    2  A    between atoms: C4_7  and  O2_8 
REMARK    3  A    between atoms: O2_8  and  C5_9 
REMARK    4  A    between atoms: C7_13  and  O4_14 
REMARK    5  A    between atoms: O4_14  and  C8_15 
REMARK    6  A    between atoms: C11_19  and  O6_20 
REMARK    7  A    between atoms: O6_20  and  C12_21 
REMARK    8  A    between atoms: C14_23  and  O7_24 
REMARK    9  A    between atoms: O7_24  and  N2_25 
REMARK   10  A    between atoms: C16_29  and  N3_30 
REMARK   11  A    between atoms: C19_33  and  O8_34 
REMARK   12  A    between atoms: C20_36  and  N4_37 
REMARK   13  A    between atoms: C21_41  and  O9_42 
REMARK   14  A    between atoms: C22_45  and  C23_46 
REMARK   15  A    between atoms: C23_46  and  O11_47 
REMARK   16  A    between atoms: C24_49  and  O12_50 
REMARK   17  A    between atoms: C25_52  and  O13_53 
ROOT
HETATM    1  C5  UNL     1       3.848  18.007  12.525  1.00  0.00     0.167 C 
HETATM    2  C6  UNL     1       4.014  18.552  13.982  1.00  0.00     0.146 C 
HETATM    3  S1  UNL     1       3.645  20.256  14.079  1.00  0.00     0.049 S 
HETATM    4  O3  UNL     1       2.257  20.570  14.973  1.00  0.00    -0.255 OA
HETATM    5  C7  UNL     1       3.815  21.328  12.704  1.00  0.00     0.248 C 
HETATM    6  C20 UNL     1       3.717  20.546  11.351  1.00  0.00     0.255 C 
HETATM    7  C21 UNL     1       3.801  19.140  11.651  1.00  0.00     0.181 C 
ENDROOT
BRANCH   5   8
HETATM    8  O4  UNL     1       2.757  22.213  12.737  1.00  0.00    -0.361 OA
BRANCH   8   9
HETATM    9  C8  UNL     1       2.241  22.572  11.512  1.00  0.00     0.178 C 
HETATM   10  C9  UNL     1       0.720  22.354  11.662  1.00  0.00     0.202 C 
HETATM   11  O5  UNL     1       0.324  23.330  12.565  1.00  0.00    -0.386 OA
HETATM   12  C10 UNL     1       1.256  24.352  12.571  1.00  0.00     0.202 C 
HETATM   13  C11 UNL     1       2.164  24.093  11.374  1.00  0.00     0.176 C 
BRANCH  13  14
HETATM   14  O6  UNL     1       3.357  24.730  11.402  1.00  0.00    -0.373 OA
BRANCH  14  15
HETATM   15  C12 UNL     1       3.955  24.634  10.151  1.00  0.00     0.155 C 
HETATM   16  C13 UNL     1       3.515  25.800   9.313  1.00  0.00     0.069 C 
HETATM   17  C14 UNL     1       4.570  26.520   8.562  1.00  0.00     0.156 C 
HETATM   18  C15 UNL     1       5.698  25.719   8.018  1.00  0.00     0.073 C 
HETATM   19  C16 UNL     1       5.893  24.447   8.751  1.00  0.00     0.255 C 
HETATM   20  C19 UNL     1       5.451  24.595  10.176  1.00  0.00     0.180 C 
BRANCH  17  21
HETATM   21  O7  UNL     1       5.112  27.504   9.431  1.00  0.00    -0.282 OA
BRANCH  21  22
HETATM   22  N2  UNL     1       5.144  28.706   8.830  1.00  0.00    -0.311 N 
ATOM     23  H22 UNL     1       5.301  28.836   7.830  1.00  0.00     0.184 HD
ATOM     24  H21 UNL     1       4.992  29.453   9.507  1.00  0.00     0.184 HD
ENDBRANCH  21  22
ENDBRANCH  17  21
BRANCH  19  25
HETATM   25  N3  UNL     1       7.199  23.865   8.610  1.00  0.00     0.087 N 
HETATM   26  C17 UNL     1       7.148  22.612   7.918  1.00  0.00     0.310 C 
HETATM   27  C18 UNL     1       8.230  24.755   8.194  1.00  0.00     0.310 C 
ENDBRANCH  19  25
BRANCH  20  28
HETATM   28  O8  UNL     1       5.943  23.567  10.987  1.00  0.00    -0.391 OA
ATOM     29  H8  UNL     1       5.917  23.791  11.909  1.00  0.00     0.210 HD
ENDBRANCH  20  28
ENDBRANCH  14  15
ENDBRANCH  13  14
ENDBRANCH   8   9
ENDBRANCH   5   8
BRANCH   6  30
HETATM   30  N4  UNL     1       4.734  21.056  10.422  1.00  0.00    -0.069 N 
ATOM     31  H43 UNL     1       5.234  21.861  10.800  1.00  0.00     0.275 HD
ATOM     32  H42 UNL     1       5.529  20.423  10.332  1.00  0.00     0.275 HD
ATOM     33  H41 UNL     1       4.297  21.259   9.524  1.00  0.00     0.275 HD
ENDBRANCH   6  30
BRANCH   7  34
HETATM   34  O9  UNL     1       5.122  19.458  12.107  1.00  0.00    -0.391 OA
ATOM     35  H9  UNL     1       4.724  20.137  12.640  1.00  0.00     0.210 HD
ENDBRANCH   7  34
BRANCH   1  36
HETATM   36  O2  UNL     1       2.720  17.147  12.551  1.00  0.00    -0.350 OA
BRANCH  36  37
HETATM   37  C4  UNL     1       2.499  16.435  11.425  1.00  0.00     0.286 C 
HETATM   38  C3  UNL     1       1.270  15.523  11.483  1.00  0.00     0.170 C 
HETATM   39  C25 UNL     1       1.471  14.449  12.505  1.00  0.00     0.177 C 
HETATM   40  C24 UNL     1       2.719  13.693  12.109  1.00  0.00     0.180 C 
HETATM   41  C22 UNL     1       3.868  14.568  11.722  1.00  0.00     0.179 C 
HETATM   42  O10 UNL     1       3.561  15.682  10.995  1.00  0.00    -0.349 OA
BRANCH  38  43
HETATM   43  N1  UNL     1       0.045  16.247  11.594  1.00  0.00    -0.349 N 
HETATM   44  C2  UNL     1      -1.171  15.758  11.093  1.00  0.00     0.214 C 
HETATM   45  C1  UNL     1      -2.447  16.501  11.202  1.00  0.00     0.117 C 
HETATM   46  O1  UNL     1      -1.176  14.622  10.516  1.00  0.00    -0.274 OA
ATOM     47  H1  UNL     1       0.054  17.156  12.056  1.00  0.00     0.163 HD
ENDBRANCH  38  43
BRANCH  39  48
HETATM   48  O13 UNL     1       1.496  14.907  13.799  1.00  0.00    -0.391 OA
ATOM     49  H13 UNL     1       1.038  14.348  14.415  1.00  0.00     0.210 HD
ENDBRANCH  39  48
BRANCH  40  50
HETATM   50  O12 UNL     1       2.445  12.805  11.069  1.00  0.00    -0.390 OA
ATOM     51  H12 UNL     1       2.486  11.914  11.398  1.00  0.00     0.210 HD
ENDBRANCH  40  50
BRANCH  41  52
HETATM   52  C23 UNL     1       4.773  14.876  12.915  1.00  0.00     0.198 C 
BRANCH  52  53
HETATM   53  O11 UNL     1       6.065  15.197  12.470  1.00  0.00    -0.398 OA
ATOM     54  H11 UNL     1       6.642  15.332  13.212  1.00  0.00     0.209 HD
ENDBRANCH  52  53
ENDBRANCH  41  52
ENDBRANCH  36  37
ENDBRANCH   1  36
TORSDOF 17
ENDMDL
MODEL 2
REMARK VINA RESULT: -9.012818692      1.151      2.874
REMARK  17 active torsions:
REMARK  status: ('A' for Active; 'I' for Inactive)
REMARK       I    between atoms: C2_2  and  N1_4 
REMARK    1  A    between atoms: N1_4  and  C3_6 
REMARK    2  A    between atoms: C4_7  and  O2_8 
REMARK    3  A    between atoms: O2_8  and  C5_9 
REMARK    4  A    between atoms: C7_13  and  O4_14 
REMARK    5  A    between atoms: O4_14  and  C8_15 
REMARK    6  A    between atoms: C11_19  and  O6_20 
REMARK    7  A    between atoms: O6_20  and  C12_21 
REMARK    8  A    between atoms: C14_23  and  O7_24 
REMARK    9  A    between atoms: O7_24  and  N2_25 
REMARK   10  A    between atoms: C16_29  and  N3_30 
REMARK   11  A    between atoms: C19_33  and  O8_34 
REMARK   12  A    between atoms: C20_36  and  N4_37 
REMARK   13  A    between atoms: C21_41  and  O9_42 
REMARK   14  A    between atoms: C22_45  and  C23_46 
REMARK   15  A    between atoms: C23_46  and  O11_47 
REMARK   16  A    between atoms: C24_49  and  O12_50 
REMARK   17  A    between atoms: C25_52  and  O13_53 
ROOT
HETATM    1  C5  UNL     1       3.359  17.981  12.016  1.00  0.00     0.167 C 
HETATM    2  C6  UNL     1       3.568  18.379  13.514  1.00  0.00     0.146 C 
HETATM    3  S1  UNL     1       3.404  20.101  13.753  1.00  0.00     0.049 S 
HETATM    4  O3  UNL     1       2.051  20.505  14.663  1.00  0.00    -0.255 OA
HETATM    5  C7  UNL     1       3.722  21.255  12.474  1.00  0.00     0.248 C 
HETATM    6  C20 UNL     1       3.551  20.606  11.060  1.00  0.00     0.255 C 
HETATM    7  C21 UNL     1       3.461  19.181  11.240  1.00  0.00     0.181 C 
ENDROOT
BRANCH   5   8
HETATM    8  O4  UNL     1       2.778  22.256  12.576  1.00  0.00    -0.361 OA
BRANCH   8   9
HETATM    9  C8  UNL     1       2.231  22.685  11.388  1.00  0.00     0.178 C 
HETATM   10  C9  UNL     1       0.712  22.478  11.572  1.00  0.00     0.202 C 
HETATM   11  O5  UNL     1       0.357  23.410  12.536  1.00  0.00    -0.386 OA
HETATM   12  C10 UNL     1       1.302  24.420  12.566  1.00  0.00     0.202 C 
HETATM   13  C11 UNL     1       2.171  24.212  11.330  1.00  0.00     0.176 C 
BRANCH  13  14
HETATM   14  O6  UNL     1       3.373  24.831  11.354  1.00  0.00    -0.373 OA
BRANCH  14  15
HETATM   15  C12 UNL     1       3.979  24.702  10.110  1.00  0.00     0.155 C 
HETATM   16  C13 UNL     1       3.581  25.871   9.255  1.00  0.00     0.069 C 
HETATM   17  C14 UNL     1       4.664  26.550   8.505  1.00  0.00     0.156 C 
HETATM   18  C15 UNL     1       5.772  25.708   7.981  1.00  0.00     0.073 C 
HETATM   19  C16 UNL     1       5.922  24.439   8.730  1.00  0.00     0.255 C 
HETATM   20  C19 UNL     1       5.473  24.618  10.149  1.00  0.00     0.180 C 
BRANCH  17  21
HETATM   21  O7  UNL     1       5.228  27.527   9.367  1.00  0.00    -0.282 OA
BRANCH  21  22
HETATM   22  N2  UNL     1       5.168  28.748   8.808  1.00  0.00    -0.311 N 
ATOM     23  H22 UNL     1       4.364  29.093   8.284  1.00  0.00     0.184 HD
ATOM     24  H21 UNL     1       6.027  29.269   8.983  1.00  0.00     0.184 HD
ENDBRANCH  21  22
ENDBRANCH  17  21
BRANCH  19  25
HETATM   25  N3  UNL     1       7.211  23.817   8.607  1.00  0.00     0.087 N 
HETATM   26  C17 UNL     1       7.124  22.547   7.951  1.00  0.00     0.310 C 
HETATM   27  C18 UNL     1       8.267  24.665   8.168  1.00  0.00     0.310 C 
ENDBRANCH  19  25
BRANCH  20  28
HETATM   28  O8  UNL     1       5.926  23.585  10.976  1.00  0.00    -0.391 OA
ATOM     29  H8  UNL     1       6.846  23.390  10.839  1.00  0.00     0.210 HD
ENDBRANCH  20  28
ENDBRANCH  14  15
ENDBRANCH  13  14
ENDBRANCH   8   9
ENDBRANCH   5   8
BRANCH   6  30
HETATM   30  N4  UNL     1       4.636  21.065  10.182  1.00  0.00    -0.069 N 
ATOM     31  H43 UNL     1       4.804  22.068  10.266  1.00  0.00     0.275 HD
ATOM     32  H42 UNL     1       5.551  20.740  10.494  1.00  0.00     0.275 HD
ATOM     33  H41 UNL     1       4.433  20.786   9.223  1.00  0.00     0.275 HD
ENDBRANCH   6  30
BRANCH   7  34
HETATM   34  O9  UNL     1       4.804  19.298  11.728  1.00  0.00    -0.391 OA
ATOM     35  H9  UNL     1       4.642  20.230  11.814  1.00  0.00     0.210 HD
ENDBRANCH   7  34
BRANCH   1  36
HETATM   36  O2  UNL     1       2.135  17.265  11.964  1.00  0.00    -0.350 OA
BRANCH  36  37
HETATM   37  C4  UNL     1       2.048  16.193  12.780  1.00  0.00     0.286 C 
HETATM   38  C3  UNL     1       2.675  14.915  12.215  1.00  0.00     0.170 C 
HETATM   39  C25 UNL     1       1.919  14.458  11.007  1.00  0.00     0.177 C 
HETATM   40  C24 UNL     1       0.487  14.243  11.440  1.00  0.00     0.180 C 
HETATM   41  C22 UNL     1      -0.069  15.343  12.286  1.00  0.00     0.179 C 
HETATM   42  O10 UNL     1       0.781  15.887  13.205  1.00  0.00    -0.349 OA
BRANCH  38  43
HETATM   43  N1  UNL     1       4.089  15.016  12.046  1.00  0.00    -0.349 N 
HETATM   44  C2  UNL     1       4.976  14.021  12.483  1.00  0.00     0.214 C 
HETATM   45  C1  UNL     1       6.444  14.116  12.313  1.00  0.00     0.117 C 
HETATM   46  O1  UNL     1       4.496  12.988  13.054  1.00  0.00    -0.274 OA
ATOM     47  H1  UNL     1       4.469  15.845  11.588  1.00  0.00     0.163 HD
ENDBRANCH  38  43
BRANCH  39  48
HETATM   48  O13 UNL     1       2.043  15.290   9.922  1.00  0.00    -0.391 OA
ATOM     49  H13 UNL     1       1.250  15.373   9.407  1.00  0.00     0.210 HD
ENDBRANCH  39  48
BRANCH  40  50
HETATM   50  O12 UNL     1       0.356  13.030  12.116  1.00  0.00    -0.390 OA
ATOM     51  H12 UNL     1       0.067  12.361  11.506  1.00  0.00     0.210 HD
ENDBRANCH  40  50
BRANCH  41  52
HETATM   52  C23 UNL     1      -0.778  16.403  11.444  1.00  0.00     0.198 C 
BRANCH  52  53
HETATM   53  O11 UNL     1      -1.821  15.817  10.709  1.00  0.00    -0.398 OA
ATOM     54  H11 UNL     1      -2.566  16.406  10.671  1.00  0.00     0.209 HD
ENDBRANCH  52  53
ENDBRANCH  41  52
ENDBRANCH  36  37
ENDBRANCH   1  36
TORSDOF 17
ENDMDL
MODEL 3
REMARK VINA RESULT: -8.718828593      1.336      2.758
REMARK  17 active torsions:
REMARK  status: ('A' for Active; 'I' for Inactive)
REMARK       I    between atoms: C2_2  and  N1_4 
REMARK    1  A    between atoms: N1_4  and  C3_6 
REMARK    2  A    between atoms: C4_7  and  O2_8 
REMARK    3  A    between atoms: O2_8  and  C5_9 
REMARK    4  A    between atoms: C7_13  and  O4_14 
REMARK    5  A    between atoms: O4_14  and  C8_15 
REMARK    6  A    between atoms: C11_19  and  O6_20 
REMARK    7  A    between atoms: O6_20  and  C12_21 
REMARK    8  A    between atoms: C14_23  and  O7_24 
REMARK    9  A    between atoms: O7_24  and  N2_25 
REMARK   10  A    between atoms: C16_29  and  N3_30 
REMARK   11  A    between atoms: C19_33  and  O8_34 
REMARK   12  A    between atoms: C20_36  and  N4_37 
REMARK   13  A    between atoms: C21_41  and  O9_42 
REMARK   14  A    between atoms: C22_45  and  C23_46 
REMARK   15  A    between atoms: C23_46  and  O11_47 
REMARK   16  A    between atoms: C24_49  and  O12_50 
REMARK   17  A    between atoms: C25_52  and  O13_53 
ROOT
HETATM    1  C5  UNL     1       3.622  17.930  12.488  1.00  0.00     0.167 C 
HETATM    2  C6  UNL     1       3.917  18.498  13.915  1.00  0.00     0.146 C 
HETATM    3  S1  UNL     1       3.662  20.224  13.988  1.00  0.00     0.049 S 
HETATM    4  O3  UNL     1       2.358  20.648  14.959  1.00  0.00    -0.255 OA
HETATM    5  C7  UNL     1       3.809  21.249  12.574  1.00  0.00     0.248 C 
HETATM    6  C20 UNL     1       3.573  20.443  11.254  1.00  0.00     0.255 C 
HETATM    7  C21 UNL     1       3.588  19.042  11.587  1.00  0.00     0.181 C 
ENDROOT
BRANCH   5   8
HETATM    8  O4  UNL     1       2.812  22.201  12.650  1.00  0.00    -0.361 OA
BRANCH   8   9
HETATM    9  C8  UNL     1       2.268  22.592  11.448  1.00  0.00     0.178 C 
HETATM   10  C9  UNL     1       0.748  22.396  11.637  1.00  0.00     0.202 C 
HETATM   11  O5  UNL     1       0.395  23.360  12.569  1.00  0.00    -0.386 OA
HETATM   12  C10 UNL     1       1.343  24.367  12.567  1.00  0.00     0.202 C 
HETATM   13  C11 UNL     1       2.213  24.116  11.340  1.00  0.00     0.176 C 
BRANCH  13  14
HETATM   14  O6  UNL     1       3.415  24.733  11.345  1.00  0.00    -0.373 OA
BRANCH  14  15
HETATM   15  C12 UNL     1       4.023  24.560  10.106  1.00  0.00     0.155 C 
HETATM   16  C13 UNL     1       3.660  25.719   9.224  1.00  0.00     0.069 C 
HETATM   17  C14 UNL     1       4.764  26.352   8.463  1.00  0.00     0.156 C 
HETATM   18  C15 UNL     1       5.852  25.469   7.964  1.00  0.00     0.073 C 
HETATM   19  C16 UNL     1       5.965  24.214   8.742  1.00  0.00     0.255 C 
HETATM   20  C19 UNL     1       5.514  24.437  10.154  1.00  0.00     0.180 C 
BRANCH  17  21
HETATM   21  O7  UNL     1       5.351  27.333   9.306  1.00  0.00    -0.282 OA
BRANCH  21  22
HETATM   22  N2  UNL     1       5.201  28.562   8.783  1.00  0.00    -0.311 N 
ATOM     23  H22 UNL     1       5.758  29.370   9.064  1.00  0.00     0.184 HD
ATOM     24  H21 UNL     1       4.464  28.569   8.078  1.00  0.00     0.184 HD
ENDBRANCH  21  22
ENDBRANCH  17  21
BRANCH  19  25
HETATM   25  N3  UNL     1       7.237  23.555   8.640  1.00  0.00     0.087 N 
HETATM   26  C17 UNL     1       7.130  22.302   7.956  1.00  0.00     0.310 C 
HETATM   27  C18 UNL     1       8.329  24.379   8.245  1.00  0.00     0.310 C 
ENDBRANCH  19  25
BRANCH  20  28
HETATM   28  O8  UNL     1       5.936  23.412  11.007  1.00  0.00    -0.391 OA
ATOM     29  H8  UNL     1       6.101  23.721  11.890  1.00  0.00     0.210 HD
ENDBRANCH  20  28
ENDBRANCH  14  15
ENDBRANCH  13  14
ENDBRANCH   8   9
ENDBRANCH   5   8
BRANCH   6  30
HETATM   30  N4  UNL     1       4.557  20.864  10.247  1.00  0.00    -0.069 N 
ATOM     31  H43 UNL     1       4.133  21.018   9.332  1.00  0.00     0.275 HD
ATOM     32  H42 UNL     1       4.897  21.812  10.410  1.00  0.00     0.275 HD
ATOM     33  H41 UNL     1       5.315  20.183  10.213  1.00  0.00     0.275 HD
ENDBRANCH   6  30
BRANCH   7  34
HETATM   34  O9  UNL     1       4.954  19.285  11.949  1.00  0.00    -0.391 OA
ATOM     35  H9  UNL     1       4.621  19.751  12.708  1.00  0.00     0.210 HD
ENDBRANCH   7  34
BRANCH   1  36
HETATM   36  O2  UNL     1       2.446  17.145  12.610  1.00  0.00    -0.350 OA
BRANCH  36  37
HETATM   37  C4  UNL     1       2.529  16.092  13.452  1.00  0.00     0.286 C 
HETATM   38  C3  UNL     1       2.284  14.733  12.790  1.00  0.00     0.170 C 
HETATM   39  C25 UNL     1       0.873  14.641  12.302  1.00  0.00     0.177 C 
HETATM   40  C24 UNL     1      -0.022  14.856  13.501  1.00  0.00     0.180 C 
HETATM   41  C22 UNL     1       0.385  16.001  14.371  1.00  0.00     0.179 C 
HETATM   42  O10 UNL     1       1.727  16.170  14.561  1.00  0.00    -0.349 OA
BRANCH  38  43
HETATM   43  N1  UNL     1       3.284  14.394  11.829  1.00  0.00    -0.349 N 
HETATM   44  C2  UNL     1       4.338  13.513  12.112  1.00  0.00     0.214 C 
HETATM   45  C1  UNL     1       5.380  13.156  11.123  1.00  0.00     0.117 C 
HETATM   46  O1  UNL     1       4.402  12.998  13.276  1.00  0.00    -0.274 OA
ATOM     47  H1  UNL     1       3.229  14.810  10.899  1.00  0.00     0.163 HD
ENDBRANCH  38  43
BRANCH  39  48
HETATM   48  O13 UNL     1       0.589  15.478  11.251  1.00  0.00    -0.391 OA
ATOM     49  H13 UNL     1       1.238  15.460  10.558  1.00  0.00     0.210 HD
ENDBRANCH  39  48
BRANCH  40  50
HETATM   50  O12 UNL     1      -0.097  13.696  14.271  1.00  0.00    -0.390 OA
ATOM     51  H12 UNL     1       0.635  13.129  14.057  1.00  0.00     0.210 HD
ENDBRANCH  40  50
BRANCH  41  52
HETATM   52  C23 UNL     1      -0.317  17.298  13.968  1.00  0.00     0.198 C 
BRANCH  52  53
HETATM   53  O11 UNL     1       0.354  18.401  14.519  1.00  0.00    -0.398 OA
ATOM     54  H11 UNL     1       0.566  19.028  13.837  1.00  0.00     0.209 HD
ENDBRANCH  52  53
ENDBRANCH  41  52
ENDBRANCH  36  37
ENDBRANCH   1  36
TORSDOF 17
ENDMDL
MODEL 4
REMARK VINA RESULT: -8.713110546      1.757      2.085
REMARK  17 active torsions:
REMARK  status: ('A' for Active; 'I' for Inactive)
REMARK       I    between atoms: C2_2  and  N1_4 
REMARK    1  A    between atoms: N1_4  and  C3_6 
REMARK    2  A    between atoms: C4_7  and  O2_8 
REMARK    3  A    between atoms: O2_8  and  C5_9 
REMARK    4  A    between atoms: C7_13  and  O4_14 
REMARK    5  A    between atoms: O4_14  and  C8_15 
REMARK    6  A    between atoms: C11_19  and  O6_20 
REMARK    7  A    between atoms: O6_20  and  C12_21 
REMARK    8  A    between atoms: C14_23  and  O7_24 
REMARK    9  A    between atoms: O7_24  and  N2_25 
REMARK   10  A    between atoms: C16_29  and  N3_30 
REMARK   11  A    between atoms: C19_33  and  O8_34 
REMARK   12  A    between atoms: C20_36  and  N4_37 
REMARK   13  A    between atoms: C21_41  and  O9_42 
REMARK   14  A    between atoms: C22_45  and  C23_46 
REMARK   15  A    between atoms: C23_46  and  O11_47 
REMARK   16  A    between atoms: C24_49  and  O12_50 
REMARK   17  A    between atoms: C25_52  and  O13_53 
ROOT
HETATM    1  C5  UNL     1       4.381  16.213  13.887  1.00  0.00     0.167 C 
HETATM    2  C6  UNL     1       3.498  16.517  15.142  1.00  0.00     0.146 C 
HETATM    3  S1  UNL     1       2.904  18.159  15.131  1.00  0.00     0.049 S 
HETATM    4  O3  UNL     1       1.238  18.245  14.928  1.00  0.00    -0.255 OA
HETATM    5  C7  UNL     1       3.749  19.452  14.304  1.00  0.00     0.248 C 
HETATM    6  C20 UNL     1       4.651  18.901  13.149  1.00  0.00     0.255 C 
HETATM    7  C21 UNL     1       4.733  17.472  13.302  1.00  0.00     0.181 C 
ENDROOT
BRANCH   5   8
HETATM    8  O4  UNL     1       2.795  20.261  13.720  1.00  0.00    -0.361 OA
BRANCH   8   9
HETATM    9  C8  UNL     1       2.687  20.164  12.351  1.00  0.00     0.178 C 
HETATM   10  C9  UNL     1       1.226  19.723  12.116  1.00  0.00     0.202 C 
HETATM   11  O5  UNL     1       0.473  20.823  12.500  1.00  0.00    -0.386 OA
HETATM   12  C10 UNL     1       1.261  21.958  12.445  1.00  0.00     0.202 C 
HETATM   13  C11 UNL     1       2.534  21.545  11.713  1.00  0.00     0.176 C 
BRANCH  13  14
HETATM   14  O6  UNL     1       3.592  22.371  11.878  1.00  0.00    -0.373 OA
BRANCH  14  15
HETATM   15  C12 UNL     1       4.076  22.747  10.630  1.00  0.00     0.155 C 
HETATM   16  C13 UNL     1       3.417  24.035  10.225  1.00  0.00     0.069 C 
HETATM   17  C14 UNL     1       4.299  25.095   9.683  1.00  0.00     0.156 C 
HETATM   18  C15 UNL     1       5.461  24.671   8.857  1.00  0.00     0.073 C 
HETATM   19  C16 UNL     1       5.880  23.280   9.143  1.00  0.00     0.255 C 
HETATM   20  C19 UNL     1       5.561  22.922  10.563  1.00  0.00     0.180 C 
BRANCH  17  21
HETATM   21  O7  UNL     1       4.796  25.838  10.787  1.00  0.00    -0.282 OA
BRANCH  21  22
HETATM   22  N2  UNL     1       4.410  27.123  10.711  1.00  0.00    -0.311 N 
ATOM     23  H22 UNL     1       4.723  27.768   9.986  1.00  0.00     0.184 HD
ATOM     24  H21 UNL     1       3.770  27.353  11.471  1.00  0.00     0.184 HD
ENDBRANCH  21  22
ENDBRANCH  17  21
BRANCH  19  25
HETATM   25  N3  UNL     1       7.228  22.966   8.758  1.00  0.00     0.087 N 
HETATM   26  C17 UNL     1       7.269  21.935   7.766  1.00  0.00     0.310 C 
HETATM   27  C18 UNL     1       8.077  24.084   8.518  1.00  0.00     0.310 C 
ENDBRANCH  19  25
BRANCH  20  28
HETATM   28  O8  UNL     1       6.250  21.781  10.984  1.00  0.00    -0.391 OA
ATOM     29  H8  UNL     1       6.418  21.784  11.919  1.00  0.00     0.210 HD
ENDBRANCH  20  28
ENDBRANCH  14  15
ENDBRANCH  13  14
ENDBRANCH   8   9
ENDBRANCH   5   8
BRANCH   6  30
HETATM   30  N4  UNL     1       5.937  19.613  13.159  1.00  0.00    -0.069 N 
ATOM     31  H43 UNL     1       5.856  20.563  12.797  1.00  0.00     0.275 HD
ATOM     32  H42 UNL     1       6.244  19.845  14.104  1.00  0.00     0.275 HD
ATOM     33  H41 UNL     1       6.629  19.063  12.652  1.00  0.00     0.275 HD
ENDBRANCH   6  30
BRANCH   7  34
HETATM   34  O9  UNL     1       5.395  17.780  14.535  1.00  0.00    -0.391 OA
ATOM     35  H9  UNL     1       4.533  17.937  14.904  1.00  0.00     0.210 HD
ENDBRANCH   7  34
BRANCH   1  36
HETATM   36  O2  UNL     1       3.639  15.302  13.093  1.00  0.00    -0.350 OA
BRANCH  36  37
HETATM   37  C4  UNL     1       3.067  15.820  11.985  1.00  0.00     0.286 C 
HETATM   38  C3  UNL     1       1.626  15.361  11.743  1.00  0.00     0.170 C 
HETATM   39  C25 UNL     1       1.592  13.892  11.461  1.00  0.00     0.177 C 
HETATM   40  C24 UNL     1       2.473  13.653  10.256  1.00  0.00     0.180 C 
HETATM   41  C22 UNL     1       3.787  14.365  10.308  1.00  0.00     0.179 C 
HETATM   42  O10 UNL     1       3.771  15.629  10.824  1.00  0.00    -0.349 OA
BRANCH  38  43
HETATM   43  N1  UNL     1       0.722  15.809  12.752  1.00  0.00    -0.349 N 
HETATM   44  C2  UNL     1      -0.529  16.369  12.453  1.00  0.00     0.214 C 
HETATM   45  C1  UNL     1      -1.474  16.837  13.492  1.00  0.00     0.117 C 
HETATM   46  O1  UNL     1      -0.867  16.480  11.229  1.00  0.00    -0.274 OA
ATOM     47  H1  UNL     1       0.997  15.718  13.730  1.00  0.00     0.163 HD
ENDBRANCH  38  43
BRANCH  39  48
HETATM   48  O13 UNL     1       1.919  13.108  12.541  1.00  0.00    -0.391 OA
ATOM     49  H13 UNL     1       1.994  12.184  12.338  1.00  0.00     0.210 HD
ENDBRANCH  39  48
BRANCH  40  50
HETATM   50  O12 UNL     1       1.805  14.005   9.084  1.00  0.00    -0.390 OA
ATOM     51  H12 UNL     1       0.886  14.151   9.277  1.00  0.00     0.210 HD
ENDBRANCH  40  50
BRANCH  41  52
HETATM   52  C23 UNL     1       4.879  13.493  10.927  1.00  0.00     0.198 C 
BRANCH  52  53
HETATM   53  O11 UNL     1       6.006  14.274  11.231  1.00  0.00    -0.398 OA
ATOM     54  H11 UNL     1       6.208  14.210  12.157  1.00  0.00     0.209 HD
ENDBRANCH  52  53
ENDBRANCH  41  52
ENDBRANCH  36  37
ENDBRANCH   1  36
TORSDOF 17
ENDMDL
MODEL 5
REMARK VINA RESULT: -8.691096627      2.258      3.809
REMARK  17 active torsions:
REMARK  status: ('A' for Active; 'I' for Inactive)
REMARK       I    between atoms: C2_2  and  N1_4 
REMARK    1  A    between atoms: N1_4  and  C3_6 
REMARK    2  A    between atoms: C4_7  and  O2_8 
REMARK    3  A    between atoms: O2_8  and  C5_9 
REMARK    4  A    between atoms: C7_13  and  O4_14 
REMARK    5  A    between atoms: O4_14  and  C8_15 
REMARK    6  A    between atoms: C11_19  and  O6_20 
REMARK    7  A    between atoms: O6_20  and  C12_21 
REMARK    8  A    between atoms: C14_23  and  O7_24 
REMARK    9  A    between atoms: O7_24  and  N2_25 
REMARK   10  A    between atoms: C16_29  and  N3_30 
REMARK   11  A    between atoms: C19_33  and  O8_34 
REMARK   12  A    between atoms: C20_36  and  N4_37 
REMARK   13  A    between atoms: C21_41  and  O9_42 
REMARK   14  A    between atoms: C22_45  and  C23_46 
REMARK   15  A    between atoms: C23_46  and  O11_47 
REMARK   16  A    between atoms: C24_49  and  O12_50 
REMARK   17  A    between atoms: C25_52  and  O13_53 
ROOT
HETATM    1  C5  UNL     1       2.300  17.131  13.031  1.00  0.00     0.167 C 
HETATM    2  C6  UNL     1       2.978  17.546  11.684  1.00  0.00     0.146 C 
HETATM    3  S1  UNL     1       2.725  19.237  11.328  1.00  0.00     0.049 S 
HETATM    4  O3  UNL     1       4.143  20.135  11.396  1.00  0.00    -0.255 OA
HETATM    5  C7  UNL     1       1.340  20.121  11.936  1.00  0.00     0.248 C 
HETATM    6  C20 UNL     1       0.765  19.464  13.235  1.00  0.00     0.255 C 
HETATM    7  C21 UNL     1       1.374  18.167  13.377  1.00  0.00     0.181 C 
ENDROOT
BRANCH   5   8
HETATM    8  O4  UNL     1       1.776  21.385  12.281  1.00  0.00    -0.361 OA
BRANCH   8   9
HETATM    9  C8  UNL     1       1.530  22.374  11.356  1.00  0.00     0.178 C 
HETATM   10  C9  UNL     1       0.090  22.836  11.668  1.00  0.00     0.202 C 
HETATM   11  O5  UNL     1       0.194  23.459  12.903  1.00  0.00    -0.386 OA
HETATM   12  C10 UNL     1       1.504  23.854  13.107  1.00  0.00     0.202 C 
HETATM   13  C11 UNL     1       2.203  23.685  11.762  1.00  0.00     0.176 C 
BRANCH  13  14
HETATM   14  O6  UNL     1       3.554  23.642  11.812  1.00  0.00    -0.373 OA
BRANCH  14  15
HETATM   15  C12 UNL     1       4.058  23.625  10.516  1.00  0.00     0.155 C 
HETATM   16  C13 UNL     1       3.605  24.867   9.805  1.00  0.00     0.069 C 
HETATM   17  C14 UNL     1       4.631  25.609   9.035  1.00  0.00     0.156 C 
HETATM   18  C15 UNL     1       5.686  24.816   8.350  1.00  0.00     0.073 C 
HETATM   19  C16 UNL     1       5.883  23.484   8.968  1.00  0.00     0.255 C 
HETATM   20  C19 UNL     1       5.549  23.535  10.428  1.00  0.00     0.180 C 
BRANCH  17  21
HETATM   21  O7  UNL     1       5.271  26.503   9.934  1.00  0.00    -0.282 OA
BRANCH  21  22
HETATM   22  N2  UNL     1       4.365  27.190  10.649  1.00  0.00    -0.311 N 
ATOM     23  H22 UNL     1       4.269  28.205  10.618  1.00  0.00     0.184 HD
ATOM     24  H21 UNL     1       3.799  26.561  11.218  1.00  0.00     0.184 HD
ENDBRANCH  21  22
ENDBRANCH  17  21
BRANCH  19  25
HETATM   25  N3  UNL     1       7.152  22.872   8.687  1.00  0.00     0.087 N 
HETATM   26  C17 UNL     1       7.029  21.815   7.729  1.00  0.00     0.310 C 
HETATM   27  C18 UNL     1       8.237  23.770   8.476  1.00  0.00     0.310 C 
ENDBRANCH  19  25
BRANCH  20  28
HETATM   28  O8  UNL     1       6.057  22.430  11.120  1.00  0.00    -0.391 OA
ATOM     29  H8  UNL     1       5.696  22.355  11.995  1.00  0.00     0.210 HD
ENDBRANCH  20  28
ENDBRANCH  14  15
ENDBRANCH  13  14
ENDBRANCH   8   9
ENDBRANCH   5   8
BRANCH   6  30
HETATM   30  N4  UNL     1      -0.703  19.469  13.171  1.00  0.00    -0.069 N 
ATOM     31  H43 UNL     1      -1.099  18.540  13.314  1.00  0.00     0.275 HD
ATOM     32  H42 UNL     1      -1.125  19.930  13.978  1.00  0.00     0.275 HD
ATOM     33  H41 UNL     1      -0.999  19.886  12.289  1.00  0.00     0.275 HD
ENDBRANCH   6  30
BRANCH   7  34
HETATM   34  O9  UNL     1       0.689  17.865  12.155  1.00  0.00    -0.391 OA
ATOM     35  H9  UNL     1      -0.102  17.780  12.674  1.00  0.00     0.210 HD
ENDBRANCH   7  34
BRANCH   1  36
HETATM   36  O2  UNL     1       3.357  16.862  13.939  1.00  0.00    -0.350 OA
BRANCH  36  37
HETATM   37  C4  UNL     1       4.606  17.005  13.444  1.00  0.00     0.286 C 
HETATM   38  C3  UNL     1       5.419  15.708  13.394  1.00  0.00     0.170 C 
HETATM   39  C25 UNL     1       5.681  15.207  14.780  1.00  0.00     0.177 C 
HETATM   40  C24 UNL     1       6.413  16.307  15.514  1.00  0.00     0.180 C 
HETATM   41  C22 UNL     1       5.827  17.669  15.319  1.00  0.00     0.179 C 
HETATM   42  O10 UNL     1       5.372  17.958  14.065  1.00  0.00    -0.349 OA
BRANCH  38  43
HETATM   43  N1  UNL     1       4.875  14.745  12.492  1.00  0.00    -0.349 N 
HETATM   44  C2  UNL     1       5.671  13.810  11.814  1.00  0.00     0.214 C 
HETATM   45  C1  UNL     1       5.118  12.807  10.876  1.00  0.00     0.117 C 
HETATM   46  O1  UNL     1       6.929  13.825  12.015  1.00  0.00    -0.274 OA
ATOM     47  H1  UNL     1       3.867  14.736  12.334  1.00  0.00     0.163 HD
ENDBRANCH  38  43
BRANCH  39  48
HETATM   48  O13 UNL     1       4.558  14.766  15.436  1.00  0.00    -0.391 OA
ATOM     49  H13 UNL     1       3.848  15.398  15.454  1.00  0.00     0.210 HD
ENDBRANCH  39  48
BRANCH  40  50
HETATM   50  O12 UNL     1       7.759  16.328  15.149  1.00  0.00    -0.390 OA
ATOM     51  H12 UNL     1       7.839  16.098  14.231  1.00  0.00     0.210 HD
ENDBRANCH  40  50
BRANCH  41  52
HETATM   52  C23 UNL     1       4.807  18.009  16.406  1.00  0.00     0.198 C 
BRANCH  52  53
HETATM   53  O11 UNL     1       4.929  17.112  17.480  1.00  0.00    -0.398 OA
ATOM     54  H11 UNL     1       4.071  16.806  17.749  1.00  0.00     0.209 HD
ENDBRANCH  52  53
ENDBRANCH  41  52
ENDBRANCH  36  37
ENDBRANCH   1  36
TORSDOF 17
ENDMDL
