MODEL 1
REMARK VINA RESULT: -8.184634319      0.000      0.000
REMARK  14 active torsions:
REMARK  status: ('A' for Active; 'I' for Inactive)
REMARK    1  A    between atoms: C2_2  and  S1_3 
REMARK    2  A    between atoms: S1_3  and  C3_6 
REMARK    3  A    between atoms: C4_7  and  O3_8 
REMARK    4  A    between atoms: C5_10  and  O4_11 
REMARK    5  A    between atoms: C6_13  and  O5_14 
REMARK    6  A    between atoms: C7_16  and  C8_17 
REMARK    7  A    between atoms: C7_16  and  O8_24 
REMARK    8  A    between atoms: C8_17  and  S2_18 
REMARK    9  A    between atoms: S2_18  and  N1_19 
REMARK   10  A    between atoms: O8_24  and  C9_25 
REMARK   11  A    between atoms: C14_33  and  O11_34 
REMARK   12  A    between atoms: O11_34  and  S4_35 
REMARK   13  A    between atoms: C16_40  and  O15_41 
REMARK   14  A    between atoms: C17_43  and  O16_44 
ROOT
HETATM    1  C3  UNL     1      -0.590  22.854  12.556  1.00  0.00     0.171 C 
HETATM    2  C4  UNL     1      -0.289  23.461  13.915  1.00  0.00     0.170 C 
HETATM    3  C5  UNL     1       0.901  24.360  13.667  1.00  0.00     0.180 C 
HETATM    4  C6  UNL     1       2.052  23.604  13.157  1.00  0.00     0.187 C 
HETATM    5  C7  UNL     1       1.854  22.744  11.922  1.00  0.00     0.131 C 
HETATM    6  C17 UNL     1       0.547  21.969  12.152  1.00  0.00     0.177 C 
ENDROOT
BRANCH   5   7
HETATM    7  C8  UNL     1       2.929  21.697  12.047  1.00  0.00     0.206 C 
BRANCH   7   8
HETATM    8  S2  UNL     1       3.398  20.772  10.667  1.00  0.00     0.227 S 
HETATM    9  O6  UNL     1       2.885  21.166   9.345  1.00  0.00    -0.206 OA
HETATM   10  O7  UNL     1       3.296  19.271  10.888  1.00  0.00    -0.206 OA
BRANCH   8  11
HETATM   11  N1  UNL     1       5.154  21.015  10.530  1.00  0.00    -0.328 N 
ATOM     12  H12 UNL     1       5.695  21.795  10.904  1.00  0.00     0.168 HD
ATOM     13  H11 UNL     1       5.489  20.209  10.001  1.00  0.00     0.168 HD
ENDBRANCH   8  11
ENDBRANCH   7   8
ENDBRANCH   5   7
BRANCH   5  14
HETATM   14  O8  UNL     1       1.720  23.426  10.786  1.00  0.00    -0.366 OA
BRANCH  14  15
HETATM   15  C9  UNL     1       2.361  24.548  10.433  1.00  0.00     0.152 C 
HETATM   16  C10 UNL     1       1.657  25.105   9.156  1.00  0.00     0.035 C 
HETATM   17  C11 UNL     1       2.575  26.256   8.692  1.00  0.00     0.009 C 
HETATM   18  C12 UNL     1       3.601  25.497   7.845  1.00  0.00     0.010 C 
HETATM   19  C13 UNL     1       4.610  26.405   7.185  1.00  0.00     0.148 C 
HETATM   20  C15 UNL     1       4.230  24.500   8.696  1.00  0.00     0.067 C 
HETATM   21  S3  UNL     1       6.026  26.498   8.421  1.00  0.00     0.173 S 
HETATM   22  O9  UNL     1       5.203  27.738   9.401  1.00  0.00    -0.225 OA
HETATM   23  O10 UNL     1       7.131  27.100   7.019  1.00  0.00    -0.225 OA
HETATM   24  C14 UNL     1       5.762  24.663   8.689  1.00  0.00     0.273 C 
HETATM   25  C16 UNL     1       3.819  24.477  10.131  1.00  0.00     0.155 C 
BRANCH  24  26
HETATM   26  O11 UNL     1       6.273  23.967   7.571  1.00  0.00    -0.235 OA
BRANCH  26  27
HETATM   27  S4  UNL     1       7.306  22.751   7.998  1.00  0.00     0.252 S 
HETATM   28  O12 UNL     1       6.794  21.464   7.376  1.00  0.00    -0.572 OA
HETATM   29  O13 UNL     1       7.281  22.503   9.499  1.00  0.00    -0.572 OA
HETATM   30  O14 UNL     1       8.867  22.966   7.447  1.00  0.00    -0.572 OA
ENDBRANCH  26  27
ENDBRANCH  24  26
BRANCH  25  31
HETATM   31  O15 UNL     1       4.568  25.376  10.922  1.00  0.00    -0.392 OA
ATOM     32  H15 UNL     1       5.359  24.974  11.264  1.00  0.00     0.210 HD
ENDBRANCH  25  31
ENDBRANCH  14  15
ENDBRANCH   5  14
BRANCH   4  33
HETATM   33  O5  UNL     1       2.364  22.694  14.205  1.00  0.00    -0.390 OA
ATOM     34  H5  UNL     1       2.908  22.036  13.788  1.00  0.00     0.210 HD
ENDBRANCH   4  33
BRANCH   6  35
HETATM   35  O16 UNL     1       0.777  20.984  13.088  1.00  0.00    -0.391 OA
ATOM     36  H16 UNL     1       1.169  20.214  12.694  1.00  0.00     0.210 HD
ENDBRANCH   6  35
BRANCH   3  37
HETATM   37  O4  UNL     1       1.320  24.964  14.880  1.00  0.00    -0.390 OA
ATOM     38  H4  UNL     1       2.128  25.445  14.745  1.00  0.00     0.210 HD
ENDBRANCH   3  37
BRANCH   1  39
HETATM   39  S1  UNL     1      -2.124  22.034  12.474  1.00  0.00     0.153 S 
HETATM   40  O1  UNL     1      -2.675  21.824  13.880  1.00  0.00    -0.227 OA
HETATM   41  O2  UNL     1      -2.098  20.705  11.827  1.00  0.00    -0.227 OA
BRANCH  39  42
HETATM   42  C2  UNL     1      -3.283  23.050  11.571  1.00  0.00     0.136 C 
HETATM   43  C1  UNL     1      -2.507  24.187  10.928  1.00  0.00     0.021 C 
ENDBRANCH  39  42
ENDBRANCH   1  39
BRANCH   2  44
HETATM   44  O3  UNL     1      -1.415  24.190  14.303  1.00  0.00    -0.391 OA
ATOM     45  H3  UNL     1      -1.345  25.051  13.908  1.00  0.00     0.210 HD
ENDBRANCH   2  44
TORSDOF 14
ENDMDL
MODEL 2
REMARK VINA RESULT: -7.775771963      5.452      8.741
REMARK  14 active torsions:
REMARK  status: ('A' for Active; 'I' for Inactive)
REMARK    1  A    between atoms: C2_2  and  S1_3 
REMARK    2  A    between atoms: S1_3  and  C3_6 
REMARK    3  A    between atoms: C4_7  and  O3_8 
REMARK    4  A    between atoms: C5_10  and  O4_11 
REMARK    5  A    between atoms: C6_13  and  O5_14 
REMARK    6  A    between atoms: C7_16  and  C8_17 
REMARK    7  A    between atoms: C7_16  and  O8_24 
REMARK    8  A    between atoms: C8_17  and  S2_18 
REMARK    9  A    between atoms: S2_18  and  N1_19 
REMARK   10  A    between atoms: O8_24  and  C9_25 
REMARK   11  A    between atoms: C14_33  and  O11_34 
REMARK   12  A    between atoms: O11_34  and  S4_35 
REMARK   13  A    between atoms: C16_40  and  O15_41 
REMARK   14  A    between atoms: C17_43  and  O16_44 
ROOT
HETATM    1  C3  UNL     1       4.557  15.207  12.657  1.00  0.00     0.171 C 
HETATM    2  C4  UNL     1       4.950  14.062  11.739  1.00  0.00     0.170 C 
HETATM    3  C5  UNL     1       3.927  14.107  10.627  1.00  0.00     0.180 C 
HETATM    4  C6  UNL     1       2.562  13.930  11.142  1.00  0.00     0.187 C 
HETATM    5  C7  UNL     1       2.088  14.856  12.248  1.00  0.00     0.131 C 
HETATM    6  C17 UNL     1       3.230  14.905  13.277  1.00  0.00     0.177 C 
ENDROOT
BRANCH   5   7
HETATM    7  C8  UNL     1       1.009  14.060  12.933  1.00  0.00     0.206 C 
BRANCH   7   8
HETATM    8  S2  UNL     1      -0.613  14.120  12.345  1.00  0.00     0.227 S 
HETATM    9  O6  UNL     1      -0.836  14.360  10.911  1.00  0.00    -0.206 OA
HETATM   10  O7  UNL     1      -1.534  14.967  13.210  1.00  0.00    -0.206 OA
BRANCH   8  11
HETATM   11  N1  UNL     1      -1.253  12.481  12.605  1.00  0.00    -0.328 N 
ATOM     12  H12 UNL     1      -1.969  12.203  13.277  1.00  0.00     0.168 HD
ATOM     13  H11 UNL     1      -0.748  11.895  11.941  1.00  0.00     0.168 HD
ENDBRANCH   8  11
ENDBRANCH   7   8
ENDBRANCH   5   7
BRANCH   5  14
HETATM   14  O8  UNL     1       1.846  16.107  11.860  1.00  0.00    -0.366 OA
BRANCH  14  15
HETATM   15  C9  UNL     1       1.610  17.167  12.643  1.00  0.00     0.152 C 
HETATM   16  C10 UNL     1       0.196  17.716  12.272  1.00  0.00     0.035 C 
HETATM   17  C11 UNL     1       0.093  19.045  13.049  1.00  0.00     0.009 C 
HETATM   18  C12 UNL     1       0.769  20.014  12.074  1.00  0.00     0.010 C 
HETATM   19  C13 UNL     1       0.747  21.446  12.553  1.00  0.00     0.148 C 
HETATM   20  C15 UNL     1       2.120  19.534  11.835  1.00  0.00     0.067 C 
HETATM   21  S3  UNL     1       2.354  21.636  13.514  1.00  0.00     0.173 S 
HETATM   22  O9  UNL     1       1.666  20.889  14.979  1.00  0.00    -0.225 OA
HETATM   23  O10 UNL     1       2.172  23.502  13.330  1.00  0.00    -0.225 OA
HETATM   24  C14 UNL     1       3.155  20.630  12.152  1.00  0.00     0.273 C 
HETATM   25  C16 UNL     1       2.552  18.321  12.592  1.00  0.00     0.155 C 
BRANCH  24  26
HETATM   26  O11 UNL     1       3.292  21.449  11.010  1.00  0.00    -0.235 OA
BRANCH  26  27
HETATM   27  S4  UNL     1       4.843  21.969  10.783  1.00  0.00     0.252 S 
HETATM   28  O12 UNL     1       4.863  23.474  10.982  1.00  0.00    -0.572 OA
HETATM   29  O13 UNL     1       5.297  21.752   9.348  1.00  0.00    -0.572 OA
HETATM   30  O14 UNL     1       5.937  21.324  11.867  1.00  0.00    -0.572 OA
ENDBRANCH  26  27
ENDBRANCH  24  26
BRANCH  25  31
HETATM   31  O15 UNL     1       3.073  18.636  13.866  1.00  0.00    -0.392 OA
ATOM     32  H15 UNL     1       3.577  19.442  13.855  1.00  0.00     0.210 HD
ENDBRANCH  25  31
ENDBRANCH  14  15
ENDBRANCH   5  14
BRANCH   4  33
HETATM   33  O5  UNL     1       2.572  12.629  11.716  1.00  0.00    -0.390 OA
ATOM     34  H5  UNL     1       3.174  12.136  11.169  1.00  0.00     0.210 HD
ENDBRANCH   4  33
BRANCH   6  35
HETATM   35  O16 UNL     1       3.254  13.711  13.965  1.00  0.00    -0.391 OA
ATOM     36  H16 UNL     1       2.841  13.014  13.467  1.00  0.00     0.210 HD
ENDBRANCH   6  35
BRANCH   3  37
HETATM   37  O4  UNL     1       4.152  13.049   9.710  1.00  0.00    -0.390 OA
ATOM     38  H4  UNL     1       3.420  12.972   9.111  1.00  0.00     0.210 HD
ENDBRANCH   3  37
BRANCH   1  39
HETATM   39  S1  UNL     1       5.765  15.602  13.848  1.00  0.00     0.153 S 
HETATM   40  O1  UNL     1       7.037  14.806  13.579  1.00  0.00    -0.227 OA
HETATM   41  O2  UNL     1       5.384  15.330  15.251  1.00  0.00    -0.227 OA
BRANCH  39  42
HETATM   42  C2  UNL     1       6.162  17.339  13.725  1.00  0.00     0.136 C 
HETATM   43  C1  UNL     1       6.231  17.905  15.132  1.00  0.00     0.021 C 
ENDBRANCH  39  42
ENDBRANCH   1  39
BRANCH   2  44
HETATM   44  O3  UNL     1       6.237  14.331  11.268  1.00  0.00    -0.391 OA
ATOM     45  H3  UNL     1       6.390  13.763  10.521  1.00  0.00     0.210 HD
ENDBRANCH   2  44
TORSDOF 14
ENDMDL
MODEL 3
REMARK VINA RESULT: -7.444202731      5.306      8.454
REMARK  14 active torsions:
REMARK  status: ('A' for Active; 'I' for Inactive)
REMARK    1  A    between atoms: C2_2  and  S1_3 
REMARK    2  A    between atoms: S1_3  and  C3_6 
REMARK    3  A    between atoms: C4_7  and  O3_8 
REMARK    4  A    between atoms: C5_10  and  O4_11 
REMARK    5  A    between atoms: C6_13  and  O5_14 
REMARK    6  A    between atoms: C7_16  and  C8_17 
REMARK    7  A    between atoms: C7_16  and  O8_24 
REMARK    8  A    between atoms: C8_17  and  S2_18 
REMARK    9  A    between atoms: S2_18  and  N1_19 
REMARK   10  A    between atoms: O8_24  and  C9_25 
REMARK   11  A    between atoms: C14_33  and  O11_34 
REMARK   12  A    between atoms: O11_34  and  S4_35 
REMARK   13  A    between atoms: C16_40  and  O15_41 
REMARK   14  A    between atoms: C17_43  and  O16_44 
ROOT
HETATM    1  C3  UNL     1       4.785  15.788  13.585  1.00  0.00     0.171 C 
HETATM    2  C4  UNL     1       5.437  14.617  12.870  1.00  0.00     0.170 C 
HETATM    3  C5  UNL     1       4.608  14.434  11.619  1.00  0.00     0.180 C 
HETATM    4  C6  UNL     1       3.204  14.145  11.940  1.00  0.00     0.187 C 
HETATM    5  C7  UNL     1       2.464  15.108  12.851  1.00  0.00     0.131 C 
HETATM    6  C17 UNL     1       3.413  15.390  14.028  1.00  0.00     0.177 C 
ENDROOT
BRANCH   5   7
HETATM    7  C8  UNL     1       1.376  14.258  13.452  1.00  0.00     0.206 C 
BRANCH   7   8
HETATM    8  S2  UNL     1      -0.127  14.067  12.623  1.00  0.00     0.227 S 
HETATM    9  O6  UNL     1      -1.269  14.901  13.030  1.00  0.00    -0.206 OA
HETATM   10  O7  UNL     1      -0.528  12.612  12.435  1.00  0.00    -0.206 OA
BRANCH   8  11
HETATM   11  N1  UNL     1       0.204  14.585  10.954  1.00  0.00    -0.328 N 
ATOM     12  H12 UNL     1       1.096  14.529  10.462  1.00  0.00     0.168 HD
ATOM     13  H11 UNL     1      -0.687  14.944  10.610  1.00  0.00     0.168 HD
ENDBRANCH   8  11
ENDBRANCH   7   8
ENDBRANCH   5   7
BRANCH   5  14
HETATM   14  O8  UNL     1       2.160  16.279  12.294  1.00  0.00    -0.366 OA
BRANCH  14  15
HETATM   15  C9  UNL     1       1.830  17.414  12.922  1.00  0.00     0.152 C 
HETATM   16  C10 UNL     1       0.416  17.837  12.410  1.00  0.00     0.035 C 
HETATM   17  C11 UNL     1       0.206  19.246  13.004  1.00  0.00     0.009 C 
HETATM   18  C12 UNL     1       0.894  20.120  11.951  1.00  0.00     0.010 C 
HETATM   19  C13 UNL     1       0.777  21.597  12.242  1.00  0.00     0.148 C 
HETATM   20  C15 UNL     1       2.277  19.686  11.846  1.00  0.00     0.067 C 
HETATM   21  S3  UNL     1       2.315  21.991  13.254  1.00  0.00     0.173 S 
HETATM   22  O9  UNL     1       1.577  21.397  14.764  1.00  0.00    -0.225 OA
HETATM   23  O10 UNL     1       2.059  23.807  12.824  1.00  0.00    -0.225 OA
HETATM   24  C14 UNL     1       3.240  20.867  12.075  1.00  0.00     0.273 C 
HETATM   25  C16 UNL     1       2.719  18.601  12.773  1.00  0.00     0.155 C 
BRANCH  24  26
HETATM   26  O11 UNL     1       3.406  21.542  10.846  1.00  0.00    -0.235 OA
BRANCH  26  27
HETATM   27  S4  UNL     1       4.918  22.185  10.674  1.00  0.00     0.252 S 
HETATM   28  O12 UNL     1       5.830  21.505  11.680  1.00  0.00    -0.572 OA
HETATM   29  O13 UNL     1       4.941  23.658  11.052  1.00  0.00    -0.572 OA
HETATM   30  O14 UNL     1       5.590  21.937   9.166  1.00  0.00    -0.572 OA
ENDBRANCH  26  27
ENDBRANCH  24  26
BRANCH  25  31
HETATM   31  O15 UNL     1       3.149  19.101  14.023  1.00  0.00    -0.392 OA
ATOM     32  H15 UNL     1       4.097  19.113  14.094  1.00  0.00     0.210 HD
ENDBRANCH  25  31
ENDBRANCH  14  15
ENDBRANCH   5  14
BRANCH   4  33
HETATM   33  O5  UNL     1       3.254  12.915  12.651  1.00  0.00    -0.390 OA
ATOM     34  H5  UNL     1       3.699  12.320  12.058  1.00  0.00     0.210 HD
ENDBRANCH   4  33
BRANCH   6  35
HETATM   35  O16 UNL     1       3.449  14.278  14.841  1.00  0.00    -0.391 OA
ATOM     36  H16 UNL     1       4.296  14.182  15.261  1.00  0.00     0.210 HD
ENDBRANCH   6  35
BRANCH   3  37
HETATM   37  O4  UNL     1       5.086  13.329  10.871  1.00  0.00    -0.390 OA
ATOM     38  H4  UNL     1       4.402  12.678  10.773  1.00  0.00     0.210 HD
ENDBRANCH   3  37
BRANCH   1  39
HETATM   39  S1  UNL     1       5.737  16.436  14.892  1.00  0.00     0.153 S 
HETATM   40  O1  UNL     1       6.649  17.540  14.369  1.00  0.00    -0.227 OA
HETATM   41  O2  UNL     1       6.606  15.461  15.585  1.00  0.00    -0.227 OA
BRANCH  39  42
HETATM   42  C2  UNL     1       4.646  17.150  16.112  1.00  0.00     0.136 C 
HETATM   43  C1  UNL     1       5.486  17.557  17.310  1.00  0.00     0.021 C 
ENDBRANCH  39  42
ENDBRANCH   1  39
BRANCH   2  44
HETATM   44  O3  UNL     1       6.749  14.992  12.570  1.00  0.00    -0.391 OA
ATOM     45  H3  UNL     1       6.735  15.413  11.718  1.00  0.00     0.210 HD
ENDBRANCH   2  44
TORSDOF 14
ENDMDL
MODEL 4
REMARK VINA RESULT: -7.364432349      5.544      8.535
REMARK  14 active torsions:
REMARK  status: ('A' for Active; 'I' for Inactive)
REMARK    1  A    between atoms: C2_2  and  S1_3 
REMARK    2  A    between atoms: S1_3  and  C3_6 
REMARK    3  A    between atoms: C4_7  and  O3_8 
REMARK    4  A    between atoms: C5_10  and  O4_11 
REMARK    5  A    between atoms: C6_13  and  O5_14 
REMARK    6  A    between atoms: C7_16  and  C8_17 
REMARK    7  A    between atoms: C7_16  and  O8_24 
REMARK    8  A    between atoms: C8_17  and  S2_18 
REMARK    9  A    between atoms: S2_18  and  N1_19 
REMARK   10  A    between atoms: O8_24  and  C9_25 
REMARK   11  A    between atoms: C14_33  and  O11_34 
REMARK   12  A    between atoms: O11_34  and  S4_35 
REMARK   13  A    between atoms: C16_40  and  O15_41 
REMARK   14  A    between atoms: C17_43  and  O16_44 
ROOT
HETATM    1  C3  UNL     1       3.898  15.059  13.244  1.00  0.00     0.171 C 
HETATM    2  C4  UNL     1       4.882  14.155  12.520  1.00  0.00     0.170 C 
HETATM    3  C5  UNL     1       4.738  14.538  11.065  1.00  0.00     0.180 C 
HETATM    4  C6  UNL     1       3.368  14.324  10.582  1.00  0.00     0.187 C 
HETATM    5  C7  UNL     1       2.229  14.975  11.348  1.00  0.00     0.131 C 
HETATM    6  C17 UNL     1       2.506  14.696  12.834  1.00  0.00     0.177 C 
ENDROOT
BRANCH   5   7
HETATM    7  C8  UNL     1       1.045  14.102  11.024  1.00  0.00     0.206 C 
BRANCH   7   8
HETATM    8  S2  UNL     1      -0.275  13.994  12.131  1.00  0.00     0.227 S 
HETATM    9  O6  UNL     1      -0.333  14.940  13.257  1.00  0.00    -0.206 OA
HETATM   10  O7  UNL     1      -0.571  12.569  12.574  1.00  0.00    -0.206 OA
BRANCH   8  11
HETATM   11  N1  UNL     1      -1.714  14.395  11.165  1.00  0.00    -0.328 N 
ATOM     12  H12 UNL     1      -2.568  13.844  11.083  1.00  0.00     0.168 HD
ATOM     13  H11 UNL     1      -1.490  15.286  10.721  1.00  0.00     0.168 HD
ENDBRANCH   8  11
ENDBRANCH   7   8
ENDBRANCH   5   7
BRANCH   5  14
HETATM   14  O8  UNL     1       2.141  16.295  11.198  1.00  0.00    -0.366 OA
BRANCH  14  15
HETATM   15  C9  UNL     1       1.889  17.203  12.150  1.00  0.00     0.152 C 
HETATM   16  C10 UNL     1       0.444  17.744  11.907  1.00  0.00     0.035 C 
HETATM   17  C11 UNL     1       0.314  18.924  12.892  1.00  0.00     0.009 C 
HETATM   18  C12 UNL     1       0.923  20.067  12.072  1.00  0.00     0.010 C 
HETATM   19  C13 UNL     1       0.860  21.400  12.779  1.00  0.00     0.148 C 
HETATM   20  C15 UNL     1       2.283  19.689  11.726  1.00  0.00     0.067 C 
HETATM   21  S3  UNL     1       2.487  21.500  13.719  1.00  0.00     0.173 S 
HETATM   22  O9  UNL     1       1.874  20.498  15.059  1.00  0.00    -0.225 OA
HETATM   23  O10 UNL     1       2.228  23.362  13.846  1.00  0.00    -0.225 OA
HETATM   24  C14 UNL     1       3.284  20.763  12.193  1.00  0.00     0.273 C 
HETATM   25  C16 UNL     1       2.784  18.390  12.264  1.00  0.00     0.155 C 
BRANCH  24  26
HETATM   26  O11 UNL     1       3.354  21.761  11.195  1.00  0.00    -0.235 OA
BRANCH  26  27
HETATM   27  S4  UNL     1       4.908  22.142  10.786  1.00  0.00     0.252 S 
HETATM   28  O12 UNL     1       5.834  21.423  11.752  1.00  0.00    -0.572 OA
HETATM   29  O13 UNL     1       5.191  23.621  10.993  1.00  0.00    -0.572 OA
HETATM   30  O14 UNL     1       5.341  21.653   9.249  1.00  0.00    -0.572 OA
ENDBRANCH  26  27
ENDBRANCH  24  26
BRANCH  25  31
HETATM   31  O15 UNL     1       3.332  18.517  13.560  1.00  0.00    -0.392 OA
ATOM     32  H15 UNL     1       3.210  17.729  14.076  1.00  0.00     0.210 HD
ENDBRANCH  25  31
ENDBRANCH  14  15
ENDBRANCH   5  14
BRANCH   4  33
HETATM   33  O5  UNL     1       3.164  12.923  10.720  1.00  0.00    -0.390 OA
ATOM     34  H5  UNL     1       3.871  12.639  11.288  1.00  0.00     0.210 HD
ENDBRANCH   4  33
BRANCH   6  35
HETATM   35  O16 UNL     1       2.234  13.369  13.092  1.00  0.00    -0.391 OA
ATOM     36  H16 UNL     1       1.983  13.236  13.999  1.00  0.00     0.210 HD
ENDBRANCH   6  35
BRANCH   3  37
HETATM   37  O4  UNL     1       5.580  13.729  10.260  1.00  0.00    -0.390 OA
ATOM     38  H4  UNL     1       5.095  13.385   9.520  1.00  0.00     0.210 HD
ENDBRANCH   3  37
BRANCH   1  39
HETATM   39  S1  UNL     1       4.093  15.071  14.975  1.00  0.00     0.153 S 
HETATM   40  O1  UNL     1       5.383  15.794  15.345  1.00  0.00    -0.227 OA
HETATM   41  O2  UNL     1       4.156  13.739  15.614  1.00  0.00    -0.227 OA
BRANCH  39  42
HETATM   42  C2  UNL     1       2.730  15.958  15.711  1.00  0.00     0.136 C 
HETATM   43  C1  UNL     1       1.921  14.974  16.538  1.00  0.00     0.021 C 
ENDBRANCH  39  42
ENDBRANCH   1  39
BRANCH   2  44
HETATM   44  O3  UNL     1       6.156  14.452  13.010  1.00  0.00    -0.391 OA
ATOM     45  H3  UNL     1       6.378  15.326  12.709  1.00  0.00     0.210 HD
ENDBRANCH   2  44
TORSDOF 14
ENDMDL
MODEL 5
REMARK VINA RESULT: -7.323465096      4.942      8.418
REMARK  14 active torsions:
REMARK  status: ('A' for Active; 'I' for Inactive)
REMARK    1  A    between atoms: C2_2  and  S1_3 
REMARK    2  A    between atoms: S1_3  and  C3_6 
REMARK    3  A    between atoms: C4_7  and  O3_8 
REMARK    4  A    between atoms: C5_10  and  O4_11 
REMARK    5  A    between atoms: C6_13  and  O5_14 
REMARK    6  A    between atoms: C7_16  and  C8_17 
REMARK    7  A    between atoms: C7_16  and  O8_24 
REMARK    8  A    between atoms: C8_17  and  S2_18 
REMARK    9  A    between atoms: S2_18  and  N1_19 
REMARK   10  A    between atoms: O8_24  and  C9_25 
REMARK   11  A    between atoms: C14_33  and  O11_34 
REMARK   12  A    between atoms: O11_34  and  S4_35 
REMARK   13  A    between atoms: C16_40  and  O15_41 
REMARK   14  A    between atoms: C17_43  and  O16_44 
ROOT
HETATM    1  C3  UNL     1       4.437  14.688  12.751  1.00  0.00     0.171 C 
HETATM    2  C4  UNL     1       4.298  13.931  14.061  1.00  0.00     0.170 C 
HETATM    3  C5  UNL     1       3.377  14.794  14.894  1.00  0.00     0.180 C 
HETATM    4  C6  UNL     1       3.941  16.133  15.112  1.00  0.00     0.187 C 
HETATM    5  C7  UNL     1       4.360  16.940  13.896  1.00  0.00     0.131 C 
HETATM    6  C17 UNL     1       5.156  15.975  13.002  1.00  0.00     0.177 C 
ENDROOT
BRANCH   5   7
HETATM    7  C8  UNL     1       5.402  17.880  14.441  1.00  0.00     0.206 C 
BRANCH   7   8
HETATM    8  S2  UNL     1       5.940  19.217  13.490  1.00  0.00     0.227 S 
HETATM    9  O6  UNL     1       6.212  20.498  14.162  1.00  0.00    -0.206 OA
HETATM   10  O7  UNL     1       5.134  19.409  12.214  1.00  0.00    -0.206 OA
BRANCH   8  11
HETATM   11  N1  UNL     1       7.528  18.720  12.863  1.00  0.00    -0.328 N 
ATOM     12  H12 UNL     1       8.394  19.258  12.894  1.00  0.00     0.168 HD
ATOM     13  H11 UNL     1       7.375  17.790  12.472  1.00  0.00     0.168 HD
ENDBRANCH   8  11
ENDBRANCH   7   8
ENDBRANCH   5   7
BRANCH   5  14
HETATM   14  O8  UNL     1       3.350  17.416  13.170  1.00  0.00    -0.366 OA
BRANCH  14  15
HETATM   15  C9  UNL     1       2.290  18.106  13.611  1.00  0.00     0.152 C 
HETATM   16  C10 UNL     1       1.023  17.498  12.930  1.00  0.00     0.035 C 
HETATM   17  C11 UNL     1      -0.112  18.473  13.310  1.00  0.00     0.009 C 
HETATM   18  C12 UNL     1       0.022  19.531  12.210  1.00  0.00     0.010 C 
HETATM   19  C13 UNL     1      -1.039  20.603  12.290  1.00  0.00     0.148 C 
HETATM   20  C15 UNL     1       1.366  20.079  12.282  1.00  0.00     0.067 C 
HETATM   21  S3  UNL     1      -0.266  21.939  13.365  1.00  0.00     0.173 S 
HETATM   22  O9  UNL     1      -0.682  21.086  14.874  1.00  0.00    -0.225 OA
HETATM   23  O10 UNL     1      -1.538  23.146  12.676  1.00  0.00    -0.225 OA
HETATM   24  C14 UNL     1       1.324  21.612  12.430  1.00  0.00     0.273 C 
HETATM   25  C16 UNL     1       2.245  19.577  13.379  1.00  0.00     0.155 C 
BRANCH  24  26
HETATM   26  O11 UNL     1       1.211  22.176  11.140  1.00  0.00    -0.235 OA
BRANCH  26  27
HETATM   27  S4  UNL     1       2.674  22.351  10.393  1.00  0.00     0.252 S 
HETATM   28  O12 UNL     1       2.558  23.498   9.405  1.00  0.00    -0.572 OA
HETATM   29  O13 UNL     1       3.016  21.133   9.549  1.00  0.00    -0.572 OA
HETATM   30  O14 UNL     1       3.922  22.734  11.434  1.00  0.00    -0.572 OA
ENDBRANCH  26  27
ENDBRANCH  24  26
BRANCH  25  31
HETATM   31  O15 UNL     1       2.072  20.297  14.582  1.00  0.00    -0.392 OA
ATOM     32  H15 UNL     1       2.036  19.723  15.338  1.00  0.00     0.210 HD
ENDBRANCH  25  31
ENDBRANCH  14  15
ENDBRANCH   5  14
BRANCH   4  33
HETATM   33  O5  UNL     1       5.141  15.892  15.838  1.00  0.00    -0.390 OA
ATOM     34  H5  UNL     1       4.843  15.630  16.701  1.00  0.00     0.210 HD
ENDBRANCH   4  33
BRANCH   6  35
HETATM   35  O16 UNL     1       6.390  15.759  13.577  1.00  0.00    -0.391 OA
ATOM     36  H16 UNL     1       7.092  16.077  13.021  1.00  0.00     0.210 HD
ENDBRANCH   6  35
BRANCH   3  37
HETATM   37  O4  UNL     1       3.195  14.219  16.178  1.00  0.00    -0.390 OA
ATOM     38  H4  UNL     1       2.270  14.123  16.367  1.00  0.00     0.210 HD
ENDBRANCH   3  37
BRANCH   1  39
HETATM   39  S1  UNL     1       5.173  13.759  11.475  1.00  0.00     0.153 S 
HETATM   40  O1  UNL     1       5.965  12.600  12.070  1.00  0.00    -0.227 OA
HETATM   41  O2  UNL     1       6.105  14.507  10.605  1.00  0.00    -0.227 OA
BRANCH  39  42
HETATM   42  C2  UNL     1       3.892  13.078  10.434  1.00  0.00     0.136 C 
HETATM   43  C1  UNL     1       2.829  14.144  10.240  1.00  0.00     0.021 C 
ENDBRANCH  39  42
ENDBRANCH   1  39
BRANCH   2  44
HETATM   44  O3  UNL     1       3.720  12.694  13.767  1.00  0.00    -0.391 OA
ATOM     45  H3  UNL     1       4.416  12.047  13.781  1.00  0.00     0.210 HD
ENDBRANCH   2  44
TORSDOF 14
ENDMDL
