MODEL 1
REMARK VINA RESULT: -5.954180878      0.000      0.000
REMARK  8 active torsions:
REMARK  status: ('A' for Active; 'I' for Inactive)
REMARK    1  A    between atoms: S1_2  and  C2_3 
REMARK    2  A    between atoms: C2_3  and  C3_4 
REMARK    3  A    between atoms: C3_4  and  C4_5 
REMARK    4  A    between atoms: C3_4  and  C12_17 
REMARK       I    between atoms: C4_5  and  N1_7 
REMARK    5  A    between atoms: N1_7  and  C5_8 
REMARK    6  A    between atoms: C5_8  and  C6_9 
REMARK    7  A    between atoms: C6_9  and  O2_10 
REMARK    8  A    between atoms: C12_17  and  C13_19 
ROOT
HETATM    1  C4  UNL     1     -53.996  24.321 -30.222  1.00  0.00     0.303 C 
HETATM    2  O1  UNL     1     -54.722  24.112 -29.264  1.00  0.00    -0.256 OA
HETATM    3  N1  UNL     1     -52.643  24.117 -30.296  1.00  0.00    -0.384 NA
ENDROOT
BRANCH   1   4
HETATM    4  C3  UNL     1     -54.695  24.867 -31.498  1.00  0.00     0.179 C 
BRANCH   4   5
HETATM    5  C2  UNL     1     -56.080  25.297 -31.036  1.00  0.00     0.097 C 
BRANCH   5   6
HETATM    6  S1  UNL     1     -56.824  26.468 -32.119  1.00  0.00    -0.172 SA
HETATM    7  C1  UNL     1     -56.137  26.981 -33.618  1.00  0.00     0.089 C 
ENDBRANCH   5   6
ENDBRANCH   4   5
BRANCH   4   8
HETATM    8  C12 UNL     1     -54.881  23.656 -32.370  1.00  0.00     0.198 C 
HETATM    9  O3  UNL     1     -55.628  22.735 -32.002  1.00  0.00    -0.289 OA
BRANCH   8  10
HETATM   10  C13 UNL     1     -54.163  23.603 -33.628  1.00  0.00     0.121 A 
HETATM   11  C14 UNL     1     -54.127  22.540 -34.453  1.00  0.00     0.043 A 
HETATM   12  C15 UNL     1     -53.354  22.881 -35.538  1.00  0.00     0.027 A 
HETATM   13  C16 UNL     1     -52.941  24.215 -35.296  1.00  0.00     0.142 A 
HETATM   14  O4  UNL     1     -53.446  24.564 -34.168  1.00  0.00    -0.319 OA
ENDBRANCH   8  10
ENDBRANCH   4   8
ENDBRANCH   1   4
BRANCH   3  15
HETATM   15  C5  UNL     1     -51.313  23.917 -30.368  1.00  0.00     0.196 C 
BRANCH  15  16
HETATM   16  C6  UNL     1     -50.583  23.945 -31.681  1.00  0.00     0.102 C 
HETATM   17  C7  UNL     1     -49.091  24.115 -31.552  1.00  0.00     0.044 C 
HETATM   18  C8  UNL     1     -48.433  23.352 -32.710  1.00  0.00     0.003 C 
HETATM   19  C9  UNL     1     -48.529  21.892 -32.310  1.00  0.00     0.000 C 
HETATM   20  C10 UNL     1     -49.954  21.523 -31.991  1.00  0.00     0.003 C 
HETATM   21  C11 UNL     1     -50.917  22.617 -32.362  1.00  0.00     0.044 C 
BRANCH  16  22
HETATM   22  O2  UNL     1     -51.133  24.978 -32.444  1.00  0.00    -0.383 OA
ATOM     23  H2  UNL     1     -50.903  24.816 -33.352  1.00  0.00     0.211 HD
ENDBRANCH  16  22
ENDBRANCH  15  16
ENDBRANCH   3  15
TORSDOF 8
ENDMDL
MODEL 2
REMARK VINA RESULT: -5.951345859      1.911      3.843
REMARK  8 active torsions:
REMARK  status: ('A' for Active; 'I' for Inactive)
REMARK    1  A    between atoms: S1_2  and  C2_3 
REMARK    2  A    between atoms: C2_3  and  C3_4 
REMARK    3  A    between atoms: C3_4  and  C4_5 
REMARK    4  A    between atoms: C3_4  and  C12_17 
REMARK       I    between atoms: C4_5  and  N1_7 
REMARK    5  A    between atoms: N1_7  and  C5_8 
REMARK    6  A    between atoms: C5_8  and  C6_9 
REMARK    7  A    between atoms: C6_9  and  O2_10 
REMARK    8  A    between atoms: C12_17  and  C13_19 
ROOT
HETATM    1  C4  UNL     1     -52.906  23.956 -34.451  1.00  0.00     0.303 C 
HETATM    2  O1  UNL     1     -52.593  24.486 -35.505  1.00  0.00    -0.256 OA
HETATM    3  N1  UNL     1     -52.084  23.283 -33.586  1.00  0.00    -0.384 NA
ENDROOT
BRANCH   1   4
HETATM    4  C3  UNL     1     -54.402  24.077 -34.048  1.00  0.00     0.179 C 
BRANCH   4   5
HETATM    5  C2  UNL     1     -55.099  24.634 -35.281  1.00  0.00     0.097 C 
BRANCH   5   6
HETATM    6  S1  UNL     1     -55.985  23.404 -36.176  1.00  0.00    -0.172 SA
HETATM    7  C1  UNL     1     -55.285  21.942 -36.773  1.00  0.00     0.089 C 
ENDBRANCH   5   6
ENDBRANCH   4   5
BRANCH   4   8
HETATM    8  C12 UNL     1     -54.423  25.161 -33.007  1.00  0.00     0.198 C 
HETATM    9  O3  UNL     1     -54.388  26.354 -33.351  1.00  0.00    -0.289 OA
BRANCH   8  10
HETATM   10  C13 UNL     1     -54.478  24.769 -31.612  1.00  0.00     0.121 A 
HETATM   11  C14 UNL     1     -55.603  24.473 -30.936  1.00  0.00     0.043 A 
HETATM   12  C15 UNL     1     -55.243  24.142 -29.651  1.00  0.00     0.027 A 
HETATM   13  C16 UNL     1     -53.830  24.261 -29.619  1.00  0.00     0.142 A 
HETATM   14  O4  UNL     1     -53.460  24.632 -30.791  1.00  0.00    -0.319 OA
ENDBRANCH   8  10
ENDBRANCH   4   8
ENDBRANCH   1   4
BRANCH   3  15
HETATM   15  C5  UNL     1     -51.276  22.621 -32.736  1.00  0.00     0.196 C 
BRANCH  15  16
HETATM   16  C6  UNL     1     -50.338  23.347 -31.814  1.00  0.00     0.102 C 
HETATM   17  C7  UNL     1     -50.475  22.956 -30.365  1.00  0.00     0.044 C 
HETATM   18  C8  UNL     1     -49.087  23.068 -29.718  1.00  0.00     0.003 C 
HETATM   19  C9  UNL     1     -48.335  21.846 -30.211  1.00  0.00     0.000 C 
HETATM   20  C10 UNL     1     -48.368  21.776 -31.715  1.00  0.00     0.003 C 
HETATM   21  C11 UNL     1     -48.933  23.028 -32.327  1.00  0.00     0.044 C 
BRANCH  16  22
HETATM   22  O2  UNL     1     -50.563  24.715 -31.980  1.00  0.00    -0.383 OA
ATOM     23  H2  UNL     1     -49.938  25.176 -31.433  1.00  0.00     0.211 HD
ENDBRANCH  16  22
ENDBRANCH  15  16
ENDBRANCH   3  15
TORSDOF 8
ENDMDL
MODEL 3
REMARK VINA RESULT: -5.935728385      1.753      3.586
REMARK  8 active torsions:
REMARK  status: ('A' for Active; 'I' for Inactive)
REMARK    1  A    between atoms: S1_2  and  C2_3 
REMARK    2  A    between atoms: C2_3  and  C3_4 
REMARK    3  A    between atoms: C3_4  and  C4_5 
REMARK    4  A    between atoms: C3_4  and  C12_17 
REMARK       I    between atoms: C4_5  and  N1_7 
REMARK    5  A    between atoms: N1_7  and  C5_8 
REMARK    6  A    between atoms: C5_8  and  C6_9 
REMARK    7  A    between atoms: C6_9  and  O2_10 
REMARK    8  A    between atoms: C12_17  and  C13_19 
ROOT
HETATM    1  C4  UNL     1     -52.902  23.956 -34.466  1.00  0.00     0.303 C 
HETATM    2  O1  UNL     1     -52.591  24.476 -35.525  1.00  0.00    -0.256 OA
HETATM    3  N1  UNL     1     -52.079  23.286 -33.599  1.00  0.00    -0.384 NA
ENDROOT
BRANCH   1   4
HETATM    4  C3  UNL     1     -54.395  24.087 -34.057  1.00  0.00     0.179 C 
BRANCH   4   5
HETATM    5  C2  UNL     1     -55.093  24.652 -35.287  1.00  0.00     0.097 C 
BRANCH   5   6
HETATM    6  S1  UNL     1     -56.840  24.445 -35.233  1.00  0.00    -0.172 SA
HETATM    7  C1  UNL     1     -57.897  25.361 -34.220  1.00  0.00     0.089 C 
ENDBRANCH   5   6
ENDBRANCH   4   5
BRANCH   4   8
HETATM    8  C12 UNL     1     -54.405  25.169 -33.014  1.00  0.00     0.198 C 
HETATM    9  O3  UNL     1     -54.345  26.362 -33.355  1.00  0.00    -0.289 OA
BRANCH   8  10
HETATM   10  C13 UNL     1     -54.477  24.775 -31.621  1.00  0.00     0.121 A 
HETATM   11  C14 UNL     1     -55.612  24.484 -30.957  1.00  0.00     0.043 A 
HETATM   12  C15 UNL     1     -55.267  24.149 -29.669  1.00  0.00     0.027 A 
HETATM   13  C16 UNL     1     -53.855  24.261 -29.621  1.00  0.00     0.142 A 
HETATM   14  O4  UNL     1     -53.469  24.632 -30.789  1.00  0.00    -0.319 OA
ENDBRANCH   8  10
ENDBRANCH   4   8
ENDBRANCH   1   4
BRANCH   3  15
HETATM   15  C5  UNL     1     -51.271  22.625 -32.748  1.00  0.00     0.196 C 
BRANCH  15  16
HETATM   16  C6  UNL     1     -50.340  23.354 -31.821  1.00  0.00     0.102 C 
HETATM   17  C7  UNL     1     -50.484  22.966 -30.372  1.00  0.00     0.044 C 
HETATM   18  C8  UNL     1     -49.099  23.081 -29.719  1.00  0.00     0.003 C 
HETATM   19  C9  UNL     1     -48.343  21.860 -30.206  1.00  0.00     0.000 C 
HETATM   20  C10 UNL     1     -48.368  21.787 -31.710  1.00  0.00     0.003 C 
HETATM   21  C11 UNL     1     -48.931  23.037 -32.327  1.00  0.00     0.044 C 
BRANCH  16  22
HETATM   22  O2  UNL     1     -50.566  24.722 -31.991  1.00  0.00    -0.383 OA
ATOM     23  H2  UNL     1     -49.969  25.184 -31.413  1.00  0.00     0.211 HD
ENDBRANCH  16  22
ENDBRANCH  15  16
ENDBRANCH   3  15
TORSDOF 8
ENDMDL
MODEL 4
REMARK VINA RESULT: -5.888738536      2.103      3.949
REMARK  8 active torsions:
REMARK  status: ('A' for Active; 'I' for Inactive)
REMARK    1  A    between atoms: S1_2  and  C2_3 
REMARK    2  A    between atoms: C2_3  and  C3_4 
REMARK    3  A    between atoms: C3_4  and  C4_5 
REMARK    4  A    between atoms: C3_4  and  C12_17 
REMARK       I    between atoms: C4_5  and  N1_7 
REMARK    5  A    between atoms: N1_7  and  C5_8 
REMARK    6  A    between atoms: C5_8  and  C6_9 
REMARK    7  A    between atoms: C6_9  and  O2_10 
REMARK    8  A    between atoms: C12_17  and  C13_19 
ROOT
HETATM    1  C4  UNL     1     -52.966  24.572 -31.884  1.00  0.00     0.303 C 
HETATM    2  O1  UNL     1     -52.756  25.480 -32.671  1.00  0.00    -0.256 OA
HETATM    3  N1  UNL     1     -52.138  24.132 -30.886  1.00  0.00    -0.384 NA
ENDROOT
BRANCH   1   4
HETATM    4  C3  UNL     1     -54.334  23.849 -32.031  1.00  0.00     0.179 C 
BRANCH   4   5
HETATM    5  C2  UNL     1     -54.785  24.143 -33.455  1.00  0.00     0.097 C 
BRANCH   5   6
HETATM    6  S1  UNL     1     -54.364  22.857 -34.581  1.00  0.00    -0.172 SA
HETATM    7  C1  UNL     1     -53.302  23.052 -35.929  1.00  0.00     0.089 C 
ENDBRANCH   5   6
ENDBRANCH   4   5
BRANCH   4   8
HETATM    8  C12 UNL     1     -55.258  24.605 -31.116  1.00  0.00     0.198 C 
HETATM    9  O3  UNL     1     -55.775  25.667 -31.496  1.00  0.00    -0.289 OA
BRANCH   8  10
HETATM   10  C13 UNL     1     -55.508  24.060 -29.796  1.00  0.00     0.121 A 
HETATM   11  C14 UNL     1     -56.642  23.442 -29.418  1.00  0.00     0.043 A 
HETATM   12  C15 UNL     1     -56.492  23.064 -28.104  1.00  0.00     0.027 A 
HETATM   13  C16 UNL     1     -55.194  23.500 -27.738  1.00  0.00     0.142 A 
HETATM   14  O4  UNL     1     -54.687  24.072 -28.770  1.00  0.00    -0.319 OA
ENDBRANCH   8  10
ENDBRANCH   4   8
ENDBRANCH   1   4
BRANCH   3  15
HETATM   15  C5  UNL     1     -51.323  23.699 -29.905  1.00  0.00     0.196 C 
BRANCH  15  16
HETATM   16  C6  UNL     1     -49.865  23.431 -30.154  1.00  0.00     0.102 C 
HETATM   17  C7  UNL     1     -49.481  21.977 -30.059  1.00  0.00     0.044 C 
HETATM   18  C8  UNL     1     -48.338  21.730 -31.054  1.00  0.00     0.003 C 
HETATM   19  C9  UNL     1     -49.014  21.698 -32.412  1.00  0.00     0.000 C 
HETATM   20  C10 UNL     1     -49.830  22.945 -32.628  1.00  0.00     0.003 C 
HETATM   21  C11 UNL     1     -49.585  23.972 -31.557  1.00  0.00     0.044 C 
BRANCH  16  22
HETATM   22  O2  UNL     1     -49.137  24.195 -29.239  1.00  0.00    -0.383 OA
ATOM     23  H2  UNL     1     -48.443  24.631 -29.719  1.00  0.00     0.211 HD
ENDBRANCH  16  22
ENDBRANCH  15  16
ENDBRANCH   3  15
TORSDOF 8
ENDMDL
MODEL 5
REMARK VINA RESULT: -5.867524636      1.709      3.628
REMARK  8 active torsions:
REMARK  status: ('A' for Active; 'I' for Inactive)
REMARK    1  A    between atoms: S1_2  and  C2_3 
REMARK    2  A    between atoms: C2_3  and  C3_4 
REMARK    3  A    between atoms: C3_4  and  C4_5 
REMARK    4  A    between atoms: C3_4  and  C12_17 
REMARK       I    between atoms: C4_5  and  N1_7 
REMARK    5  A    between atoms: N1_7  and  C5_8 
REMARK    6  A    between atoms: C5_8  and  C6_9 
REMARK    7  A    between atoms: C6_9  and  O2_10 
REMARK    8  A    between atoms: C12_17  and  C13_19 
ROOT
HETATM    1  C4  UNL     1     -53.047  23.824 -34.712  1.00  0.00     0.303 C 
HETATM    2  O1  UNL     1     -52.742  24.009 -35.879  1.00  0.00    -0.256 OA
HETATM    3  N1  UNL     1     -52.275  23.253 -33.735  1.00  0.00    -0.384 NA
ENDROOT
BRANCH   1   4
HETATM    4  C3  UNL     1     -54.465  24.304 -34.296  1.00  0.00     0.179 C 
BRANCH   4   5
HETATM    5  C2  UNL     1     -54.954  25.149 -35.465  1.00  0.00     0.097 C 
BRANCH   5   6
HETATM    6  S1  UNL     1     -56.590  25.754 -35.228  1.00  0.00    -0.172 SA
HETATM    7  C1  UNL     1     -56.968  27.328 -34.628  1.00  0.00     0.089 C 
ENDBRANCH   5   6
ENDBRANCH   4   5
BRANCH   4   8
HETATM    8  C12 UNL     1     -54.221  25.245 -33.149  1.00  0.00     0.198 C 
HETATM    9  O3  UNL     1     -53.461  26.216 -33.293  1.00  0.00    -0.289 OA
BRANCH   8  10
HETATM   10  C13 UNL     1     -54.886  24.973 -31.890  1.00  0.00     0.121 A 
HETATM   11  C14 UNL     1     -54.347  24.292 -30.862  1.00  0.00     0.043 A 
HETATM   12  C15 UNL     1     -55.280  24.253 -29.852  1.00  0.00     0.027 A 
HETATM   13  C16 UNL     1     -56.401  24.960 -30.355  1.00  0.00     0.142 A 
HETATM   14  O4  UNL     1     -56.099  25.343 -31.543  1.00  0.00    -0.319 OA
ENDBRANCH   8  10
ENDBRANCH   4   8
ENDBRANCH   1   4
BRANCH   3  15
HETATM   15  C5  UNL     1     -51.516  22.691 -32.774  1.00  0.00     0.196 C 
BRANCH  15  16
HETATM   16  C6  UNL     1     -50.631  23.518 -31.885  1.00  0.00     0.102 C 
HETATM   17  C7  UNL     1     -50.861  23.299 -30.412  1.00  0.00     0.044 C 
HETATM   18  C8  UNL     1     -49.515  23.483 -29.697  1.00  0.00     0.003 C 
HETATM   19  C9  UNL     1     -48.745  22.211 -29.997  1.00  0.00     0.000 C 
HETATM   20  C10 UNL     1     -48.686  21.965 -31.482  1.00  0.00     0.003 C 
HETATM   21  C11 UNL     1     -49.199  23.139 -32.269  1.00  0.00     0.044 C 
BRANCH  16  22
HETATM   22  O2  UNL     1     -50.833  24.858 -32.223  1.00  0.00    -0.383 OA
ATOM     23  H2  UNL     1     -50.882  24.910 -33.170  1.00  0.00     0.211 HD
ENDBRANCH  16  22
ENDBRANCH  15  16
ENDBRANCH   3  15
TORSDOF 8
ENDMDL
