MODEL 1
REMARK VINA RESULT: -6.292144941      0.000      0.000
REMARK  8 active torsions:
REMARK  status: ('A' for Active; 'I' for Inactive)
REMARK    1  A    between atoms: C3_3  and  O1_4 
REMARK    2  A    between atoms: C3_3  and  C4_6 
REMARK    3  A    between atoms: C4_6  and  C5_7 
REMARK    4  A    between atoms: C4_6  and  N2_16 
REMARK    5  A    between atoms: C5_7  and  C6_8 
REMARK    6  A    between atoms: C6_8  and  S1_9 
REMARK    7  A    between atoms: S1_9  and  C7_10 
REMARK       I    between atoms: N2_16  and  C10_18 
REMARK    8  A    between atoms: C10_18  and  C11_20 
ROOT
HETATM    1  C1  UNL     1     -53.553  21.845 -36.626  1.00  0.00     0.015 C 
HETATM    2  C2  UNL     1     -53.657  22.788 -35.913  1.00  0.00    -0.083 C 
HETATM    3  C3  UNL     1     -53.778  23.921 -35.025  1.00  0.00     0.218 C 
ENDROOT
BRANCH   3   4
HETATM    4  O1  UNL     1     -52.845  24.938 -35.322  1.00  0.00    -0.381 OA
ATOM      5  H1  UNL     1     -52.982  25.313 -36.184  1.00  0.00     0.211 HD
ENDBRANCH   3   4
BRANCH   3   6
HETATM    6  C4  UNL     1     -53.594  23.506 -33.586  1.00  0.00     0.125 C 
BRANCH   6   7
HETATM    7  C5  UNL     1     -54.256  22.197 -33.272  1.00  0.00     0.039 C 
BRANCH   7   8
HETATM    8  C6  UNL     1     -55.644  22.453 -32.728  1.00  0.00     0.085 C 
BRANCH   8   9
HETATM    9  S1  UNL     1     -55.732  24.116 -31.971  1.00  0.00    -0.086 SA
BRANCH   9  10
HETATM   10  C7  UNL     1     -55.440  24.039 -30.227  1.00  0.00     0.186 A 
HETATM   11  N1  UNL     1     -54.232  24.103 -29.661  1.00  0.00    -0.339 N 
HETATM   12  C8  UNL     1     -54.356  24.017 -28.316  1.00  0.00     0.115 A 
ATOM     13  H1  UNL     1     -53.351  24.202 -30.166  1.00  0.00     0.167 HD
HETATM   14  C9  UNL     1     -55.727  23.894 -28.097  1.00  0.00     0.162 A 
HETATM   15  O2  UNL     1     -56.323  23.914 -29.271  1.00  0.00    -0.299 OA
ENDBRANCH   9  10
ENDBRANCH   8   9
ENDBRANCH   7   8
ENDBRANCH   6   7
BRANCH   6  16
HETATM   16  N2  UNL     1     -52.173  23.371 -33.349  1.00  0.00    -0.353 N 
HETATM   17  C10 UNL     1     -51.518  24.042 -32.267  1.00  0.00     0.222 C 
HETATM   18  O3  UNL     1     -52.222  24.759 -31.520  1.00  0.00    -0.273 OA
ATOM     19  H2  UNL     1     -51.620  22.781 -33.971  1.00  0.00     0.163 HD
BRANCH  17  20
HETATM   20  C11 UNL     1     -50.057  23.898 -32.033  1.00  0.00     0.078 C 
HETATM   21  C12 UNL     1     -49.529  22.705 -32.765  1.00  0.00     0.014 C 
HETATM   22  C13 UNL     1     -49.409  21.467 -31.968  1.00  0.00     0.001 C 
HETATM   23  C14 UNL     1     -48.665  21.773 -30.663  1.00  0.00     0.000 C 
HETATM   24  C15 UNL     1     -49.610  22.668 -29.887  1.00  0.00     0.001 C 
HETATM   25  C16 UNL     1     -49.708  23.970 -30.594  1.00  0.00     0.014 C 
ENDBRANCH  17  20
ENDBRANCH   6  16
ENDBRANCH   3   6
TORSDOF 8
ENDMDL
MODEL 2
REMARK VINA RESULT: -6.248645169      2.018      4.917
REMARK  8 active torsions:
REMARK  status: ('A' for Active; 'I' for Inactive)
REMARK    1  A    between atoms: C3_3  and  O1_4 
REMARK    2  A    between atoms: C3_3  and  C4_6 
REMARK    3  A    between atoms: C4_6  and  C5_7 
REMARK    4  A    between atoms: C4_6  and  N2_16 
REMARK    5  A    between atoms: C5_7  and  C6_8 
REMARK    6  A    between atoms: C6_8  and  S1_9 
REMARK    7  A    between atoms: S1_9  and  C7_10 
REMARK       I    between atoms: N2_16  and  C10_18 
REMARK    8  A    between atoms: C10_18  and  C11_20 
ROOT
HETATM    1  C1  UNL     1     -53.349  24.124 -28.921  1.00  0.00     0.015 C 
HETATM    2  C2  UNL     1     -53.932  24.338 -29.932  1.00  0.00    -0.083 C 
HETATM    3  C3  UNL     1     -54.620  24.594 -31.176  1.00  0.00     0.218 C 
ENDROOT
BRANCH   3   4
HETATM    4  O1  UNL     1     -55.708  23.716 -31.378  1.00  0.00    -0.381 OA
ATOM      5  H1  UNL     1     -56.545  24.136 -31.217  1.00  0.00     0.211 HD
ENDBRANCH   3   4
BRANCH   3   6
HETATM    6  C4  UNL     1     -53.681  24.472 -32.351  1.00  0.00     0.125 C 
BRANCH   6   7
HETATM    7  C5  UNL     1     -53.900  25.542 -33.379  1.00  0.00     0.039 C 
BRANCH   7   8
HETATM    8  C6  UNL     1     -54.712  24.979 -34.525  1.00  0.00     0.085 C 
BRANCH   8   9
HETATM    9  S1  UNL     1     -53.609  24.457 -35.887  1.00  0.00    -0.086 SA
BRANCH   9  10
HETATM   10  C7  UNL     1     -53.945  22.789 -36.376  1.00  0.00     0.186 A 
HETATM   11  N1  UNL     1     -53.567  22.254 -37.539  1.00  0.00    -0.339 N 
HETATM   12  C8  UNL     1     -53.979  20.966 -37.602  1.00  0.00     0.115 A 
ATOM     13  H1  UNL     1     -53.048  22.741 -38.269  1.00  0.00     0.167 HD
HETATM   14  C9  UNL     1     -54.637  20.750 -36.393  1.00  0.00     0.162 A 
HETATM   15  O2  UNL     1     -54.586  21.869 -35.703  1.00  0.00    -0.299 OA
ENDBRANCH   9  10
ENDBRANCH   8   9
ENDBRANCH   7   8
ENDBRANCH   6   7
BRANCH   6  16
HETATM   16  N2  UNL     1     -52.331  24.591 -31.844  1.00  0.00    -0.353 N 
HETATM   17  C10 UNL     1     -51.259  23.787 -32.349  1.00  0.00     0.222 C 
HETATM   18  O3  UNL     1     -51.529  22.967 -33.256  1.00  0.00    -0.273 OA
ATOM     19  H2  UNL     1     -52.136  25.266 -31.105  1.00  0.00     0.163 HD
BRANCH  17  20
HETATM   20  C11 UNL     1     -49.875  23.915 -31.821  1.00  0.00     0.078 C 
HETATM   21  C12 UNL     1     -48.967  22.944 -32.507  1.00  0.00     0.014 C 
HETATM   22  C13 UNL     1     -48.732  21.672 -31.792  1.00  0.00     0.001 C 
HETATM   23  C14 UNL     1     -48.339  21.970 -30.341  1.00  0.00     0.000 C 
HETATM   24  C15 UNL     1     -49.589  22.562 -29.722  1.00  0.00     0.001 C 
HETATM   25  C16 UNL     1     -49.834  23.890 -30.339  1.00  0.00     0.014 C 
ENDBRANCH  17  20
ENDBRANCH   6  16
ENDBRANCH   3   6
TORSDOF 8
ENDMDL
MODEL 3
REMARK VINA RESULT: -6.239895632      2.108      4.390
REMARK  8 active torsions:
REMARK  status: ('A' for Active; 'I' for Inactive)
REMARK    1  A    between atoms: C3_3  and  O1_4 
REMARK    2  A    between atoms: C3_3  and  C4_6 
REMARK    3  A    between atoms: C4_6  and  C5_7 
REMARK    4  A    between atoms: C4_6  and  N2_16 
REMARK    5  A    between atoms: C5_7  and  C6_8 
REMARK    6  A    between atoms: C6_8  and  S1_9 
REMARK    7  A    between atoms: S1_9  and  C7_10 
REMARK       I    between atoms: N2_16  and  C10_18 
REMARK    8  A    between atoms: C10_18  and  C11_20 
ROOT
HETATM    1  C1  UNL     1     -53.432  24.119 -29.323  1.00  0.00     0.015 C 
HETATM    2  C2  UNL     1     -53.903  24.431 -30.366  1.00  0.00    -0.083 C 
HETATM    3  C3  UNL     1     -54.454  24.804 -31.649  1.00  0.00     0.218 C 
ENDROOT
BRANCH   3   4
HETATM    4  O1  UNL     1     -55.579  24.026 -31.996  1.00  0.00    -0.381 OA
ATOM      5  H1  UNL     1     -55.384  23.394 -32.679  1.00  0.00     0.211 HD
ENDBRANCH   3   4
BRANCH   3   6
HETATM    6  C4  UNL     1     -53.423  24.673 -32.742  1.00  0.00     0.125 C 
BRANCH   6   7
HETATM    7  C5  UNL     1     -53.556  25.734 -33.793  1.00  0.00     0.039 C 
BRANCH   7   8
HETATM    8  C6  UNL     1     -54.360  25.193 -34.955  1.00  0.00     0.085 C 
BRANCH   8   9
HETATM    9  S1  UNL     1     -53.488  23.785 -35.730  1.00  0.00    -0.086 SA
BRANCH   9  10
HETATM   10  C7  UNL     1     -54.346  22.265 -35.440  1.00  0.00     0.186 A 
HETATM   11  N1  UNL     1     -55.040  21.990 -34.332  1.00  0.00    -0.339 N 
HETATM   12  C8  UNL     1     -55.572  20.750 -34.426  1.00  0.00     0.115 A 
ATOM     13  H1  UNL     1     -55.152  22.620 -33.538  1.00  0.00     0.167 HD
HETATM   14  C9  UNL     1     -55.154  20.282 -35.671  1.00  0.00     0.162 A 
HETATM   15  O2  UNL     1     -54.427  21.226 -36.230  1.00  0.00    -0.299 OA
ENDBRANCH   9  10
ENDBRANCH   8   9
ENDBRANCH   7   8
ENDBRANCH   6   7
BRANCH   6  16
HETATM   16  N2  UNL     1     -52.118  24.794 -32.128  1.00  0.00    -0.353 N 
HETATM   17  C10 UNL     1     -51.095  23.812 -32.323  1.00  0.00     0.222 C 
HETATM   18  O3  UNL     1     -51.366  22.831 -33.052  1.00  0.00    -0.273 OA
ATOM     19  H2  UNL     1     -51.921  25.604 -31.539  1.00  0.00     0.163 HD
BRANCH  17  20
HETATM   20  C11 UNL     1     -49.758  23.945 -31.687  1.00  0.00     0.078 C 
HETATM   21  C12 UNL     1     -48.748  23.124 -32.424  1.00  0.00     0.014 C 
HETATM   22  C13 UNL     1     -48.479  21.784 -31.862  1.00  0.00     0.001 C 
HETATM   23  C14 UNL     1     -48.197  21.911 -30.361  1.00  0.00     0.000 C 
HETATM   24  C15 UNL     1     -49.519  22.348 -29.761  1.00  0.00     0.001 C 
HETATM   25  C16 UNL     1     -49.808  23.730 -30.221  1.00  0.00     0.014 C 
ENDBRANCH  17  20
ENDBRANCH   6  16
ENDBRANCH   3   6
TORSDOF 8
ENDMDL
MODEL 4
REMARK VINA RESULT: -6.188235961      3.083      4.616
REMARK  8 active torsions:
REMARK  status: ('A' for Active; 'I' for Inactive)
REMARK    1  A    between atoms: C3_3  and  O1_4 
REMARK    2  A    between atoms: C3_3  and  C4_6 
REMARK    3  A    between atoms: C4_6  and  C5_7 
REMARK    4  A    between atoms: C4_6  and  N2_16 
REMARK    5  A    between atoms: C5_7  and  C6_8 
REMARK    6  A    between atoms: C6_8  and  S1_9 
REMARK    7  A    between atoms: S1_9  and  C7_10 
REMARK       I    between atoms: N2_16  and  C10_18 
REMARK    8  A    between atoms: C10_18  and  C11_20 
ROOT
HETATM    1  C1  UNL     1     -53.303  24.140 -28.941  1.00  0.00     0.015 C 
HETATM    2  C2  UNL     1     -53.897  24.349 -29.947  1.00  0.00    -0.083 C 
HETATM    3  C3  UNL     1     -54.598  24.600 -31.185  1.00  0.00     0.218 C 
ENDROOT
BRANCH   3   4
HETATM    4  O1  UNL     1     -55.658  23.690 -31.394  1.00  0.00    -0.381 OA
ATOM      5  H1  UNL     1     -56.474  24.130 -31.604  1.00  0.00     0.211 HD
ENDBRANCH   3   4
BRANCH   3   6
HETATM    6  C4  UNL     1     -53.661  24.525 -32.365  1.00  0.00     0.125 C 
BRANCH   6   7
HETATM    7  C5  UNL     1     -53.885  25.631 -33.352  1.00  0.00     0.039 C 
BRANCH   7   8
HETATM    8  C6  UNL     1     -54.364  25.046 -34.663  1.00  0.00     0.085 C 
BRANCH   8   9
HETATM    9  S1  UNL     1     -54.757  26.382 -35.848  1.00  0.00    -0.086 SA
BRANCH   9  10
HETATM   10  C7  UNL     1     -55.236  27.862 -35.005  1.00  0.00     0.186 A 
HETATM   11  N1  UNL     1     -54.547  29.005 -35.038  1.00  0.00    -0.339 N 
HETATM   12  C8  UNL     1     -55.182  29.940 -34.292  1.00  0.00     0.115 A 
ATOM     13  H1  UNL     1     -53.676  29.152 -35.548  1.00  0.00     0.167 HD
HETATM   14  C9  UNL     1     -56.310  29.287 -33.797  1.00  0.00     0.162 A 
HETATM   15  O2  UNL     1     -56.290  28.053 -34.254  1.00  0.00    -0.299 OA
ENDBRANCH   9  10
ENDBRANCH   8   9
ENDBRANCH   7   8
ENDBRANCH   6   7
BRANCH   6  16
HETATM   16  N2  UNL     1     -52.310  24.630 -31.855  1.00  0.00    -0.353 N 
HETATM   17  C10 UNL     1     -51.247  23.812 -32.357  1.00  0.00     0.222 C 
HETATM   18  O3  UNL     1     -51.524  22.994 -33.262  1.00  0.00    -0.273 OA
ATOM     19  H2  UNL     1     -52.109  25.305 -31.118  1.00  0.00     0.163 HD
BRANCH  17  20
HETATM   20  C11 UNL     1     -49.862  23.926 -31.826  1.00  0.00     0.078 C 
HETATM   21  C12 UNL     1     -48.953  22.978 -32.543  1.00  0.00     0.014 C 
HETATM   22  C13 UNL     1     -48.716  21.686 -31.868  1.00  0.00     0.001 C 
HETATM   23  C14 UNL     1     -48.322  21.939 -30.408  1.00  0.00     0.000 C 
HETATM   24  C15 UNL     1     -49.572  22.510 -29.770  1.00  0.00     0.001 C 
HETATM   25  C16 UNL     1     -49.819  23.856 -30.346  1.00  0.00     0.014 C 
ENDBRANCH  17  20
ENDBRANCH   6  16
ENDBRANCH   3   6
TORSDOF 8
ENDMDL
MODEL 5
REMARK VINA RESULT: -6.136169080      2.336      5.169
REMARK  8 active torsions:
REMARK  status: ('A' for Active; 'I' for Inactive)
REMARK    1  A    between atoms: C3_3  and  O1_4 
REMARK    2  A    between atoms: C3_3  and  C4_6 
REMARK    3  A    between atoms: C4_6  and  C5_7 
REMARK    4  A    between atoms: C4_6  and  N2_16 
REMARK    5  A    between atoms: C5_7  and  C6_8 
REMARK    6  A    between atoms: C6_8  and  S1_9 
REMARK    7  A    between atoms: S1_9  and  C7_10 
REMARK       I    between atoms: N2_16  and  C10_18 
REMARK    8  A    between atoms: C10_18  and  C11_20 
ROOT
HETATM    1  C1  UNL     1     -54.000  24.187 -30.006  1.00  0.00     0.015 C 
HETATM    2  C2  UNL     1     -54.143  24.668 -31.082  1.00  0.00    -0.083 C 
HETATM    3  C3  UNL     1     -54.300  25.237 -32.401  1.00  0.00     0.218 C 
ENDROOT
BRANCH   3   4
HETATM    4  O1  UNL     1     -55.617  25.100 -32.891  1.00  0.00    -0.381 OA
ATOM      5  H1  UNL     1     -56.117  24.454 -32.406  1.00  0.00     0.211 HD
ENDBRANCH   3   4
BRANCH   3   6
HETATM    6  C4  UNL     1     -53.352  24.597 -33.385  1.00  0.00     0.125 C 
BRANCH   6   7
HETATM    7  C5  UNL     1     -53.422  25.221 -34.746  1.00  0.00     0.039 C 
BRANCH   7   8
HETATM    8  C6  UNL     1     -53.216  24.155 -35.799  1.00  0.00     0.085 C 
BRANCH   8   9
HETATM    9  S1  UNL     1     -54.164  22.651 -35.373  1.00  0.00    -0.086 SA
BRANCH   9  10
HETATM   10  C7  UNL     1     -54.120  21.473 -36.693  1.00  0.00     0.186 A 
HETATM   11  N1  UNL     1     -53.747  21.756 -37.943  1.00  0.00    -0.339 N 
HETATM   12  C8  UNL     1     -53.825  20.639 -38.704  1.00  0.00     0.115 A 
ATOM     13  H1  UNL     1     -53.447  22.673 -38.274  1.00  0.00     0.167 HD
HETATM   14  C9  UNL     1     -54.275  19.651 -37.831  1.00  0.00     0.162 A 
HETATM   15  O2  UNL     1     -54.433  20.204 -36.647  1.00  0.00    -0.299 OA
ENDBRANCH   9  10
ENDBRANCH   8   9
ENDBRANCH   7   8
ENDBRANCH   6   7
BRANCH   6  16
HETATM   16  N2  UNL     1     -52.009  24.766 -32.869  1.00  0.00    -0.353 N 
HETATM   17  C10 UNL     1     -51.215  23.653 -32.446  1.00  0.00     0.222 C 
HETATM   18  O3  UNL     1     -51.724  22.512 -32.535  1.00  0.00    -0.273 OA
ATOM     19  H2  UNL     1     -51.617  25.706 -32.807  1.00  0.00     0.163 HD
BRANCH  17  20
HETATM   20  C11 UNL     1     -49.838  23.836 -31.917  1.00  0.00     0.078 C 
HETATM   21  C12 UNL     1     -48.897  22.878 -32.576  1.00  0.00     0.014 C 
HETATM   22  C13 UNL     1     -48.626  21.632 -31.830  1.00  0.00     0.001 C 
HETATM   23  C14 UNL     1     -48.247  21.977 -30.385  1.00  0.00     0.000 C 
HETATM   24  C15 UNL     1     -49.518  22.545 -29.784  1.00  0.00     0.001 C 
HETATM   25  C16 UNL     1     -49.801  23.849 -30.435  1.00  0.00     0.014 C 
ENDBRANCH  17  20
ENDBRANCH   6  16
ENDBRANCH   3   6
TORSDOF 8
ENDMDL
