MODEL 1
REMARK VINA RESULT: -6.242280919      0.000      0.000
REMARK  10 active torsions:
REMARK  status: ('A' for Active; 'I' for Inactive)
REMARK    1  A    between atoms: C2_2  and  C3_3 
REMARK    2  A    between atoms: C3_3  and  C4_4 
REMARK    3  A    between atoms: C4_4  and  C5_5 
REMARK    4  A    between atoms: C5_5  and  C6_6 
REMARK    5  A    between atoms: C6_6  and  C7_7 
REMARK    6  A    between atoms: C7_7  and  C8_8 
REMARK    7  A    between atoms: C8_8  and  N1_9 
REMARK    8  A    between atoms: C9_10  and  O1_11 
REMARK    9  A    between atoms: C12_15  and  O2_16 
REMARK   10  A    between atoms: C13_18  and  N2_19 
ROOT
HETATM    1  N1  UNL     1     -54.498  24.404 -30.492  1.00  0.00    -0.307 N 
HETATM    2  C9  UNL     1     -53.988  24.223 -29.267  1.00  0.00     0.152 A 
HETATM    3  C10 UNL     1     -55.026  23.978 -28.411  1.00  0.00     0.023 A 
HETATM    4  C11 UNL     1     -56.221  24.004 -29.114  1.00  0.00     0.049 A 
HETATM    5  C12 UNL     1     -55.855  24.279 -30.435  1.00  0.00     0.157 A 
HETATM    6  C13 UNL     1     -57.511  23.777 -28.498  1.00  0.00     0.032 C 
HETATM    7  C14 UNL     1     -57.734  22.890 -27.348  1.00  0.00     0.198 C 
HETATM    8  S1  UNL     1     -56.236  22.494 -26.492  1.00  0.00     0.153 S 
HETATM    9  O3  UNL     1     -55.780  21.100 -26.780  1.00  0.00    -0.227 OA
HETATM   10  O4  UNL     1     -56.454  22.634 -24.997  1.00  0.00    -0.227 OA
HETATM   11  C15 UNL     1     -55.036  23.712 -26.957  1.00  0.00     0.184 C 
ENDROOT
BRANCH   1  12
HETATM   12  C8  UNL     1     -53.742  24.689 -31.693  1.00  0.00     0.133 C 
BRANCH  12  13
HETATM   13  C7  UNL     1     -53.376  23.367 -32.321  1.00  0.00     0.020 C 
BRANCH  13  14
HETATM   14  C6  UNL     1     -51.881  23.251 -32.549  1.00  0.00     0.002 C 
BRANCH  14  15
HETATM   15  C5  UNL     1     -51.157  24.438 -31.991  1.00  0.00     0.000 C 
BRANCH  15  16
HETATM   16  C4  UNL     1     -49.817  24.002 -31.462  1.00  0.00     0.000 C 
BRANCH  16  17
HETATM   17  C3  UNL     1     -49.855  22.580 -30.951  1.00  0.00    -0.000 C 
BRANCH  17  18
HETATM   18  C2  UNL     1     -48.576  21.840 -31.305  1.00  0.00    -0.005 C 
HETATM   19  C1  UNL     1     -48.428  21.881 -32.813  1.00  0.00     0.005 C 
ENDBRANCH  17  18
ENDBRANCH  16  17
ENDBRANCH  15  16
ENDBRANCH  14  15
ENDBRANCH  13  14
ENDBRANCH  12  13
ENDBRANCH   1  12
BRANCH   2  20
HETATM   20  O1  UNL     1     -52.646  24.280 -28.953  1.00  0.00    -0.345 OA
ATOM     21  H1  UNL     1     -52.231  23.796 -28.249  1.00  0.00     0.219 HD
ENDBRANCH   2  20
BRANCH   5  22
HETATM   22  O2  UNL     1     -56.719  24.404 -31.514  1.00  0.00    -0.345 OA
ATOM     23  H2  UNL     1     -57.476  23.854 -31.678  1.00  0.00     0.219 HD
ENDBRANCH   5  22
BRANCH   6  24
HETATM   24  N2  UNL     1     -58.530  24.391 -28.990  1.00  0.00    -0.401 N 
ATOM     25  H22 UNL     1     -59.058  23.924 -29.727  1.00  0.00     0.156 HD
ATOM     26  H21 UNL     1     -58.756  25.314 -28.618  1.00  0.00     0.156 HD
ENDBRANCH   6  24
TORSDOF 10
ENDMDL
MODEL 2
REMARK VINA RESULT: -6.016231124      3.954      5.795
REMARK  10 active torsions:
REMARK  status: ('A' for Active; 'I' for Inactive)
REMARK    1  A    between atoms: C2_2  and  C3_3 
REMARK    2  A    between atoms: C3_3  and  C4_4 
REMARK    3  A    between atoms: C4_4  and  C5_5 
REMARK    4  A    between atoms: C5_5  and  C6_6 
REMARK    5  A    between atoms: C6_6  and  C7_7 
REMARK    6  A    between atoms: C7_7  and  C8_8 
REMARK    7  A    between atoms: C8_8  and  N1_9 
REMARK    8  A    between atoms: C9_10  and  O1_11 
REMARK    9  A    between atoms: C12_15  and  O2_16 
REMARK   10  A    between atoms: C13_18  and  N2_19 
ROOT
HETATM    1  N1  UNL     1     -53.349  24.444 -32.809  1.00  0.00    -0.307 N 
HETATM    2  C9  UNL     1     -53.295  24.968 -34.040  1.00  0.00     0.152 A 
HETATM    3  C10 UNL     1     -54.395  25.763 -34.208  1.00  0.00     0.023 A 
HETATM    4  C11 UNL     1     -55.163  25.740 -33.052  1.00  0.00     0.049 A 
HETATM    5  C12 UNL     1     -54.474  24.892 -32.180  1.00  0.00     0.157 A 
HETATM    6  C13 UNL     1     -56.396  26.483 -32.902  1.00  0.00     0.032 C 
HETATM    7  C14 UNL     1     -56.667  27.775 -33.545  1.00  0.00     0.198 C 
HETATM    8  S1  UNL     1     -55.558  28.118 -34.882  1.00  0.00     0.153 S 
HETATM    9  O3  UNL     1     -54.534  29.140 -34.510  1.00  0.00    -0.227 OA
HETATM   10  O4  UNL     1     -56.343  28.630 -36.074  1.00  0.00    -0.227 OA
HETATM   11  C15 UNL     1     -54.835  26.572 -35.364  1.00  0.00     0.184 C 
ENDROOT
BRANCH   1  12
HETATM   12  C8  UNL     1     -52.377  23.544 -32.226  1.00  0.00     0.133 C 
BRANCH  12  13
HETATM   13  C7  UNL     1     -51.382  24.385 -31.463  1.00  0.00     0.020 C 
BRANCH  13  14
HETATM   14  C6  UNL     1     -51.122  23.825 -30.078  1.00  0.00     0.002 C 
BRANCH  14  15
HETATM   15  C5  UNL     1     -49.656  23.630 -29.842  1.00  0.00     0.000 C 
BRANCH  15  16
HETATM   16  C4  UNL     1     -49.331  22.161 -29.913  1.00  0.00     0.000 C 
BRANCH  16  17
HETATM   17  C3  UNL     1     -48.337  21.863 -31.012  1.00  0.00    -0.000 C 
BRANCH  17  18
HETATM   18  C2  UNL     1     -49.042  21.657 -32.343  1.00  0.00    -0.005 C 
HETATM   19  C1  UNL     1     -48.006  21.825 -33.437  1.00  0.00     0.005 C 
ENDBRANCH  17  18
ENDBRANCH  16  17
ENDBRANCH  15  16
ENDBRANCH  14  15
ENDBRANCH  13  14
ENDBRANCH  12  13
ENDBRANCH   1  12
BRANCH   2  20
HETATM   20  O1  UNL     1     -52.293  24.731 -34.957  1.00  0.00    -0.345 OA
ATOM     21  H1  UNL     1     -51.673  25.380 -35.267  1.00  0.00     0.219 HD
ENDBRANCH   2  20
BRANCH   5  22
HETATM   22  O2  UNL     1     -54.859  24.557 -30.890  1.00  0.00    -0.345 OA
ATOM     23  H2  UNL     1     -55.573  23.973 -30.664  1.00  0.00     0.219 HD
ENDBRANCH   5  22
BRANCH   6  24
HETATM   24  N2  UNL     1     -57.315  25.978 -32.155  1.00  0.00    -0.401 N 
ATOM     25  H22 UNL     1     -57.028  25.344 -31.408  1.00  0.00     0.156 HD
ATOM     26  H21 UNL     1     -58.282  26.238 -32.347  1.00  0.00     0.156 HD
ENDBRANCH   6  24
TORSDOF 10
ENDMDL
MODEL 3
REMARK VINA RESULT: -5.931866822      4.332      6.441
REMARK  10 active torsions:
REMARK  status: ('A' for Active; 'I' for Inactive)
REMARK    1  A    between atoms: C2_2  and  C3_3 
REMARK    2  A    between atoms: C3_3  and  C4_4 
REMARK    3  A    between atoms: C4_4  and  C5_5 
REMARK    4  A    between atoms: C5_5  and  C6_6 
REMARK    5  A    between atoms: C6_6  and  C7_7 
REMARK    6  A    between atoms: C7_7  and  C8_8 
REMARK    7  A    between atoms: C8_8  and  N1_9 
REMARK    8  A    between atoms: C9_10  and  O1_11 
REMARK    9  A    between atoms: C12_15  and  O2_16 
REMARK   10  A    between atoms: C13_18  and  N2_19 
ROOT
HETATM    1  N1  UNL     1     -53.875  23.993 -33.213  1.00  0.00    -0.307 N 
HETATM    2  C9  UNL     1     -53.161  23.937 -34.344  1.00  0.00     0.152 A 
HETATM    3  C10 UNL     1     -53.646  22.905 -35.098  1.00  0.00     0.023 A 
HETATM    4  C11 UNL     1     -54.693  22.293 -34.426  1.00  0.00     0.049 A 
HETATM    5  C12 UNL     1     -54.816  23.005 -33.229  1.00  0.00     0.157 A 
HETATM    6  C13 UNL     1     -55.428  21.164 -34.956  1.00  0.00     0.032 C 
HETATM    7  C14 UNL     1     -55.674  20.936 -36.386  1.00  0.00     0.198 C 
HETATM    8  S1  UNL     1     -54.605  21.893 -37.423  1.00  0.00     0.153 S 
HETATM    9  O3  UNL     1     -55.318  23.049 -38.047  1.00  0.00    -0.227 OA
HETATM   10  O4  UNL     1     -54.049  21.013 -38.527  1.00  0.00    -0.227 OA
HETATM   11  C15 UNL     1     -53.231  22.399 -36.424  1.00  0.00     0.184 C 
ENDROOT
BRANCH   1  12
HETATM   12  C8  UNL     1     -53.689  24.942 -32.136  1.00  0.00     0.133 C 
BRANCH  12  13
HETATM   13  C7  UNL     1     -53.036  24.205 -30.991  1.00  0.00     0.020 C 
BRANCH  13  14
HETATM   14  C6  UNL     1     -51.523  24.250 -31.088  1.00  0.00     0.002 C 
BRANCH  14  15
HETATM   15  C5  UNL     1     -50.888  23.768 -29.819  1.00  0.00     0.000 C 
BRANCH  15  16
HETATM   16  C4  UNL     1     -49.685  22.928 -30.152  1.00  0.00     0.000 C 
BRANCH  16  17
HETATM   17  C3  UNL     1     -49.312  23.042 -31.613  1.00  0.00    -0.000 C 
BRANCH  17  18
HETATM   18  C2  UNL     1     -49.161  21.668 -32.245  1.00  0.00    -0.005 C 
HETATM   19  C1  UNL     1     -48.047  21.758 -33.270  1.00  0.00     0.005 C 
ENDBRANCH  17  18
ENDBRANCH  16  17
ENDBRANCH  15  16
ENDBRANCH  14  15
ENDBRANCH  13  14
ENDBRANCH  12  13
ENDBRANCH   1  12
BRANCH   2  20
HETATM   20  O1  UNL     1     -52.123  24.787 -34.666  1.00  0.00    -0.345 OA
ATOM     21  H1  UNL     1     -51.718  24.852 -35.523  1.00  0.00     0.219 HD
ENDBRANCH   2  20
BRANCH   5  22
HETATM   22  O2  UNL     1     -55.737  22.758 -32.220  1.00  0.00    -0.345 OA
ATOM     23  H2  UNL     1     -55.694  22.038 -31.601  1.00  0.00     0.219 HD
ENDBRANCH   5  22
BRANCH   6  24
HETATM   24  N2  UNL     1     -55.898  20.306 -34.121  1.00  0.00    -0.401 N 
ATOM     25  H22 UNL     1     -56.268  20.654 -33.236  1.00  0.00     0.156 HD
ATOM     26  H21 UNL     1     -55.875  19.321 -34.385  1.00  0.00     0.156 HD
ENDBRANCH   6  24
TORSDOF 10
ENDMDL
MODEL 4
REMARK VINA RESULT: -5.727365246      3.778      6.190
REMARK  10 active torsions:
REMARK  status: ('A' for Active; 'I' for Inactive)
REMARK    1  A    between atoms: C2_2  and  C3_3 
REMARK    2  A    between atoms: C3_3  and  C4_4 
REMARK    3  A    between atoms: C4_4  and  C5_5 
REMARK    4  A    between atoms: C5_5  and  C6_6 
REMARK    5  A    between atoms: C6_6  and  C7_7 
REMARK    6  A    between atoms: C7_7  and  C8_8 
REMARK    7  A    between atoms: C8_8  and  N1_9 
REMARK    8  A    between atoms: C9_10  and  O1_11 
REMARK    9  A    between atoms: C12_15  and  O2_16 
REMARK   10  A    between atoms: C13_18  and  N2_19 
ROOT
HETATM    1  N1  UNL     1     -53.366  24.779 -32.256  1.00  0.00    -0.307 N 
HETATM    2  C9  UNL     1     -52.265  24.598 -32.996  1.00  0.00     0.152 A 
HETATM    3  C10 UNL     1     -51.265  24.171 -32.167  1.00  0.00     0.023 A 
HETATM    4  C11 UNL     1     -51.747  24.081 -30.869  1.00  0.00     0.049 A 
HETATM    5  C12 UNL     1     -53.086  24.475 -30.955  1.00  0.00     0.157 A 
HETATM    6  C13 UNL     1     -50.938  23.654 -29.748  1.00  0.00     0.032 C 
HETATM    7  C14 UNL     1     -49.840  22.682 -29.843  1.00  0.00     0.198 C 
HETATM    8  S1  UNL     1     -49.288  22.437 -31.507  1.00  0.00     0.153 S 
HETATM    9  O3  UNL     1     -49.758  21.133 -32.065  1.00  0.00    -0.227 OA
HETATM   10  O4  UNL     1     -47.772  22.464 -31.548  1.00  0.00    -0.227 OA
HETATM   11  C15 UNL     1     -49.856  23.826 -32.451  1.00  0.00     0.184 C 
ENDROOT
BRANCH   1  12
HETATM   12  C8  UNL     1     -54.653  25.227 -32.742  1.00  0.00     0.133 C 
BRANCH  12  13
HETATM   13  C7  UNL     1     -55.255  24.094 -33.538  1.00  0.00     0.020 C 
BRANCH  13  14
HETATM   14  C6  UNL     1     -55.635  22.926 -32.649  1.00  0.00     0.002 C 
BRANCH  14  15
HETATM   15  C5  UNL     1     -55.254  21.622 -33.280  1.00  0.00     0.000 C 
BRANCH  15  16
HETATM   16  C4  UNL     1     -54.596  21.884 -34.608  1.00  0.00     0.000 C 
BRANCH  16  17
HETATM   17  C3  UNL     1     -54.959  20.829 -35.628  1.00  0.00    -0.000 C 
BRANCH  17  18
HETATM   18  C2  UNL     1     -54.210  21.052 -36.932  1.00  0.00    -0.005 C 
HETATM   19  C1  UNL     1     -53.448  22.357 -36.802  1.00  0.00     0.005 C 
ENDBRANCH  17  18
ENDBRANCH  16  17
ENDBRANCH  15  16
ENDBRANCH  14  15
ENDBRANCH  13  14
ENDBRANCH  12  13
ENDBRANCH   1  12
BRANCH   2  20
HETATM   20  O1  UNL     1     -52.184  24.811 -34.357  1.00  0.00    -0.345 OA
ATOM     21  H1  UNL     1     -51.868  24.177 -34.989  1.00  0.00     0.219 HD
ENDBRANCH   2  20
BRANCH   5  22
HETATM   22  O2  UNL     1     -53.987  24.546 -29.902  1.00  0.00    -0.345 OA
ATOM     23  H2  UNL     1     -53.754  24.617 -28.984  1.00  0.00     0.219 HD
ENDBRANCH   5  22
BRANCH   6  24
HETATM   24  N2  UNL     1     -51.198  24.156 -28.592  1.00  0.00    -0.401 N 
ATOM     25  H22 UNL     1     -50.947  25.132 -28.428  1.00  0.00     0.156 HD
ATOM     26  H21 UNL     1     -51.641  23.553 -27.899  1.00  0.00     0.156 HD
ENDBRANCH   6  24
TORSDOF 10
ENDMDL
MODEL 5
REMARK VINA RESULT: -5.681851948      4.166      6.034
REMARK  10 active torsions:
REMARK  status: ('A' for Active; 'I' for Inactive)
REMARK    1  A    between atoms: C2_2  and  C3_3 
REMARK    2  A    between atoms: C3_3  and  C4_4 
REMARK    3  A    between atoms: C4_4  and  C5_5 
REMARK    4  A    between atoms: C5_5  and  C6_6 
REMARK    5  A    between atoms: C6_6  and  C7_7 
REMARK    6  A    between atoms: C7_7  and  C8_8 
REMARK    7  A    between atoms: C8_8  and  N1_9 
REMARK    8  A    between atoms: C9_10  and  O1_11 
REMARK    9  A    between atoms: C12_15  and  O2_16 
REMARK   10  A    between atoms: C13_18  and  N2_19 
ROOT
HETATM    1  N1  UNL     1     -53.838  24.226 -33.387  1.00  0.00    -0.307 N 
HETATM    2  C9  UNL     1     -54.998  23.598 -33.157  1.00  0.00     0.152 A 
HETATM    3  C10 UNL     1     -55.253  22.781 -34.224  1.00  0.00     0.023 A 
HETATM    4  C11 UNL     1     -54.227  22.896 -35.150  1.00  0.00     0.049 A 
HETATM    5  C12 UNL     1     -53.341  23.823 -34.592  1.00  0.00     0.157 A 
HETATM    6  C13 UNL     1     -54.192  22.157 -36.394  1.00  0.00     0.032 C 
HETATM    7  C14 UNL     1     -54.753  20.811 -36.573  1.00  0.00     0.198 C 
HETATM    8  S1  UNL     1     -55.880  20.365 -35.283  1.00  0.00     0.153 S 
HETATM    9  O3  UNL     1     -55.277  19.389 -34.326  1.00  0.00    -0.227 OA
HETATM   10  O4  UNL     1     -57.125  19.744 -35.889  1.00  0.00    -0.227 OA
HETATM   11  C15 UNL     1     -56.386  21.870 -34.493  1.00  0.00     0.184 C 
ENDROOT
BRANCH   1  12
HETATM   12  C8  UNL     1     -53.201  25.183 -32.507  1.00  0.00     0.133 C 
BRANCH  12  13
HETATM   13  C7  UNL     1     -51.984  24.513 -31.916  1.00  0.00     0.020 C 
BRANCH  13  14
HETATM   14  C6  UNL     1     -52.220  24.093 -30.478  1.00  0.00     0.002 C 
BRANCH  14  15
HETATM   15  C5  UNL     1     -50.930  23.755 -29.796  1.00  0.00     0.000 C 
BRANCH  15  16
HETATM   16  C4  UNL     1     -49.821  23.728 -30.814  1.00  0.00     0.000 C 
BRANCH  16  17
HETATM   17  C3  UNL     1     -49.130  22.384 -30.851  1.00  0.00    -0.000 C 
BRANCH  17  18
HETATM   18  C2  UNL     1     -49.434  21.652 -32.147  1.00  0.00    -0.005 C 
HETATM   19  C1  UNL     1     -48.272  21.894 -33.090  1.00  0.00     0.005 C 
ENDBRANCH  17  18
ENDBRANCH  16  17
ENDBRANCH  15  16
ENDBRANCH  14  15
ENDBRANCH  13  14
ENDBRANCH  12  13
ENDBRANCH   1  12
BRANCH   2  20
HETATM   20  O1  UNL     1     -55.778  23.765 -32.032  1.00  0.00    -0.345 OA
ATOM     21  H1  UNL     1     -55.450  24.000 -31.172  1.00  0.00     0.219 HD
ENDBRANCH   2  20
BRANCH   5  22
HETATM   22  O2  UNL     1     -52.154  24.264 -35.159  1.00  0.00    -0.345 OA
ATOM     23  H2  UNL     1     -51.851  25.165 -35.167  1.00  0.00     0.219 HD
ENDBRANCH   5  22
BRANCH   6  24
HETATM   24  N2  UNL     1     -53.632  22.715 -37.410  1.00  0.00    -0.401 N 
ATOM     25  H22 UNL     1     -52.648  22.975 -37.329  1.00  0.00     0.156 HD
ATOM     26  H21 UNL     1     -54.199  22.869 -38.243  1.00  0.00     0.156 HD
ENDBRANCH   6  24
TORSDOF 10
ENDMDL
