MODEL 1
REMARK VINA RESULT: -7.688748932      0.000      0.000
REMARK  5 active torsions:
REMARK  status: ('A' for Active; 'I' for Inactive)
REMARK    1  A    between atoms: C2_2  and  C3_3 
REMARK    2  A    between atoms: C3_3  and  O2_5 
REMARK    3  A    between atoms: O2_5  and  C4_6 
REMARK    4  A    between atoms: C11_13  and  O3_14 
REMARK    5  A    between atoms: O3_14  and  C12_15 
ROOT
HETATM    1  C4  UNL     1      -0.857   1.264  23.150  1.00  0.00     0.065 C 
HETATM    2  C5  UNL     1      -1.742   0.375  22.766  1.00  0.00    -0.033 C 
HETATM    3  C6  UNL     1      -1.431  -0.973  23.397  1.00  0.00     0.046 C 
HETATM    4  C7  UNL     1      -0.896  -1.796  22.242  1.00  0.00     0.014 C 
HETATM    5  C8  UNL     1      -2.041  -1.965  21.275  1.00  0.00     0.007 C 
HETATM    6  C9  UNL     1      -2.608  -0.655  20.789  1.00  0.00     0.001 C 
HETATM    7  C10 UNL     1      -3.832  -0.951  19.977  1.00  0.00     0.038 C 
HETATM    8  C11 UNL     1      -4.502   0.277  19.441  1.00  0.00     0.132 C 
HETATM    9  C14 UNL     1      -4.415   1.474  20.288  1.00  0.00     0.034 C 
HETATM   10  C15 UNL     1      -3.276   1.621  21.218  1.00  0.00     0.016 C 
HETATM   11  C16 UNL     1      -2.938   0.323  21.880  1.00  0.00    -0.014 C 
HETATM   12  C17 UNL     1      -4.091  -0.112  22.742  1.00  0.00     0.020 C 
HETATM   13  C18 UNL     1      -0.436  -0.697  24.424  1.00  0.00    -0.075 C 
HETATM   14  C19 UNL     1      -0.103  -1.440  25.457  1.00  0.00     0.015 C 
HETATM   15  C20 UNL     1       0.147   0.620  24.077  1.00  0.00     0.099 C 
ENDROOT
BRANCH   1  16
HETATM   16  O2  UNL     1      -0.768   2.599  22.817  1.00  0.00    -0.279 OA
BRANCH  16  17
HETATM   17  C3  UNL     1      -1.180   3.576  23.712  1.00  0.00     0.287 C 
HETATM   18  O1  UNL     1      -0.281   4.206  24.326  1.00  0.00    -0.260 OA
BRANCH  17  19
HETATM   19  C2  UNL     1      -2.593   3.863  23.933  1.00  0.00     0.072 C 
HETATM   20  C1  UNL     1      -3.286   3.202  24.819  1.00  0.00     0.017 C 
ENDBRANCH  17  19
ENDBRANCH  16  17
ENDBRANCH   1  16
BRANCH   8  21
HETATM   21  O3  UNL     1      -3.997   0.587  18.141  1.00  0.00    -0.316 OA
BRANCH  21  22
HETATM   22  C12 UNL     1      -4.816   0.660  17.031  1.00  0.00     0.255 C 
HETATM   23  C13 UNL     1      -4.426   1.335  15.762  1.00  0.00     0.126 C 
HETATM   24  O4  UNL     1      -5.951   0.121  17.112  1.00  0.00    -0.266 OA
ENDBRANCH  21  22
ENDBRANCH   8  21
TORSDOF 5
ENDMDL
MODEL 2
REMARK VINA RESULT: -7.453112503      2.731      5.479
REMARK  5 active torsions:
REMARK  status: ('A' for Active; 'I' for Inactive)
REMARK    1  A    between atoms: C2_2  and  C3_3 
REMARK    2  A    between atoms: C3_3  and  O2_5 
REMARK    3  A    between atoms: O2_5  and  C4_6 
REMARK    4  A    between atoms: C11_13  and  O3_14 
REMARK    5  A    between atoms: O3_14  and  C12_15 
ROOT
HETATM    1  C4  UNL     1      -2.464   0.499  21.765  1.00  0.00     0.065 C 
HETATM    2  C5  UNL     1      -2.127   1.490  22.555  1.00  0.00    -0.033 C 
HETATM    3  C6  UNL     1      -2.348   1.093  24.007  1.00  0.00     0.046 C 
HETATM    4  C7  UNL     1      -3.571   1.890  24.416  1.00  0.00     0.014 C 
HETATM    5  C8  UNL     1      -3.167   3.343  24.365  1.00  0.00     0.007 C 
HETATM    6  C9  UNL     1      -2.668   3.775  23.009  1.00  0.00     0.001 C 
HETATM    7  C10 UNL     1      -2.145   5.174  23.131  1.00  0.00     0.038 C 
HETATM    8  C11 UNL     1      -1.605   5.721  21.846  1.00  0.00     0.132 C 
HETATM    9  C14 UNL     1      -0.975   4.744  20.949  1.00  0.00     0.034 C 
HETATM   10  C15 UNL     1      -1.398   3.328  21.010  1.00  0.00     0.016 C 
HETATM   11  C16 UNL     1      -1.614   2.882  22.420  1.00  0.00    -0.014 C 
HETATM   12  C17 UNL     1      -0.308   2.930  23.164  1.00  0.00     0.020 C 
HETATM   13  C18 UNL     1      -2.573  -0.345  23.982  1.00  0.00    -0.075 C 
HETATM   14  C19 UNL     1      -2.471  -1.203  24.974  1.00  0.00     0.015 C 
HETATM   15  C20 UNL     1      -2.949  -0.671  22.586  1.00  0.00     0.099 C 
ENDROOT
BRANCH   1  16
HETATM   16  O2  UNL     1      -2.420   0.436  20.388  1.00  0.00    -0.279 OA
BRANCH  16  17
HETATM   17  C3  UNL     1      -3.428   1.005  19.625  1.00  0.00     0.287 C 
HETATM   18  O1  UNL     1      -3.110   1.443  18.488  1.00  0.00    -0.260 OA
BRANCH  17  19
HETATM   19  C2  UNL     1      -4.799   1.095  20.114  1.00  0.00     0.072 C 
HETATM   20  C1  UNL     1      -5.757   0.393  19.574  1.00  0.00     0.017 C 
ENDBRANCH  17  19
ENDBRANCH  16  17
ENDBRANCH   1  16
BRANCH   8  21
HETATM   21  O3  UNL     1      -2.632   6.414  21.133  1.00  0.00    -0.316 OA
BRANCH  21  22
HETATM   22  C12 UNL     1      -2.470   7.708  20.679  1.00  0.00     0.255 C 
HETATM   23  C13 UNL     1      -1.202   8.223  20.091  1.00  0.00     0.126 C 
HETATM   24  O4  UNL     1      -3.458   8.484  20.774  1.00  0.00    -0.266 OA
ENDBRANCH  21  22
ENDBRANCH   8  21
TORSDOF 5
ENDMDL
MODEL 3
REMARK VINA RESULT: -7.406990741      1.313      1.685
REMARK  5 active torsions:
REMARK  status: ('A' for Active; 'I' for Inactive)
REMARK    1  A    between atoms: C2_2  and  C3_3 
REMARK    2  A    between atoms: C3_3  and  O2_5 
REMARK    3  A    between atoms: O2_5  and  C4_6 
REMARK    4  A    between atoms: C11_13  and  O3_14 
REMARK    5  A    between atoms: O3_14  and  C12_15 
ROOT
HETATM    1  C4  UNL     1      -0.930   1.820  23.654  1.00  0.00     0.065 C 
HETATM    2  C5  UNL     1      -1.600   0.754  23.286  1.00  0.00    -0.033 C 
HETATM    3  C6  UNL     1      -1.056  -0.473  24.001  1.00  0.00     0.046 C 
HETATM    4  C7  UNL     1      -0.314  -1.223  22.913  1.00  0.00     0.014 C 
HETATM    5  C8  UNL     1      -1.356  -1.664  21.915  1.00  0.00     0.007 C 
HETATM    6  C9  UNL     1      -2.150  -0.519  21.339  1.00  0.00     0.001 C 
HETATM    7  C10 UNL     1      -3.251  -1.094  20.499  1.00  0.00     0.038 C 
HETATM    8  C11 UNL     1      -4.127  -0.052  19.874  1.00  0.00     0.132 C 
HETATM    9  C14 UNL     1      -4.321   1.175  20.657  1.00  0.00     0.034 C 
HETATM   10  C15 UNL     1      -3.278   1.592  21.619  1.00  0.00     0.016 C 
HETATM   11  C16 UNL     1      -2.719   0.421  22.361  1.00  0.00    -0.014 C 
HETATM   12  C17 UNL     1      -3.801  -0.198  23.203  1.00  0.00     0.020 C 
HETATM   13  C18 UNL     1      -0.186   0.045  25.047  1.00  0.00    -0.075 C 
HETATM   14  C19 UNL     1       0.241  -0.568  26.130  1.00  0.00     0.015 C 
HETATM   15  C20 UNL     1       0.138   1.436  24.650  1.00  0.00     0.099 C 
ENDROOT
BRANCH   1  16
HETATM   16  O2  UNL     1      -1.095   3.129  23.253  1.00  0.00    -0.279 OA
BRANCH  16  17
HETATM   17  C3  UNL     1      -0.196   3.714  22.374  1.00  0.00     0.287 C 
HETATM   18  O1  UNL     1       0.853   4.203  22.868  1.00  0.00    -0.260 OA
BRANCH  17  19
HETATM   19  C2  UNL     1      -0.451   3.761  20.939  1.00  0.00     0.072 C 
HETATM   20  C1  UNL     1       0.308   4.460  20.140  1.00  0.00     0.017 C 
ENDBRANCH  17  19
ENDBRANCH  16  17
ENDBRANCH   1  16
BRANCH   8  21
HETATM   21  O3  UNL     1      -3.634   0.294  18.578  1.00  0.00    -0.316 OA
BRANCH  21  22
HETATM   22  C12 UNL     1      -4.476   0.530  17.508  1.00  0.00     0.255 C 
HETATM   23  C13 UNL     1      -4.010   1.044  16.190  1.00  0.00     0.126 C 
HETATM   24  O4  UNL     1      -5.702   0.294  17.673  1.00  0.00    -0.266 OA
ENDBRANCH  21  22
ENDBRANCH   8  21
TORSDOF 5
ENDMDL
MODEL 4
REMARK VINA RESULT: -7.318777958      1.662      2.270
REMARK  5 active torsions:
REMARK  status: ('A' for Active; 'I' for Inactive)
REMARK    1  A    between atoms: C2_2  and  C3_3 
REMARK    2  A    between atoms: C3_3  and  O2_5 
REMARK    3  A    between atoms: O2_5  and  C4_6 
REMARK    4  A    between atoms: C11_13  and  O3_14 
REMARK    5  A    between atoms: O3_14  and  C12_15 
ROOT
HETATM    1  C4  UNL     1      -2.458   1.820  24.525  1.00  0.00     0.065 C 
HETATM    2  C5  UNL     1      -2.445   0.589  24.071  1.00  0.00    -0.033 C 
HETATM    3  C6  UNL     1      -1.654  -0.303  25.016  1.00  0.00     0.046 C 
HETATM    4  C7  UNL     1      -0.371  -0.580  24.259  1.00  0.00     0.014 C 
HETATM    5  C8  UNL     1      -0.760  -1.384  23.044  1.00  0.00     0.007 C 
HETATM    6  C9  UNL     1      -1.766  -0.684  22.165  1.00  0.00     0.001 C 
HETATM    7  C10 UNL     1      -2.194  -1.643  21.095  1.00  0.00     0.038 C 
HETATM    8  C11 UNL     1      -3.210  -1.070  20.154  1.00  0.00     0.132 C 
HETATM    9  C14 UNL     1      -4.149  -0.104  20.739  1.00  0.00     0.034 C 
HETATM   10  C15 UNL     1      -3.739   0.681  21.922  1.00  0.00     0.016 C 
HETATM   11  C16 UNL     1      -2.968  -0.156  22.893  1.00  0.00    -0.014 C 
HETATM   12  C17 UNL     1      -3.861  -1.239  23.435  1.00  0.00     0.020 C 
HETATM   13  C18 UNL     1      -1.459   0.491  26.221  1.00  0.00    -0.075 C 
HETATM   14  C19 UNL     1      -1.150   0.074  27.430  1.00  0.00     0.015 C 
HETATM   15  C20 UNL     1      -1.682   1.899  25.817  1.00  0.00     0.099 C 
ENDROOT
BRANCH   1  16
HETATM   16  O2  UNL     1      -3.057   2.937  23.982  1.00  0.00    -0.279 OA
BRANCH  16  17
HETATM   17  C3  UNL     1      -2.309   3.858  23.264  1.00  0.00     0.287 C 
HETATM   18  O1  UNL     1      -2.740   5.040  23.222  1.00  0.00    -0.260 OA
BRANCH  17  19
HETATM   19  C2  UNL     1      -1.074   3.478  22.586  1.00  0.00     0.072 C 
HETATM   20  C1  UNL     1      -1.084   3.051  21.354  1.00  0.00     0.017 C 
ENDBRANCH  17  19
ENDBRANCH  16  17
ENDBRANCH   1  16
BRANCH   8  21
HETATM   21  O3  UNL     1      -2.560  -0.468  19.033  1.00  0.00    -0.316 OA
BRANCH  21  22
HETATM   22  C12 UNL     1      -3.146   0.543  18.297  1.00  0.00     0.255 C 
HETATM   23  C13 UNL     1      -4.078   0.302  17.160  1.00  0.00     0.126 C 
HETATM   24  O4  UNL     1      -2.867   1.729  18.616  1.00  0.00    -0.266 OA
ENDBRANCH  21  22
ENDBRANCH   8  21
TORSDOF 5
ENDMDL
MODEL 5
REMARK VINA RESULT: -7.144696286      1.822      2.357
REMARK  5 active torsions:
REMARK  status: ('A' for Active; 'I' for Inactive)
REMARK    1  A    between atoms: C2_2  and  C3_3 
REMARK    2  A    between atoms: C3_3  and  O2_5 
REMARK    3  A    between atoms: O2_5  and  C4_6 
REMARK    4  A    between atoms: C11_13  and  O3_14 
REMARK    5  A    between atoms: O3_14  and  C12_15 
ROOT
HETATM    1  C4  UNL     1      -1.966   1.827  24.768  1.00  0.00     0.065 C 
HETATM    2  C5  UNL     1      -2.147   0.606  24.325  1.00  0.00    -0.033 C 
HETATM    3  C6  UNL     1      -1.438  -0.386  25.234  1.00  0.00     0.046 C 
HETATM    4  C7  UNL     1      -0.248  -0.839  24.412  1.00  0.00     0.014 C 
HETATM    5  C8  UNL     1      -0.809  -1.583  23.227  1.00  0.00     0.007 C 
HETATM    6  C9  UNL     1      -1.755  -0.752  22.397  1.00  0.00     0.001 C 
HETATM    7  C10 UNL     1      -2.368  -1.644  21.359  1.00  0.00     0.038 C 
HETATM    8  C11 UNL     1      -3.344  -0.937  20.469  1.00  0.00     0.132 C 
HETATM    9  C14 UNL     1      -4.109   0.150  21.094  1.00  0.00     0.034 C 
HETATM   10  C15 UNL     1      -3.530   0.872  22.247  1.00  0.00     0.016 C 
HETATM   11  C16 UNL     1      -2.832  -0.062  23.183  1.00  0.00    -0.014 C 
HETATM   12  C17 UNL     1      -3.835  -1.010  23.781  1.00  0.00     0.020 C 
HETATM   13  C18 UNL     1      -1.070   0.374  26.420  1.00  0.00    -0.075 C 
HETATM   14  C19 UNL     1      -0.757  -0.079  27.614  1.00  0.00     0.015 C 
HETATM   15  C20 UNL     1      -1.118   1.799  26.016  1.00  0.00     0.099 C 
ENDROOT
BRANCH   1  16
HETATM   16  O2  UNL     1      -2.433   3.016  24.248  1.00  0.00    -0.279 OA
BRANCH  16  17
HETATM   17  C3  UNL     1      -3.447   3.713  24.887  1.00  0.00     0.287 C 
HETATM   18  O1  UNL     1      -4.325   3.034  25.481  1.00  0.00    -0.260 OA
BRANCH  17  19
HETATM   19  C2  UNL     1      -3.498   5.171  24.875  1.00  0.00     0.072 C 
HETATM   20  C1  UNL     1      -3.488   5.838  23.754  1.00  0.00     0.017 C 
ENDBRANCH  17  19
ENDBRANCH  16  17
ENDBRANCH   1  16
BRANCH   8  21
HETATM   21  O3  UNL     1      -2.679  -0.433  19.309  1.00  0.00    -0.316 OA
BRANCH  21  22
HETATM   22  C12 UNL     1      -3.146   0.663  18.610  1.00  0.00     0.255 C 
HETATM   23  C13 UNL     1      -4.207   0.586  17.568  1.00  0.00     0.126 C 
HETATM   24  O4  UNL     1      -2.636   1.783  18.880  1.00  0.00    -0.266 OA
ENDBRANCH  21  22
ENDBRANCH   8  21
TORSDOF 5
ENDMDL
