MODEL 1
REMARK VINA RESULT: -7.004520501      0.000      0.000
REMARK  5 active torsions:
REMARK  status: ('A' for Active; 'I' for Inactive)
REMARK    1  A    between atoms: C2_2  and  C3_3 
REMARK    2  A    between atoms: C11_12  and  C12_13 
REMARK    3  A    between atoms: C13_14  and  C14_15 
REMARK    4  A    between atoms: C17_19  and  C18_20 
REMARK    5  A    between atoms: C18_20  and  O3_22 
ROOT
HETATM    1  C3  UNL     1      -2.674  -0.240  21.427  1.00  0.00    -0.017 C 
HETATM    2  C4  UNL     1      -3.038   0.075  20.031  1.00  0.00     0.020 C 
HETATM    3  C5  UNL     1      -3.873  -0.275  22.343  1.00  0.00     0.014 C 
HETATM    4  C6  UNL     1      -3.513  -0.401  23.785  1.00  0.00     0.014 C 
HETATM    5  C7  UNL     1      -2.254   0.246  24.191  1.00  0.00     0.063 C 
HETATM    6  C8  UNL     1      -1.136   0.006  23.222  1.00  0.00     0.137 C 
HETATM    7  O1  UNL     1      -0.107  -0.590  23.354  1.00  0.00    -0.297 OA
HETATM    8  C9  UNL     1      -1.627   0.713  22.011  1.00  0.00     0.068 C 
HETATM    9  C10 UNL     1      -2.312   1.949  22.568  1.00  0.00     0.022 C 
HETATM   10  C11 UNL     1      -2.351   1.753  24.100  1.00  0.00     0.020 C 
ENDROOT
BRANCH  10  11
HETATM   11  C12 UNL     1      -3.544   2.342  24.679  1.00  0.00    -0.020 C 
HETATM   12  C13 UNL     1      -3.834   3.487  25.186  1.00  0.00     0.016 C 
BRANCH  12  13
HETATM   13  C14 UNL     1      -2.951   4.634  25.336  1.00  0.00     0.020 A 
HETATM   14  S1  UNL     1      -1.919   5.028  26.665  1.00  0.00    -0.101 SA
HETATM   15  C15 UNL     1      -1.244   6.464  26.100  1.00  0.00     0.051 A 
HETATM   16  C16 UNL     1      -1.828   6.620  24.885  1.00  0.00     0.026 A 
HETATM   17  C17 UNL     1      -2.717   5.680  24.473  1.00  0.00     0.057 A 
BRANCH  17  18
HETATM   18  C18 UNL     1      -3.388   5.808  23.141  1.00  0.00     0.294 C 
HETATM   19  O2  UNL     1      -4.523   6.386  23.034  1.00  0.00    -0.259 OA
BRANCH  18  20
HETATM   20  O3  UNL     1      -2.890   5.346  21.965  1.00  0.00    -0.322 OA
HETATM   21  C19 UNL     1      -1.551   5.442  21.557  1.00  0.00     0.213 C 
ENDBRANCH  18  20
ENDBRANCH  17  18
ENDBRANCH  12  13
ENDBRANCH  10  11
BRANCH   1  22
HETATM   22  C2  UNL     1      -2.058  -1.605  21.462  1.00  0.00    -0.027 C 
HETATM   23  C1  UNL     1      -2.659  -2.673  20.988  1.00  0.00     0.007 C 
ENDBRANCH   1  22
TORSDOF 5
ENDMDL
MODEL 2
REMARK VINA RESULT: -6.968977471      3.206      4.355
REMARK  5 active torsions:
REMARK  status: ('A' for Active; 'I' for Inactive)
REMARK    1  A    between atoms: C2_2  and  C3_3 
REMARK    2  A    between atoms: C11_12  and  C12_13 
REMARK    3  A    between atoms: C13_14  and  C14_15 
REMARK    4  A    between atoms: C17_19  and  C18_20 
REMARK    5  A    between atoms: C18_20  and  O3_22 
ROOT
HETATM    1  C3  UNL     1      -2.897  -0.228  20.887  1.00  0.00    -0.017 C 
HETATM    2  C4  UNL     1      -2.819  -0.653  19.475  1.00  0.00     0.020 C 
HETATM    3  C5  UNL     1      -1.873   0.826  21.231  1.00  0.00     0.014 C 
HETATM    4  C6  UNL     1      -1.804   1.132  22.689  1.00  0.00     0.014 C 
HETATM    5  C7  UNL     1      -2.081   0.004  23.595  1.00  0.00     0.063 C 
HETATM    6  C8  UNL     1      -3.256  -0.819  23.161  1.00  0.00     0.137 C 
HETATM    7  O1  UNL     1      -4.318  -0.993  23.683  1.00  0.00    -0.297 OA
HETATM    8  C9  UNL     1      -2.770  -1.389  21.878  1.00  0.00     0.068 C 
HETATM    9  C10 UNL     1      -1.303  -1.678  22.145  1.00  0.00     0.022 C 
HETATM   10  C11 UNL     1      -0.994  -1.045  23.520  1.00  0.00     0.020 C 
ENDROOT
BRANCH  10  11
HETATM   11  C12 UNL     1       0.367  -0.546  23.579  1.00  0.00    -0.020 C 
HETATM   12  C13 UNL     1       1.063   0.084  24.457  1.00  0.00     0.016 C 
BRANCH  12  13
HETATM   13  C14 UNL     1       0.633   0.518  25.778  1.00  0.00     0.020 A 
HETATM   14  S1  UNL     1       0.132  -0.453  27.116  1.00  0.00    -0.101 SA
HETATM   15  C15 UNL     1      -0.198   0.751  28.247  1.00  0.00     0.051 A 
HETATM   16  C16 UNL     1       0.085   1.893  27.571  1.00  0.00     0.026 A 
HETATM   17  C17 UNL     1       0.517   1.791  26.289  1.00  0.00     0.057 A 
BRANCH  17  18
HETATM   18  C18 UNL     1       0.843   3.021  25.501  1.00  0.00     0.294 C 
HETATM   19  O2  UNL     1       1.865   3.732  25.792  1.00  0.00    -0.259 OA
BRANCH  18  20
HETATM   20  O3  UNL     1       0.125   3.492  24.449  1.00  0.00    -0.322 OA
HETATM   21  C19 UNL     1       0.654   3.842  23.198  1.00  0.00     0.213 C 
ENDBRANCH  18  20
ENDBRANCH  17  18
ENDBRANCH  12  13
ENDBRANCH  10  11
BRANCH   1  22
HETATM   22  C2  UNL     1      -4.245   0.378  21.128  1.00  0.00    -0.027 C 
HETATM   23  C1  UNL     1      -5.040   0.763  20.155  1.00  0.00     0.007 C 
ENDBRANCH   1  22
TORSDOF 5
ENDMDL
MODEL 3
REMARK VINA RESULT: -6.855477995      2.426      3.373
REMARK  5 active torsions:
REMARK  status: ('A' for Active; 'I' for Inactive)
REMARK    1  A    between atoms: C2_2  and  C3_3 
REMARK    2  A    between atoms: C11_12  and  C12_13 
REMARK    3  A    between atoms: C13_14  and  C14_15 
REMARK    4  A    between atoms: C17_19  and  C18_20 
REMARK    5  A    between atoms: C18_20  and  O3_22 
ROOT
HETATM    1  C3  UNL     1      -2.432  -0.845  22.538  1.00  0.00    -0.017 C 
HETATM    2  C4  UNL     1      -2.329  -1.994  23.461  1.00  0.00     0.020 C 
HETATM    3  C5  UNL     1      -1.209   0.039  22.576  1.00  0.00     0.014 C 
HETATM    4  C6  UNL     1      -1.368   1.303  21.801  1.00  0.00     0.014 C 
HETATM    5  C7  UNL     1      -2.726   1.870  21.769  1.00  0.00     0.063 C 
HETATM    6  C8  UNL     1      -3.786   0.835  21.543  1.00  0.00     0.137 C 
HETATM    7  O1  UNL     1      -4.539   0.680  20.626  1.00  0.00    -0.297 OA
HETATM    8  C9  UNL     1      -3.677   0.014  22.777  1.00  0.00     0.068 C 
HETATM    9  C10 UNL     1      -3.395   1.035  23.865  1.00  0.00     0.022 C 
HETATM   10  C11 UNL     1      -3.147   2.373  23.133  1.00  0.00     0.020 C 
ENDROOT
BRANCH  10  11
HETATM   11  C12 UNL     1      -2.171   3.187  23.832  1.00  0.00    -0.020 C 
HETATM   12  C13 UNL     1      -1.757   4.399  23.721  1.00  0.00     0.016 C 
BRANCH  12  13
HETATM   13  C14 UNL     1      -2.200   5.398  22.760  1.00  0.00     0.020 A 
HETATM   14  S1  UNL     1      -3.706   6.242  22.707  1.00  0.00    -0.101 SA
HETATM   15  C15 UNL     1      -3.463   7.197  21.340  1.00  0.00     0.051 A 
HETATM   16  C16 UNL     1      -2.213   6.848  20.942  1.00  0.00     0.026 A 
HETATM   17  C17 UNL     1      -1.544   5.916  21.666  1.00  0.00     0.057 A 
BRANCH  17  18
HETATM   18  C18 UNL     1      -0.163   5.497  21.267  1.00  0.00     0.294 C 
HETATM   19  O2  UNL     1       0.032   4.394  20.649  1.00  0.00    -0.259 OA
BRANCH  18  20
HETATM   20  O3  UNL     1       0.971   6.204  21.507  1.00  0.00    -0.322 OA
HETATM   21  C19 UNL     1       1.531   7.155  20.641  1.00  0.00     0.213 C 
ENDBRANCH  18  20
ENDBRANCH  17  18
ENDBRANCH  12  13
ENDBRANCH  10  11
BRANCH   1  22
HETATM   22  C2  UNL     1      -2.549  -1.368  21.139  1.00  0.00    -0.027 C 
HETATM   23  C1  UNL     1      -2.579  -2.650  20.855  1.00  0.00     0.007 C 
ENDBRANCH   1  22
TORSDOF 5
ENDMDL
MODEL 4
REMARK VINA RESULT: -6.847029395      0.828      1.027
REMARK  5 active torsions:
REMARK  status: ('A' for Active; 'I' for Inactive)
REMARK    1  A    between atoms: C2_2  and  C3_3 
REMARK    2  A    between atoms: C11_12  and  C12_13 
REMARK    3  A    between atoms: C13_14  and  C14_15 
REMARK    4  A    between atoms: C17_19  and  C18_20 
REMARK    5  A    between atoms: C18_20  and  O3_22 
ROOT
HETATM    1  C3  UNL     1      -2.564  -0.277  21.513  1.00  0.00    -0.017 C 
HETATM    2  C4  UNL     1      -2.767  -0.011  20.074  1.00  0.00     0.020 C 
HETATM    3  C5  UNL     1      -3.836  -0.137  22.312  1.00  0.00     0.014 C 
HETATM    4  C6  UNL     1      -3.621  -0.211  23.785  1.00  0.00     0.014 C 
HETATM    5  C7  UNL     1      -2.342   0.330  24.275  1.00  0.00     0.063 C 
HETATM    6  C8  UNL     1      -1.173  -0.078  23.430  1.00  0.00     0.137 C 
HETATM    7  O1  UNL     1      -0.228  -0.765  23.688  1.00  0.00    -0.297 OA
HETATM    8  C9  UNL     1      -1.478   0.601  22.143  1.00  0.00     0.068 C 
HETATM    9  C10 UNL     1      -2.077   1.929  22.570  1.00  0.00     0.022 C 
HETATM   10  C11 UNL     1      -2.272   1.831  24.099  1.00  0.00     0.020 C 
ENDROOT
BRANCH  10  11
HETATM   11  C12 UNL     1      -3.442   2.570  24.533  1.00  0.00    -0.020 C 
HETATM   12  C13 UNL     1      -3.684   3.801  24.810  1.00  0.00     0.016 C 
BRANCH  12  13
HETATM   13  C14 UNL     1      -2.750   4.917  24.761  1.00  0.00     0.020 A 
HETATM   14  S1  UNL     1      -1.656   5.454  25.984  1.00  0.00    -0.101 SA
HETATM   15  C15 UNL     1      -0.944   6.759  25.191  1.00  0.00     0.051 A 
HETATM   16  C16 UNL     1      -1.565   6.761  23.985  1.00  0.00     0.026 A 
HETATM   17  C17 UNL     1      -2.506   5.812  23.744  1.00  0.00     0.057 A 
BRANCH  17  18
HETATM   18  C18 UNL     1      -3.220   5.772  22.430  1.00  0.00     0.294 C 
HETATM   19  O2  UNL     1      -3.145   4.741  21.676  1.00  0.00    -0.259 OA
BRANCH  18  20
HETATM   20  O3  UNL     1      -3.982   6.774  21.920  1.00  0.00    -0.322 OA
HETATM   21  C19 UNL     1      -3.634   7.583  20.829  1.00  0.00     0.213 C 
ENDBRANCH  18  20
ENDBRANCH  17  18
ENDBRANCH  12  13
ENDBRANCH  10  11
BRANCH   1  22
HETATM   22  C2  UNL     1      -2.101  -1.692  21.674  1.00  0.00    -0.027 C 
HETATM   23  C1  UNL     1      -2.648  -2.701  21.036  1.00  0.00     0.007 C 
ENDBRANCH   1  22
TORSDOF 5
ENDMDL
MODEL 5
REMARK VINA RESULT: -6.816264637      3.242      4.987
REMARK  5 active torsions:
REMARK  status: ('A' for Active; 'I' for Inactive)
REMARK    1  A    between atoms: C2_2  and  C3_3 
REMARK    2  A    between atoms: C11_12  and  C12_13 
REMARK    3  A    between atoms: C13_14  and  C14_15 
REMARK    4  A    between atoms: C17_19  and  C18_20 
REMARK    5  A    between atoms: C18_20  and  O3_22 
ROOT
HETATM    1  C3  UNL     1      -2.924  -0.175  20.849  1.00  0.00    -0.017 C 
HETATM    2  C4  UNL     1      -2.745  -0.676  19.471  1.00  0.00     0.020 C 
HETATM    3  C5  UNL     1      -2.018   0.990  21.164  1.00  0.00     0.014 C 
HETATM    4  C6  UNL     1      -2.042   1.388  22.600  1.00  0.00     0.014 C 
HETATM    5  C7  UNL     1      -2.255   0.297  23.566  1.00  0.00     0.063 C 
HETATM    6  C8  UNL     1      -3.329  -0.658  23.141  1.00  0.00     0.137 C 
HETATM    7  O1  UNL     1      -4.394  -0.899  23.631  1.00  0.00    -0.297 OA
HETATM    8  C9  UNL     1      -2.737  -1.257  21.917  1.00  0.00     0.068 C 
HETATM    9  C10 UNL     1      -1.263  -1.390  22.259  1.00  0.00     0.022 C 
HETATM   10  C11 UNL     1      -1.074  -0.649  23.601  1.00  0.00     0.020 C 
ENDROOT
BRANCH  10  11
HETATM   11  C12 UNL     1       0.232  -0.021  23.680  1.00  0.00    -0.020 C 
HETATM   12  C13 UNL     1       0.765   0.866  24.441  1.00  0.00     0.016 C 
BRANCH  12  13
HETATM   13  C14 UNL     1       0.139   1.564  25.555  1.00  0.00     0.020 A 
HETATM   14  S1  UNL     1      -0.454   3.185  25.608  1.00  0.00    -0.101 SA
HETATM   15  C15 UNL     1      -1.014   3.244  27.196  1.00  0.00     0.051 A 
HETATM   16  C16 UNL     1      -0.733   2.002  27.666  1.00  0.00     0.026 A 
HETATM   17  C17 UNL     1      -0.134   1.118  26.828  1.00  0.00     0.057 A 
BRANCH  17  18
HETATM   18  C18 UNL     1       0.196  -0.264  27.300  1.00  0.00     0.294 C 
HETATM   19  O2  UNL     1       1.158  -0.462  28.119  1.00  0.00    -0.259 OA
BRANCH  18  20
HETATM   20  O3  UNL     1      -0.455  -1.396  26.927  1.00  0.00    -0.322 OA
HETATM   21  C19 UNL     1      -1.812  -1.664  27.157  1.00  0.00     0.213 C 
ENDBRANCH  18  20
ENDBRANCH  17  18
ENDBRANCH  12  13
ENDBRANCH  10  11
BRANCH   1  22
HETATM   22  C2  UNL     1      -4.332   0.316  20.998  1.00  0.00    -0.027 C 
HETATM   23  C1  UNL     1      -5.002   0.875  20.016  1.00  0.00     0.007 C 
ENDBRANCH   1  22
TORSDOF 5
ENDMDL
