MODEL 1
REMARK VINA RESULT: -8.584101881      0.000      0.000
REMARK  4 active torsions:
REMARK  status: ('A' for Active; 'I' for Inactive)
REMARK    1  A    between atoms: C3_5  and  C4_6 
REMARK    2  A    between atoms: C4_6  and  C5_8 
REMARK    3  A    between atoms: C5_8  and  C6_9 
REMARK    4  A    between atoms: C9_12  and  C10_13 
ROOT
HETATM    1  C6  UNL     1      -3.295  -1.093  20.991  1.00  0.00    -0.007 C 
HETATM    2  C7  UNL     1      -2.501  -2.346  20.873  1.00  0.00     0.005 C 
HETATM    3  C8  UNL     1      -1.360  -2.067  21.859  1.00  0.00     0.006 C 
HETATM    4  C9  UNL     1      -2.125  -1.563  23.037  1.00  0.00    -0.003 C 
HETATM    5  C18 UNL     1      -3.131  -0.635  22.448  1.00  0.00     0.010 C 
ENDROOT
BRANCH   1   6
HETATM    6  C5  UNL     1      -2.741  -0.003  20.146  1.00  0.00     0.090 C 
BRANCH   6   7
HETATM    7  C4  UNL     1      -3.752   0.939  19.609  1.00  0.00     0.176 C 
HETATM    8  O1  UNL     1      -3.847   2.065  20.152  1.00  0.00    -0.291 OA
BRANCH   7   9
HETATM    9  C3  UNL     1      -4.633   0.568  18.462  1.00  0.00     0.085 A 
HETATM   10  N1  UNL     1      -4.186   0.444  17.249  1.00  0.00    -0.351 N 
HETATM   11  C2  UNL     1      -5.007   0.115  16.274  1.00  0.00     0.047 A 
ATOM     12  H1  UNL     1      -3.198   0.602  17.052  1.00  0.00     0.166 HD
HETATM   13  C1  UNL     1      -4.702  -0.081  14.805  1.00  0.00     0.076 C 
HETATM   14  S1  UNL     1      -6.505  -0.035  17.080  1.00  0.00    -0.087 SA
HETATM   15  C19 UNL     1      -5.976   0.342  18.660  1.00  0.00     0.084 A 
ENDBRANCH   7   9
ENDBRANCH   6   7
ENDBRANCH   1   6
BRANCH   4  16
HETATM   16  C10 UNL     1      -1.284  -0.948  24.108  1.00  0.00    -0.008 C 
HETATM   17  C11 UNL     1      -0.750   0.425  23.775  1.00  0.00     0.017 C 
HETATM   18  C12 UNL     1       0.441   0.480  24.745  1.00  0.00    -0.009 C 
HETATM   19  C13 UNL     1      -0.030   0.371  26.164  1.00  0.00     0.036 C 
HETATM   20  C17 UNL     1       1.109  -0.854  24.381  1.00  0.00     0.037 C 
HETATM   21  C14 UNL     1      -0.846  -0.862  26.389  1.00  0.00     0.123 C 
HETATM   22  C15 UNL     1      -2.038  -0.802  25.420  1.00  0.00     0.044 C 
HETATM   23  O2  UNL     1      -0.218  -2.018  25.898  1.00  0.00    -0.380 OA
HETATM   24  C16 UNL     1      -0.110  -1.780  24.511  1.00  0.00     0.131 C 
ENDBRANCH   4  16
TORSDOF 4
ENDMDL
MODEL 2
REMARK VINA RESULT: -8.423858202      0.818      1.491
REMARK  4 active torsions:
REMARK  status: ('A' for Active; 'I' for Inactive)
REMARK    1  A    between atoms: C3_5  and  C4_6 
REMARK    2  A    between atoms: C4_6  and  C5_8 
REMARK    3  A    between atoms: C5_8  and  C6_9 
REMARK    4  A    between atoms: C9_12  and  C10_13 
ROOT
HETATM    1  C6  UNL     1      -3.269  -1.069  21.090  1.00  0.00    -0.007 C 
HETATM    2  C7  UNL     1      -2.460  -2.307  20.916  1.00  0.00     0.005 C 
HETATM    3  C8  UNL     1      -1.338  -2.072  21.936  1.00  0.00     0.006 C 
HETATM    4  C9  UNL     1      -2.129  -1.642  23.127  1.00  0.00    -0.003 C 
HETATM    5  C18 UNL     1      -3.135  -0.692  22.573  1.00  0.00     0.010 C 
ENDROOT
BRANCH   1   6
HETATM    6  C5  UNL     1      -2.712   0.071  20.316  1.00  0.00     0.090 C 
BRANCH   6   7
HETATM    7  C4  UNL     1      -3.727   1.005  19.773  1.00  0.00     0.176 C 
HETATM    8  O1  UNL     1      -3.834   2.131  20.314  1.00  0.00    -0.291 OA
BRANCH   7   9
HETATM    9  C3  UNL     1      -4.599   0.626  18.621  1.00  0.00     0.085 A 
HETATM   10  N1  UNL     1      -4.154   0.551  17.403  1.00  0.00    -0.351 N 
HETATM   11  C2  UNL     1      -4.967   0.212  16.424  1.00  0.00     0.047 A 
ATOM     12  H1  UNL     1      -3.175   0.756  17.205  1.00  0.00     0.166 HD
HETATM   13  C1  UNL     1      -4.663   0.066  14.950  1.00  0.00     0.076 C 
HETATM   14  S1  UNL     1      -6.452  -0.021  17.234  1.00  0.00    -0.087 SA
HETATM   15  C19 UNL     1      -5.930   0.338  18.820  1.00  0.00     0.084 A 
ENDBRANCH   7   9
ENDBRANCH   6   7
ENDBRANCH   1   6
BRANCH   4  16
HETATM   16  C10 UNL     1      -1.313  -1.079  24.245  1.00  0.00    -0.008 C 
HETATM   17  C11 UNL     1      -1.958  -1.184  25.606  1.00  0.00     0.017 C 
HETATM   18  C12 UNL     1      -1.187  -0.075  26.341  1.00  0.00    -0.009 C 
HETATM   19  C13 UNL     1       0.280  -0.383  26.371  1.00  0.00     0.036 C 
HETATM   20  C17 UNL     1      -1.394   1.068  25.337  1.00  0.00     0.037 C 
HETATM   21  C14 UNL     1       0.833  -0.599  24.997  1.00  0.00     0.123 C 
HETATM   22  C15 UNL     1       0.043  -1.756  24.365  1.00  0.00     0.044 C 
HETATM   23  O2  UNL     1       0.476   0.427  24.108  1.00  0.00    -0.380 OA
HETATM   24  C16 UNL     1      -0.933   0.353  24.057  1.00  0.00     0.131 C 
ENDBRANCH   4  16
TORSDOF 4
ENDMDL
MODEL 3
REMARK VINA RESULT: -8.282898732      0.906      1.574
REMARK  4 active torsions:
REMARK  status: ('A' for Active; 'I' for Inactive)
REMARK    1  A    between atoms: C3_5  and  C4_6 
REMARK    2  A    between atoms: C4_6  and  C5_8 
REMARK    3  A    between atoms: C5_8  and  C6_9 
REMARK    4  A    between atoms: C9_12  and  C10_13 
ROOT
HETATM    1  C6  UNL     1      -3.177  -1.047  21.096  1.00  0.00    -0.007 C 
HETATM    2  C7  UNL     1      -2.338  -2.270  20.965  1.00  0.00     0.005 C 
HETATM    3  C8  UNL     1      -1.211  -1.962  21.959  1.00  0.00     0.006 C 
HETATM    4  C9  UNL     1      -1.998  -1.501  23.140  1.00  0.00    -0.003 C 
HETATM    5  C18 UNL     1      -3.035  -0.602  22.560  1.00  0.00     0.010 C 
ENDROOT
BRANCH   1   6
HETATM    6  C5  UNL     1      -2.659   0.073  20.267  1.00  0.00     0.090 C 
BRANCH   6   7
HETATM    7  C4  UNL     1      -3.698   1.007  19.771  1.00  0.00     0.176 C 
HETATM    8  O1  UNL     1      -3.794   2.125  20.333  1.00  0.00    -0.291 OA
BRANCH   7   9
HETATM    9  C3  UNL     1      -4.604   0.640  18.643  1.00  0.00     0.085 A 
HETATM   10  N1  UNL     1      -4.194   0.569  17.412  1.00  0.00    -0.351 N 
HETATM   11  C2  UNL     1      -5.036   0.240  16.454  1.00  0.00     0.047 A 
ATOM     12  H1  UNL     1      -3.220   0.768  17.188  1.00  0.00     0.166 HD
HETATM   13  C1  UNL     1      -4.775   0.100  14.971  1.00  0.00     0.076 C 
HETATM   14  S1  UNL     1      -6.500   0.012  17.304  1.00  0.00    -0.087 SA
HETATM   15  C19 UNL     1      -5.931   0.360  18.877  1.00  0.00     0.084 A 
ENDBRANCH   7   9
ENDBRANCH   6   7
ENDBRANCH   1   6
BRANCH   4  16
HETATM   16  C10 UNL     1      -1.184  -0.870  24.222  1.00  0.00    -0.008 C 
HETATM   17  C11 UNL     1      -0.277  -1.824  24.963  1.00  0.00     0.017 C 
HETATM   18  C12 UNL     1      -0.072  -1.027  26.262  1.00  0.00    -0.009 C 
HETATM   19  C13 UNL     1       0.584   0.289  25.975  1.00  0.00     0.036 C 
HETATM   20  C17 UNL     1      -1.542  -0.742  26.602  1.00  0.00     0.037 C 
HETATM   21  C14 UNL     1      -0.185   1.090  24.973  1.00  0.00     0.123 C 
HETATM   22  C15 UNL     1      -0.290   0.241  23.695  1.00  0.00     0.044 C 
HETATM   23  O2  UNL     1      -1.549   1.182  25.291  1.00  0.00    -0.380 OA
HETATM   24  C16 UNL     1      -1.994  -0.157  25.255  1.00  0.00     0.131 C 
ENDBRANCH   4  16
TORSDOF 4
ENDMDL
MODEL 4
REMARK VINA RESULT: -7.931132433      1.185      1.292
REMARK  4 active torsions:
REMARK  status: ('A' for Active; 'I' for Inactive)
REMARK    1  A    between atoms: C3_5  and  C4_6 
REMARK    2  A    between atoms: C4_6  and  C5_8 
REMARK    3  A    between atoms: C5_8  and  C6_9 
REMARK    4  A    between atoms: C9_12  and  C10_13 
ROOT
HETATM    1  C6  UNL     1      -3.996  -0.855  21.643  1.00  0.00    -0.007 C 
HETATM    2  C7  UNL     1      -3.012  -1.788  21.029  1.00  0.00     0.005 C 
HETATM    3  C8  UNL     1      -1.713  -1.337  21.710  1.00  0.00     0.006 C 
HETATM    4  C9  UNL     1      -2.155  -1.263  23.134  1.00  0.00    -0.003 C 
HETATM    5  C18 UNL     1      -3.485  -0.593  23.068  1.00  0.00     0.010 C 
ENDROOT
BRANCH   1   6
HETATM    6  C5  UNL     1      -4.014   0.463  20.957  1.00  0.00     0.090 C 
BRANCH   6   7
HETATM    7  C4  UNL     1      -5.017   0.582  19.872  1.00  0.00     0.176 C 
HETATM    8  O1  UNL     1      -6.224   0.679  20.200  1.00  0.00    -0.291 OA
BRANCH   7   9
HETATM    9  C3  UNL     1      -4.614   0.585  18.434  1.00  0.00     0.085 A 
HETATM   10  N1  UNL     1      -5.401   0.168  17.488  1.00  0.00    -0.351 N 
HETATM   11  C2  UNL     1      -4.996   0.193  16.235  1.00  0.00     0.047 A 
ATOM     12  H1  UNL     1      -6.332  -0.178  17.715  1.00  0.00     0.166 HD
HETATM   13  C1  UNL     1      -5.740  -0.240  14.991  1.00  0.00     0.076 C 
HETATM   14  S1  UNL     1      -3.418   0.834  16.364  1.00  0.00    -0.087 SA
HETATM   15  C19 UNL     1      -3.371   1.039  18.059  1.00  0.00     0.084 A 
ENDBRANCH   7   9
ENDBRANCH   6   7
ENDBRANCH   1   6
BRANCH   4  16
HETATM   16  C10 UNL     1      -1.183  -0.595  24.052  1.00  0.00    -0.008 C 
HETATM   17  C11 UNL     1      -0.529   0.641  23.482  1.00  0.00     0.017 C 
HETATM   18  C12 UNL     1       0.723   0.702  24.372  1.00  0.00    -0.009 C 
HETATM   19  C13 UNL     1       0.339   0.863  25.812  1.00  0.00     0.036 C 
HETATM   20  C17 UNL     1       1.219  -0.740  24.188  1.00  0.00     0.037 C 
HETATM   21  C14 UNL     1      -0.587  -0.220  26.267  1.00  0.00     0.123 C 
HETATM   22  C15 UNL     1      -1.828  -0.168  25.360  1.00  0.00     0.044 C 
HETATM   23  O2  UNL     1      -0.121  -1.501  25.933  1.00  0.00    -0.380 OA
HETATM   24  C16 UNL     1      -0.081  -1.488  24.522  1.00  0.00     0.131 C 
ENDBRANCH   4  16
TORSDOF 4
ENDMDL
MODEL 5
REMARK VINA RESULT: -7.873381147      1.540      1.991
REMARK  4 active torsions:
REMARK  status: ('A' for Active; 'I' for Inactive)
REMARK    1  A    between atoms: C3_5  and  C4_6 
REMARK    2  A    between atoms: C4_6  and  C5_8 
REMARK    3  A    between atoms: C5_8  and  C6_9 
REMARK    4  A    between atoms: C9_12  and  C10_13 
ROOT
HETATM    1  C6  UNL     1      -4.177  -0.483  21.656  1.00  0.00    -0.007 C 
HETATM    2  C7  UNL     1      -3.347  -1.562  21.053  1.00  0.00     0.005 C 
HETATM    3  C8  UNL     1      -1.941  -1.129  21.487  1.00  0.00     0.006 C 
HETATM    4  C9  UNL     1      -2.171  -0.835  22.932  1.00  0.00    -0.003 C 
HETATM    5  C18 UNL     1      -3.455  -0.078  22.950  1.00  0.00     0.010 C 
ENDROOT
BRANCH   1   6
HETATM    6  C5  UNL     1      -4.214   0.731  20.800  1.00  0.00     0.090 C 
BRANCH   6   7
HETATM    7  C4  UNL     1      -5.212   0.686  19.704  1.00  0.00     0.176 C 
HETATM    8  O1  UNL     1      -6.426   0.696  20.019  1.00  0.00    -0.291 OA
BRANCH   7   9
HETATM    9  C3  UNL     1      -4.796   0.628  18.271  1.00  0.00     0.085 A 
HETATM   10  N1  UNL     1      -5.566   0.153  17.339  1.00  0.00    -0.351 N 
HETATM   11  C2  UNL     1      -5.149   0.125  16.090  1.00  0.00     0.047 A 
ATOM     12  H1  UNL     1      -6.494  -0.197  17.575  1.00  0.00     0.166 HD
HETATM   13  C1  UNL     1      -5.874  -0.378  14.861  1.00  0.00     0.076 C 
HETATM   14  S1  UNL     1      -3.584   0.798  16.202  1.00  0.00    -0.087 SA
HETATM   15  C19 UNL     1      -3.556   1.084  17.886  1.00  0.00     0.084 A 
ENDBRANCH   7   9
ENDBRANCH   6   7
ENDBRANCH   1   6
BRANCH   4  16
HETATM   16  C10 UNL     1      -1.042  -0.131  23.611  1.00  0.00    -0.008 C 
HETATM   17  C11 UNL     1       0.319  -0.732  23.350  1.00  0.00     0.017 C 
HETATM   18  C12 UNL     1       1.081  -0.180  24.566  1.00  0.00    -0.009 C 
HETATM   19  C13 UNL     1       1.096   1.319  24.543  1.00  0.00     0.036 C 
HETATM   20  C17 UNL     1       0.109  -0.611  25.674  1.00  0.00     0.037 C 
HETATM   21  C14 UNL     1      -0.285   1.891  24.473  1.00  0.00     0.123 C 
HETATM   22  C15 UNL     1      -0.945   1.330  23.203  1.00  0.00     0.044 C 
HETATM   23  O2  UNL     1      -1.145   1.336  25.434  1.00  0.00    -0.380 OA
HETATM   24  C16 UNL     1      -1.192  -0.033  25.094  1.00  0.00     0.131 C 
ENDBRANCH   4  16
TORSDOF 4
ENDMDL
