MODEL 1
REMARK VINA RESULT: -7.925477836      0.000      0.000
REMARK  3 active torsions:
REMARK  status: ('A' for Active; 'I' for Inactive)
REMARK    1  A    between atoms: C3_3  and  O1_4 
REMARK    2  A    between atoms: O1_4  and  C4_5 
REMARK    3  A    between atoms: C12_16  and  C13_17 
ROOT
HETATM    1  C1  UNL     1      -0.904  -1.714  22.869  1.00  0.00     0.091 A 
HETATM    2  C2  UNL     1      -0.613  -0.489  23.421  1.00  0.00     0.055 A 
HETATM    3  C3  UNL     1      -1.234   0.657  22.852  1.00  0.00     0.089 A 
HETATM    4  C9  UNL     1      -2.083   0.489  21.796  1.00  0.00     0.057 A 
HETATM    5  C10 UNL     1      -2.358  -0.741  21.263  1.00  0.00     0.029 A 
HETATM    6  N1  UNL     1      -1.735  -1.814  21.846  1.00  0.00    -0.368 N 
ATOM      7  H1  UNL     1      -1.922  -2.742  21.469  1.00  0.00     0.165 HD
HETATM    8  C11 UNL     1      -3.268  -0.767  20.129  1.00  0.00     0.074 C 
HETATM    9  C12 UNL     1      -4.241   0.386  20.197  1.00  0.00     0.062 C 
HETATM   10  S1  UNL     1      -3.055   1.646  20.850  1.00  0.00    -0.120 SA
ENDROOT
BRANCH   3  11
HETATM   11  O1  UNL     1      -0.891   1.823  23.456  1.00  0.00    -0.344 OA
BRANCH  11  12
HETATM   12  C4  UNL     1      -1.183   2.452  24.621  1.00  0.00     0.133 C 
HETATM   13  C5  UNL     1      -0.805   3.942  24.527  1.00  0.00     0.058 C 
HETATM   14  C6  UNL     1      -1.727   4.650  23.552  1.00  0.00     0.170 C 
HETATM   15  O2  UNL     1      -2.996   4.075  23.540  1.00  0.00    -0.391 OA
HETATM   16  C7  UNL     1      -3.355   3.631  24.801  1.00  0.00     0.170 C 
HETATM   17  C8  UNL     1      -2.635   2.324  25.057  1.00  0.00     0.058 C 
ENDBRANCH  11  12
ENDBRANCH   3  11
BRANCH   9  18
HETATM   18  C13 UNL     1      -4.755   0.791  18.856  1.00  0.00     0.000 C 
HETATM   19  C14 UNL     1      -6.073   0.162  18.514  1.00  0.00     0.006 C 
HETATM   20  C15 UNL     1      -6.221   0.173  16.992  1.00  0.00     0.000 C 
HETATM   21  C16 UNL     1      -5.432   1.346  16.412  1.00  0.00     0.000 C 
HETATM   22  C17 UNL     1      -3.972   0.975  16.488  1.00  0.00     0.000 C 
HETATM   23  C18 UNL     1      -3.735   0.302  17.820  1.00  0.00     0.006 C 
ENDBRANCH   9  18
TORSDOF 3
ENDMDL
MODEL 2
REMARK VINA RESULT: -7.807866652      1.686      2.298
REMARK  3 active torsions:
REMARK  status: ('A' for Active; 'I' for Inactive)
REMARK    1  A    between atoms: C3_3  and  O1_4 
REMARK    2  A    between atoms: O1_4  and  C4_5 
REMARK    3  A    between atoms: C12_16  and  C13_17 
ROOT
HETATM    1  C1  UNL     1      -3.156  -0.222  23.865  1.00  0.00     0.091 A 
HETATM    2  C2  UNL     1      -2.172   0.736  23.796  1.00  0.00     0.055 A 
HETATM    3  C3  UNL     1      -1.898   1.312  22.524  1.00  0.00     0.089 A 
HETATM    4  C9  UNL     1      -2.618   0.892  21.443  1.00  0.00     0.057 A 
HETATM    5  C10 UNL     1      -3.594  -0.064  21.535  1.00  0.00     0.029 A 
HETATM    6  N1  UNL     1      -3.820  -0.587  22.782  1.00  0.00    -0.368 N 
ATOM      7  H1  UNL     1      -4.542  -1.301  22.880  1.00  0.00     0.165 HD
HETATM    8  C11 UNL     1      -4.267  -0.424  20.299  1.00  0.00     0.074 C 
HETATM    9  C12 UNL     1      -4.283   0.741  19.338  1.00  0.00     0.062 C 
HETATM   10  S1  UNL     1      -2.592   1.381  19.728  1.00  0.00    -0.120 SA
ENDROOT
BRANCH   3  11
HETATM   11  O1  UNL     1      -0.914   2.246  22.546  1.00  0.00    -0.344 OA
BRANCH  11  12
HETATM   12  C4  UNL     1      -0.764   3.508  23.017  1.00  0.00     0.133 C 
HETATM   13  C5  UNL     1       0.395   4.212  22.287  1.00  0.00     0.058 C 
HETATM   14  C6  UNL     1       0.019   4.462  20.839  1.00  0.00     0.170 C 
HETATM   15  O2  UNL     1      -1.350   4.674  20.695  1.00  0.00    -0.391 OA
HETATM   16  C7  UNL     1      -1.867   5.354  21.785  1.00  0.00     0.170 C 
HETATM   17  C8  UNL     1      -2.017   4.367  22.922  1.00  0.00     0.058 C 
ENDBRANCH  11  12
ENDBRANCH   3  11
BRANCH   9  18
HETATM   18  C13 UNL     1      -4.369   0.316  17.911  1.00  0.00     0.000 C 
HETATM   19  C14 UNL     1      -3.389   1.025  17.024  1.00  0.00     0.006 C 
HETATM   20  C15 UNL     1      -3.914   0.959  15.590  1.00  0.00     0.000 C 
HETATM   21  C16 UNL     1      -4.774  -0.293  15.420  1.00  0.00     0.000 C 
HETATM   22  C17 UNL     1      -6.082  -0.027  16.122  1.00  0.00     0.000 C 
HETATM   23  C18 UNL     1      -5.774   0.683  17.419  1.00  0.00     0.006 C 
ENDBRANCH   9  18
TORSDOF 3
ENDMDL
MODEL 3
REMARK VINA RESULT: -7.798673587      1.056      1.150
REMARK  3 active torsions:
REMARK  status: ('A' for Active; 'I' for Inactive)
REMARK    1  A    between atoms: C3_3  and  O1_4 
REMARK    2  A    between atoms: O1_4  and  C4_5 
REMARK    3  A    between atoms: C12_16  and  C13_17 
ROOT
HETATM    1  C1  UNL     1      -0.889  -1.569  22.837  1.00  0.00     0.091 A 
HETATM    2  C2  UNL     1      -0.707  -0.345  23.437  1.00  0.00     0.055 A 
HETATM    3  C3  UNL     1      -1.396   0.770  22.886  1.00  0.00     0.089 A 
HETATM    4  C9  UNL     1      -2.200   0.576  21.799  1.00  0.00     0.057 A 
HETATM    5  C10 UNL     1      -2.366  -0.652  21.218  1.00  0.00     0.029 A 
HETATM    6  N1  UNL     1      -1.680  -1.695  21.786  1.00  0.00    -0.368 N 
ATOM      7  H1  UNL     1      -1.787  -2.621  21.373  1.00  0.00     0.165 HD
HETATM    8  C11 UNL     1      -3.239  -0.707  20.057  1.00  0.00     0.074 C 
HETATM    9  C12 UNL     1      -4.297   0.368  20.131  1.00  0.00     0.062 C 
HETATM   10  S1  UNL     1      -3.229   1.690  20.861  1.00  0.00    -0.120 SA
ENDROOT
BRANCH   3  11
HETATM   11  O1  UNL     1      -1.160   1.937  23.537  1.00  0.00    -0.344 OA
BRANCH  11  12
HETATM   12  C4  UNL     1      -0.150   2.839  23.607  1.00  0.00     0.133 C 
HETATM   13  C5  UNL     1      -0.158   3.741  22.359  1.00  0.00     0.058 C 
HETATM   14  C6  UNL     1      -1.380   4.639  22.376  1.00  0.00     0.170 C 
HETATM   15  O2  UNL     1      -1.760   4.959  23.677  1.00  0.00    -0.391 OA
HETATM   16  C7  UNL     1      -0.657   5.094  24.502  1.00  0.00     0.170 C 
HETATM   17  C8  UNL     1      -0.168   3.706  24.858  1.00  0.00     0.058 C 
ENDBRANCH  11  12
ENDBRANCH   3  11
BRANCH   9  18
HETATM   18  C13 UNL     1      -4.801   0.780  18.789  1.00  0.00     0.000 C 
HETATM   19  C14 UNL     1      -6.105   0.134  18.424  1.00  0.00     0.006 C 
HETATM   20  C15 UNL     1      -6.236   0.159  16.901  1.00  0.00     0.000 C 
HETATM   21  C16 UNL     1      -5.459   1.351  16.343  1.00  0.00     0.000 C 
HETATM   22  C17 UNL     1      -3.994   1.001  16.433  1.00  0.00     0.000 C 
HETATM   23  C18 UNL     1      -3.763   0.318  17.760  1.00  0.00     0.006 C 
ENDBRANCH   9  18
TORSDOF 3
ENDMDL
MODEL 4
REMARK VINA RESULT: -7.749754978      1.195      1.884
REMARK  3 active torsions:
REMARK  status: ('A' for Active; 'I' for Inactive)
REMARK    1  A    between atoms: C3_3  and  O1_4 
REMARK    2  A    between atoms: O1_4  and  C4_5 
REMARK    3  A    between atoms: C12_16  and  C13_17 
ROOT
HETATM    1  C1  UNL     1      -1.509  -1.942  23.118  1.00  0.00     0.091 A 
HETATM    2  C2  UNL     1      -0.865  -0.778  23.463  1.00  0.00     0.055 A 
HETATM    3  C3  UNL     1      -1.186   0.397  22.729  1.00  0.00     0.089 A 
HETATM    4  C9  UNL     1      -2.111   0.315  21.727  1.00  0.00     0.057 A 
HETATM    5  C10 UNL     1      -2.740  -0.856  21.402  1.00  0.00     0.029 A 
HETATM    6  N1  UNL     1      -2.396  -1.960  22.139  1.00  0.00    -0.368 N 
ATOM      7  H1  UNL     1      -2.850  -2.845  21.918  1.00  0.00     0.165 HD
HETATM    8  C11 UNL     1      -3.689  -0.798  20.303  1.00  0.00     0.074 C 
HETATM    9  C12 UNL     1      -4.308   0.576  20.201  1.00  0.00     0.062 C 
HETATM   10  S1  UNL     1      -2.789   1.542  20.625  1.00  0.00    -0.120 SA
ENDROOT
BRANCH   3  11
HETATM   11  O1  UNL     1      -0.505   1.500  23.132  1.00  0.00    -0.344 OA
BRANCH  11  12
HETATM   12  C4  UNL     1      -0.802   2.671  23.746  1.00  0.00     0.133 C 
HETATM   13  C5  UNL     1      -1.125   2.425  25.231  1.00  0.00     0.058 C 
HETATM   14  C6  UNL     1       0.129   1.996  25.970  1.00  0.00     0.170 C 
HETATM   15  O2  UNL     1       1.270   2.571  25.415  1.00  0.00    -0.391 OA
HETATM   16  C7  UNL     1       1.011   3.851  24.955  1.00  0.00     0.170 C 
HETATM   17  C8  UNL     1       0.283   3.732  23.633  1.00  0.00     0.058 C 
ENDBRANCH  11  12
ENDBRANCH   3  11
BRANCH   9  18
HETATM   18  C13 UNL     1      -4.773   0.903  18.822  1.00  0.00     0.000 C 
HETATM   19  C14 UNL     1      -6.070   0.241  18.463  1.00  0.00     0.006 C 
HETATM   20  C15 UNL     1      -6.159   0.169  16.938  1.00  0.00     0.000 C 
HETATM   21  C16 UNL     1      -5.358   1.319  16.327  1.00  0.00     0.000 C 
HETATM   22  C17 UNL     1      -3.899   0.969  16.480  1.00  0.00     0.000 C 
HETATM   23  C18 UNL     1      -3.709   0.372  17.854  1.00  0.00     0.006 C 
ENDBRANCH   9  18
TORSDOF 3
ENDMDL
MODEL 5
REMARK VINA RESULT: -7.723967323      1.128      1.680
REMARK  3 active torsions:
REMARK  status: ('A' for Active; 'I' for Inactive)
REMARK    1  A    between atoms: C3_3  and  O1_4 
REMARK    2  A    between atoms: O1_4  and  C4_5 
REMARK    3  A    between atoms: C12_16  and  C13_17 
ROOT
HETATM    1  C1  UNL     1      -1.182  -1.102  23.409  1.00  0.00     0.091 A 
HETATM    2  C2  UNL     1      -0.779   0.209  23.512  1.00  0.00     0.055 A 
HETATM    3  C3  UNL     1      -1.193   1.110  22.492  1.00  0.00     0.089 A 
HETATM    4  C9  UNL     1      -1.965   0.636  21.470  1.00  0.00     0.057 A 
HETATM    5  C10 UNL     1      -2.354  -0.673  21.388  1.00  0.00     0.029 A 
HETATM    6  N1  UNL     1      -1.929  -1.501  22.396  1.00  0.00    -0.368 N 
ATOM      7  H1  UNL     1      -2.206  -2.482  22.360  1.00  0.00     0.165 HD
HETATM    8  C11 UNL     1      -3.161  -1.039  20.235  1.00  0.00     0.074 C 
HETATM    9  C12 UNL     1      -3.974   0.139  19.756  1.00  0.00     0.062 C 
HETATM   10  S1  UNL     1      -2.692   1.438  20.053  1.00  0.00    -0.120 SA
ENDROOT
BRANCH   3  11
HETATM   11  O1  UNL     1      -0.751   2.380  22.670  1.00  0.00    -0.344 OA
BRANCH  11  12
HETATM   12  C4  UNL     1      -1.128   3.461  23.395  1.00  0.00     0.133 C 
HETATM   13  C5  UNL     1      -0.343   4.705  22.939  1.00  0.00     0.058 C 
HETATM   14  C6  UNL     1      -0.772   5.104  21.539  1.00  0.00     0.170 C 
HETATM   15  O2  UNL     1      -2.109   4.789  21.305  1.00  0.00    -0.391 OA
HETATM   16  C7  UNL     1      -2.868   4.953  22.451  1.00  0.00     0.170 C 
HETATM   17  C8  UNL     1      -2.620   3.760  23.349  1.00  0.00     0.058 C 
ENDBRANCH  11  12
ENDBRANCH   3  11
BRANCH   9  18
HETATM   18  C13 UNL     1      -4.315   0.058  18.306  1.00  0.00     0.000 C 
HETATM   19  C14 UNL     1      -3.514   1.001  17.457  1.00  0.00     0.006 C 
HETATM   20  C15 UNL     1      -4.290   1.248  16.163  1.00  0.00     0.000 C 
HETATM   21  C16 UNL     1      -5.161   0.032  15.851  1.00  0.00     0.000 C 
HETATM   22  C17 UNL     1      -6.322   0.063  16.814  1.00  0.00     0.000 C 
HETATM   23  C18 UNL     1      -5.788   0.463  18.169  1.00  0.00     0.006 C 
ENDBRANCH   9  18
TORSDOF 3
ENDMDL
