MODEL 1
REMARK VINA RESULT: -8.385072189      0.000      0.000
REMARK  4 active torsions:
REMARK  status: ('A' for Active; 'I' for Inactive)
REMARK    1  A    between atoms: C2_2  and  O2_4 
REMARK    2  A    between atoms: O2_4  and  C3_5 
REMARK    3  A    between atoms: C3_5  and  C4_6 
REMARK    4  A    between atoms: C3_5  and  C12_15 
ROOT
HETATM    1  C4  UNL     1      -2.626   1.944  18.882  1.00  0.00     0.077 C 
HETATM    2  C5  UNL     1      -1.573   2.068  17.866  1.00  0.00     0.102 C 
HETATM    3  N1  UNL     1      -0.749   2.168  17.024  1.00  0.00    -0.191 NA
HETATM    4  C6  UNL     1      -3.711   1.366  18.395  1.00  0.00    -0.057 C 
HETATM    5  C7  UNL     1      -3.846   0.863  17.005  1.00  0.00     0.036 C 
HETATM    6  C8  UNL     1      -5.132   1.376  16.417  1.00  0.00     0.004 C 
HETATM    7  C9  UNL     1      -6.287   0.859  17.197  1.00  0.00     0.001 C 
HETATM    8  C10 UNL     1      -6.007   0.449  18.597  1.00  0.00     0.004 C 
HETATM    9  C11 UNL     1      -4.888   1.223  19.264  1.00  0.00     0.036 C 
ENDROOT
BRANCH   1  10
HETATM   10  C3  UNL     1      -2.435   2.455  20.237  1.00  0.00     0.086 C 
BRANCH  10  11
HETATM   11  O2  UNL     1      -1.712   3.667  20.330  1.00  0.00    -0.281 OA
BRANCH  11  12
HETATM   12  C2  UNL     1      -2.190   4.932  20.238  1.00  0.00     0.259 C 
HETATM   13  C1  UNL     1      -3.234   5.491  21.139  1.00  0.00     0.126 C 
HETATM   14  O1  UNL     1      -1.742   5.682  19.358  1.00  0.00    -0.265 OA
ENDBRANCH  11  12
ENDBRANCH  10  11
BRANCH  10  15
HETATM   15  C12 UNL     1      -2.077   1.490  21.311  1.00  0.00     0.074 C 
HETATM   16  C13 UNL     1      -2.178   0.018  20.888  1.00  0.00     0.016 C 
HETATM   17  C14 UNL     1      -1.617  -0.741  22.113  1.00  0.00     0.005 C 
HETATM   18  C15 UNL     1      -2.623  -0.723  23.233  1.00  0.00    -0.015 C 
HETATM   19  C16 UNL     1      -3.339  -2.036  23.314  1.00  0.00     0.010 C 
HETATM   20  C17 UNL     1      -3.626   0.384  22.975  1.00  0.00     0.040 C 
HETATM   21  C18 UNL     1      -2.849   1.576  22.562  1.00  0.00    -0.059 C 
HETATM   22  C19 UNL     1      -2.870   2.635  23.319  1.00  0.00     0.097 C 
HETATM   23  C20 UNL     1      -3.635   2.677  24.527  1.00  0.00     0.088 C 
HETATM   24  N2  UNL     1      -4.261   2.696  25.512  1.00  0.00    -0.192 NA
ENDBRANCH  10  15
ENDBRANCH   1  10
TORSDOF 4
ENDMDL
MODEL 2
REMARK VINA RESULT: -8.234372663      2.456      4.163
REMARK  4 active torsions:
REMARK  status: ('A' for Active; 'I' for Inactive)
REMARK    1  A    between atoms: C2_2  and  O2_4 
REMARK    2  A    between atoms: O2_4  and  C3_5 
REMARK    3  A    between atoms: C3_5  and  C4_6 
REMARK    4  A    between atoms: C3_5  and  C12_15 
ROOT
HETATM    1  C4  UNL     1      -4.429   0.999  19.255  1.00  0.00     0.077 C 
HETATM    2  C5  UNL     1      -5.787   0.877  19.801  1.00  0.00     0.102 C 
HETATM    3  N1  UNL     1      -6.890   0.766  20.210  1.00  0.00    -0.191 NA
HETATM    4  C6  UNL     1      -4.438   1.112  17.938  1.00  0.00    -0.057 C 
HETATM    5  C7  UNL     1      -5.666   1.151  17.104  1.00  0.00     0.036 C 
HETATM    6  C8  UNL     1      -5.523   0.175  15.969  1.00  0.00     0.004 C 
HETATM    7  C9  UNL     1      -4.379   0.567  15.105  1.00  0.00     0.001 C 
HETATM    8  C10 UNL     1      -3.333   1.411  15.737  1.00  0.00     0.004 C 
HETATM    9  C11 UNL     1      -3.155   1.177  17.223  1.00  0.00     0.036 C 
ENDROOT
BRANCH   1  10
HETATM   10  C3  UNL     1      -3.257   0.957  20.126  1.00  0.00     0.086 C 
BRANCH  10  11
HETATM   11  O2  UNL     1      -3.219  -0.123  21.038  1.00  0.00    -0.281 OA
BRANCH  11  12
HETATM   12  C2  UNL     1      -2.311  -1.126  21.106  1.00  0.00     0.259 C 
HETATM   13  C1  UNL     1      -1.252  -1.216  22.148  1.00  0.00     0.126 C 
HETATM   14  O1  UNL     1      -2.349  -2.030  20.259  1.00  0.00    -0.265 OA
ENDBRANCH  11  12
ENDBRANCH  10  11
BRANCH  10  15
HETATM   15  C12 UNL     1      -2.777   2.232  20.725  1.00  0.00     0.074 C 
HETATM   16  C13 UNL     1      -1.485   2.771  20.094  1.00  0.00     0.016 C 
HETATM   17  C14 UNL     1      -1.303   4.144  20.782  1.00  0.00     0.005 C 
HETATM   18  C15 UNL     1      -0.839   3.951  22.201  1.00  0.00    -0.015 C 
HETATM   19  C16 UNL     1       0.632   4.208  22.309  1.00  0.00     0.010 C 
HETATM   20  C17 UNL     1      -1.136   2.527  22.625  1.00  0.00     0.040 C 
HETATM   21  C18 UNL     1      -2.515   2.224  22.174  1.00  0.00    -0.059 C 
HETATM   22  C19 UNL     1      -3.430   1.981  23.066  1.00  0.00     0.097 C 
HETATM   23  C20 UNL     1      -3.133   1.983  24.465  1.00  0.00     0.088 C 
HETATM   24  N2  UNL     1      -2.876   1.992  25.604  1.00  0.00    -0.192 NA
ENDBRANCH  10  15
ENDBRANCH   1  10
TORSDOF 4
ENDMDL
MODEL 3
REMARK VINA RESULT: -8.230219669      2.609      4.796
REMARK  4 active torsions:
REMARK  status: ('A' for Active; 'I' for Inactive)
REMARK    1  A    between atoms: C2_2  and  O2_4 
REMARK    2  A    between atoms: O2_4  and  C3_5 
REMARK    3  A    between atoms: C3_5  and  C4_6 
REMARK    4  A    between atoms: C3_5  and  C12_15 
ROOT
HETATM    1  C4  UNL     1      -4.386   0.614  19.432  1.00  0.00     0.077 C 
HETATM    2  C5  UNL     1      -5.768   0.750  19.909  1.00  0.00     0.102 C 
HETATM    3  N1  UNL     1      -6.891   0.855  20.261  1.00  0.00    -0.191 NA
HETATM    4  C6  UNL     1      -4.275   0.928  18.152  1.00  0.00    -0.057 C 
HETATM    5  C7  UNL     1      -5.396   1.401  17.301  1.00  0.00     0.036 C 
HETATM    6  C8  UNL     1      -5.413   0.609  16.023  1.00  0.00     0.004 C 
HETATM    7  C9  UNL     1      -4.150   0.833  15.271  1.00  0.00     0.001 C 
HETATM    8  C10 UNL     1      -2.979   1.282  16.067  1.00  0.00     0.004 C 
HETATM    9  C11 UNL     1      -2.967   0.782  17.497  1.00  0.00     0.036 C 
ENDROOT
BRANCH   1  10
HETATM   10  C3  UNL     1      -3.322   0.147  20.318  1.00  0.00     0.086 C 
BRANCH  10  11
HETATM   11  O2  UNL     1      -3.546  -1.112  20.920  1.00  0.00    -0.281 OA
BRANCH  11  12
HETATM   12  C2  UNL     1      -2.642  -1.924  21.519  1.00  0.00     0.259 C 
HETATM   13  C1  UNL     1      -1.180  -1.884  21.241  1.00  0.00     0.126 C 
HETATM   14  O1  UNL     1      -3.036  -2.755  22.350  1.00  0.00    -0.265 OA
ENDBRANCH  11  12
ENDBRANCH  10  11
BRANCH  10  15
HETATM   15  C12 UNL     1      -2.698   1.126  21.248  1.00  0.00     0.074 C 
HETATM   16  C13 UNL     1      -3.558   1.457  22.476  1.00  0.00     0.016 C 
HETATM   17  C14 UNL     1      -2.628   2.353  23.327  1.00  0.00     0.005 C 
HETATM   18  C15 UNL     1      -2.521   3.720  22.706  1.00  0.00    -0.015 C 
HETATM   19  C16 UNL     1      -3.387   4.697  23.440  1.00  0.00     0.010 C 
HETATM   20  C17 UNL     1      -2.967   3.639  21.259  1.00  0.00     0.040 C 
HETATM   21  C18 UNL     1      -2.327   2.433  20.682  1.00  0.00    -0.059 C 
HETATM   22  C19 UNL     1      -1.464   2.578  19.719  1.00  0.00     0.097 C 
HETATM   23  C20 UNL     1      -1.133   3.868  19.197  1.00  0.00     0.088 C 
HETATM   24  N2  UNL     1      -0.870   4.928  18.784  1.00  0.00    -0.192 NA
ENDBRANCH  10  15
ENDBRANCH   1  10
TORSDOF 4
ENDMDL
MODEL 4
REMARK VINA RESULT: -8.159007467      1.835      2.465
REMARK  4 active torsions:
REMARK  status: ('A' for Active; 'I' for Inactive)
REMARK    1  A    between atoms: C2_2  and  O2_4 
REMARK    2  A    between atoms: O2_4  and  C3_5 
REMARK    3  A    between atoms: C3_5  and  C4_6 
REMARK    4  A    between atoms: C3_5  and  C12_15 
ROOT
HETATM    1  C4  UNL     1      -4.633   1.514  18.986  1.00  0.00     0.077 C 
HETATM    2  C5  UNL     1      -5.898   1.117  19.619  1.00  0.00     0.102 C 
HETATM    3  N1  UNL     1      -6.921   0.777  20.102  1.00  0.00    -0.191 NA
HETATM    4  C6  UNL     1      -4.664   1.340  17.676  1.00  0.00    -0.057 C 
HETATM    5  C7  UNL     1      -5.842   0.842  16.920  1.00  0.00     0.036 C 
HETATM    6  C8  UNL     1      -5.405  -0.266  16.001  1.00  0.00     0.004 C 
HETATM    7  C9  UNL     1      -4.422   0.254  15.013  1.00  0.00     0.001 C 
HETATM    8  C10 UNL     1      -3.681   1.480  15.402  1.00  0.00     0.004 C 
HETATM    9  C11 UNL     1      -3.453   1.626  16.893  1.00  0.00     0.036 C 
ENDROOT
BRANCH   1  10
HETATM   10  C3  UNL     1      -3.509   2.002  19.781  1.00  0.00     0.086 C 
BRANCH  10  11
HETATM   11  O2  UNL     1      -2.589   2.823  19.089  1.00  0.00    -0.281 OA
BRANCH  11  12
HETATM   12  C2  UNL     1      -1.787   3.790  19.597  1.00  0.00     0.259 C 
HETATM   13  C1  UNL     1      -0.305   3.680  19.677  1.00  0.00     0.126 C 
HETATM   14  O1  UNL     1      -2.301   4.833  20.025  1.00  0.00    -0.265 OA
ENDBRANCH  11  12
ENDBRANCH  10  11
BRANCH  10  15
HETATM   15  C12 UNL     1      -2.843   1.055  20.717  1.00  0.00     0.074 C 
HETATM   16  C13 UNL     1      -3.052  -0.424  20.363  1.00  0.00     0.016 C 
HETATM   17  C14 UNL     1      -2.149  -1.161  21.379  1.00  0.00     0.005 C 
HETATM   18  C15 UNL     1      -2.780  -1.128  22.745  1.00  0.00    -0.015 C 
HETATM   19  C16 UNL     1      -3.430  -2.442  23.053  1.00  0.00     0.010 C 
HETATM   20  C17 UNL     1      -3.823  -0.029  22.778  1.00  0.00     0.040 C 
HETATM   21  C18 UNL     1      -3.213   1.159  22.138  1.00  0.00    -0.059 C 
HETATM   22  C19 UNL     1      -3.018   2.230  22.852  1.00  0.00     0.097 C 
HETATM   23  C20 UNL     1      -3.393   2.289  24.231  1.00  0.00     0.088 C 
HETATM   24  N2  UNL     1      -3.701   2.321  25.356  1.00  0.00    -0.192 NA
ENDBRANCH  10  15
ENDBRANCH   1  10
TORSDOF 4
ENDMDL
MODEL 5
REMARK VINA RESULT: -7.942717704      2.138      6.336
REMARK  4 active torsions:
REMARK  status: ('A' for Active; 'I' for Inactive)
REMARK    1  A    between atoms: C2_2  and  O2_4 
REMARK    2  A    between atoms: O2_4  and  C3_5 
REMARK    3  A    between atoms: C3_5  and  C4_6 
REMARK    4  A    between atoms: C3_5  and  C12_15 
ROOT
HETATM    1  C4  UNL     1      -3.147   2.406  21.297  1.00  0.00     0.077 C 
HETATM    2  C5  UNL     1      -2.775   3.737  20.798  1.00  0.00     0.102 C 
HETATM    3  N1  UNL     1      -2.461   4.813  20.426  1.00  0.00    -0.191 NA
HETATM    4  C6  UNL     1      -3.175   2.368  22.619  1.00  0.00    -0.057 C 
HETATM    5  C7  UNL     1      -2.907   3.532  23.501  1.00  0.00     0.036 C 
HETATM    6  C8  UNL     1      -1.915   3.131  24.558  1.00  0.00     0.004 C 
HETATM    7  C9  UNL     1      -2.486   2.048  25.403  1.00  0.00     0.001 C 
HETATM    8  C10 UNL     1      -3.567   1.234  24.790  1.00  0.00     0.004 C 
HETATM    9  C11 UNL     1      -3.465   1.090  23.285  1.00  0.00     0.036 C 
ENDROOT
BRANCH   1  10
HETATM   10  C3  UNL     1      -3.404   1.298  20.380  1.00  0.00     0.086 C 
BRANCH  10  11
HETATM   11  O2  UNL     1      -2.416   0.286  20.362  1.00  0.00    -0.281 OA
BRANCH  11  12
HETATM   12  C2  UNL     1      -2.480  -0.952  20.909  1.00  0.00     0.259 C 
HETATM   13  C1  UNL     1      -1.337  -1.616  21.593  1.00  0.00     0.126 C 
HETATM   14  O1  UNL     1      -3.544  -1.584  20.845  1.00  0.00    -0.265 OA
ENDBRANCH  11  12
ENDBRANCH  10  11
BRANCH  10  15
HETATM   15  C12 UNL     1      -3.929   1.612  19.024  1.00  0.00     0.074 C 
HETATM   16  C13 UNL     1      -5.156   0.781  18.622  1.00  0.00     0.016 C 
HETATM   17  C14 UNL     1      -5.576   1.403  17.270  1.00  0.00     0.005 C 
HETATM   18  C15 UNL     1      -4.612   0.986  16.191  1.00  0.00    -0.015 C 
HETATM   19  C16 UNL     1      -5.204  -0.108  15.357  1.00  0.00     0.010 C 
HETATM   20  C17 UNL     1      -3.334   0.493  16.837  1.00  0.00     0.040 C 
HETATM   21  C18 UNL     1      -2.989   1.466  17.901  1.00  0.00    -0.059 C 
HETATM   22  C19 UNL     1      -1.890   2.155  17.793  1.00  0.00     0.097 C 
HETATM   23  C20 UNL     1      -1.004   1.982  16.683  1.00  0.00     0.088 C 
HETATM   24  N2  UNL     1      -0.292   1.832  15.770  1.00  0.00    -0.192 NA
ENDBRANCH  10  15
ENDBRANCH   1  10
TORSDOF 4
ENDMDL
