MODEL 1
REMARK VINA RESULT: -8.066573643      0.000      0.000
REMARK  3 active torsions:
REMARK  status: ('A' for Active; 'I' for Inactive)
REMARK    1  A    between atoms: C2_2  and  C3_3 
REMARK    2  A    between atoms: C3_3  and  C4_4 
REMARK    3  A    between atoms: C4_4  and  N1_5 
ROOT
HETATM    1  N1  UNL     1      -2.276   1.775  17.231  1.00  0.00    -0.335 N 
HETATM    2  C5  UNL     1      -1.312   2.589  16.765  1.00  0.00     0.080 A 
HETATM    3  C6  UNL     1      -0.909   2.791  15.338  1.00  0.00     0.089 C 
HETATM    4  N2  UNL     1      -0.706   3.249  17.773  1.00  0.00    -0.347 N 
ATOM      5  H2  UNL     1       0.054   3.923  17.682  1.00  0.00     0.167 HD
HETATM    6  C7  UNL     1      -1.283   2.861  18.903  1.00  0.00     0.037 A 
HETATM    7  C8  UNL     1      -2.275   1.930  18.573  1.00  0.00     0.058 A 
HETATM    8  C9  UNL     1      -3.191   1.201  19.436  1.00  0.00     0.035 C 
HETATM    9  C10 UNL     1      -3.563   1.564  20.642  1.00  0.00    -0.073 C 
HETATM   10  C11 UNL     1      -4.529   0.553  21.242  1.00  0.00     0.040 C 
HETATM   11  C12 UNL     1      -3.727  -0.106  22.337  1.00  0.00     0.073 C 
HETATM   12  C13 UNL     1      -2.788   0.813  23.064  1.00  0.00     0.164 C 
HETATM   13  C14 UNL     1      -3.023   2.265  22.917  1.00  0.00     0.077 C 
HETATM   14  C15 UNL     1      -3.229   2.717  21.465  1.00  0.00     0.020 C 
HETATM   15  C16 UNL     1      -2.244   3.696  21.027  1.00  0.00     0.015 C 
HETATM   16  C17 UNL     1      -1.015   3.269  20.305  1.00  0.00     0.060 C 
HETATM   17  O1  UNL     1      -2.983   0.529  24.442  1.00  0.00    -0.355 OA
HETATM   18  C18 UNL     1      -2.087  -0.408  24.908  1.00  0.00     0.173 C 
HETATM   19  C19 UNL     1      -0.725   0.298  24.967  1.00  0.00     0.053 C 
HETATM   20  C20 UNL     1      -0.512   0.844  23.561  1.00  0.00     0.173 C 
HETATM   21  O2  UNL     1      -1.495   0.473  22.680  1.00  0.00    -0.355 OA
ENDROOT
BRANCH   1  22
HETATM   22  C4  UNL     1      -3.145   0.906  16.513  1.00  0.00     0.130 C 
BRANCH  22  23
HETATM   23  C3  UNL     1      -4.432   1.489  16.045  1.00  0.00     0.020 C 
BRANCH  23  24
HETATM   24  C2  UNL     1      -5.588   0.543  16.010  1.00  0.00    -0.003 C 
HETATM   25  C1  UNL     1      -6.290   0.537  17.374  1.00  0.00     0.005 C 
ENDBRANCH  23  24
ENDBRANCH  22  23
ENDBRANCH   1  22
TORSDOF 3
ENDMDL
MODEL 2
REMARK VINA RESULT: -7.685644009      1.044      1.256
REMARK  3 active torsions:
REMARK  status: ('A' for Active; 'I' for Inactive)
REMARK    1  A    between atoms: C2_2  and  C3_3 
REMARK    2  A    between atoms: C3_3  and  C4_4 
REMARK    3  A    between atoms: C4_4  and  N1_5 
ROOT
HETATM    1  N1  UNL     1      -2.372   1.644  18.205  1.00  0.00    -0.335 N 
HETATM    2  C5  UNL     1      -1.522   2.476  17.577  1.00  0.00     0.080 A 
HETATM    3  C6  UNL     1      -1.301   2.600  16.102  1.00  0.00     0.089 C 
HETATM    4  N2  UNL     1      -0.847   3.237  18.461  1.00  0.00    -0.347 N 
ATOM      5  H2  UNL     1      -0.146   3.944  18.237  1.00  0.00     0.167 HD
HETATM    6  C7  UNL     1      -1.263   2.898  19.674  1.00  0.00     0.037 A 
HETATM    7  C8  UNL     1      -2.226   1.893  19.525  1.00  0.00     0.058 A 
HETATM    8  C9  UNL     1      -2.987   1.176  20.536  1.00  0.00     0.035 C 
HETATM    9  C10 UNL     1      -3.238   1.601  21.753  1.00  0.00    -0.073 C 
HETATM   10  C11 UNL     1      -4.062   0.583  22.526  1.00  0.00     0.040 C 
HETATM   11  C12 UNL     1      -3.098   0.047  23.557  1.00  0.00     0.073 C 
HETATM   12  C13 UNL     1      -2.142   1.066  24.106  1.00  0.00     0.164 C 
HETATM   13  C14 UNL     1      -2.483   2.488  23.898  1.00  0.00     0.077 C 
HETATM   14  C15 UNL     1      -2.884   2.826  22.455  1.00  0.00     0.020 C 
HETATM   15  C16 UNL     1      -2.021   3.825  21.842  1.00  0.00     0.015 C 
HETATM   16  C17 UNL     1      -0.860   3.417  21.005  1.00  0.00     0.060 C 
HETATM   17  O1  UNL     1      -2.156   0.869  25.513  1.00  0.00    -0.355 OA
HETATM   18  C18 UNL     1      -1.156   0.017  25.926  1.00  0.00     0.173 C 
HETATM   19  C19 UNL     1       0.157   0.800  25.776  1.00  0.00     0.053 C 
HETATM   20  C20 UNL     1       0.171   1.257  24.323  1.00  0.00     0.173 C 
HETATM   21  O2  UNL     1      -0.883   0.772  23.592  1.00  0.00    -0.355 OA
ENDROOT
BRANCH   1  22
HETATM   22  C4  UNL     1      -3.263   0.680  17.653  1.00  0.00     0.130 C 
BRANCH  22  23
HETATM   23  C3  UNL     1      -4.618   1.166  17.275  1.00  0.00     0.020 C 
BRANCH  23  24
HETATM   24  C2  UNL     1      -4.827   1.402  15.814  1.00  0.00    -0.003 C 
HETATM   25  C1  UNL     1      -4.414   0.152  15.027  1.00  0.00     0.005 C 
ENDBRANCH  23  24
ENDBRANCH  22  23
ENDBRANCH   1  22
TORSDOF 3
ENDMDL
MODEL 3
REMARK VINA RESULT: -7.436554064      1.523      2.134
REMARK  3 active torsions:
REMARK  status: ('A' for Active; 'I' for Inactive)
REMARK    1  A    between atoms: C2_2  and  C3_3 
REMARK    2  A    between atoms: C3_3  and  C4_4 
REMARK    3  A    between atoms: C4_4  and  N1_5 
ROOT
HETATM    1  N1  UNL     1      -2.215   1.702  19.294  1.00  0.00    -0.335 N 
HETATM    2  C5  UNL     1      -1.409   2.698  18.887  1.00  0.00     0.080 A 
HETATM    3  C6  UNL     1      -1.127   3.115  17.477  1.00  0.00     0.089 C 
HETATM    4  N2  UNL     1      -0.843   3.325  19.938  1.00  0.00    -0.347 N 
ATOM      5  H2  UNL     1      -0.194   4.111  19.894  1.00  0.00     0.167 HD
HETATM    6  C7  UNL     1      -1.287   2.731  21.038  1.00  0.00     0.037 A 
HETATM    7  C8  UNL     1      -2.155   1.705  20.644  1.00  0.00     0.058 A 
HETATM    8  C9  UNL     1      -2.901   0.756  21.454  1.00  0.00     0.035 C 
HETATM    9  C10 UNL     1      -3.246   0.923  22.710  1.00  0.00    -0.073 C 
HETATM   10  C11 UNL     1      -4.019  -0.282  23.227  1.00  0.00     0.040 C 
HETATM   11  C12 UNL     1      -3.064  -0.931  24.200  1.00  0.00     0.073 C 
HETATM   12  C13 UNL     1      -2.224   0.031  24.988  1.00  0.00     0.164 C 
HETATM   13  C14 UNL     1      -2.674   1.439  25.026  1.00  0.00     0.077 C 
HETATM   14  C15 UNL     1      -3.031   2.014  23.649  1.00  0.00     0.020 C 
HETATM   15  C16 UNL     1      -2.225   3.172  23.287  1.00  0.00     0.015 C 
HETATM   16  C17 UNL     1      -0.995   3.016  22.465  1.00  0.00     0.060 C 
HETATM   17  O1  UNL     1      -2.291  -0.430  26.330  1.00  0.00    -0.355 OA
HETATM   18  C18 UNL     1      -1.244  -1.269  26.641  1.00  0.00     0.173 C 
HETATM   19  C19 UNL     1       0.004  -0.379  26.723  1.00  0.00     0.053 C 
HETATM   20  C20 UNL     1       0.050   0.347  25.383  1.00  0.00     0.173 C 
HETATM   21  O2  UNL     1      -0.922  -0.066  24.510  1.00  0.00    -0.355 OA
ENDROOT
BRANCH   1  22
HETATM   22  C4  UNL     1      -2.994   0.798  18.518  1.00  0.00     0.130 C 
BRANCH  22  23
HETATM   23  C3  UNL     1      -4.333   1.279  18.080  1.00  0.00     0.020 C 
BRANCH  23  24
HETATM   24  C2  UNL     1      -5.490   0.742  18.858  1.00  0.00    -0.003 C 
HETATM   25  C1  UNL     1      -6.607   0.320  17.895  1.00  0.00     0.005 C 
ENDBRANCH  23  24
ENDBRANCH  22  23
ENDBRANCH   1  22
TORSDOF 3
ENDMDL
MODEL 4
REMARK VINA RESULT: -7.361067508      3.892      6.580
REMARK  3 active torsions:
REMARK  status: ('A' for Active; 'I' for Inactive)
REMARK    1  A    between atoms: C2_2  and  C3_3 
REMARK    2  A    between atoms: C3_3  and  C4_4 
REMARK    3  A    between atoms: C4_4  and  N1_5 
ROOT
HETATM    1  N1  UNL     1      -2.910   0.227  22.667  1.00  0.00    -0.335 N 
HETATM    2  C5  UNL     1      -3.637   0.073  23.788  1.00  0.00     0.080 A 
HETATM    3  C6  UNL     1      -4.211  -1.199  24.327  1.00  0.00     0.089 C 
HETATM    4  N2  UNL     1      -3.807   1.251  24.421  1.00  0.00    -0.347 N 
ATOM      5  H2  UNL     1      -4.319   1.402  25.290  1.00  0.00     0.167 HD
HETATM    6  C7  UNL     1      -3.184   2.178  23.705  1.00  0.00     0.037 A 
HETATM    7  C8  UNL     1      -2.614   1.543  22.595  1.00  0.00     0.058 A 
HETATM    8  C9  UNL     1      -1.832   2.102  21.504  1.00  0.00     0.035 C 
HETATM    9  C10 UNL     1      -1.149   3.223  21.543  1.00  0.00    -0.073 C 
HETATM   10  C11 UNL     1      -0.458   3.486  20.214  1.00  0.00     0.040 C 
HETATM   11  C12 UNL     1      -1.210   4.664  19.643  1.00  0.00     0.073 C 
HETATM   12  C13 UNL     1      -1.660   5.670  20.662  1.00  0.00     0.164 C 
HETATM   13  C14 UNL     1      -1.012   5.618  21.989  1.00  0.00     0.077 C 
HETATM   14  C15 UNL     1      -0.945   4.209  22.593  1.00  0.00     0.020 C 
HETATM   15  C16 UNL     1      -1.635   4.104  23.871  1.00  0.00     0.015 C 
HETATM   16  C17 UNL     1      -3.047   3.638  23.939  1.00  0.00     0.060 C 
HETATM   17  O1  UNL     1      -1.315   6.934  20.114  1.00  0.00    -0.355 OA
HETATM   18  C18 UNL     1      -2.358   7.495  19.410  1.00  0.00     0.173 C 
HETATM   19  C19 UNL     1      -3.393   7.929  20.457  1.00  0.00     0.053 C 
HETATM   20  C20 UNL     1      -3.679   6.667  21.264  1.00  0.00     0.173 C 
HETATM   21  O2  UNL     1      -3.042   5.556  20.775  1.00  0.00    -0.355 OA
ENDROOT
BRANCH   1  22
HETATM   22  C4  UNL     1      -2.506  -0.751  21.714  1.00  0.00     0.130 C 
BRANCH  22  23
HETATM   23  C3  UNL     1      -1.402  -1.661  22.122  1.00  0.00     0.020 C 
BRANCH  23  24
HETATM   24  C2  UNL     1      -0.337  -1.037  22.965  1.00  0.00    -0.003 C 
HETATM   25  C1  UNL     1      -0.317  -1.705  24.346  1.00  0.00     0.005 C 
ENDBRANCH  23  24
ENDBRANCH  22  23
ENDBRANCH   1  22
TORSDOF 3
ENDMDL
MODEL 5
REMARK VINA RESULT: -7.353649829      2.495      5.103
REMARK  3 active torsions:
REMARK  status: ('A' for Active; 'I' for Inactive)
REMARK    1  A    between atoms: C2_2  and  C3_3 
REMARK    2  A    between atoms: C3_3  and  C4_4 
REMARK    3  A    between atoms: C4_4  and  N1_5 
ROOT
HETATM    1  N1  UNL     1      -3.001   1.860  21.164  1.00  0.00    -0.335 N 
HETATM    2  C5  UNL     1      -3.952   1.079  20.621  1.00  0.00     0.080 A 
HETATM    3  C6  UNL     1      -4.908   1.443  19.529  1.00  0.00     0.089 C 
HETATM    4  N2  UNL     1      -3.960  -0.143  21.191  1.00  0.00    -0.347 N 
ATOM      5  H2  UNL     1      -4.585  -0.915  20.957  1.00  0.00     0.167 HD
HETATM    6  C7  UNL     1      -3.004  -0.156  22.112  1.00  0.00     0.037 A 
HETATM    7  C8  UNL     1      -2.392   1.103  22.103  1.00  0.00     0.058 A 
HETATM    8  C9  UNL     1      -1.298   1.611  22.916  1.00  0.00     0.035 C 
HETATM    9  C10 UNL     1      -0.391   0.882  23.524  1.00  0.00    -0.073 C 
HETATM   10  C11 UNL     1       0.594   1.760  24.281  1.00  0.00     0.040 C 
HETATM   11  C12 UNL     1       0.273   1.494  25.732  1.00  0.00     0.073 C 
HETATM   12  C13 UNL     1      -0.119   0.077  26.035  1.00  0.00     0.164 C 
HETATM   13  C14 UNL     1       0.220  -0.944  25.023  1.00  0.00     0.077 C 
HETATM   14  C15 UNL     1      -0.172  -0.555  23.591  1.00  0.00     0.020 C 
HETATM   15  C16 UNL     1      -1.107  -1.489  22.982  1.00  0.00     0.015 C 
HETATM   16  C17 UNL     1      -2.574  -1.240  23.030  1.00  0.00     0.060 C 
HETATM   17  O1  UNL     1       0.619  -0.272  27.197  1.00  0.00    -0.355 OA
HETATM   18  C18 UNL     1      -0.099  -0.050  28.352  1.00  0.00     0.173 C 
HETATM   19  C19 UNL     1      -1.189  -1.131  28.389  1.00  0.00     0.053 C 
HETATM   20  C20 UNL     1      -1.921  -0.987  27.061  1.00  0.00     0.173 C 
HETATM   21  O2  UNL     1      -1.483   0.074  26.312  1.00  0.00    -0.355 OA
ENDROOT
BRANCH   1  22
HETATM   22  C4  UNL     1      -2.659   3.208  20.858  1.00  0.00     0.130 C 
BRANCH  22  23
HETATM   23  C3  UNL     1      -1.806   3.422  19.658  1.00  0.00     0.020 C 
BRANCH  23  24
HETATM   24  C2  UNL     1      -0.341   3.541  19.928  1.00  0.00    -0.003 C 
HETATM   25  C1  UNL     1      -0.105   4.563  21.047  1.00  0.00     0.005 C 
ENDBRANCH  23  24
ENDBRANCH  22  23
ENDBRANCH   1  22
TORSDOF 3
ENDMDL
