MODEL 1
REMARK VINA RESULT: -7.894773177      0.000      0.000
REMARK  3 active torsions:
REMARK  status: ('A' for Active; 'I' for Inactive)
REMARK    1  A    between atoms: C2_2  and  C4_4 
REMARK    2  A    between atoms: C5_5  and  C6_6 
REMARK    3  A    between atoms: C8_8  and  C9_9 
ROOT
HETATM    1  C9  UNL     1      -1.572   6.499  19.556  1.00  0.00     0.166 C 
HETATM    2  O1  UNL     1      -2.783   6.955  20.072  1.00  0.00    -0.309 OA
HETATM    3  C10 UNL     1      -3.172   6.190  21.174  1.00  0.00     0.287 C 
HETATM    4  O2  UNL     1      -4.361   6.180  21.568  1.00  0.00    -0.263 OA
HETATM    5  C11 UNL     1      -2.005   5.473  21.714  1.00  0.00     0.176 C 
HETATM    6  S1  UNL     1      -1.509   6.168  23.316  1.00  0.00    -0.066 SA
HETATM    7  C12 UNL     1      -2.362   4.052  21.930  1.00  0.00     0.165 C 
HETATM    8  O3  UNL     1      -2.759   3.744  23.045  1.00  0.00    -0.295 OA
HETATM    9  C13 UNL     1      -2.285   2.974  20.934  1.00  0.00     0.015 C 
HETATM   10  C14 UNL     1      -3.681   2.844  20.334  1.00  0.00     0.023 C 
HETATM   11  C15 UNL     1      -1.992   1.642  21.600  1.00  0.00     0.023 C 
HETATM   12  C16 UNL     1      -1.317   3.320  19.869  1.00  0.00     0.017 C 
HETATM   13  C17 UNL     1      -0.357   4.410  20.156  1.00  0.00     0.015 C 
HETATM   14  C18 UNL     1      -0.938   5.661  20.686  1.00  0.00     0.021 C 
HETATM   15  C19 UNL     1       0.153   6.522  21.264  1.00  0.00     0.021 C 
ENDROOT
BRANCH   1  16
HETATM   16  C8  UNL     1      -0.704   7.572  19.132  1.00  0.00     0.013 C 
HETATM   17  C6  UNL     1      -0.587   8.206  17.979  1.00  0.00    -0.063 C 
HETATM   18  C7  UNL     1      -1.455   7.844  16.847  1.00  0.00     0.048 C 
BRANCH  17  19
HETATM   19  C5  UNL     1       0.391   9.270  17.835  1.00  0.00     0.007 C 
HETATM   20  C4  UNL     1       1.393   9.296  16.926  1.00  0.00     0.006 C 
BRANCH  20  21
HETATM   21  C2  UNL     1       2.271  10.383  16.884  1.00  0.00    -0.071 C 
HETATM   22  C1  UNL     1       3.059  11.358  16.846  1.00  0.00     0.018 C 
HETATM   23  C3  UNL     1       3.702   9.309  16.338  1.00  0.00     0.047 C 
ENDBRANCH  20  21
ENDBRANCH  17  19
ENDBRANCH   1  16
TORSDOF 3
ENDMDL
MODEL 2
REMARK VINA RESULT: -7.695998775      5.735      7.934
REMARK  3 active torsions:
REMARK  status: ('A' for Active; 'I' for Inactive)
REMARK    1  A    between atoms: C2_2  and  C4_4 
REMARK    2  A    between atoms: C5_5  and  C6_6 
REMARK    3  A    between atoms: C8_8  and  C9_9 
ROOT
HETATM    1  C9  UNL     1      -2.546   1.754  22.857  1.00  0.00     0.166 C 
HETATM    2  O1  UNL     1      -1.284   1.169  22.776  1.00  0.00    -0.309 OA
HETATM    3  C10 UNL     1      -0.842   0.765  24.038  1.00  0.00     0.287 C 
HETATM    4  O2  UNL     1       0.372   0.551  24.262  1.00  0.00    -0.263 OA
HETATM    5  C11 UNL     1      -1.992   0.657  24.952  1.00  0.00     0.176 C 
HETATM    6  S1  UNL     1      -2.342  -1.081  25.341  1.00  0.00    -0.066 SA
HETATM    7  C12 UNL     1      -1.672   1.349  26.222  1.00  0.00     0.165 C 
HETATM    8  O3  UNL     1      -1.206   0.665  27.123  1.00  0.00    -0.295 OA
HETATM    9  C13 UNL     1      -1.863   2.777  26.506  1.00  0.00     0.015 C 
HETATM   10  C14 UNL     1      -0.521   3.451  26.239  1.00  0.00     0.023 C 
HETATM   11  C15 UNL     1      -2.154   3.002  27.980  1.00  0.00     0.023 C 
HETATM   12  C16 UNL     1      -2.893   3.352  25.613  1.00  0.00     0.017 C 
HETATM   13  C17 UNL     1      -3.788   2.401  24.915  1.00  0.00     0.015 C 
HETATM   14  C18 UNL     1      -3.124   1.286  24.209  1.00  0.00     0.021 C 
HETATM   15  C19 UNL     1      -4.137   0.225  23.869  1.00  0.00     0.021 C 
ENDROOT
BRANCH   1  16
HETATM   16  C8  UNL     1      -3.402   1.392  21.753  1.00  0.00     0.013 C 
HETATM   17  C6  UNL     1      -3.773   2.057  20.673  1.00  0.00    -0.063 C 
HETATM   18  C7  UNL     1      -3.278   3.424  20.441  1.00  0.00     0.048 C 
BRANCH  17  19
HETATM   19  C5  UNL     1      -4.661   1.432  19.708  1.00  0.00     0.007 C 
HETATM   20  C4  UNL     1      -4.471   1.410  18.368  1.00  0.00     0.006 C 
BRANCH  20  21
HETATM   21  C2  UNL     1      -5.399   0.770  17.541  1.00  0.00    -0.071 C 
HETATM   22  C1  UNL     1      -6.231   0.196  16.799  1.00  0.00     0.018 C 
HETATM   23  C3  UNL     1      -4.584   1.422  15.988  1.00  0.00     0.047 C 
ENDBRANCH  20  21
ENDBRANCH  17  19
ENDBRANCH   1  16
TORSDOF 3
ENDMDL
MODEL 3
REMARK VINA RESULT: -7.605262150      5.722      8.029
REMARK  3 active torsions:
REMARK  status: ('A' for Active; 'I' for Inactive)
REMARK    1  A    between atoms: C2_2  and  C4_4 
REMARK    2  A    between atoms: C5_5  and  C6_6 
REMARK    3  A    between atoms: C8_8  and  C9_9 
ROOT
HETATM    1  C9  UNL     1      -1.762   0.702  22.037  1.00  0.00     0.166 C 
HETATM    2  O1  UNL     1      -0.985  -0.433  22.260  1.00  0.00    -0.309 OA
HETATM    3  C10 UNL     1      -1.142  -0.892  23.570  1.00  0.00     0.287 C 
HETATM    4  O2  UNL     1      -0.299  -1.655  24.095  1.00  0.00    -0.263 OA
HETATM    5  C11 UNL     1      -2.383  -0.340  24.141  1.00  0.00     0.176 C 
HETATM    6  S1  UNL     1      -3.636  -1.640  24.329  1.00  0.00    -0.066 SA
HETATM    7  C12 UNL     1      -2.099   0.211  25.485  1.00  0.00     0.165 C 
HETATM    8  O3  UNL     1      -2.282  -0.533  26.439  1.00  0.00    -0.295 OA
HETATM    9  C13 UNL     1      -1.620   1.567  25.787  1.00  0.00     0.015 C 
HETATM   10  C14 UNL     1      -0.104   1.467  25.920  1.00  0.00     0.023 C 
HETATM   11  C15 UNL     1      -2.127   2.032  27.140  1.00  0.00     0.023 C 
HETATM   12  C16 UNL     1      -1.961   2.495  24.685  1.00  0.00     0.017 C 
HETATM   13  C17 UNL     1      -2.997   2.052  23.725  1.00  0.00     0.015 C 
HETATM   14  C18 UNL     1      -2.819   0.698  23.160  1.00  0.00     0.021 C 
HETATM   15  C19 UNL     1      -4.100   0.248  22.507  1.00  0.00     0.021 C 
ENDROOT
BRANCH   1  16
HETATM   16  C8  UNL     1      -2.370   0.715  20.727  1.00  0.00     0.013 C 
HETATM   17  C6  UNL     1      -2.433   1.650  19.796  1.00  0.00    -0.063 C 
HETATM   18  C7  UNL     1      -1.795   2.958  20.019  1.00  0.00     0.048 C 
BRANCH  17  19
HETATM   19  C5  UNL     1      -3.122   1.381  18.546  1.00  0.00     0.007 C 
HETATM   20  C4  UNL     1      -4.464   1.294  18.394  1.00  0.00     0.006 C 
BRANCH  20  21
HETATM   21  C2  UNL     1      -5.009   1.033  17.132  1.00  0.00    -0.071 C 
HETATM   22  C1  UNL     1      -5.497   0.799  16.002  1.00  0.00     0.018 C 
HETATM   23  C3  UNL     1      -6.567   0.306  17.868  1.00  0.00     0.047 C 
ENDBRANCH  20  21
ENDBRANCH  17  19
ENDBRANCH   1  16
TORSDOF 3
ENDMDL
MODEL 4
REMARK VINA RESULT: -7.578184894      6.162      8.081
REMARK  3 active torsions:
REMARK  status: ('A' for Active; 'I' for Inactive)
REMARK    1  A    between atoms: C2_2  and  C4_4 
REMARK    2  A    between atoms: C5_5  and  C6_6 
REMARK    3  A    between atoms: C8_8  and  C9_9 
ROOT
HETATM    1  C9  UNL     1      -1.584   0.427  22.173  1.00  0.00     0.166 C 
HETATM    2  O1  UNL     1      -0.880  -0.744  22.442  1.00  0.00    -0.309 OA
HETATM    3  C10 UNL     1      -0.656  -0.884  23.814  1.00  0.00     0.287 C 
HETATM    4  O2  UNL     1       0.238  -1.645  24.250  1.00  0.00    -0.263 OA
HETATM    5  C11 UNL     1      -1.600  -0.032  24.558  1.00  0.00     0.176 C 
HETATM    6  S1  UNL     1      -2.839  -1.043  25.415  1.00  0.00    -0.066 SA
HETATM    7  C12 UNL     1      -0.858   0.738  25.582  1.00  0.00     0.165 C 
HETATM    8  O3  UNL     1      -0.795   0.252  26.703  1.00  0.00    -0.295 OA
HETATM    9  C13 UNL     1      -0.190   2.032  25.384  1.00  0.00     0.015 C 
HETATM   10  C14 UNL     1       1.276   1.719  25.100  1.00  0.00     0.023 C 
HETATM   11  C15 UNL     1      -0.200   2.848  26.665  1.00  0.00     0.023 C 
HETATM   12  C16 UNL     1      -0.777   2.748  24.231  1.00  0.00     0.017 C 
HETATM   13  C17 UNL     1      -2.099   2.285  23.749  1.00  0.00     0.015 C 
HETATM   14  C18 UNL     1      -2.229   0.832  23.515  1.00  0.00     0.021 C 
HETATM   15  C19 UNL     1      -3.685   0.466  23.390  1.00  0.00     0.021 C 
ENDROOT
BRANCH   1  16
HETATM   16  C8  UNL     1      -2.571   0.262  21.132  1.00  0.00     0.013 C 
HETATM   17  C6  UNL     1      -2.900   1.021  20.103  1.00  0.00    -0.063 C 
HETATM   18  C7  UNL     1      -2.193   2.291  19.867  1.00  0.00     0.048 C 
BRANCH  17  19
HETATM   19  C5  UNL     1      -3.952   0.596  19.196  1.00  0.00     0.007 C 
HETATM   20  C4  UNL     1      -4.258   1.187  18.018  1.00  0.00     0.006 C 
BRANCH  20  21
HETATM   21  C2  UNL     1      -5.295   0.678  17.229  1.00  0.00    -0.071 C 
HETATM   22  C1  UNL     1      -6.224   0.223  16.521  1.00  0.00     0.018 C 
HETATM   23  C3  UNL     1      -4.533   1.346  15.657  1.00  0.00     0.047 C 
ENDBRANCH  20  21
ENDBRANCH  17  19
ENDBRANCH   1  16
TORSDOF 3
ENDMDL
MODEL 5
REMARK VINA RESULT: -7.553764746      5.952      7.575
REMARK  3 active torsions:
REMARK  status: ('A' for Active; 'I' for Inactive)
REMARK    1  A    between atoms: C2_2  and  C4_4 
REMARK    2  A    between atoms: C5_5  and  C6_6 
REMARK    3  A    between atoms: C8_8  and  C9_9 
ROOT
HETATM    1  C9  UNL     1      -2.856   0.755  22.674  1.00  0.00     0.166 C 
HETATM    2  O1  UNL     1      -3.851   1.433  23.374  1.00  0.00    -0.309 OA
HETATM    3  C10 UNL     1      -3.311   2.120  24.464  1.00  0.00     0.287 C 
HETATM    4  O2  UNL     1      -4.032   2.493  25.418  1.00  0.00    -0.263 OA
HETATM    5  C11 UNL     1      -1.860   2.292  24.270  1.00  0.00     0.176 C 
HETATM    6  S1  UNL     1      -1.460   4.030  23.930  1.00  0.00    -0.066 SA
HETATM    7  C12 UNL     1      -1.152   1.900  25.509  1.00  0.00     0.165 C 
HETATM    8  O3  UNL     1      -0.901   2.789  26.310  1.00  0.00    -0.295 OA
HETATM    9  C13 UNL     1      -0.718   0.543  25.871  1.00  0.00     0.015 C 
HETATM   10  C14 UNL     1      -1.813  -0.034  26.762  1.00  0.00     0.023 C 
HETATM   11  C15 UNL     1       0.535   0.586  26.727  1.00  0.00     0.023 C 
HETATM   12  C16 UNL     1      -0.570  -0.295  24.660  1.00  0.00     0.017 C 
HETATM   13  C17 UNL     1      -0.487   0.407  23.359  1.00  0.00     0.015 C 
HETATM   14  C18 UNL     1      -1.531   1.421  23.103  1.00  0.00     0.021 C 
HETATM   15  C19 UNL     1      -1.122   2.289  21.943  1.00  0.00     0.021 C 
ENDROOT
BRANCH   1  16
HETATM   16  C8  UNL     1      -3.044   0.805  21.244  1.00  0.00     0.013 C 
HETATM   17  C6  UNL     1      -2.878  -0.106  20.302  1.00  0.00    -0.063 C 
HETATM   18  C7  UNL     1      -2.431  -1.463  20.659  1.00  0.00     0.048 C 
BRANCH  17  19
HETATM   19  C5  UNL     1      -3.151   0.229  18.915  1.00  0.00     0.007 C 
HETATM   20  C4  UNL     1      -4.217   0.936  18.475  1.00  0.00     0.006 C 
BRANCH  20  21
HETATM   21  C2  UNL     1      -4.367   1.197  17.109  1.00  0.00    -0.071 C 
HETATM   22  C1  UNL     1      -4.502   1.431  15.885  1.00  0.00     0.018 C 
HETATM   23  C3  UNL     1      -6.156   0.652  17.120  1.00  0.00     0.047 C 
ENDBRANCH  20  21
ENDBRANCH  17  19
ENDBRANCH   1  16
TORSDOF 3
ENDMDL
