MODEL 1
REMARK VINA RESULT: -8.092695019      0.000      0.000
REMARK  4 active torsions:
REMARK  status: ('A' for Active; 'I' for Inactive)
REMARK    1  A    between atoms: C6_6  and  C7_7 
REMARK    2  A    between atoms: C7_7  and  C8_8 
REMARK    3  A    between atoms: C8_8  and  O2_10 
REMARK    4  A    between atoms: O2_10  and  C9_11 
ROOT
HETATM    1  C8  UNL     1      -2.262  -1.929  22.469  1.00  0.00     0.261 C 
HETATM    2  O1  UNL     1      -3.132  -2.791  22.738  1.00  0.00    -0.265 OA
ENDROOT
BRANCH   1   3
HETATM    3  C7  UNL     1      -1.109  -1.773  23.353  1.00  0.00     0.123 C 
BRANCH   3   4
HETATM    4  C6  UNL     1      -0.789  -0.381  23.776  1.00  0.00     0.064 C 
HETATM    5  C5  UNL     1       0.660  -0.407  24.292  1.00  0.00     0.013 C 
HETATM    6  C4  UNL     1       0.701  -0.112  25.774  1.00  0.00     0.010 C 
HETATM    7  C2  UNL     1       0.300   1.326  25.972  1.00  0.00    -0.041 C 
HETATM    8  C1  UNL     1       0.394   1.746  27.423  1.00  0.00     0.015 C 
HETATM    9  C3  UNL     1       1.260   2.188  25.179  1.00  0.00     0.015 C 
HETATM   10  C19 UNL     1      -1.131   1.455  25.472  1.00  0.00     0.087 C 
HETATM   11  C18 UNL     1      -1.593   0.149  24.884  1.00  0.00     0.132 C 
HETATM   12  O4  UNL     1      -2.583  -0.342  25.380  1.00  0.00    -0.298 OA
ENDBRANCH   3   4
ENDBRANCH   1   3
BRANCH   1  13
HETATM   13  O2  UNL     1      -2.460  -1.170  21.327  1.00  0.00    -0.290 OA
BRANCH  13  14
HETATM   14  C9  UNL     1      -3.682  -0.476  21.081  1.00  0.00     0.270 C 
HETATM   15  C10 UNL     1      -3.732   0.840  21.784  1.00  0.00     0.064 C 
HETATM   16  C11 UNL     1      -3.968   1.842  20.674  1.00  0.00     0.043 C 
HETATM   17  C12 UNL     1      -4.457   0.958  19.543  1.00  0.00     0.064 C 
HETATM   18  C13 UNL     1      -3.996   1.588  18.242  1.00  0.00     0.038 C 
HETATM   19  C17 UNL     1      -5.957   0.992  19.564  1.00  0.00     0.038 C 
HETATM   20  O3  UNL     1      -3.916  -0.287  19.743  1.00  0.00    -0.350 OA
HETATM   21  C14 UNL     1      -4.432   0.611  17.141  1.00  0.00     0.003 C 
HETATM   22  C15 UNL     1      -5.924   0.682  17.072  1.00  0.00     0.000 C 
HETATM   23  C16 UNL     1      -6.594   0.342  18.374  1.00  0.00     0.003 C 
ENDBRANCH  13  14
ENDBRANCH   1  13
TORSDOF 4
ENDMDL
MODEL 2
REMARK VINA RESULT: -7.927873570      1.105      1.597
REMARK  4 active torsions:
REMARK  status: ('A' for Active; 'I' for Inactive)
REMARK    1  A    between atoms: C6_6  and  C7_7 
REMARK    2  A    between atoms: C7_7  and  C8_8 
REMARK    3  A    between atoms: C8_8  and  O2_10 
REMARK    4  A    between atoms: O2_10  and  C9_11 
ROOT
HETATM    1  C8  UNL     1      -1.881  -1.669  22.212  1.00  0.00     0.261 C 
HETATM    2  O1  UNL     1      -2.643  -2.466  22.810  1.00  0.00    -0.265 OA
ENDROOT
BRANCH   1   3
HETATM    3  C7  UNL     1      -0.604  -1.303  22.820  1.00  0.00     0.123 C 
BRANCH   3   4
HETATM    4  C6  UNL     1      -0.643  -0.952  24.267  1.00  0.00     0.064 C 
HETATM    5  C5  UNL     1      -1.550   0.284  24.389  1.00  0.00     0.013 C 
HETATM    6  C4  UNL     1      -0.753   1.485  24.845  1.00  0.00     0.010 C 
HETATM    7  C2  UNL     1      -0.322   1.243  26.268  1.00  0.00    -0.041 C 
HETATM    8  C1  UNL     1       0.413   2.433  26.847  1.00  0.00     0.015 C 
HETATM    9  C3  UNL     1      -1.569   1.023  27.098  1.00  0.00     0.015 C 
HETATM   10  C19 UNL     1       0.580   0.017  26.251  1.00  0.00     0.087 C 
HETATM   11  C18 UNL     1       0.642  -0.559  24.862  1.00  0.00     0.132 C 
HETATM   12  O4  UNL     1       1.742  -0.645  24.366  1.00  0.00    -0.298 OA
ENDBRANCH   3   4
ENDBRANCH   1   3
BRANCH   1  13
HETATM   13  O2  UNL     1      -2.315  -1.182  20.989  1.00  0.00    -0.290 OA
BRANCH  13  14
HETATM   14  C9  UNL     1      -3.585  -0.551  20.831  1.00  0.00     0.270 C 
HETATM   15  C10 UNL     1      -3.677   0.726  21.599  1.00  0.00     0.064 C 
HETATM   16  C11 UNL     1      -4.021   1.762  20.550  1.00  0.00     0.043 C 
HETATM   17  C12 UNL     1      -4.513   0.903  19.401  1.00  0.00     0.064 C 
HETATM   18  C13 UNL     1      -4.150   1.618  18.112  1.00  0.00     0.038 C 
HETATM   19  C17 UNL     1      -6.010   0.847  19.490  1.00  0.00     0.038 C 
HETATM   20  O3  UNL     1      -3.892  -0.315  19.516  1.00  0.00    -0.350 OA
HETATM   21  C14 UNL     1      -4.582   0.668  16.986  1.00  0.00     0.003 C 
HETATM   22  C15 UNL     1      -6.076   0.654  16.987  1.00  0.00     0.000 C 
HETATM   23  C16 UNL     1      -6.664   0.216  18.300  1.00  0.00     0.003 C 
ENDBRANCH  13  14
ENDBRANCH   1  13
TORSDOF 4
ENDMDL
MODEL 3
REMARK VINA RESULT: -7.778542886      2.948      5.763
REMARK  4 active torsions:
REMARK  status: ('A' for Active; 'I' for Inactive)
REMARK    1  A    between atoms: C6_6  and  C7_7 
REMARK    2  A    between atoms: C7_7  and  C8_8 
REMARK    3  A    between atoms: C8_8  and  O2_10 
REMARK    4  A    between atoms: O2_10  and  C9_11 
ROOT
HETATM    1  C8  UNL     1      -3.285   0.662  18.849  1.00  0.00     0.261 C 
HETATM    2  O1  UNL     1      -4.538   0.664  18.790  1.00  0.00    -0.265 OA
ENDROOT
BRANCH   1   3
HETATM    3  C7  UNL     1      -2.549   1.882  18.522  1.00  0.00     0.123 C 
BRANCH   3   4
HETATM    4  C6  UNL     1      -1.713   2.457  19.613  1.00  0.00     0.064 C 
HETATM    5  C5  UNL     1      -2.652   3.328  20.465  1.00  0.00     0.013 C 
HETATM    6  C4  UNL     1      -2.264   4.785  20.362  1.00  0.00     0.010 C 
HETATM    7  C2  UNL     1      -0.932   4.960  21.044  1.00  0.00    -0.041 C 
HETATM    8  C1  UNL     1      -0.495   6.409  21.070  1.00  0.00     0.015 C 
HETATM    9  C3  UNL     1      -1.081   4.497  22.477  1.00  0.00     0.015 C 
HETATM   10  C19 UNL     1       0.071   4.116  20.270  1.00  0.00     0.087 C 
HETATM   11  C18 UNL     1      -0.630   3.350  19.181  1.00  0.00     0.132 C 
HETATM   12  O4  UNL     1      -0.236   3.542  18.052  1.00  0.00    -0.298 OA
ENDBRANCH   3   4
ENDBRANCH   1   3
BRANCH   1  13
HETATM   13  O2  UNL     1      -2.674  -0.521  19.231  1.00  0.00    -0.290 OA
BRANCH  13  14
HETATM   14  C9  UNL     1      -2.846  -1.077  20.534  1.00  0.00     0.270 C 
HETATM   15  C10 UNL     1      -1.723  -1.986  20.909  1.00  0.00     0.064 C 
HETATM   16  C11 UNL     1      -1.186  -1.397  22.196  1.00  0.00     0.043 C 
HETATM   17  C12 UNL     1      -2.323  -0.494  22.634  1.00  0.00     0.064 C 
HETATM   18  C13 UNL     1      -1.711   0.685  23.366  1.00  0.00     0.038 C 
HETATM   19  C17 UNL     1      -3.156  -1.265  23.616  1.00  0.00     0.038 C 
HETATM   20  O3  UNL     1      -2.994  -0.114  21.498  1.00  0.00    -0.350 OA
HETATM   21  C14 UNL     1      -2.889   1.610  23.703  1.00  0.00     0.003 C 
HETATM   22  C15 UNL     1      -3.698   0.911  24.748  1.00  0.00     0.000 C 
HETATM   23  C16 UNL     1      -4.196  -0.438  24.308  1.00  0.00     0.003 C 
ENDBRANCH  13  14
ENDBRANCH   1  13
TORSDOF 4
ENDMDL
MODEL 4
REMARK VINA RESULT: -7.674636191      1.483      2.319
REMARK  4 active torsions:
REMARK  status: ('A' for Active; 'I' for Inactive)
REMARK    1  A    between atoms: C6_6  and  C7_7 
REMARK    2  A    between atoms: C7_7  and  C8_8 
REMARK    3  A    between atoms: C8_8  and  O2_10 
REMARK    4  A    between atoms: O2_10  and  C9_11 
ROOT
HETATM    1  C8  UNL     1      -2.781  -1.820  22.081  1.00  0.00     0.261 C 
HETATM    2  O1  UNL     1      -3.208  -2.894  21.594  1.00  0.00    -0.265 OA
ENDROOT
BRANCH   1   3
HETATM    3  C7  UNL     1      -1.574  -1.834  22.905  1.00  0.00     0.123 C 
BRANCH   3   4
HETATM    4  C6  UNL     1      -1.223  -0.553  23.578  1.00  0.00     0.064 C 
HETATM    5  C5  UNL     1       0.305  -0.562  23.756  1.00  0.00     0.013 C 
HETATM    6  C4  UNL     1       0.668  -0.611  25.222  1.00  0.00     0.010 C 
HETATM    7  C2  UNL     1       0.265   0.700  25.845  1.00  0.00    -0.041 C 
HETATM    8  C1  UNL     1       0.668   0.782  27.302  1.00  0.00     0.015 C 
HETATM    9  C3  UNL     1       0.986   1.805  25.103  1.00  0.00     0.015 C 
HETATM   10  C19 UNL     1      -1.246   0.806  25.704  1.00  0.00     0.087 C 
HETATM   11  C18 UNL     1      -1.777  -0.368  24.926  1.00  0.00     0.132 C 
HETATM   12  O4  UNL     1      -2.608  -1.049  25.483  1.00  0.00    -0.298 OA
ENDBRANCH   3   4
ENDBRANCH   1   3
BRANCH   1  13
HETATM   13  O2  UNL     1      -3.498  -0.670  21.793  1.00  0.00    -0.290 OA
BRANCH  13  14
HETATM   14  C9  UNL     1      -3.562  -0.126  20.476  1.00  0.00     0.270 C 
HETATM   15  C10 UNL     1      -4.908   0.440  20.166  1.00  0.00     0.064 C 
HETATM   16  C11 UNL     1      -4.626   1.879  19.793  1.00  0.00     0.043 C 
HETATM   17  C12 UNL     1      -3.137   1.851  19.509  1.00  0.00     0.064 C 
HETATM   18  C13 UNL     1      -2.575   3.207  19.895  1.00  0.00     0.038 C 
HETATM   19  C17 UNL     1      -2.965   1.686  18.028  1.00  0.00     0.038 C 
HETATM   20  O3  UNL     1      -2.605   0.832  20.258  1.00  0.00    -0.350 OA
HETATM   21  C14 UNL     1      -1.059   3.094  19.679  1.00  0.00     0.003 C 
HETATM   22  C15 UNL     1      -0.841   3.016  18.202  1.00  0.00     0.000 C 
HETATM   23  C16 UNL     1      -1.553   1.857  17.559  1.00  0.00     0.003 C 
ENDBRANCH  13  14
ENDBRANCH   1  13
TORSDOF 4
ENDMDL
MODEL 5
REMARK VINA RESULT: -7.599689758      3.137      5.376
REMARK  4 active torsions:
REMARK  status: ('A' for Active; 'I' for Inactive)
REMARK    1  A    between atoms: C6_6  and  C7_7 
REMARK    2  A    between atoms: C7_7  and  C8_8 
REMARK    3  A    between atoms: C8_8  and  O2_10 
REMARK    4  A    between atoms: O2_10  and  C9_11 
ROOT
HETATM    1  C8  UNL     1      -3.776   1.058  19.188  1.00  0.00     0.261 C 
HETATM    2  O1  UNL     1      -4.930   0.762  18.797  1.00  0.00    -0.265 OA
ENDROOT
BRANCH   1   3
HETATM    3  C7  UNL     1      -2.920   0.017  19.754  1.00  0.00     0.123 C 
BRANCH   3   4
HETATM    4  C6  UNL     1      -3.445  -0.680  20.961  1.00  0.00     0.064 C 
HETATM    5  C5  UNL     1      -3.763   0.417  21.991  1.00  0.00     0.013 C 
HETATM    6  C4  UNL     1      -2.851   0.299  23.190  1.00  0.00     0.010 C 
HETATM    7  C2  UNL     1      -3.211  -0.966  23.925  1.00  0.00    -0.041 C 
HETATM    8  C1  UNL     1      -2.406  -1.131  25.197  1.00  0.00     0.015 C 
HETATM    9  C3  UNL     1      -4.671  -0.878  24.311  1.00  0.00     0.015 C 
HETATM   10  C19 UNL     1      -2.938  -2.120  22.970  1.00  0.00     0.087 C 
HETATM   11  C18 UNL     1      -2.506  -1.591  21.629  1.00  0.00     0.132 C 
HETATM   12  O4  UNL     1      -1.427  -1.963  21.229  1.00  0.00    -0.298 OA
ENDBRANCH   3   4
ENDBRANCH   1   3
BRANCH   1  13
HETATM   13  O2  UNL     1      -3.385   2.380  19.051  1.00  0.00    -0.290 OA
BRANCH  13  14
HETATM   14  C9  UNL     1      -2.609   3.048  20.045  1.00  0.00     0.270 C 
HETATM   15  C10 UNL     1      -1.220   3.330  19.578  1.00  0.00     0.064 C 
HETATM   16  C11 UNL     1      -1.080   4.831  19.725  1.00  0.00     0.043 C 
HETATM   17  C12 UNL     1      -2.227   5.170  20.657  1.00  0.00     0.064 C 
HETATM   18  C13 UNL     1      -2.711   6.562  20.294  1.00  0.00     0.038 C 
HETATM   19  C17 UNL     1      -1.673   5.224  22.050  1.00  0.00     0.038 C 
HETATM   20  O3  UNL     1      -3.193   4.214  20.468  1.00  0.00    -0.350 OA
HETATM   21  C14 UNL     1      -3.926   6.818  21.197  1.00  0.00     0.003 C 
HETATM   22  C15 UNL     1      -3.402   6.965  22.589  1.00  0.00     0.000 C 
HETATM   23  C16 UNL     1      -2.636   5.761  23.064  1.00  0.00     0.003 C 
ENDBRANCH  13  14
ENDBRANCH   1  13
TORSDOF 4
ENDMDL
