MODEL 1
REMARK VINA RESULT: -6.230270155      0.000      0.000
REMARK  9 active torsions:
REMARK  status: ('A' for Active; 'I' for Inactive)
REMARK    1  A    between atoms: C2_2  and  C3_3 
REMARK    2  A    between atoms: C3_3  and  C4_4 
REMARK    3  A    between atoms: C4_4  and  C5_5 
REMARK    4  A    between atoms: C5_5  and  C6_6 
REMARK    5  A    between atoms: C6_6  and  O2_8 
REMARK    6  A    between atoms: O2_8  and  C7_9 
REMARK    7  A    between atoms: C12_14  and  O3_15 
REMARK    8  A    between atoms: C14_18  and  C16_21 
REMARK    9  A    between atoms: C16_21  and  O4_22 
ROOT
HETATM    1  C7  UNL     1     -32.635  -0.994  40.534  1.00  0.00     0.142 C 
HETATM    2  C8  UNL     1     -34.013  -1.302  41.212  1.00  0.00     0.034 C 
HETATM    3  C9  UNL     1     -33.982  -2.786  41.455  1.00  0.00     0.008 C 
HETATM    4  C10 UNL     1     -32.703  -3.223  40.841  1.00  0.00     0.000 C 
HETATM    5  C11 UNL     1     -32.647  -4.636  40.383  1.00  0.00     0.037 C 
HETATM    6  C12 UNL     1     -31.193  -4.860  39.964  1.00  0.00     0.120 C 
HETATM    7  C13 UNL     1     -30.473  -3.590  39.704  1.00  0.00     0.059 C 
HETATM    8  C14 UNL     1     -31.267  -2.503  39.014  1.00  0.00     0.082 C 
HETATM    9  C15 UNL     1     -30.388  -1.330  38.913  1.00  0.00     0.072 C 
HETATM   10  N1  UNL     1     -29.677  -0.400  38.806  1.00  0.00    -0.196 NA
HETATM   11  C17 UNL     1     -32.539  -2.211  39.694  1.00  0.00     0.009 C 
HETATM   12  C18 UNL     1     -33.743  -2.277  38.785  1.00  0.00     0.020 C 
ENDROOT
BRANCH   8  13
HETATM   13  C16 UNL     1     -31.421  -2.992  37.566  1.00  0.00     0.189 C 
BRANCH  13  14
HETATM   14  O4  UNL     1     -30.342  -2.671  36.770  1.00  0.00    -0.399 OA
ATOM     15  H4  UNL     1     -29.558  -2.473  37.269  1.00  0.00     0.209 HD
ENDBRANCH  13  14
ENDBRANCH   8  13
BRANCH   6  16
HETATM   16  O3  UNL     1     -31.067  -5.836  38.983  1.00  0.00    -0.396 OA
ATOM     17  H3  UNL     1     -30.278  -6.354  39.087  1.00  0.00     0.210 HD
ENDBRANCH   6  16
BRANCH   1  18
HETATM   18  O2  UNL     1     -31.760  -1.019  41.674  1.00  0.00    -0.315 OA
BRANCH  18  19
HETATM   19  C6  UNL     1     -31.056   0.045  42.137  1.00  0.00     0.259 C 
HETATM   20  O1  UNL     1     -31.683   1.127  42.355  1.00  0.00    -0.265 OA
BRANCH  19  21
HETATM   21  C5  UNL     1     -29.600   0.062  42.420  1.00  0.00     0.111 C 
BRANCH  21  22
HETATM   22  C4  UNL     1     -29.176  -1.399  42.510  1.00  0.00     0.010 C 
BRANCH  22  23
HETATM   23  C3  UNL     1     -27.757  -1.571  42.952  1.00  0.00     0.000 C 
BRANCH  23  24
HETATM   24  C2  UNL     1     -27.805  -2.187  44.357  1.00  0.00    -0.005 C 
HETATM   25  C1  UNL     1     -27.285  -1.204  45.386  1.00  0.00     0.005 C 
ENDBRANCH  23  24
ENDBRANCH  22  23
ENDBRANCH  21  22
ENDBRANCH  19  21
ENDBRANCH  18  19
ENDBRANCH   1  18
TORSDOF 9
ENDMDL
MODEL 2
REMARK VINA RESULT: -6.128008517      1.450      1.615
REMARK  9 active torsions:
REMARK  status: ('A' for Active; 'I' for Inactive)
REMARK    1  A    between atoms: C2_2  and  C3_3 
REMARK    2  A    between atoms: C3_3  and  C4_4 
REMARK    3  A    between atoms: C4_4  and  C5_5 
REMARK    4  A    between atoms: C5_5  and  C6_6 
REMARK    5  A    between atoms: C6_6  and  O2_8 
REMARK    6  A    between atoms: O2_8  and  C7_9 
REMARK    7  A    between atoms: C12_14  and  O3_15 
REMARK    8  A    between atoms: C14_18  and  C16_21 
REMARK    9  A    between atoms: C16_21  and  O4_22 
ROOT
HETATM    1  C7  UNL     1     -32.403  -2.057  39.971  1.00  0.00     0.142 C 
HETATM    2  C8  UNL     1     -33.430  -2.077  41.153  1.00  0.00     0.034 C 
HETATM    3  C9  UNL     1     -33.298  -3.458  41.735  1.00  0.00     0.008 C 
HETATM    4  C10 UNL     1     -32.331  -4.135  40.835  1.00  0.00     0.000 C 
HETATM    5  C11 UNL     1     -32.434  -5.616  40.760  1.00  0.00     0.037 C 
HETATM    6  C12 UNL     1     -31.236  -6.055  39.918  1.00  0.00     0.120 C 
HETATM    7  C13 UNL     1     -30.675  -4.949  39.104  1.00  0.00     0.059 C 
HETATM    8  C14 UNL     1     -31.678  -3.995  38.495  1.00  0.00     0.082 C 
HETATM    9  C15 UNL     1     -30.910  -2.959  37.791  1.00  0.00     0.072 C 
HETATM   10  N1  UNL     1     -30.298  -2.145  37.205  1.00  0.00    -0.196 NA
HETATM   11  C17 UNL     1     -32.613  -3.444  39.489  1.00  0.00     0.009 C 
HETATM   12  C18 UNL     1     -34.066  -3.622  39.122  1.00  0.00     0.020 C 
ENDROOT
BRANCH   8  13
HETATM   13  C16 UNL     1     -32.351  -4.800  37.373  1.00  0.00     0.189 C 
BRANCH  13  14
HETATM   14  O4  UNL     1     -31.578  -4.891  36.236  1.00  0.00    -0.399 OA
ATOM     15  H4  UNL     1     -30.758  -5.348  36.379  1.00  0.00     0.209 HD
ENDBRANCH  13  14
ENDBRANCH   8  13
BRANCH   6  16
HETATM   16  O3  UNL     1     -31.471  -7.244  39.238  1.00  0.00    -0.396 OA
ATOM     17  H3  UNL     1     -31.274  -8.009  39.765  1.00  0.00     0.210 HD
ENDBRANCH   6  16
BRANCH   1  18
HETATM   18  O2  UNL     1     -31.169  -1.884  40.687  1.00  0.00    -0.315 OA
BRANCH  18  19
HETATM   19  C6  UNL     1     -30.518  -0.703  40.838  1.00  0.00     0.259 C 
HETATM   20  O1  UNL     1     -30.065  -0.131  39.799  1.00  0.00    -0.265 OA
BRANCH  19  21
HETATM   21  C5  UNL     1     -30.285  -0.003  42.125  1.00  0.00     0.111 C 
BRANCH  21  22
HETATM   22  C4  UNL     1     -28.828  -0.266  42.486  1.00  0.00     0.010 C 
BRANCH  22  23
HETATM   23  C3  UNL     1     -28.496  -1.723  42.560  1.00  0.00     0.000 C 
BRANCH  23  24
HETATM   24  C2  UNL     1     -27.133  -1.830  43.258  1.00  0.00    -0.005 C 
HETATM   25  C1  UNL     1     -27.311  -2.171  44.722  1.00  0.00     0.005 C 
ENDBRANCH  23  24
ENDBRANCH  22  23
ENDBRANCH  21  22
ENDBRANCH  19  21
ENDBRANCH  18  19
ENDBRANCH   1  18
TORSDOF 9
ENDMDL
MODEL 3
REMARK VINA RESULT: -6.062614563      1.837      2.767
REMARK  9 active torsions:
REMARK  status: ('A' for Active; 'I' for Inactive)
REMARK    1  A    between atoms: C2_2  and  C3_3 
REMARK    2  A    between atoms: C3_3  and  C4_4 
REMARK    3  A    between atoms: C4_4  and  C5_5 
REMARK    4  A    between atoms: C5_5  and  C6_6 
REMARK    5  A    between atoms: C6_6  and  O2_8 
REMARK    6  A    between atoms: O2_8  and  C7_9 
REMARK    7  A    between atoms: C12_14  and  O3_15 
REMARK    8  A    between atoms: C14_18  and  C16_21 
REMARK    9  A    between atoms: C16_21  and  O4_22 
ROOT
HETATM    1  C7  UNL     1     -32.628  -1.233  40.601  1.00  0.00     0.142 C 
HETATM    2  C8  UNL     1     -32.090  -2.501  41.347  1.00  0.00     0.034 C 
HETATM    3  C9  UNL     1     -31.101  -3.103  40.387  1.00  0.00     0.008 C 
HETATM    4  C10 UNL     1     -31.207  -2.248  39.179  1.00  0.00     0.000 C 
HETATM    5  C11 UNL     1     -30.840  -2.889  37.889  1.00  0.00     0.037 C 
HETATM    6  C12 UNL     1     -30.870  -1.757  36.861  1.00  0.00     0.120 C 
HETATM    7  C13 UNL     1     -31.656  -0.588  37.324  1.00  0.00     0.059 C 
HETATM    8  C14 UNL     1     -32.918  -0.897  38.098  1.00  0.00     0.082 C 
HETATM    9  C15 UNL     1     -33.497   0.391  38.503  1.00  0.00     0.072 C 
HETATM   10  N1  UNL     1     -33.976   1.421  38.805  1.00  0.00    -0.196 NA
HETATM   11  C17 UNL     1     -32.679  -1.803  39.233  1.00  0.00     0.009 C 
HETATM   12  C18 UNL     1     -33.575  -3.018  39.240  1.00  0.00     0.020 C 
ENDROOT
BRANCH   8  13
HETATM   13  C16 UNL     1     -33.897  -1.443  37.048  1.00  0.00     0.189 C 
BRANCH  13  14
HETATM   14  O4  UNL     1     -34.720  -0.472  36.521  1.00  0.00    -0.399 OA
ATOM     15  H4  UNL     1     -35.609  -0.775  36.376  1.00  0.00     0.209 HD
ENDBRANCH  13  14
ENDBRANCH   8  13
BRANCH   6  16
HETATM   16  O3  UNL     1     -31.162  -2.210  35.581  1.00  0.00    -0.396 OA
ATOM     17  H3  UNL     1     -31.110  -1.520  34.930  1.00  0.00     0.210 HD
ENDBRANCH   6  16
BRANCH   1  18
HETATM   18  O2  UNL     1     -31.537  -0.319  40.796  1.00  0.00    -0.315 OA
BRANCH  18  19
HETATM   19  C6  UNL     1     -31.308   0.386  41.932  1.00  0.00     0.259 C 
HETATM   20  O1  UNL     1     -32.229   1.150  42.358  1.00  0.00    -0.265 OA
BRANCH  19  21
HETATM   21  C5  UNL     1     -30.064   0.347  42.740  1.00  0.00     0.111 C 
BRANCH  21  22
HETATM   22  C4  UNL     1     -29.032  -0.374  41.881  1.00  0.00     0.010 C 
BRANCH  22  23
HETATM   23  C3  UNL     1     -28.592  -1.679  42.464  1.00  0.00     0.000 C 
BRANCH  23  24
HETATM   24  C2  UNL     1     -28.296  -1.422  43.948  1.00  0.00    -0.005 C 
HETATM   25  C1  UNL     1     -27.221  -2.364  44.446  1.00  0.00     0.005 C 
ENDBRANCH  23  24
ENDBRANCH  22  23
ENDBRANCH  21  22
ENDBRANCH  19  21
ENDBRANCH  18  19
ENDBRANCH   1  18
TORSDOF 9
ENDMDL
MODEL 4
REMARK VINA RESULT: -5.768820155      2.151      3.052
REMARK  9 active torsions:
REMARK  status: ('A' for Active; 'I' for Inactive)
REMARK    1  A    between atoms: C2_2  and  C3_3 
REMARK    2  A    between atoms: C3_3  and  C4_4 
REMARK    3  A    between atoms: C4_4  and  C5_5 
REMARK    4  A    between atoms: C5_5  and  C6_6 
REMARK    5  A    between atoms: C6_6  and  O2_8 
REMARK    6  A    between atoms: O2_8  and  C7_9 
REMARK    7  A    between atoms: C12_14  and  O3_15 
REMARK    8  A    between atoms: C14_18  and  C16_21 
REMARK    9  A    between atoms: C16_21  and  O4_22 
ROOT
HETATM    1  C7  UNL     1     -32.543  -2.598  40.510  1.00  0.00     0.142 C 
HETATM    2  C8  UNL     1     -33.724  -2.776  41.523  1.00  0.00     0.034 C 
HETATM    3  C9  UNL     1     -33.652  -4.224  41.925  1.00  0.00     0.008 C 
HETATM    4  C10 UNL     1     -32.560  -4.775  41.085  1.00  0.00     0.000 C 
HETATM    5  C11 UNL     1     -32.628  -6.232  40.796  1.00  0.00     0.037 C 
HETATM    6  C12 UNL     1     -31.317  -6.556  40.079  1.00  0.00     0.120 C 
HETATM    7  C13 UNL     1     -30.666  -5.351  39.510  1.00  0.00     0.059 C 
HETATM    8  C14 UNL     1     -31.589  -4.319  38.901  1.00  0.00     0.082 C 
HETATM    9  C15 UNL     1     -30.747  -3.199  38.460  1.00  0.00     0.072 C 
HETATM   10  N1  UNL     1     -30.072  -2.315  38.081  1.00  0.00    -0.196 NA
HETATM   11  C17 UNL     1     -32.661  -3.905  39.820  1.00  0.00     0.009 C 
HETATM   12  C18 UNL     1     -34.047  -4.026  39.233  1.00  0.00     0.020 C 
ENDROOT
BRANCH   8  13
HETATM   13  C16 UNL     1     -32.087  -4.961  37.597  1.00  0.00     0.189 C 
BRANCH  13  14
HETATM   14  O4  UNL     1     -31.150  -4.926  36.587  1.00  0.00    -0.399 OA
ATOM     15  H4  UNL     1     -30.800  -4.056  36.433  1.00  0.00     0.209 HD
ENDBRANCH  13  14
ENDBRANCH   8  13
BRANCH   6  16
HETATM   16  O3  UNL     1     -31.437  -7.639  39.217  1.00  0.00    -0.396 OA
ATOM     17  H3  UNL     1     -31.152  -8.453  39.616  1.00  0.00     0.210 HD
ENDBRANCH   6  16
BRANCH   1  18
HETATM   18  O2  UNL     1     -31.423  -2.529  41.409  1.00  0.00    -0.315 OA
BRANCH  18  19
HETATM   19  C6  UNL     1     -30.612  -1.451  41.558  1.00  0.00     0.259 C 
HETATM   20  O1  UNL     1     -29.550  -1.591  42.239  1.00  0.00    -0.265 OA
BRANCH  19  21
HETATM   21  C5  UNL     1     -30.852  -0.103  40.988  1.00  0.00     0.111 C 
BRANCH  21  22
HETATM   22  C4  UNL     1     -31.626   0.668  42.050  1.00  0.00     0.010 C 
BRANCH  22  23
HETATM   23  C3  UNL     1     -33.065   0.870  41.696  1.00  0.00     0.000 C 
BRANCH  23  24
HETATM   24  C2  UNL     1     -33.706   1.628  42.867  1.00  0.00    -0.005 C 
HETATM   25  C1  UNL     1     -32.669   2.462  43.591  1.00  0.00     0.005 C 
ENDBRANCH  23  24
ENDBRANCH  22  23
ENDBRANCH  21  22
ENDBRANCH  19  21
ENDBRANCH  18  19
ENDBRANCH   1  18
TORSDOF 9
ENDMDL
MODEL 5
REMARK VINA RESULT: -5.756421499      1.274      1.702
REMARK  9 active torsions:
REMARK  status: ('A' for Active; 'I' for Inactive)
REMARK    1  A    between atoms: C2_2  and  C3_3 
REMARK    2  A    between atoms: C3_3  and  C4_4 
REMARK    3  A    between atoms: C4_4  and  C5_5 
REMARK    4  A    between atoms: C5_5  and  C6_6 
REMARK    5  A    between atoms: C6_6  and  O2_8 
REMARK    6  A    between atoms: O2_8  and  C7_9 
REMARK    7  A    between atoms: C12_14  and  O3_15 
REMARK    8  A    between atoms: C14_18  and  C16_21 
REMARK    9  A    between atoms: C16_21  and  O4_22 
ROOT
HETATM    1  C7  UNL     1     -32.021  -0.189  40.498  1.00  0.00     0.142 C 
HETATM    2  C8  UNL     1     -33.210   0.711  40.976  1.00  0.00     0.034 C 
HETATM    3  C9  UNL     1     -34.244  -0.268  41.461  1.00  0.00     0.008 C 
HETATM    4  C10 UNL     1     -33.654  -1.595  41.150  1.00  0.00     0.000 C 
HETATM    5  C11 UNL     1     -34.618  -2.708  40.946  1.00  0.00     0.037 C 
HETATM    6  C12 UNL     1     -33.754  -3.963  40.819  1.00  0.00     0.120 C 
HETATM    7  C13 UNL     1     -32.344  -3.652  40.479  1.00  0.00     0.059 C 
HETATM    8  C14 UNL     1     -32.128  -2.522  39.497  1.00  0.00     0.082 C 
HETATM    9  C15 UNL     1     -30.677  -2.351  39.354  1.00  0.00     0.072 C 
HETATM   10  N1  UNL     1     -29.516  -2.231  39.217  1.00  0.00    -0.196 NA
HETATM   11  C17 UNL     1     -32.817  -1.285  39.896  1.00  0.00     0.009 C 
HETATM   12  C18 UNL     1     -33.709  -0.711  38.822  1.00  0.00     0.020 C 
ENDROOT
BRANCH   8  13
HETATM   13  C16 UNL     1     -32.582  -3.090  38.143  1.00  0.00     0.189 C 
BRANCH  13  14
HETATM   14  O4  UNL     1     -31.541  -3.593  37.393  1.00  0.00    -0.399 OA
ATOM     15  H4  UNL     1     -30.907  -4.073  37.912  1.00  0.00     0.209 HD
ENDBRANCH  13  14
ENDBRANCH   8  13
BRANCH   6  16
HETATM   16  O3  UNL     1     -34.357  -4.947  40.047  1.00  0.00    -0.396 OA
ATOM     17  H3  UNL     1     -33.823  -5.730  39.975  1.00  0.00     0.210 HD
ENDBRANCH   6  16
BRANCH   1  18
HETATM   18  O2  UNL     1     -31.425  -0.543  41.757  1.00  0.00    -0.315 OA
BRANCH  18  19
HETATM   19  C6  UNL     1     -30.361   0.086  42.318  1.00  0.00     0.259 C 
HETATM   20  O1  UNL     1     -30.587   1.038  43.127  1.00  0.00    -0.265 OA
BRANCH  19  21
HETATM   21  C5  UNL     1     -28.935  -0.241  42.073  1.00  0.00     0.111 C 
BRANCH  21  22
HETATM   22  C4  UNL     1     -28.705  -1.605  42.711  1.00  0.00     0.010 C 
BRANCH  22  23
HETATM   23  C3  UNL     1     -27.291  -1.816  43.151  1.00  0.00     0.000 C 
BRANCH  23  24
HETATM   24  C2  UNL     1     -27.348  -2.279  44.614  1.00  0.00    -0.005 C 
HETATM   25  C1  UNL     1     -27.266  -1.092  45.550  1.00  0.00     0.005 C 
ENDBRANCH  23  24
ENDBRANCH  22  23
ENDBRANCH  21  22
ENDBRANCH  19  21
ENDBRANCH  18  19
ENDBRANCH   1  18
TORSDOF 9
ENDMDL
