MODEL 1
REMARK VINA RESULT: -7.030245033      0.000      0.000
REMARK  7 active torsions:
REMARK  status: ('A' for Active; 'I' for Inactive)
REMARK    1  A    between atoms: C2_2  and  C3_3 
REMARK    2  A    between atoms: C3_3  and  C4_4 
REMARK    3  A    between atoms: C4_4  and  C5_5 
REMARK    4  A    between atoms: C4_4  and  N3_18 
REMARK    5  A    between atoms: C5_5  and  S1_6 
REMARK    6  A    between atoms: S1_6  and  C6_7 
REMARK    7  A    between atoms: N3_18  and  C12_20 
ROOT
HETATM    1  C6  UNL     1     -30.781  -2.934  38.329  1.00  0.00     0.013 A 
HETATM    2  C7  UNL     1     -31.142  -4.188  38.050  1.00  0.00     0.125 A 
HETATM    3  C8  UNL     1     -31.042  -5.240  39.034  1.00  0.00     0.106 C 
HETATM    4  N1  UNL     1     -30.973  -6.097  39.815  1.00  0.00    -0.191 NA
HETATM    5  C9  UNL     1     -31.672  -4.550  36.745  1.00  0.00     0.269 A 
HETATM    6  O1  UNL     1     -32.014  -5.749  36.479  1.00  0.00    -0.266 OA
HETATM    7  N2  UNL     1     -31.784  -3.506  35.800  1.00  0.00    -0.292 N 
ATOM      8  H2  UNL     1     -32.151  -3.720  34.873  1.00  0.00     0.172 HD
HETATM    9  C10 UNL     1     -31.407  -2.182  36.092  1.00  0.00     0.229 A 
HETATM   10  O2  UNL     1     -31.578  -1.299  35.172  1.00  0.00    -0.273 OA
HETATM   11  C11 UNL     1     -30.838  -1.808  37.394  1.00  0.00     0.150 A 
ENDROOT
BRANCH   1  12
HETATM   12  S1  UNL     1     -30.177  -2.673  39.996  1.00  0.00    -0.130 SA
BRANCH  12  13
HETATM   13  C5  UNL     1     -29.870  -0.901  40.216  1.00  0.00     0.103 C 
BRANCH  13  14
HETATM   14  C4  UNL     1     -29.743  -0.648  41.704  1.00  0.00     0.086 C 
BRANCH  14  15
HETATM   15  C3  UNL     1     -30.810   0.372  42.051  1.00  0.00     0.025 C 
BRANCH  15  16
HETATM   16  C2  UNL     1     -32.009   0.293  41.162  1.00  0.00    -0.002 C 
HETATM   17  C1  UNL     1     -33.238   0.904  41.815  1.00  0.00     0.005 C 
ENDBRANCH  15  16
ENDBRANCH  14  15
BRANCH  14  18
HETATM   18  N3  UNL     1     -28.502  -0.144  42.134  1.00  0.00    -0.412 N 
ATOM     19  H3  UNL     1     -28.044   0.590  41.594  1.00  0.00     0.154 HD
BRANCH  18  20
HETATM   20  C12 UNL     1     -27.887  -0.631  43.285  1.00  0.00     0.077 C 
HETATM   21  C13 UNL     1     -28.030  -2.075  43.626  1.00  0.00     0.024 C 
HETATM   22  C14 UNL     1     -27.112  -2.128  44.865  1.00  0.00     0.002 C 
HETATM   23  C15 UNL     1     -27.399  -0.792  45.564  1.00  0.00     0.002 C 
HETATM   24  C16 UNL     1     -28.255   0.015  44.601  1.00  0.00     0.024 C 
ENDBRANCH  18  20
ENDBRANCH  14  18
ENDBRANCH  13  14
ENDBRANCH  12  13
ENDBRANCH   1  12
TORSDOF 7
ENDMDL
MODEL 2
REMARK VINA RESULT: -7.018464255      3.154      4.244
REMARK  7 active torsions:
REMARK  status: ('A' for Active; 'I' for Inactive)
REMARK    1  A    between atoms: C2_2  and  C3_3 
REMARK    2  A    between atoms: C3_3  and  C4_4 
REMARK    3  A    between atoms: C4_4  and  C5_5 
REMARK    4  A    between atoms: C4_4  and  N3_18 
REMARK    5  A    between atoms: C5_5  and  S1_6 
REMARK    6  A    between atoms: S1_6  and  C6_7 
REMARK    7  A    between atoms: N3_18  and  C12_20 
ROOT
HETATM    1  C6  UNL     1     -31.995  -5.273  40.281  1.00  0.00     0.013 A 
HETATM    2  C7  UNL     1     -32.862  -5.387  41.289  1.00  0.00     0.125 A 
HETATM    3  C8  UNL     1     -33.712  -4.287  41.682  1.00  0.00     0.106 C 
HETATM    4  N1  UNL     1     -34.407  -3.416  42.008  1.00  0.00    -0.191 NA
HETATM    5  C9  UNL     1     -33.003  -6.630  42.029  1.00  0.00     0.269 A 
HETATM    6  O1  UNL     1     -33.829  -6.736  42.994  1.00  0.00    -0.266 OA
HETATM    7  N2  UNL     1     -32.179  -7.703  41.619  1.00  0.00    -0.292 N 
ATOM      8  H2  UNL     1     -32.248  -8.592  42.114  1.00  0.00     0.172 HD
HETATM    9  C10 UNL     1     -31.267  -7.588  40.555  1.00  0.00     0.229 A 
HETATM   10  O2  UNL     1     -30.585  -8.632  40.240  1.00  0.00    -0.273 OA
HETATM   11  C11 UNL     1     -31.089  -6.327  39.820  1.00  0.00     0.150 A 
ENDROOT
BRANCH   1  12
HETATM   12  S1  UNL     1     -31.981  -3.675  39.471  1.00  0.00    -0.130 SA
BRANCH  12  13
HETATM   13  C5  UNL     1     -30.343  -2.936  39.704  1.00  0.00     0.103 C 
BRANCH  13  14
HETATM   14  C4  UNL     1     -30.313  -2.338  41.096  1.00  0.00     0.086 C 
BRANCH  14  15
HETATM   15  C3  UNL     1     -31.510  -1.412  41.183  1.00  0.00     0.025 C 
BRANCH  15  16
HETATM   16  C2  UNL     1     -31.145   0.032  41.053  1.00  0.00    -0.002 C 
HETATM   17  C1  UNL     1     -31.733   0.867  42.179  1.00  0.00     0.005 C 
ENDBRANCH  15  16
ENDBRANCH  14  15
BRANCH  14  18
HETATM   18  N3  UNL     1     -29.162  -1.595  41.416  1.00  0.00    -0.412 N 
ATOM     19  H3  UNL     1     -28.710  -1.035  40.694  1.00  0.00     0.154 HD
BRANCH  18  20
HETATM   20  C12 UNL     1     -28.630  -1.612  42.702  1.00  0.00     0.077 C 
HETATM   21  C13 UNL     1     -28.273  -0.320  43.355  1.00  0.00     0.024 C 
HETATM   22  C14 UNL     1     -27.857  -0.850  44.742  1.00  0.00     0.002 C 
HETATM   23  C15 UNL     1     -27.127  -2.158  44.406  1.00  0.00     0.002 C 
HETATM   24  C16 UNL     1     -27.363  -2.407  42.925  1.00  0.00     0.024 C 
ENDBRANCH  18  20
ENDBRANCH  14  18
ENDBRANCH  13  14
ENDBRANCH  12  13
ENDBRANCH   1  12
TORSDOF 7
ENDMDL
MODEL 3
REMARK VINA RESULT: -6.957073158      1.396      2.937
REMARK  7 active torsions:
REMARK  status: ('A' for Active; 'I' for Inactive)
REMARK    1  A    between atoms: C2_2  and  C3_3 
REMARK    2  A    between atoms: C3_3  and  C4_4 
REMARK    3  A    between atoms: C4_4  and  C5_5 
REMARK    4  A    between atoms: C4_4  and  N3_18 
REMARK    5  A    between atoms: C5_5  and  S1_6 
REMARK    6  A    between atoms: S1_6  and  C6_7 
REMARK    7  A    between atoms: N3_18  and  C12_20 
ROOT
HETATM    1  C6  UNL     1     -31.405  -4.461  39.420  1.00  0.00     0.013 A 
HETATM    2  C7  UNL     1     -31.329  -4.442  38.088  1.00  0.00     0.125 A 
HETATM    3  C8  UNL     1     -31.250  -3.201  37.353  1.00  0.00     0.106 C 
HETATM    4  N1  UNL     1     -31.180  -2.213  36.747  1.00  0.00    -0.191 NA
HETATM    5  C9  UNL     1     -31.304  -5.672  37.313  1.00  0.00     0.269 A 
HETATM    6  O1  UNL     1     -31.234  -5.652  36.040  1.00  0.00    -0.266 OA
HETATM    7  N2  UNL     1     -31.361  -6.879  38.047  1.00  0.00    -0.292 N 
ATOM      8  H2  UNL     1     -31.346  -7.763  37.540  1.00  0.00     0.172 HD
HETATM    9  C10 UNL     1     -31.438  -6.903  39.452  1.00  0.00     0.229 A 
HETATM   10  O2  UNL     1     -31.454  -8.053  40.027  1.00  0.00    -0.273 OA
HETATM   11  C11 UNL     1     -31.499  -5.667  40.245  1.00  0.00     0.150 A 
ENDROOT
BRANCH   1  12
HETATM   12  S1  UNL     1     -31.396  -2.849  40.202  1.00  0.00    -0.130 SA
BRANCH  12  13
HETATM   13  C5  UNL     1     -29.679  -2.413  40.579  1.00  0.00     0.103 C 
BRANCH  13  14
HETATM   14  C4  UNL     1     -29.713  -1.264  41.567  1.00  0.00     0.086 C 
BRANCH  14  15
HETATM   15  C3  UNL     1     -30.582  -0.192  40.937  1.00  0.00     0.025 C 
BRANCH  15  16
HETATM   16  C2  UNL     1     -31.421   0.543  41.933  1.00  0.00    -0.002 C 
HETATM   17  C1  UNL     1     -32.880   0.600  41.509  1.00  0.00     0.005 C 
ENDBRANCH  15  16
ENDBRANCH  14  15
BRANCH  14  18
HETATM   18  N3  UNL     1     -28.468  -0.689  41.878  1.00  0.00    -0.412 N 
ATOM     19  H3  UNL     1     -27.939  -0.212  41.147  1.00  0.00     0.154 HD
BRANCH  18  20
HETATM   20  C12 UNL     1     -27.944  -0.759  43.166  1.00  0.00     0.077 C 
HETATM   21  C13 UNL     1     -27.976  -2.061  43.891  1.00  0.00     0.024 C 
HETATM   22  C14 UNL     1     -27.208  -1.653  45.165  1.00  0.00     0.002 C 
HETATM   23  C15 UNL     1     -27.711  -0.228  45.430  1.00  0.00     0.002 C 
HETATM   24  C16 UNL     1     -28.528   0.167  44.209  1.00  0.00     0.024 C 
ENDBRANCH  18  20
ENDBRANCH  14  18
ENDBRANCH  13  14
ENDBRANCH  12  13
ENDBRANCH   1  12
TORSDOF 7
ENDMDL
MODEL 4
REMARK VINA RESULT: -6.952066713      1.328      2.489
REMARK  7 active torsions:
REMARK  status: ('A' for Active; 'I' for Inactive)
REMARK    1  A    between atoms: C2_2  and  C3_3 
REMARK    2  A    between atoms: C3_3  and  C4_4 
REMARK    3  A    between atoms: C4_4  and  C5_5 
REMARK    4  A    between atoms: C4_4  and  N3_18 
REMARK    5  A    between atoms: C5_5  and  S1_6 
REMARK    6  A    between atoms: S1_6  and  C6_7 
REMARK    7  A    between atoms: N3_18  and  C12_20 
ROOT
HETATM    1  C6  UNL     1     -31.487  -3.499  38.575  1.00  0.00     0.013 A 
HETATM    2  C7  UNL     1     -32.001  -2.704  37.634  1.00  0.00     0.125 A 
HETATM    3  C8  UNL     1     -32.466  -1.371  37.942  1.00  0.00     0.106 C 
HETATM    4  N1  UNL     1     -32.839  -0.296  38.170  1.00  0.00    -0.191 NA
HETATM    5  C9  UNL     1     -32.103  -3.137  36.250  1.00  0.00     0.269 A 
HETATM    6  O1  UNL     1     -32.598  -2.378  35.353  1.00  0.00    -0.266 OA
HETATM    7  N2  UNL     1     -31.625  -4.436  35.961  1.00  0.00    -0.292 N 
ATOM      8  H2  UNL     1     -31.679  -4.776  35.001  1.00  0.00     0.172 HD
HETATM    9  C10 UNL     1     -31.079  -5.274  36.949  1.00  0.00     0.229 A 
HETATM   10  O2  UNL     1     -30.643  -6.426  36.577  1.00  0.00    -0.273 OA
HETATM   11  C11 UNL     1     -31.002  -4.863  38.358  1.00  0.00     0.150 A 
ENDROOT
BRANCH   1  12
HETATM   12  S1  UNL     1     -31.419  -2.783  40.216  1.00  0.00    -0.130 SA
BRANCH  12  13
HETATM   13  C5  UNL     1     -29.703  -2.313  40.558  1.00  0.00     0.103 C 
BRANCH  13  14
HETATM   14  C4  UNL     1     -29.737  -1.199  41.585  1.00  0.00     0.086 C 
BRANCH  14  15
HETATM   15  C3  UNL     1     -30.624  -0.115  41.003  1.00  0.00     0.025 C 
BRANCH  15  16
HETATM   16  C2  UNL     1     -31.433   0.599  42.037  1.00  0.00    -0.002 C 
HETATM   17  C1  UNL     1     -32.896   0.702  41.637  1.00  0.00     0.005 C 
ENDBRANCH  15  16
ENDBRANCH  14  15
BRANCH  14  18
HETATM   18  N3  UNL     1     -28.494  -0.622  41.902  1.00  0.00    -0.412 N 
ATOM     19  H3  UNL     1     -27.976  -0.119  41.181  1.00  0.00     0.154 HD
BRANCH  18  20
HETATM   20  C12 UNL     1     -27.958  -0.726  43.183  1.00  0.00     0.077 C 
HETATM   21  C13 UNL     1     -27.987  -2.046  43.875  1.00  0.00     0.024 C 
HETATM   22  C14 UNL     1     -27.205  -1.673  45.151  1.00  0.00     0.002 C 
HETATM   23  C15 UNL     1     -27.701  -0.254  45.456  1.00  0.00     0.002 C 
HETATM   24  C16 UNL     1     -28.529   0.175  44.255  1.00  0.00     0.024 C 
ENDBRANCH  18  20
ENDBRANCH  14  18
ENDBRANCH  13  14
ENDBRANCH  12  13
ENDBRANCH   1  12
TORSDOF 7
ENDMDL
MODEL 5
REMARK VINA RESULT: -6.857824318      3.810      5.976
REMARK  7 active torsions:
REMARK  status: ('A' for Active; 'I' for Inactive)
REMARK    1  A    between atoms: C2_2  and  C3_3 
REMARK    2  A    between atoms: C3_3  and  C4_4 
REMARK    3  A    between atoms: C4_4  and  C5_5 
REMARK    4  A    between atoms: C4_4  and  N3_18 
REMARK    5  A    between atoms: C5_5  and  S1_6 
REMARK    6  A    between atoms: S1_6  and  C6_7 
REMARK    7  A    between atoms: N3_18  and  C12_20 
ROOT
HETATM    1  C6  UNL     1     -32.950   0.858  41.891  1.00  0.00     0.013 A 
HETATM    2  C7  UNL     1     -34.220   0.497  41.698  1.00  0.00     0.125 A 
HETATM    3  C8  UNL     1     -34.595  -0.418  40.645  1.00  0.00     0.106 C 
HETATM    4  N1  UNL     1     -34.912  -1.157  39.807  1.00  0.00    -0.191 NA
HETATM    5  C9  UNL     1     -35.287   0.996  42.551  1.00  0.00     0.269 A 
HETATM    6  O1  UNL     1     -36.500   0.654  42.363  1.00  0.00    -0.266 OA
HETATM    7  N2  UNL     1     -34.902   1.875  43.589  1.00  0.00    -0.292 N 
ATOM      8  H2  UNL     1     -35.621   2.247  44.209  1.00  0.00     0.172 HD
HETATM    9  C10 UNL     1     -33.564   2.254  43.798  1.00  0.00     0.229 A 
HETATM   10  O2  UNL     1     -33.314   3.034  44.790  1.00  0.00    -0.273 OA
HETATM   11  C11 UNL     1     -32.480   1.785  42.922  1.00  0.00     0.150 A 
ENDROOT
BRANCH   1  12
HETATM   12  S1  UNL     1     -31.773   0.120  40.758  1.00  0.00    -0.130 SA
BRANCH  12  13
HETATM   13  C5  UNL     1     -31.015  -1.305  41.579  1.00  0.00     0.103 C 
BRANCH  13  14
HETATM   14  C4  UNL     1     -29.691  -1.569  40.891  1.00  0.00     0.086 C 
BRANCH  14  15
HETATM   15  C3  UNL     1     -29.980  -2.568  39.788  1.00  0.00     0.025 C 
BRANCH  15  16
HETATM   16  C2  UNL     1     -31.021  -3.574  40.165  1.00  0.00    -0.002 C 
HETATM   17  C1  UNL     1     -30.783  -4.914  39.489  1.00  0.00     0.005 C 
ENDBRANCH  15  16
ENDBRANCH  14  15
BRANCH  14  18
HETATM   18  N3  UNL     1     -28.674  -2.100  41.705  1.00  0.00    -0.412 N 
ATOM     19  H3  UNL     1     -28.072  -2.838  41.338  1.00  0.00     0.154 HD
BRANCH  18  20
HETATM   20  C12 UNL     1     -28.476  -1.638  43.003  1.00  0.00     0.077 C 
HETATM   21  C13 UNL     1     -28.233  -0.184  43.224  1.00  0.00     0.024 C 
HETATM   22  C14 UNL     1     -28.194  -0.171  44.766  1.00  0.00     0.002 C 
HETATM   23  C15 UNL     1     -27.463  -1.478  45.103  1.00  0.00     0.002 C 
HETATM   24  C16 UNL     1     -27.339  -2.244  43.795  1.00  0.00     0.024 C 
ENDBRANCH  18  20
ENDBRANCH  14  18
ENDBRANCH  13  14
ENDBRANCH  12  13
ENDBRANCH   1  12
TORSDOF 7
ENDMDL
