MODEL 1
REMARK VINA RESULT: -5.910268018      0.000      0.000
REMARK  10 active torsions:
REMARK  status: ('A' for Active; 'I' for Inactive)
REMARK    1  A    between atoms: C3_3  and  C5_5 
REMARK    2  A    between atoms: C5_5  and  C6_6 
REMARK    3  A    between atoms: C6_6  and  N1_7 
REMARK    4  A    between atoms: N1_7  and  N2_8 
REMARK    5  A    between atoms: N1_7  and  C7_12 
REMARK    6  A    between atoms: N2_8  and  O1_10 
REMARK    7  A    between atoms: C8_13  and  O2_14 
REMARK    8  A    between atoms: N3_20  and  C13_21 
REMARK    9  A    between atoms: C13_21  and  C14_22 
REMARK   10  A    between atoms: C14_22  and  O3_25 
ROOT
HETATM    1  C7  UNL     1     -32.419  -0.684  40.393  1.00  0.00     0.370 C 
HETATM    2  C8  UNL     1     -33.525  -0.033  41.118  1.00  0.00     0.182 C 
HETATM    3  C9  UNL     1     -34.699  -1.033  40.879  1.00  0.00     0.009 C 
HETATM    4  C10 UNL     1     -35.314  -0.822  39.538  1.00  0.00     0.019 C 
HETATM    5  C11 UNL     1     -35.697  -0.967  41.983  1.00  0.00     0.019 C 
HETATM    6  C12 UNL     1     -33.924  -2.334  41.002  1.00  0.00     0.286 C 
HETATM    7  N3  UNL     1     -32.678  -2.108  40.354  1.00  0.00     0.119 N 
ENDROOT
BRANCH   1   8
HETATM    8  N1  UNL     1     -31.065  -0.332  40.676  1.00  0.00    -0.273 N 
BRANCH   8   9
HETATM    9  C6  UNL     1     -30.451  -0.025  41.918  1.00  0.00     0.151 C 
BRANCH   9  10
HETATM   10  C5  UNL     1     -28.999  -0.282  41.975  1.00  0.00     0.055 C 
BRANCH  10  11
HETATM   11  C3  UNL     1     -28.442  -0.576  43.318  1.00  0.00    -0.086 C 
HETATM   12  C2  UNL     1     -27.883  -1.766  43.490  1.00  0.00    -0.029 C 
HETATM   13  C1  UNL     1     -27.323  -2.135  44.804  1.00  0.00     0.036 C 
HETATM   14  C4  UNL     1     -28.460   0.313  44.492  1.00  0.00     0.043 C 
ENDBRANCH  10  11
ENDBRANCH   9  10
ENDBRANCH   8   9
BRANCH   8  15
HETATM   15  N2  UNL     1     -30.183  -0.319  39.536  1.00  0.00    -0.210 N 
ATOM     16  H2  UNL     1     -29.171  -0.377  39.647  1.00  0.00     0.215 HD
BRANCH  15  17
HETATM   17  O1  UNL     1     -30.708  -0.233  38.415  1.00  0.00    -0.275 OA
ATOM     18  H1  UNL     1     -30.364   0.427  37.825  1.00  0.00     0.246 HD
ENDBRANCH  15  17
ENDBRANCH   8  15
ENDBRANCH   1   8
BRANCH   2  19
HETATM   19  O2  UNL     1     -33.952   1.194  40.648  1.00  0.00    -0.391 OA
ATOM     20  H2  UNL     1     -34.014   1.903  41.279  1.00  0.00     0.210 HD
ENDBRANCH   2  19
BRANCH   7  21
HETATM   21  C13 UNL     1     -31.604  -2.963  40.653  1.00  0.00     0.312 C 
BRANCH  21  22
HETATM   22  C14 UNL     1     -31.103  -3.693  39.426  1.00  0.00     0.077 C 
HETATM   23  C15 UNL     1     -32.250  -3.633  38.409  1.00  0.00     0.047 C 
HETATM   24  C16 UNL     1     -30.835  -5.148  39.693  1.00  0.00     0.047 C 
BRANCH  22  25
HETATM   25  O3  UNL     1     -30.006  -3.125  38.833  1.00  0.00    -0.389 OA
ATOM     26  H3  UNL     1     -29.265  -3.710  38.728  1.00  0.00     0.210 HD
ENDBRANCH  22  25
ENDBRANCH  21  22
ENDBRANCH   7  21
TORSDOF 10
ENDMDL
MODEL 2
REMARK VINA RESULT: -5.831474612      0.970      1.067
REMARK  10 active torsions:
REMARK  status: ('A' for Active; 'I' for Inactive)
REMARK    1  A    between atoms: C3_3  and  C5_5 
REMARK    2  A    between atoms: C5_5  and  C6_6 
REMARK    3  A    between atoms: C6_6  and  N1_7 
REMARK    4  A    between atoms: N1_7  and  N2_8 
REMARK    5  A    between atoms: N1_7  and  C7_12 
REMARK    6  A    between atoms: N2_8  and  O1_10 
REMARK    7  A    between atoms: C8_13  and  O2_14 
REMARK    8  A    between atoms: N3_20  and  C13_21 
REMARK    9  A    between atoms: C13_21  and  C14_22 
REMARK   10  A    between atoms: C14_22  and  O3_25 
ROOT
HETATM    1  C7  UNL     1     -32.187  -1.171  39.963  1.00  0.00     0.370 C 
HETATM    2  C8  UNL     1     -33.132  -0.785  41.026  1.00  0.00     0.182 C 
HETATM    3  C9  UNL     1     -34.432  -1.525  40.585  1.00  0.00     0.009 C 
HETATM    4  C10 UNL     1     -35.148  -0.760  39.525  1.00  0.00     0.019 C 
HETATM    5  C11 UNL     1     -35.302  -1.831  41.755  1.00  0.00     0.019 C 
HETATM    6  C12 UNL     1     -33.807  -2.819  40.093  1.00  0.00     0.286 C 
HETATM    7  N3  UNL     1     -32.613  -2.443  39.417  1.00  0.00     0.119 N 
ENDROOT
BRANCH   1   8
HETATM    8  N1  UNL     1     -30.780  -1.055  40.171  1.00  0.00    -0.273 N 
BRANCH   8   9
HETATM    9  C6  UNL     1     -30.004  -1.379  41.315  1.00  0.00     0.151 C 
BRANCH   9  10
HETATM   10  C5  UNL     1     -29.461  -0.220  42.048  1.00  0.00     0.055 C 
BRANCH  10  11
HETATM   11  C3  UNL     1     -28.709  -0.529  43.289  1.00  0.00    -0.086 C 
HETATM   12  C2  UNL     1     -28.181  -1.742  43.385  1.00  0.00    -0.029 C 
HETATM   13  C1  UNL     1     -27.434  -2.127  44.597  1.00  0.00     0.036 C 
HETATM   14  C4  UNL     1     -28.499   0.367  44.439  1.00  0.00     0.043 C 
ENDBRANCH  10  11
ENDBRANCH   9  10
ENDBRANCH   8   9
BRANCH   8  15
HETATM   15  N2  UNL     1     -30.030  -0.566  39.041  1.00  0.00    -0.210 N 
ATOM     16  H2  UNL     1     -29.011  -0.611  39.020  1.00  0.00     0.215 HD
BRANCH  15  17
HETATM   17  O1  UNL     1     -30.677  -0.091  38.095  1.00  0.00    -0.275 OA
ATOM     18  H1  UNL     1     -30.236   0.548  37.547  1.00  0.00     0.246 HD
ENDBRANCH  15  17
ENDBRANCH   8  15
ENDBRANCH   1   8
BRANCH   2  19
HETATM   19  O2  UNL     1     -33.455   0.555  41.125  1.00  0.00    -0.391 OA
ATOM     20  H2  UNL     1     -34.348   0.802  40.914  1.00  0.00     0.210 HD
ENDBRANCH   2  19
BRANCH   7  21
HETATM   21  C13 UNL     1     -31.623  -3.419  39.215  1.00  0.00     0.312 C 
BRANCH  21  22
HETATM   22  C14 UNL     1     -31.335  -3.639  37.746  1.00  0.00     0.077 C 
HETATM   23  C15 UNL     1     -32.607  -3.207  37.004  1.00  0.00     0.047 C 
HETATM   24  C16 UNL     1     -31.111  -5.088  37.415  1.00  0.00     0.047 C 
BRANCH  22  25
HETATM   25  O3  UNL     1     -30.301  -2.888  37.249  1.00  0.00    -0.389 OA
ATOM     26  H3  UNL     1     -30.488  -2.458  36.423  1.00  0.00     0.210 HD
ENDBRANCH  22  25
ENDBRANCH  21  22
ENDBRANCH   7  21
TORSDOF 10
ENDMDL
MODEL 3
REMARK VINA RESULT: -5.605875393      1.782      2.538
REMARK  10 active torsions:
REMARK  status: ('A' for Active; 'I' for Inactive)
REMARK    1  A    between atoms: C3_3  and  C5_5 
REMARK    2  A    between atoms: C5_5  and  C6_6 
REMARK    3  A    between atoms: C6_6  and  N1_7 
REMARK    4  A    between atoms: N1_7  and  N2_8 
REMARK    5  A    between atoms: N1_7  and  C7_12 
REMARK    6  A    between atoms: N2_8  and  O1_10 
REMARK    7  A    between atoms: C8_13  and  O2_14 
REMARK    8  A    between atoms: N3_20  and  C13_21 
REMARK    9  A    between atoms: C13_21  and  C14_22 
REMARK   10  A    between atoms: C14_22  and  O3_25 
ROOT
HETATM    1  C7  UNL     1     -31.750  -1.393  39.456  1.00  0.00     0.370 C 
HETATM    2  C8  UNL     1     -31.928  -0.115  38.744  1.00  0.00     0.182 C 
HETATM    3  C9  UNL     1     -33.362  -0.275  38.151  1.00  0.00     0.009 C 
HETATM    4  C10 UNL     1     -33.334  -1.088  36.902  1.00  0.00     0.019 C 
HETATM    5  C11 UNL     1     -34.016   1.049  37.955  1.00  0.00     0.019 C 
HETATM    6  C12 UNL     1     -34.023  -0.975  39.325  1.00  0.00     0.286 C 
HETATM    7  N3  UNL     1     -33.059  -1.893  39.825  1.00  0.00     0.119 N 
ENDROOT
BRANCH   1   8
HETATM    8  N1  UNL     1     -30.756  -1.520  40.473  1.00  0.00    -0.273 N 
BRANCH   8   9
HETATM    9  C6  UNL     1     -30.579  -0.768  41.664  1.00  0.00     0.151 C 
BRANCH   9  10
HETATM   10  C5  UNL     1     -29.214  -0.250  41.875  1.00  0.00     0.055 C 
BRANCH  10  11
HETATM   11  C3  UNL     1     -28.596  -0.558  43.189  1.00  0.00    -0.086 C 
HETATM   12  C2  UNL     1     -28.059  -1.762  43.332  1.00  0.00    -0.029 C 
HETATM   13  C1  UNL     1     -27.443  -2.145  44.616  1.00  0.00     0.036 C 
HETATM   14  C4  UNL     1     -28.532   0.331  44.361  1.00  0.00     0.043 C 
ENDBRANCH  10  11
ENDBRANCH   9  10
ENDBRANCH   8   9
BRANCH   8  15
HETATM   15  N2  UNL     1     -29.813  -2.592  40.279  1.00  0.00    -0.210 N 
ATOM     16  H2  UNL     1     -29.126  -2.832  40.994  1.00  0.00     0.215 HD
BRANCH  15  17
HETATM   17  O1  UNL     1     -29.873  -3.211  39.205  1.00  0.00    -0.275 OA
ATOM     18  H1  UNL     1     -29.439  -4.055  39.168  1.00  0.00     0.246 HD
ENDBRANCH  15  17
ENDBRANCH   8  15
ENDBRANCH   1   8
BRANCH   2  19
HETATM   19  O2  UNL     1     -31.086   0.135  37.678  1.00  0.00    -0.391 OA
ATOM     20  H2  UNL     1     -30.580   0.939  37.704  1.00  0.00     0.210 HD
ENDBRANCH   2  19
BRANCH   7  21
HETATM   21  C13 UNL     1     -33.213  -2.381  41.133  1.00  0.00     0.312 C 
BRANCH  21  22
HETATM   22  C14 UNL     1     -33.281  -3.892  41.171  1.00  0.00     0.077 C 
HETATM   23  C15 UNL     1     -34.427  -4.280  40.228  1.00  0.00     0.047 C 
HETATM   24  C16 UNL     1     -33.640  -4.417  42.532  1.00  0.00     0.047 C 
BRANCH  22  25
HETATM   25  O3  UNL     1     -32.152  -4.524  40.717  1.00  0.00    -0.389 OA
ATOM     26  H3  UNL     1     -31.717  -5.068  41.363  1.00  0.00     0.210 HD
ENDBRANCH  22  25
ENDBRANCH  21  22
ENDBRANCH   7  21
TORSDOF 10
ENDMDL
MODEL 4
REMARK VINA RESULT: -5.401633818      1.600      3.853
REMARK  10 active torsions:
REMARK  status: ('A' for Active; 'I' for Inactive)
REMARK    1  A    between atoms: C3_3  and  C5_5 
REMARK    2  A    between atoms: C5_5  and  C6_6 
REMARK    3  A    between atoms: C6_6  and  N1_7 
REMARK    4  A    between atoms: N1_7  and  N2_8 
REMARK    5  A    between atoms: N1_7  and  C7_12 
REMARK    6  A    between atoms: N2_8  and  O1_10 
REMARK    7  A    between atoms: C8_13  and  O2_14 
REMARK    8  A    between atoms: N3_20  and  C13_21 
REMARK    9  A    between atoms: C13_21  and  C14_22 
REMARK   10  A    between atoms: C14_22  and  O3_25 
ROOT
HETATM    1  C7  UNL     1     -32.082  -1.565  39.590  1.00  0.00     0.370 C 
HETATM    2  C8  UNL     1     -31.894  -2.044  38.208  1.00  0.00     0.182 C 
HETATM    3  C9  UNL     1     -33.333  -1.903  37.621  1.00  0.00     0.009 C 
HETATM    4  C10 UNL     1     -34.186  -3.059  38.018  1.00  0.00     0.019 C 
HETATM    5  C11 UNL     1     -33.295  -1.700  36.146  1.00  0.00     0.019 C 
HETATM    6  C12 UNL     1     -33.726  -0.593  38.282  1.00  0.00     0.286 C 
HETATM    7  N3  UNL     1     -33.206  -0.652  39.605  1.00  0.00     0.119 N 
ENDROOT
BRANCH   1   8
HETATM    8  N1  UNL     1     -30.961  -1.142  40.365  1.00  0.00    -0.273 N 
BRANCH   8   9
HETATM    9  C6  UNL     1     -30.879  -0.848  41.751  1.00  0.00     0.151 C 
BRANCH   9  10
HETATM   10  C5  UNL     1     -29.785   0.067  42.130  1.00  0.00     0.055 C 
BRANCH  10  11
HETATM   11  C3  UNL     1     -28.912  -0.387  43.241  1.00  0.00    -0.086 C 
HETATM   12  C2  UNL     1     -28.452  -1.630  43.175  1.00  0.00    -0.029 C 
HETATM   13  C1  UNL     1     -27.593  -2.155  44.252  1.00  0.00     0.036 C 
HETATM   14  C4  UNL     1     -28.515   0.394  44.424  1.00  0.00     0.043 C 
ENDBRANCH  10  11
ENDBRANCH   9  10
ENDBRANCH   8   9
BRANCH   8  15
HETATM   15  N2  UNL     1     -29.720  -1.029  39.640  1.00  0.00    -0.210 N 
ATOM     16  H2  UNL     1     -29.418  -0.142  39.239  1.00  0.00     0.215 HD
BRANCH  15  17
HETATM   17  O1  UNL     1     -29.036  -2.058  39.527  1.00  0.00    -0.275 OA
ATOM     18  H1  UNL     1     -28.392  -2.226  40.205  1.00  0.00     0.246 HD
ENDBRANCH  15  17
ENDBRANCH   8  15
ENDBRANCH   1   8
BRANCH   2  19
HETATM   19  O2  UNL     1     -31.529  -3.366  38.043  1.00  0.00    -0.391 OA
ATOM     20  H2  UNL     1     -32.035  -4.018  38.515  1.00  0.00     0.210 HD
ENDBRANCH   2  19
BRANCH   7  21
HETATM   21  C13 UNL     1     -33.048   0.548  40.316  1.00  0.00     0.312 C 
BRANCH  21  22
HETATM   22  C14 UNL     1     -34.235   0.840  41.208  1.00  0.00     0.077 C 
HETATM   23  C15 UNL     1     -33.655   1.484  42.474  1.00  0.00     0.047 C 
HETATM   24  C16 UNL     1     -34.948  -0.409  41.643  1.00  0.00     0.047 C 
BRANCH  22  25
HETATM   25  O3  UNL     1     -35.139   1.726  40.681  1.00  0.00    -0.389 OA
ATOM     26  H3  UNL     1     -35.649   1.385  39.955  1.00  0.00     0.210 HD
ENDBRANCH  22  25
ENDBRANCH  21  22
ENDBRANCH   7  21
TORSDOF 10
ENDMDL
MODEL 5
REMARK VINA RESULT: -5.396312551      1.887      4.118
REMARK  10 active torsions:
REMARK  status: ('A' for Active; 'I' for Inactive)
REMARK    1  A    between atoms: C3_3  and  C5_5 
REMARK    2  A    between atoms: C5_5  and  C6_6 
REMARK    3  A    between atoms: C6_6  and  N1_7 
REMARK    4  A    between atoms: N1_7  and  N2_8 
REMARK    5  A    between atoms: N1_7  and  C7_12 
REMARK    6  A    between atoms: N2_8  and  O1_10 
REMARK    7  A    between atoms: C8_13  and  O2_14 
REMARK    8  A    between atoms: N3_20  and  C13_21 
REMARK    9  A    between atoms: C13_21  and  C14_22 
REMARK   10  A    between atoms: C14_22  and  O3_25 
ROOT
HETATM    1  C7  UNL     1     -31.796  -1.823  39.240  1.00  0.00     0.370 C 
HETATM    2  C8  UNL     1     -31.105  -2.204  37.995  1.00  0.00     0.182 C 
HETATM    3  C9  UNL     1     -32.165  -1.829  36.912  1.00  0.00     0.009 C 
HETATM    4  C10 UNL     1     -33.200  -2.894  36.788  1.00  0.00     0.019 C 
HETATM    5  C11 UNL     1     -31.515  -1.509  35.611  1.00  0.00     0.019 C 
HETATM    6  C12 UNL     1     -32.679  -0.540  37.528  1.00  0.00     0.286 C 
HETATM    7  N3  UNL     1     -32.748  -0.777  38.929  1.00  0.00     0.119 N 
ENDROOT
BRANCH   1   8
HETATM    8  N1  UNL     1     -31.054  -1.615  40.442  1.00  0.00    -0.273 N 
BRANCH   8   9
HETATM    9  C6  UNL     1     -29.866  -0.869  40.654  1.00  0.00     0.151 C 
BRANCH   9  10
HETATM   10  C5  UNL     1     -29.855  -0.052  41.883  1.00  0.00     0.055 C 
BRANCH  10  11
HETATM   11  C3  UNL     1     -28.895  -0.471  42.934  1.00  0.00    -0.086 C 
HETATM   12  C2  UNL     1     -28.295  -1.642  42.767  1.00  0.00    -0.029 C 
HETATM   13  C1  UNL     1     -27.341  -2.132  43.780  1.00  0.00     0.036 C 
HETATM   14  C4  UNL     1     -28.550   0.271  44.158  1.00  0.00     0.043 C 
ENDBRANCH  10  11
ENDBRANCH   9  10
ENDBRANCH   8   9
BRANCH   8  15
HETATM   15  N2  UNL     1     -31.613  -2.226  41.622  1.00  0.00    -0.210 N 
ATOM     16  H2  UNL     1     -31.235  -2.034  42.549  1.00  0.00     0.215 HD
BRANCH  15  17
HETATM   17  O1  UNL     1     -32.573  -2.995  41.460  1.00  0.00    -0.275 OA
ATOM     18  H1  UNL     1     -32.429  -3.914  41.653  1.00  0.00     0.246 HD
ENDBRANCH  15  17
ENDBRANCH   8  15
ENDBRANCH   1   8
BRANCH   2  19
HETATM   19  O2  UNL     1     -30.818  -3.544  37.818  1.00  0.00    -0.391 OA
ATOM     20  H2  UNL     1     -30.045  -3.758  37.308  1.00  0.00     0.210 HD
ENDBRANCH   2  19
BRANCH   7  21
HETATM   21  C13 UNL     1     -32.791   0.329  39.794  1.00  0.00     0.312 C 
BRANCH  21  22
HETATM   22  C14 UNL     1     -34.019   0.311  40.677  1.00  0.00     0.077 C 
HETATM   23  C15 UNL     1     -35.109   1.049  39.889  1.00  0.00     0.047 C 
HETATM   24  C16 UNL     1     -33.817   1.073  41.957  1.00  0.00     0.047 C 
BRANCH  22  25
HETATM   25  O3  UNL     1     -34.500  -0.941  40.959  1.00  0.00    -0.389 OA
ATOM     26  H3  UNL     1     -34.499  -1.540  40.222  1.00  0.00     0.210 HD
ENDBRANCH  22  25
ENDBRANCH  21  22
ENDBRANCH   7  21
TORSDOF 10
ENDMDL
