MODEL 1
REMARK VINA RESULT: -7.367981370      0.000      0.000
REMARK  7 active torsions:
REMARK  status: ('A' for Active; 'I' for Inactive)
REMARK    1  A    between atoms: C2_2  and  C3_4 
REMARK    2  A    between atoms: C3_4  and  C4_5 
REMARK    3  A    between atoms: C4_5  and  C5_6 
REMARK       I    between atoms: C5_6  and  N1_8 
REMARK    4  A    between atoms: N1_8  and  N2_9 
REMARK    5  A    between atoms: C6_11  and  C8_14 
REMARK    6  A    between atoms: C8_14  and  C9_15 
REMARK       I    between atoms: C9_15  and  N4_17 
REMARK    7  A    between atoms: N4_17  and  C10_19 
ROOT
HETATM    1  N2  UNL     1     -30.763  -2.846  40.735  1.00  0.00    -0.226 N 
ATOM      2  H2  UNL     1     -31.015  -3.496  41.481  1.00  0.00     0.202 HD
HETATM    3  C6  UNL     1     -30.846  -3.458  39.687  1.00  0.00     0.127 C 
HETATM    4  C7  UNL     1     -30.564  -2.859  38.416  1.00  0.00     0.116 C 
HETATM    5  N3  UNL     1     -30.361  -2.383  37.367  1.00  0.00    -0.190 NA
ENDROOT
BRANCH   3   6
HETATM    6  C8  UNL     1     -31.265  -4.883  39.703  1.00  0.00     0.174 C 
BRANCH   6   7
HETATM    7  C9  UNL     1     -32.470  -5.141  40.505  1.00  0.00     0.224 C 
HETATM    8  O3  UNL     1     -33.522  -4.523  40.288  1.00  0.00    -0.273 OA
HETATM    9  N4  UNL     1     -32.411  -6.107  41.536  1.00  0.00    -0.356 N 
ATOM     10  H4  UNL     1     -31.544  -6.613  41.713  1.00  0.00     0.162 HD
BRANCH   9  11
HETATM   11  C10 UNL     1     -33.585  -6.377  42.339  1.00  0.00     0.084 C 
HETATM   12  C11 UNL     1     -33.853  -5.223  43.244  1.00  0.00     0.025 C 
HETATM   13  C12 UNL     1     -35.236  -5.171  43.816  1.00  0.00     0.002 C 
HETATM   14  C13 UNL     1     -35.469  -6.059  45.000  1.00  0.00     0.000 C 
HETATM   15  C14 UNL     1     -34.429  -7.119  45.199  1.00  0.00     0.000 C 
HETATM   16  C15 UNL     1     -34.431  -8.046  43.999  1.00  0.00     0.002 C 
HETATM   17  C16 UNL     1     -33.300  -7.656  43.100  1.00  0.00     0.025 C 
ENDBRANCH   9  11
ENDBRANCH   6   7
ENDBRANCH   3   6
BRANCH   1  18
HETATM   18  N1  UNL     1     -30.499  -1.757  41.274  1.00  0.00    -0.286 NA
HETATM   19  C5  UNL     1     -30.207  -0.549  41.871  1.00  0.00     0.312 C 
HETATM   20  O2  UNL     1     -30.956   0.448  42.042  1.00  0.00    -0.255 OA
BRANCH  19  21
HETATM   21  C4  UNL     1     -28.784  -0.418  42.383  1.00  0.00     0.128 C 
BRANCH  21  22
HETATM   22  C3  UNL     1     -28.823   0.210  43.732  1.00  0.00     0.088 C 
BRANCH  22  23
HETATM   23  C2  UNL     1     -28.208  -0.664  44.751  1.00  0.00     0.123 C 
HETATM   24  C1  UNL     1     -27.650  -1.969  44.191  1.00  0.00     0.091 C 
HETATM   25  O1  UNL     1     -28.118  -0.429  45.948  1.00  0.00    -0.298 OA
ENDBRANCH  22  23
ENDBRANCH  21  22
ENDBRANCH  19  21
ENDBRANCH   1  18
TORSDOF 7
ENDMDL
MODEL 2
REMARK VINA RESULT: -7.351639457      1.895      2.525
REMARK  7 active torsions:
REMARK  status: ('A' for Active; 'I' for Inactive)
REMARK    1  A    between atoms: C2_2  and  C3_4 
REMARK    2  A    between atoms: C3_4  and  C4_5 
REMARK    3  A    between atoms: C4_5  and  C5_6 
REMARK       I    between atoms: C5_6  and  N1_8 
REMARK    4  A    between atoms: N1_8  and  N2_9 
REMARK    5  A    between atoms: C6_11  and  C8_14 
REMARK    6  A    between atoms: C8_14  and  C9_15 
REMARK       I    between atoms: C9_15  and  N4_17 
REMARK    7  A    between atoms: N4_17  and  C10_19 
ROOT
HETATM    1  N2  UNL     1     -30.234  -2.168  40.009  1.00  0.00    -0.226 N 
ATOM      2  H2  UNL     1     -29.376  -2.715  39.938  1.00  0.00     0.202 HD
HETATM    3  C6  UNL     1     -31.012  -2.617  39.189  1.00  0.00     0.127 C 
HETATM    4  C7  UNL     1     -32.332  -2.091  39.004  1.00  0.00     0.116 C 
HETATM    5  N3  UNL     1     -33.420  -1.692  38.853  1.00  0.00    -0.190 NA
ENDROOT
BRANCH   3   6
HETATM    6  C8  UNL     1     -30.599  -3.766  38.343  1.00  0.00     0.174 C 
BRANCH   6   7
HETATM    7  C9  UNL     1     -31.293  -5.022  38.662  1.00  0.00     0.224 C 
HETATM    8  O3  UNL     1     -31.928  -5.636  37.793  1.00  0.00    -0.273 OA
HETATM    9  N4  UNL     1     -31.229  -5.521  39.983  1.00  0.00    -0.356 N 
ATOM     10  H4  UNL     1     -30.708  -5.013  40.697  1.00  0.00     0.162 HD
BRANCH   9  11
HETATM   11  C10 UNL     1     -31.905  -6.756  40.322  1.00  0.00     0.084 C 
HETATM   12  C11 UNL     1     -32.517  -6.640  41.677  1.00  0.00     0.025 C 
HETATM   13  C12 UNL     1     -33.580  -7.651  41.982  1.00  0.00     0.002 C 
HETATM   14  C13 UNL     1     -33.075  -8.996  42.405  1.00  0.00     0.000 C 
HETATM   15  C14 UNL     1     -31.630  -9.244  42.104  1.00  0.00     0.000 C 
HETATM   16  C15 UNL     1     -31.420  -9.194  40.602  1.00  0.00     0.002 C 
HETATM   17  C16 UNL     1     -30.861  -7.852  40.249  1.00  0.00     0.025 C 
ENDBRANCH   9  11
ENDBRANCH   6   7
ENDBRANCH   3   6
BRANCH   1  18
HETATM   18  N1  UNL     1     -30.051  -1.316  40.897  1.00  0.00    -0.286 NA
HETATM   19  C5  UNL     1     -29.850  -0.373  41.881  1.00  0.00     0.312 C 
HETATM   20  O2  UNL     1     -30.651   0.493  42.320  1.00  0.00    -0.255 OA
BRANCH  19  21
HETATM   21  C4  UNL     1     -28.468  -0.392  42.511  1.00  0.00     0.128 C 
BRANCH  21  22
HETATM   22  C3  UNL     1     -28.566   0.171  43.886  1.00  0.00     0.088 C 
BRANCH  22  23
HETATM   23  C2  UNL     1     -28.075  -0.788  44.895  1.00  0.00     0.123 C 
HETATM   24  C1  UNL     1     -27.501  -2.071  44.302  1.00  0.00     0.091 C 
HETATM   25  O1  UNL     1     -28.094  -0.635  46.109  1.00  0.00    -0.298 OA
ENDBRANCH  22  23
ENDBRANCH  21  22
ENDBRANCH  19  21
ENDBRANCH   1  18
TORSDOF 7
ENDMDL
MODEL 3
REMARK VINA RESULT: -7.346488678      1.661      2.542
REMARK  7 active torsions:
REMARK  status: ('A' for Active; 'I' for Inactive)
REMARK    1  A    between atoms: C2_2  and  C3_4 
REMARK    2  A    between atoms: C3_4  and  C4_5 
REMARK    3  A    between atoms: C4_5  and  C5_6 
REMARK       I    between atoms: C5_6  and  N1_8 
REMARK    4  A    between atoms: N1_8  and  N2_9 
REMARK    5  A    between atoms: C6_11  and  C8_14 
REMARK    6  A    between atoms: C8_14  and  C9_15 
REMARK       I    between atoms: C9_15  and  N4_17 
REMARK    7  A    between atoms: N4_17  and  C10_19 
ROOT
HETATM    1  N2  UNL     1     -31.379  -1.838  40.307  1.00  0.00    -0.226 N 
ATOM      2  H2  UNL     1     -31.524  -2.705  40.824  1.00  0.00     0.202 HD
HETATM    3  C6  UNL     1     -31.686  -2.058  39.149  1.00  0.00     0.127 C 
HETATM    4  C7  UNL     1     -31.610  -1.060  38.125  1.00  0.00     0.116 C 
HETATM    5  N3  UNL     1     -31.577  -0.254  37.279  1.00  0.00    -0.190 NA
ENDROOT
BRANCH   3   6
HETATM    6  C8  UNL     1     -32.171  -3.409  38.767  1.00  0.00     0.174 C 
BRANCH   6   7
HETATM    7  C9  UNL     1     -31.701  -4.484  39.651  1.00  0.00     0.224 C 
HETATM    8  O3  UNL     1     -30.494  -4.618  39.904  1.00  0.00    -0.273 OA
HETATM    9  N4  UNL     1     -32.647  -5.372  40.212  1.00  0.00    -0.356 N 
ATOM     10  H4  UNL     1     -33.639  -5.261  40.001  1.00  0.00     0.162 HD
BRANCH   9  11
HETATM   11  C10 UNL     1     -32.207  -6.439  41.086  1.00  0.00     0.084 C 
HETATM   12  C11 UNL     1     -31.890  -7.652  40.279  1.00  0.00     0.025 C 
HETATM   13  C12 UNL     1     -31.042  -8.673  40.973  1.00  0.00     0.002 C 
HETATM   14  C13 UNL     1     -31.777  -9.579  41.912  1.00  0.00     0.000 C 
HETATM   15  C14 UNL     1     -33.144  -9.103  42.297  1.00  0.00     0.000 C 
HETATM   16  C15 UNL     1     -33.020  -7.782  43.032  1.00  0.00     0.002 C 
HETATM   17  C16 UNL     1     -33.332  -6.677  42.073  1.00  0.00     0.025 C 
ENDBRANCH   9  11
ENDBRANCH   6   7
ENDBRANCH   3   6
BRANCH   1  18
HETATM   18  N1  UNL     1     -30.962  -0.993  41.119  1.00  0.00    -0.286 NA
HETATM   19  C5  UNL     1     -30.501  -0.057  42.019  1.00  0.00     0.312 C 
HETATM   20  O2  UNL     1     -31.123   0.899  42.552  1.00  0.00    -0.255 OA
BRANCH  19  21
HETATM   21  C4  UNL     1     -29.042  -0.212  42.409  1.00  0.00     0.128 C 
BRANCH  21  22
HETATM   22  C3  UNL     1     -28.847   0.385  43.759  1.00  0.00     0.088 C 
BRANCH  22  23
HETATM   23  C2  UNL     1     -28.258  -0.591  44.698  1.00  0.00     0.123 C 
HETATM   24  C1  UNL     1     -27.769  -1.873  44.032  1.00  0.00     0.091 C 
HETATM   25  O1  UNL     1     -28.142  -0.452  45.908  1.00  0.00    -0.298 OA
ENDBRANCH  22  23
ENDBRANCH  21  22
ENDBRANCH  19  21
ENDBRANCH   1  18
TORSDOF 7
ENDMDL
MODEL 4
REMARK VINA RESULT: -7.318170459      1.874      2.681
REMARK  7 active torsions:
REMARK  status: ('A' for Active; 'I' for Inactive)
REMARK    1  A    between atoms: C2_2  and  C3_4 
REMARK    2  A    between atoms: C3_4  and  C4_5 
REMARK    3  A    between atoms: C4_5  and  C5_6 
REMARK       I    between atoms: C5_6  and  N1_8 
REMARK    4  A    between atoms: N1_8  and  N2_9 
REMARK    5  A    between atoms: C6_11  and  C8_14 
REMARK    6  A    between atoms: C8_14  and  C9_15 
REMARK       I    between atoms: C9_15  and  N4_17 
REMARK    7  A    between atoms: N4_17  and  C10_19 
ROOT
HETATM    1  N2  UNL     1     -31.882  -1.695  40.828  1.00  0.00    -0.226 N 
ATOM      2  H2  UNL     1     -32.749  -1.769  41.360  1.00  0.00     0.202 HD
HETATM    3  C6  UNL     1     -32.046  -2.312  39.791  1.00  0.00     0.127 C 
HETATM    4  C7  UNL     1     -31.030  -2.424  38.788  1.00  0.00     0.116 C 
HETATM    5  N3  UNL     1     -30.222  -2.510  37.947  1.00  0.00    -0.190 NA
ENDROOT
BRANCH   3   6
HETATM    6  C8  UNL     1     -33.351  -2.974  39.534  1.00  0.00     0.174 C 
BRANCH   6   7
HETATM    7  C9  UNL     1     -33.283  -4.442  39.525  1.00  0.00     0.224 C 
HETATM    8  O3  UNL     1     -33.793  -5.095  38.603  1.00  0.00    -0.273 OA
HETATM    9  N4  UNL     1     -32.628  -5.103  40.589  1.00  0.00    -0.356 N 
ATOM     10  H4  UNL     1     -32.211  -4.562  41.346  1.00  0.00     0.162 HD
BRANCH   9  11
HETATM   11  C10 UNL     1     -32.549  -6.549  40.601  1.00  0.00     0.084 C 
HETATM   12  C11 UNL     1     -32.612  -7.045  42.006  1.00  0.00     0.025 C 
HETATM   13  C12 UNL     1     -32.961  -8.494  42.153  1.00  0.00     0.002 C 
HETATM   14  C13 UNL     1     -31.823  -9.446  41.945  1.00  0.00     0.000 C 
HETATM   15  C14 UNL     1     -30.627  -8.851  41.268  1.00  0.00     0.000 C 
HETATM   16  C15 UNL     1     -31.022  -8.392  39.877  1.00  0.00     0.002 C 
HETATM   17  C16 UNL     1     -31.248  -6.914  39.915  1.00  0.00     0.025 C 
ENDBRANCH   9  11
ENDBRANCH   6   7
ENDBRANCH   3   6
BRANCH   1  18
HETATM   18  N1  UNL     1     -31.095  -1.011  41.505  1.00  0.00    -0.286 NA
HETATM   19  C5  UNL     1     -30.223  -0.253  42.257  1.00  0.00     0.312 C 
HETATM   20  O2  UNL     1     -30.428   0.846  42.835  1.00  0.00    -0.255 OA
BRANCH  19  21
HETATM   21  C4  UNL     1     -28.827  -0.835  42.395  1.00  0.00     0.128 C 
BRANCH  21  22
HETATM   22  C3  UNL     1     -28.097  -0.072  43.445  1.00  0.00     0.088 C 
BRANCH  22  23
HETATM   23  C2  UNL     1     -28.001  -0.843  44.700  1.00  0.00     0.123 C 
HETATM   24  C1  UNL     1     -27.412  -2.239  44.526  1.00  0.00     0.091 C 
HETATM   25  O1  UNL     1     -28.342  -0.461  45.812  1.00  0.00    -0.298 OA
ENDBRANCH  22  23
ENDBRANCH  21  22
ENDBRANCH  19  21
ENDBRANCH   1  18
TORSDOF 7
ENDMDL
MODEL 5
REMARK VINA RESULT: -7.317676643      2.738      6.822
REMARK  7 active torsions:
REMARK  status: ('A' for Active; 'I' for Inactive)
REMARK    1  A    between atoms: C2_2  and  C3_4 
REMARK    2  A    between atoms: C3_4  and  C4_5 
REMARK    3  A    between atoms: C4_5  and  C5_6 
REMARK       I    between atoms: C5_6  and  N1_8 
REMARK    4  A    between atoms: N1_8  and  N2_9 
REMARK    5  A    between atoms: C6_11  and  C8_14 
REMARK    6  A    between atoms: C8_14  and  C9_15 
REMARK       I    between atoms: C9_15  and  N4_17 
REMARK    7  A    between atoms: N4_17  and  C10_19 
ROOT
HETATM    1  N2  UNL     1     -30.804  -2.931  38.952  1.00  0.00    -0.226 N 
ATOM      2  H2  UNL     1     -30.471  -2.785  39.905  1.00  0.00     0.202 HD
HETATM    3  C6  UNL     1     -30.754  -1.854  38.388  1.00  0.00     0.127 C 
HETATM    4  C7  UNL     1     -31.147  -1.676  37.022  1.00  0.00     0.116 C 
HETATM    5  N3  UNL     1     -31.442  -1.513  35.902  1.00  0.00    -0.190 NA
ENDROOT
BRANCH   3   6
HETATM    6  C8  UNL     1     -30.258  -0.664  39.128  1.00  0.00     0.174 C 
BRANCH   6   7
HETATM    7  C9  UNL     1     -30.163  -0.863  40.581  1.00  0.00     0.224 C 
HETATM    8  O3  UNL     1     -31.183  -0.938  41.280  1.00  0.00    -0.273 OA
HETATM    9  N4  UNL     1     -28.884  -0.965  41.175  1.00  0.00    -0.356 N 
ATOM     10  H4  UNL     1     -28.046  -0.901  40.597  1.00  0.00     0.162 HD
BRANCH   9  11
HETATM   11  C10 UNL     1     -28.765  -1.161  42.604  1.00  0.00     0.084 C 
HETATM   12  C11 UNL     1     -28.333   0.111  43.252  1.00  0.00     0.025 C 
HETATM   13  C12 UNL     1     -28.570   0.184  44.729  1.00  0.00     0.002 C 
HETATM   14  C13 UNL     1     -27.545  -0.509  45.573  1.00  0.00     0.000 C 
HETATM   15  C14 UNL     1     -26.667  -1.467  44.829  1.00  0.00     0.000 C 
HETATM   16  C15 UNL     1     -27.524  -2.577  44.250  1.00  0.00     0.002 C 
HETATM   17  C16 UNL     1     -27.765  -2.282  42.803  1.00  0.00     0.025 C 
ENDBRANCH   9  11
ENDBRANCH   6   7
ENDBRANCH   3   6
BRANCH   1  18
HETATM   18  N1  UNL     1     -31.093  -4.136  38.846  1.00  0.00    -0.286 NA
HETATM   19  C5  UNL     1     -31.412  -5.471  38.728  1.00  0.00     0.312 C 
HETATM   20  O2  UNL     1     -31.991  -6.064  37.780  1.00  0.00    -0.255 OA
BRANCH  19  21
HETATM   21  C4  UNL     1     -31.009  -6.332  39.913  1.00  0.00     0.128 C 
BRANCH  21  22
HETATM   22  C3  UNL     1     -32.175  -6.450  40.831  1.00  0.00     0.088 C 
BRANCH  22  23
HETATM   23  C2  UNL     1     -32.087  -7.671  41.657  1.00  0.00     0.123 C 
HETATM   24  C1  UNL     1     -31.117  -8.716  41.115  1.00  0.00     0.091 C 
HETATM   25  O1  UNL     1     -32.705  -7.892  42.690  1.00  0.00    -0.298 OA
ENDBRANCH  22  23
ENDBRANCH  21  22
ENDBRANCH  19  21
ENDBRANCH   1  18
TORSDOF 7
ENDMDL
