MODEL 1
REMARK VINA RESULT: -6.419527020      0.000      0.000
REMARK  9 active torsions:
REMARK  status: ('A' for Active; 'I' for Inactive)
REMARK    1  A    between atoms: C3_3  and  C4_4 
REMARK    2  A    between atoms: C4_4  and  C5_5 
REMARK    3  A    between atoms: C5_5  and  C6_6 
REMARK    4  A    between atoms: C8_8  and  O1_9 
REMARK    5  A    between atoms: C9_11  and  C11_13 
REMARK    6  A    between atoms: C12_14  and  C13_15 
REMARK    7  A    between atoms: C15_18  and  C16_19 
REMARK    8  A    between atoms: C16_19  and  C17_20 
REMARK    9  A    between atoms: C17_20  and  O3_21 
ROOT
HETATM    1  C6  UNL     1     -29.983  -1.055  41.255  1.00  0.00     0.163 C 
HETATM    2  C7  UNL     1     -30.360  -0.601  39.885  1.00  0.00     0.070 C 
HETATM    3  C8  UNL     1     -30.911  -1.707  39.021  1.00  0.00     0.162 C 
HETATM    4  C9  UNL     1     -31.633  -2.760  39.831  1.00  0.00     0.136 C 
HETATM    5  C10 UNL     1     -33.115  -2.372  39.911  1.00  0.00     0.057 C 
HETATM    6  O4  UNL     1     -31.097  -2.932  41.084  1.00  0.00    -0.223 OA
HETATM    7  O5  UNL     1     -31.018  -1.836  41.784  1.00  0.00    -0.234 OA
ENDROOT
BRANCH   4   8
HETATM    8  C11 UNL     1     -31.569  -4.058  39.106  1.00  0.00     0.015 C 
HETATM    9  C12 UNL     1     -31.175  -5.177  39.701  1.00  0.00     0.004 C 
BRANCH   9  10
HETATM   10  C13 UNL     1     -31.095  -6.476  39.035  1.00  0.00     0.150 C 
HETATM   11  O2  UNL     1     -31.916  -6.654  37.923  1.00  0.00    -0.381 OA
HETATM   12  C14 UNL     1     -31.894  -8.035  38.238  1.00  0.00     0.176 C 
HETATM   13  C15 UNL     1     -31.842  -7.620  39.686  1.00  0.00     0.044 C 
BRANCH  13  14
HETATM   14  C16 UNL     1     -30.998  -8.429  40.593  1.00  0.00     0.035 C 
BRANCH  14  15
HETATM   15  C17 UNL     1     -31.658  -8.878  41.854  1.00  0.00     0.164 C 
BRANCH  15  16
HETATM   16  O3  UNL     1     -32.404  -7.779  42.342  1.00  0.00    -0.401 OA
ATOM     17  H3  UNL     1     -32.252  -7.737  43.279  1.00  0.00     0.209 HD
ENDBRANCH  15  16
ENDBRANCH  14  15
ENDBRANCH  13  14
ENDBRANCH   9  10
ENDBRANCH   4   8
BRANCH   3  18
HETATM   18  O1  UNL     1     -29.863  -2.250  38.280  1.00  0.00    -0.392 OA
ATOM     19  H1  UNL     1     -29.758  -3.160  38.530  1.00  0.00     0.210 HD
ENDBRANCH   3  18
BRANCH   1  20
HETATM   20  C5  UNL     1     -29.816   0.137  42.170  1.00  0.00     0.039 C 
BRANCH  20  21
HETATM   21  C4  UNL     1     -28.877  -0.230  43.298  1.00  0.00     0.029 C 
BRANCH  21  22
HETATM   22  C3  UNL     1     -27.538  -0.579  42.813  1.00  0.00    -0.031 C 
HETATM   23  C2  UNL     1     -26.881  -1.588  43.357  1.00  0.00    -0.035 C 
HETATM   24  C1  UNL     1     -27.482  -2.401  44.479  1.00  0.00     0.036 C 
ENDBRANCH  21  22
ENDBRANCH  20  21
ENDBRANCH   1  20
TORSDOF 9
ENDMDL
MODEL 2
REMARK VINA RESULT: -6.288760964      1.137      2.314
REMARK  9 active torsions:
REMARK  status: ('A' for Active; 'I' for Inactive)
REMARK    1  A    between atoms: C3_3  and  C4_4 
REMARK    2  A    between atoms: C4_4  and  C5_5 
REMARK    3  A    between atoms: C5_5  and  C6_6 
REMARK    4  A    between atoms: C8_8  and  O1_9 
REMARK    5  A    between atoms: C9_11  and  C11_13 
REMARK    6  A    between atoms: C12_14  and  C13_15 
REMARK    7  A    between atoms: C15_18  and  C16_19 
REMARK    8  A    between atoms: C16_19  and  C17_20 
REMARK    9  A    between atoms: C17_20  and  O3_21 
ROOT
HETATM    1  C6  UNL     1     -29.857  -1.196  41.437  1.00  0.00     0.163 C 
HETATM    2  C7  UNL     1     -29.960  -0.930  39.973  1.00  0.00     0.070 C 
HETATM    3  C8  UNL     1     -30.783  -1.957  39.237  1.00  0.00     0.162 C 
HETATM    4  C9  UNL     1     -31.873  -2.544  40.105  1.00  0.00     0.136 C 
HETATM    5  C10 UNL     1     -33.142  -1.703  39.920  1.00  0.00     0.057 C 
HETATM    6  O4  UNL     1     -31.518  -2.622  41.430  1.00  0.00    -0.223 OA
HETATM    7  O5  UNL     1     -31.129  -1.489  41.943  1.00  0.00    -0.234 OA
ENDROOT
BRANCH   4   8
HETATM    8  C11 UNL     1     -32.194  -3.914  39.619  1.00  0.00     0.015 C 
HETATM    9  C12 UNL     1     -32.071  -4.983  40.397  1.00  0.00     0.004 C 
BRANCH   9  10
HETATM   10  C13 UNL     1     -32.373  -6.348  39.970  1.00  0.00     0.150 C 
HETATM   11  O2  UNL     1     -31.934  -7.371  40.809  1.00  0.00    -0.381 OA
HETATM   12  C14 UNL     1     -31.881  -8.181  39.649  1.00  0.00     0.176 C 
HETATM   13  C15 UNL     1     -31.481  -6.936  38.898  1.00  0.00     0.044 C 
BRANCH  13  14
HETATM   14  C16 UNL     1     -32.020  -6.767  37.530  1.00  0.00     0.035 C 
BRANCH  14  15
HETATM   15  C17 UNL     1     -31.046  -6.273  36.513  1.00  0.00     0.164 C 
BRANCH  15  16
HETATM   16  O3  UNL     1     -31.008  -4.863  36.631  1.00  0.00    -0.401 OA
ATOM     17  H3  UNL     1     -31.763  -4.526  36.164  1.00  0.00     0.209 HD
ENDBRANCH  15  16
ENDBRANCH  14  15
ENDBRANCH  13  14
ENDBRANCH   9  10
ENDBRANCH   4   8
BRANCH   3  18
HETATM   18  O1  UNL     1     -29.926  -2.938  38.743  1.00  0.00    -0.392 OA
ATOM     19  H1  UNL     1     -29.294  -3.152  39.419  1.00  0.00     0.210 HD
ENDBRANCH   3  18
BRANCH   1  20
HETATM   20  C5  UNL     1     -29.369   0.041  42.156  1.00  0.00     0.039 C 
BRANCH  20  21
HETATM   21  C4  UNL     1     -28.142  -0.309  42.970  1.00  0.00     0.029 C 
BRANCH  21  22
HETATM   22  C3  UNL     1     -28.020  -1.754  43.195  1.00  0.00    -0.031 C 
HETATM   23  C2  UNL     1     -27.597  -2.206  44.362  1.00  0.00    -0.035 C 
HETATM   24  C1  UNL     1     -27.232  -1.263  45.483  1.00  0.00     0.036 C 
ENDBRANCH  21  22
ENDBRANCH  20  21
ENDBRANCH   1  20
TORSDOF 9
ENDMDL
MODEL 3
REMARK VINA RESULT: -6.254736817      1.590      1.977
REMARK  9 active torsions:
REMARK  status: ('A' for Active; 'I' for Inactive)
REMARK    1  A    between atoms: C3_3  and  C4_4 
REMARK    2  A    between atoms: C4_4  and  C5_5 
REMARK    3  A    between atoms: C5_5  and  C6_6 
REMARK    4  A    between atoms: C8_8  and  O1_9 
REMARK    5  A    between atoms: C9_11  and  C11_13 
REMARK    6  A    between atoms: C12_14  and  C13_15 
REMARK    7  A    between atoms: C15_18  and  C16_19 
REMARK    8  A    between atoms: C16_19  and  C17_20 
REMARK    9  A    between atoms: C17_20  and  O3_21 
ROOT
HETATM    1  C6  UNL     1     -29.587  -0.392  41.904  1.00  0.00     0.163 C 
HETATM    2  C7  UNL     1     -30.793   0.110  41.185  1.00  0.00     0.070 C 
HETATM    3  C8  UNL     1     -31.235  -0.791  40.060  1.00  0.00     0.162 C 
HETATM    4  C9  UNL     1     -30.910  -2.243  40.329  1.00  0.00     0.136 C 
HETATM    5  C10 UNL     1     -32.113  -2.883  41.031  1.00  0.00     0.057 C 
HETATM    6  O4  UNL     1     -29.761  -2.406  41.064  1.00  0.00    -0.223 OA
HETATM    7  O5  UNL     1     -29.754  -1.753  42.191  1.00  0.00    -0.234 OA
ENDROOT
BRANCH   4   8
HETATM    8  C11 UNL     1     -30.746  -2.952  39.030  1.00  0.00     0.015 C 
HETATM    9  C12 UNL     1     -31.097  -4.222  38.874  1.00  0.00     0.004 C 
BRANCH   9  10
HETATM   10  C13 UNL     1     -30.958  -4.964  37.622  1.00  0.00     0.150 C 
HETATM   11  O2  UNL     1     -31.548  -4.394  36.495  1.00  0.00    -0.381 OA
HETATM   12  C14 UNL     1     -31.668  -5.715  35.998  1.00  0.00     0.176 C 
HETATM   13  C15 UNL     1     -31.884  -6.145  37.426  1.00  0.00     0.044 C 
BRANCH  13  14
HETATM   14  C16 UNL     1     -31.287  -7.433  37.844  1.00  0.00     0.035 C 
BRANCH  14  15
HETATM   15  C17 UNL     1     -31.809  -7.999  39.121  1.00  0.00     0.164 C 
BRANCH  15  16
HETATM   16  O3  UNL     1     -30.906  -7.617  40.141  1.00  0.00    -0.401 OA
ATOM     17  H3  UNL     1     -30.092  -7.377  39.713  1.00  0.00     0.209 HD
ENDBRANCH  15  16
ENDBRANCH  14  15
ENDBRANCH  13  14
ENDBRANCH   9  10
ENDBRANCH   4   8
BRANCH   3  18
HETATM   18  O1  UNL     1     -30.652  -0.338  38.878  1.00  0.00    -0.392 OA
ATOM     19  H1  UNL     1     -29.891  -0.875  38.694  1.00  0.00     0.210 HD
ENDBRANCH   3  18
BRANCH   1  20
HETATM   20  C5  UNL     1     -29.435   0.323  43.227  1.00  0.00     0.039 C 
BRANCH  20  21
HETATM   21  C4  UNL     1     -28.019   0.143  43.730  1.00  0.00     0.029 C 
BRANCH  21  22
HETATM   22  C3  UNL     1     -27.976  -0.525  45.036  1.00  0.00    -0.031 C 
HETATM   23  C2  UNL     1     -27.440  -1.727  45.144  1.00  0.00    -0.035 C 
HETATM   24  C1  UNL     1     -26.863  -2.440  43.945  1.00  0.00     0.036 C 
ENDBRANCH  21  22
ENDBRANCH  20  21
ENDBRANCH   1  20
TORSDOF 9
ENDMDL
MODEL 4
REMARK VINA RESULT: -6.253433734      2.561      3.021
REMARK  9 active torsions:
REMARK  status: ('A' for Active; 'I' for Inactive)
REMARK    1  A    between atoms: C3_3  and  C4_4 
REMARK    2  A    between atoms: C4_4  and  C5_5 
REMARK    3  A    between atoms: C5_5  and  C6_6 
REMARK    4  A    between atoms: C8_8  and  O1_9 
REMARK    5  A    between atoms: C9_11  and  C11_13 
REMARK    6  A    between atoms: C12_14  and  C13_15 
REMARK    7  A    between atoms: C15_18  and  C16_19 
REMARK    8  A    between atoms: C16_19  and  C17_20 
REMARK    9  A    between atoms: C17_20  and  O3_21 
ROOT
HETATM    1  C6  UNL     1     -29.619  -0.372  41.904  1.00  0.00     0.163 C 
HETATM    2  C7  UNL     1     -30.877   0.111  41.266  1.00  0.00     0.070 C 
HETATM    3  C8  UNL     1     -31.287  -0.702  40.064  1.00  0.00     0.162 C 
HETATM    4  C9  UNL     1     -30.854  -2.147  40.178  1.00  0.00     0.136 C 
HETATM    5  C10 UNL     1     -31.991  -2.938  40.837  1.00  0.00     0.057 C 
HETATM    6  O4  UNL     1     -29.677  -2.300  40.869  1.00  0.00    -0.223 OA
HETATM    7  O5  UNL     1     -29.683  -1.763  42.056  1.00  0.00    -0.234 OA
ENDROOT
BRANCH   4   8
HETATM    8  C11 UNL     1     -30.678  -2.709  38.811  1.00  0.00     0.015 C 
HETATM    9  C12 UNL     1     -31.692  -3.228  38.129  1.00  0.00     0.004 C 
BRANCH   9  10
HETATM   10  C13 UNL     1     -31.574  -3.793  36.786  1.00  0.00     0.150 C 
HETATM   11  O2  UNL     1     -32.567  -3.438  35.875  1.00  0.00    -0.381 OA
HETATM   12  C14 UNL     1     -32.302  -4.674  35.238  1.00  0.00     0.176 C 
HETATM   13  C15 UNL     1     -32.020  -5.228  36.611  1.00  0.00     0.044 C 
BRANCH  13  14
HETATM   14  C16 UNL     1     -30.915  -6.204  36.734  1.00  0.00     0.035 C 
BRANCH  14  15
HETATM   15  C17 UNL     1     -31.298  -7.635  36.552  1.00  0.00     0.164 C 
BRANCH  15  16
HETATM   16  O3  UNL     1     -30.270  -8.242  35.791  1.00  0.00    -0.401 OA
ATOM     17  H3  UNL     1     -30.024  -7.622  35.115  1.00  0.00     0.209 HD
ENDBRANCH  15  16
ENDBRANCH  14  15
ENDBRANCH  13  14
ENDBRANCH   9  10
ENDBRANCH   4   8
BRANCH   3  18
HETATM   18  O1  UNL     1     -30.769  -0.093  38.923  1.00  0.00    -0.392 OA
ATOM     19  H1  UNL     1     -31.153  -0.509  38.160  1.00  0.00     0.210 HD
ENDBRANCH   3  18
BRANCH   1  20
HETATM   20  C5  UNL     1     -29.480   0.217  43.290  1.00  0.00     0.039 C 
BRANCH  20  21
HETATM   21  C4  UNL     1     -28.038   0.106  43.735  1.00  0.00     0.029 C 
BRANCH  21  22
HETATM   22  C3  UNL     1     -27.905  -0.604  45.012  1.00  0.00    -0.031 C 
HETATM   23  C2  UNL     1     -27.352  -1.803  45.045  1.00  0.00    -0.035 C 
HETATM   24  C1  UNL     1     -26.847  -2.470  43.789  1.00  0.00     0.036 C 
ENDBRANCH  21  22
ENDBRANCH  20  21
ENDBRANCH   1  20
TORSDOF 9
ENDMDL
MODEL 5
REMARK VINA RESULT: -6.211594274      1.637      2.719
REMARK  9 active torsions:
REMARK  status: ('A' for Active; 'I' for Inactive)
REMARK    1  A    between atoms: C3_3  and  C4_4 
REMARK    2  A    between atoms: C4_4  and  C5_5 
REMARK    3  A    between atoms: C5_5  and  C6_6 
REMARK    4  A    between atoms: C8_8  and  O1_9 
REMARK    5  A    between atoms: C9_11  and  C11_13 
REMARK    6  A    between atoms: C12_14  and  C13_15 
REMARK    7  A    between atoms: C15_18  and  C16_19 
REMARK    8  A    between atoms: C16_19  and  C17_20 
REMARK    9  A    between atoms: C17_20  and  O3_21 
ROOT
HETATM    1  C6  UNL     1     -30.411  -1.996  40.784  1.00  0.00     0.163 C 
HETATM    2  C7  UNL     1     -30.379  -2.638  39.439  1.00  0.00     0.070 C 
HETATM    3  C8  UNL     1     -31.251  -3.865  39.343  1.00  0.00     0.162 C 
HETATM    4  C9  UNL     1     -32.456  -3.782  40.253  1.00  0.00     0.136 C 
HETATM    5  C10 UNL     1     -33.613  -3.158  39.462  1.00  0.00     0.057 C 
HETATM    6  O4  UNL     1     -32.207  -3.080  41.407  1.00  0.00    -0.223 OA
HETATM    7  O5  UNL     1     -31.740  -1.880  41.209  1.00  0.00    -0.234 OA
ENDROOT
BRANCH   4   8
HETATM    8  C11 UNL     1     -32.883  -5.160  40.618  1.00  0.00     0.015 C 
HETATM    9  C12 UNL     1     -33.143  -5.506  41.873  1.00  0.00     0.004 C 
BRANCH   9  10
HETATM   10  C13 UNL     1     -33.565  -6.843  42.285  1.00  0.00     0.150 C 
HETATM   11  O2  UNL     1     -33.849  -7.014  43.639  1.00  0.00    -0.381 OA
HETATM   12  C14 UNL     1     -33.487  -8.370  43.455  1.00  0.00     0.176 C 
HETATM   13  C15 UNL     1     -32.473  -7.878  42.454  1.00  0.00     0.044 C 
BRANCH  13  14
HETATM   14  C16 UNL     1     -32.257  -8.704  41.245  1.00  0.00     0.035 C 
BRANCH  14  15
HETATM   15  C17 UNL     1     -30.909  -8.585  40.617  1.00  0.00     0.164 C 
BRANCH  15  16
HETATM   16  O3  UNL     1     -31.087  -7.909  39.387  1.00  0.00    -0.401 OA
ATOM     17  H3  UNL     1     -30.801  -8.502  38.702  1.00  0.00     0.209 HD
ENDBRANCH  15  16
ENDBRANCH  14  15
ENDBRANCH  13  14
ENDBRANCH   9  10
ENDBRANCH   4   8
BRANCH   3  18
HETATM   18  O1  UNL     1     -30.468  -4.984  39.618  1.00  0.00    -0.392 OA
ATOM     19  H1  UNL     1     -30.793  -5.713  39.103  1.00  0.00     0.210 HD
ENDBRANCH   3  18
BRANCH   1  20
HETATM   20  C5  UNL     1     -29.849  -0.594  40.704  1.00  0.00     0.039 C 
BRANCH  20  21
HETATM   21  C4  UNL     1     -29.409  -0.156  42.083  1.00  0.00     0.029 C 
BRANCH  21  22
HETATM   22  C3  UNL     1     -28.722  -1.228  42.813  1.00  0.00    -0.031 C 
HETATM   23  C2  UNL     1     -28.238  -0.999  44.020  1.00  0.00    -0.035 C 
HETATM   24  C1  UNL     1     -28.376   0.353  44.678  1.00  0.00     0.036 C 
ENDBRANCH  21  22
ENDBRANCH  20  21
ENDBRANCH   1  20
TORSDOF 9
ENDMDL
