MODEL 1
REMARK VINA RESULT: -6.991063407      0.000      0.000
REMARK  5 active torsions:
REMARK  status: ('A' for Active; 'I' for Inactive)
REMARK    1  A    between atoms: O1_2  and  C2_3 
REMARK    2  A    between atoms: C2_3  and  C3_5 
REMARK    3  A    between atoms: C4_7  and  C5_8 
REMARK    4  A    between atoms: C10_13  and  N1_14 
REMARK       I    between atoms: N1_14  and  C11_16 
REMARK    5  A    between atoms: C11_16  and  C12_18 
ROOT
HETATM    1  C3  UNL     1      32.689   8.107  25.836  1.00  0.00     0.107 A 
HETATM    2  S1  UNL     1      33.711   6.733  25.728  1.00  0.00    -0.086 SA
HETATM    3  C4  UNL     1      34.087   6.785  24.079  1.00  0.00    -0.007 A 
HETATM    4  C9  UNL     1      33.399   7.888  23.631  1.00  0.00     0.046 A 
HETATM    5  C10 UNL     1      32.666   8.579  24.544  1.00  0.00     0.059 A 
ENDROOT
BRANCH   5   6
HETATM    6  N1  UNL     1      31.989   9.808  24.207  1.00  0.00    -0.325 N 
HETATM    7  C11 UNL     1      32.599  10.916  23.591  1.00  0.00     0.229 C 
HETATM    8  O3  UNL     1      33.804  10.930  23.263  1.00  0.00    -0.272 OA
ATOM      9  H1  UNL     1      30.997   9.878  24.431  1.00  0.00     0.169 HD
BRANCH   7  10
HETATM   10  C12 UNL     1      31.768  12.126  23.319  1.00  0.00     0.030 C 
HETATM   11  C13 UNL     1      30.347  11.839  23.740  1.00  0.00     0.025 C 
HETATM   12  C14 UNL     1      32.232  13.366  24.007  1.00  0.00     0.025 C 
HETATM   13  C15 UNL     1      31.716  12.390  21.817  1.00  0.00     0.025 C 
ENDBRANCH   7  10
ENDBRANCH   5   6
BRANCH   1  14
HETATM   14  C2  UNL     1      31.976   8.607  27.038  1.00  0.00     0.302 C 
HETATM   15  O2  UNL     1      32.166   8.204  28.204  1.00  0.00    -0.259 OA
BRANCH  14  16
HETATM   16  O1  UNL     1      31.033   9.595  26.892  1.00  0.00    -0.322 OA
HETATM   17  C1  UNL     1      29.877   9.653  27.746  1.00  0.00     0.213 C 
ENDBRANCH  14  16
ENDBRANCH   1  14
BRANCH   3  18
HETATM   18  C5  UNL     1      34.945   5.842  23.271  1.00  0.00    -0.018 C 
HETATM   19  C6  UNL     1      34.041   4.644  22.934  1.00  0.00     0.020 C 
HETATM   20  C7  UNL     1      35.378   6.416  21.968  1.00  0.00     0.020 C 
HETATM   21  C8  UNL     1      36.101   5.271  24.027  1.00  0.00     0.020 C 
ENDBRANCH   3  18
TORSDOF 5
ENDMDL
MODEL 2
REMARK VINA RESULT: -6.987378380      0.706      1.515
REMARK  5 active torsions:
REMARK  status: ('A' for Active; 'I' for Inactive)
REMARK    1  A    between atoms: O1_2  and  C2_3 
REMARK    2  A    between atoms: C2_3  and  C3_5 
REMARK    3  A    between atoms: C4_7  and  C5_8 
REMARK    4  A    between atoms: C10_13  and  N1_14 
REMARK       I    between atoms: N1_14  and  C11_16 
REMARK    5  A    between atoms: C11_16  and  C12_18 
ROOT
HETATM    1  C3  UNL     1      33.372   7.828  25.778  1.00  0.00     0.107 A 
HETATM    2  S1  UNL     1      34.349   6.443  25.519  1.00  0.00    -0.086 SA
HETATM    3  C4  UNL     1      34.445   6.471  23.830  1.00  0.00    -0.007 A 
HETATM    4  C9  UNL     1      33.702   7.577  23.489  1.00  0.00     0.046 A 
HETATM    5  C10 UNL     1      33.139   8.286  24.502  1.00  0.00     0.059 A 
ENDROOT
BRANCH   5   6
HETATM    6  N1  UNL     1      32.426   9.519  24.266  1.00  0.00    -0.325 N 
HETATM    7  C11 UNL     1      32.998  10.685  23.727  1.00  0.00     0.229 C 
HETATM    8  O3  UNL     1      34.198  10.754  23.384  1.00  0.00    -0.272 OA
ATOM      9  H1  UNL     1      31.435   9.546  24.508  1.00  0.00     0.169 HD
BRANCH   7  10
HETATM   10  C12 UNL     1      32.133  11.890  23.557  1.00  0.00     0.030 C 
HETATM   11  C13 UNL     1      32.816  13.068  24.209  1.00  0.00     0.025 C 
HETATM   12  C14 UNL     1      31.823  12.238  22.140  1.00  0.00     0.025 C 
HETATM   13  C15 UNL     1      30.821  11.694  24.311  1.00  0.00     0.025 C 
ENDBRANCH   7  10
ENDBRANCH   5   6
BRANCH   1  14
HETATM   14  C2  UNL     1      32.874   8.350  27.075  1.00  0.00     0.302 C 
HETATM   15  O2  UNL     1      33.415   8.154  28.182  1.00  0.00    -0.259 OA
BRANCH  14  16
HETATM   16  O1  UNL     1      31.736   9.118  27.094  1.00  0.00    -0.322 OA
HETATM   17  C1  UNL     1      30.584   8.724  27.858  1.00  0.00     0.213 C 
ENDBRANCH  14  16
ENDBRANCH   1  14
BRANCH   3  18
HETATM   18  C5  UNL     1      35.148   5.510  22.902  1.00  0.00    -0.018 C 
HETATM   19  C6  UNL     1      35.420   6.303  21.612  1.00  0.00     0.020 C 
HETATM   20  C7  UNL     1      36.477   5.073  23.409  1.00  0.00     0.020 C 
HETATM   21  C8  UNL     1      34.312   4.344  22.486  1.00  0.00     0.020 C 
ENDBRANCH   3  18
TORSDOF 5
ENDMDL
MODEL 3
REMARK VINA RESULT: -6.696819741      1.922      5.705
REMARK  5 active torsions:
REMARK  status: ('A' for Active; 'I' for Inactive)
REMARK    1  A    between atoms: O1_2  and  C2_3 
REMARK    2  A    between atoms: C2_3  and  C3_5 
REMARK    3  A    between atoms: C4_7  and  C5_8 
REMARK    4  A    between atoms: C10_13  and  N1_14 
REMARK       I    between atoms: N1_14  and  C11_16 
REMARK    5  A    between atoms: C11_16  and  C12_18 
ROOT
HETATM    1  C3  UNL     1      31.726   8.607  25.456  1.00  0.00     0.107 A 
HETATM    2  S1  UNL     1      30.812  10.045  25.263  1.00  0.00    -0.086 SA
HETATM    3  C4  UNL     1      31.727  10.807  24.060  1.00  0.00    -0.007 A 
HETATM    4  C9  UNL     1      32.746   9.915  23.825  1.00  0.00     0.046 A 
HETATM    5  C10 UNL     1      32.751   8.768  24.553  1.00  0.00     0.059 A 
ENDROOT
BRANCH   5   6
HETATM    6  N1  UNL     1      33.713   7.718  24.318  1.00  0.00    -0.325 N 
HETATM    7  C11 UNL     1      33.470   6.566  23.547  1.00  0.00     0.229 C 
HETATM    8  O3  UNL     1      32.380   6.351  22.976  1.00  0.00    -0.272 OA
ATOM      9  H1  UNL     1      34.636   7.819  24.740  1.00  0.00     0.169 HD
BRANCH   7  10
HETATM   10  C12 UNL     1      34.563   5.559  23.408  1.00  0.00     0.030 C 
HETATM   11  C13 UNL     1      35.290   5.813  22.110  1.00  0.00     0.025 C 
HETATM   12  C14 UNL     1      35.556   5.560  24.522  1.00  0.00     0.025 C 
HETATM   13  C15 UNL     1      33.965   4.160  23.288  1.00  0.00     0.025 C 
ENDBRANCH   7  10
ENDBRANCH   5   6
BRANCH   1  14
HETATM   14  C2  UNL     1      31.473   7.501  26.413  1.00  0.00     0.302 C 
HETATM   15  O2  UNL     1      30.916   6.421  26.130  1.00  0.00    -0.259 OA
BRANCH  14  16
HETATM   16  O1  UNL     1      31.876   7.641  27.719  1.00  0.00    -0.322 OA
HETATM   17  C1  UNL     1      33.268   7.756  28.060  1.00  0.00     0.213 C 
ENDBRANCH  14  16
ENDBRANCH   1  14
BRANCH   3  18
HETATM   18  C5  UNL     1      31.508  12.151  23.409  1.00  0.00    -0.018 C 
HETATM   19  C6  UNL     1      29.985  12.367  23.405  1.00  0.00     0.020 C 
HETATM   20  C7  UNL     1      32.086  13.280  24.188  1.00  0.00     0.020 C 
HETATM   21  C8  UNL     1      31.924  12.208  21.975  1.00  0.00     0.020 C 
ENDBRANCH   3  18
TORSDOF 5
ENDMDL
MODEL 4
REMARK VINA RESULT: -6.667778601      1.948      5.701
REMARK  5 active torsions:
REMARK  status: ('A' for Active; 'I' for Inactive)
REMARK    1  A    between atoms: O1_2  and  C2_3 
REMARK    2  A    between atoms: C2_3  and  C3_5 
REMARK    3  A    between atoms: C4_7  and  C5_8 
REMARK    4  A    between atoms: C10_13  and  N1_14 
REMARK       I    between atoms: N1_14  and  C11_16 
REMARK    5  A    between atoms: C11_16  and  C12_18 
ROOT
HETATM    1  C3  UNL     1      31.788   8.686  25.749  1.00  0.00     0.107 A 
HETATM    2  S1  UNL     1      30.879  10.131  25.589  1.00  0.00    -0.086 SA
HETATM    3  C4  UNL     1      31.676  10.827  24.268  1.00  0.00    -0.007 A 
HETATM    4  C9  UNL     1      32.654   9.908  23.968  1.00  0.00     0.046 A 
HETATM    5  C10 UNL     1      32.718   8.791  24.740  1.00  0.00     0.059 A 
ENDROOT
BRANCH   5   6
HETATM    6  N1  UNL     1      33.636   7.716  24.452  1.00  0.00    -0.325 N 
HETATM    7  C11 UNL     1      33.336   6.598  23.652  1.00  0.00     0.229 C 
HETATM    8  O3  UNL     1      32.227   6.440  23.098  1.00  0.00    -0.272 OA
ATOM      9  H1  UNL     1      34.570   7.771  24.857  1.00  0.00     0.169 HD
BRANCH   7  10
HETATM   10  C12 UNL     1      34.389   5.557  23.459  1.00  0.00     0.030 C 
HETATM   11  C13 UNL     1      35.314   5.581  24.651  1.00  0.00     0.025 C 
HETATM   12  C14 UNL     1      33.867   4.171  23.283  1.00  0.00     0.025 C 
HETATM   13  C15 UNL     1      35.251   5.913  22.251  1.00  0.00     0.025 C 
ENDBRANCH   7  10
ENDBRANCH   5   6
BRANCH   1  14
HETATM   14  C2  UNL     1      31.619   7.624  26.772  1.00  0.00     0.302 C 
HETATM   15  O2  UNL     1      30.590   7.441  27.452  1.00  0.00    -0.259 OA
BRANCH  14  16
HETATM   16  O1  UNL     1      32.656   6.754  27.008  1.00  0.00    -0.322 OA
HETATM   17  C1  UNL     1      33.583   6.975  28.085  1.00  0.00     0.213 C 
ENDBRANCH  14  16
ENDBRANCH   1  14
BRANCH   3  18
HETATM   18  C5  UNL     1      31.410  12.148  23.587  1.00  0.00    -0.018 C 
HETATM   19  C6  UNL     1      32.078  12.042  22.205  1.00  0.00     0.020 C 
HETATM   20  C7  UNL     1      29.965  12.395  23.332  1.00  0.00     0.020 C 
HETATM   21  C8  UNL     1      32.055  13.318  24.255  1.00  0.00     0.020 C 
ENDBRANCH   3  18
TORSDOF 5
ENDMDL
MODEL 5
REMARK VINA RESULT: -6.653223331      2.207      5.741
REMARK  5 active torsions:
REMARK  status: ('A' for Active; 'I' for Inactive)
REMARK    1  A    between atoms: O1_2  and  C2_3 
REMARK    2  A    between atoms: C2_3  and  C3_5 
REMARK    3  A    between atoms: C4_7  and  C5_8 
REMARK    4  A    between atoms: C10_13  and  N1_14 
REMARK       I    between atoms: N1_14  and  C11_16 
REMARK    5  A    between atoms: C11_16  and  C12_18 
ROOT
HETATM    1  C3  UNL     1      31.727   8.019  25.094  1.00  0.00     0.107 A 
HETATM    2  S1  UNL     1      31.088   9.599  24.904  1.00  0.00    -0.086 SA
HETATM    3  C4  UNL     1      32.401  10.349  24.144  1.00  0.00    -0.007 A 
HETATM    4  C9  UNL     1      33.331   9.342  24.050  1.00  0.00     0.046 A 
HETATM    5  C10 UNL     1      32.985   8.125  24.547  1.00  0.00     0.059 A 
ENDROOT
BRANCH   5   6
HETATM    6  N1  UNL     1      33.842   6.972  24.410  1.00  0.00    -0.325 N 
HETATM    7  C11 UNL     1      33.692   5.973  23.431  1.00  0.00     0.229 C 
HETATM    8  O3  UNL     1      32.791   6.003  22.566  1.00  0.00    -0.272 OA
ATOM      9  H1  UNL     1      34.613   6.875  25.071  1.00  0.00     0.169 HD
BRANCH   7  10
HETATM   10  C12 UNL     1      34.652   4.830  23.427  1.00  0.00     0.030 C 
HETATM   11  C13 UNL     1      35.484   4.895  24.685  1.00  0.00     0.025 C 
HETATM   12  C14 UNL     1      34.015   3.483  23.341  1.00  0.00     0.025 C 
HETATM   13  C15 UNL     1      35.632   4.982  22.266  1.00  0.00     0.025 C 
ENDBRANCH   7  10
ENDBRANCH   5   6
BRANCH   1  14
HETATM   14  C2  UNL     1      31.074   6.855  25.743  1.00  0.00     0.302 C 
HETATM   15  O2  UNL     1      30.721   5.811  25.158  1.00  0.00    -0.259 OA
BRANCH  14  16
HETATM   16  O1  UNL     1      30.828   6.894  27.095  1.00  0.00    -0.322 OA
HETATM   17  C1  UNL     1      31.824   7.367  28.018  1.00  0.00     0.213 C 
ENDBRANCH  14  16
ENDBRANCH   1  14
BRANCH   3  18
HETATM   18  C5  UNL     1      32.545  11.783  23.695  1.00  0.00    -0.018 C 
HETATM   19  C6  UNL     1      34.059  12.053  23.649  1.00  0.00     0.020 C 
HETATM   20  C7  UNL     1      32.038  12.019  22.316  1.00  0.00     0.020 C 
HETATM   21  C8  UNL     1      31.991  12.782  24.659  1.00  0.00     0.020 C 
ENDBRANCH   3  18
TORSDOF 5
ENDMDL
