MODEL 1
REMARK VINA RESULT: -7.634405686      0.000      0.000
REMARK  3 active torsions:
REMARK  status: ('A' for Active; 'I' for Inactive)
REMARK    1  A    between atoms: C3_4  and  O2_5 
REMARK    2  A    between atoms: N1_14  and  C10_15 
REMARK    3  A    between atoms: C10_15  and  C11_16 
ROOT
HETATM    1  C1  UNL     1      31.700  12.765  21.684  1.00  0.00     0.077 C 
HETATM    2  C2  UNL     1      31.015  11.840  22.641  1.00  0.00     0.061 A 
HETATM    3  O1  UNL     1      29.761  11.520  22.669  1.00  0.00    -0.292 OA
HETATM    4  C3  UNL     1      29.529  10.689  23.645  1.00  0.00     0.193 A 
HETATM    5  C4  UNL     1      30.715  10.450  24.299  1.00  0.00     0.045 A 
HETATM    6  C5  UNL     1      31.673  11.190  23.656  1.00  0.00     0.009 A 
HETATM    7  C6  UNL     1      32.950  10.932  24.357  1.00  0.00     0.211 C 
HETATM    8  O3  UNL     1      32.602  10.423  25.590  1.00  0.00    -0.370 OA
HETATM    9  C7  UNL     1      31.424   9.749  25.385  1.00  0.00     0.097 C 
HETATM   10  C8  UNL     1      31.745   8.314  25.001  1.00  0.00     0.073 C 
HETATM   11  C9  UNL     1      31.052   7.388  25.969  1.00  0.00     0.276 C 
HETATM   12  N1  UNL     1      31.663   7.611  27.298  1.00  0.00     0.089 N 
HETATM   13  C16 UNL     1      31.306   8.980  27.703  1.00  0.00     0.276 C 
HETATM   14  C17 UNL     1      30.555   9.730  26.630  1.00  0.00     0.073 C 
ENDROOT
BRANCH   4  15
HETATM   15  O2  UNL     1      28.283  10.117  23.993  1.00  0.00    -0.340 OA
ATOM     16  H2  UNL     1      27.864   9.372  23.579  1.00  0.00     0.220 HD
ENDBRANCH   4  15
BRANCH  12  17
HETATM   17  C10 UNL     1      31.100   6.654  28.206  1.00  0.00     0.277 C 
BRANCH  17  18
HETATM   18  C11 UNL     1      31.993   6.059  29.215  1.00  0.00     0.014 C 
HETATM   19  C12 UNL     1      31.767   6.309  30.652  1.00  0.00     0.006 C 
HETATM   20  C13 UNL     1      33.190   6.008  31.209  1.00  0.00     0.000 C 
HETATM   21  C14 UNL     1      34.002   6.878  30.235  1.00  0.00     0.000 C 
HETATM   22  C15 UNL     1      33.471   6.357  28.918  1.00  0.00     0.006 C 
ENDBRANCH  17  18
ENDBRANCH  12  17
TORSDOF 3
ENDMDL
MODEL 2
REMARK VINA RESULT: -7.532010003      1.105      2.501
REMARK  3 active torsions:
REMARK  status: ('A' for Active; 'I' for Inactive)
REMARK    1  A    between atoms: C3_4  and  O2_5 
REMARK    2  A    between atoms: N1_14  and  C10_15 
REMARK    3  A    between atoms: C10_15  and  C11_16 
ROOT
HETATM    1  C1  UNL     1      31.484  12.870  21.883  1.00  0.00     0.077 C 
HETATM    2  C2  UNL     1      32.037  11.810  22.783  1.00  0.00     0.061 A 
HETATM    3  O1  UNL     1      33.281  11.508  22.976  1.00  0.00    -0.292 OA
HETATM    4  C3  UNL     1      33.379  10.529  23.830  1.00  0.00     0.193 A 
HETATM    5  C4  UNL     1      32.111  10.168  24.222  1.00  0.00     0.045 A 
HETATM    6  C5  UNL     1      31.245  10.990  23.549  1.00  0.00     0.009 A 
HETATM    7  C6  UNL     1      29.881  10.604  23.970  1.00  0.00     0.211 C 
HETATM    8  O3  UNL     1      30.000   9.340  24.506  1.00  0.00    -0.370 OA
HETATM    9  C7  UNL     1      31.260   9.291  25.047  1.00  0.00     0.097 C 
HETATM   10  C8  UNL     1      31.193   9.780  26.485  1.00  0.00     0.073 C 
HETATM   11  C9  UNL     1      31.752   8.707  27.386  1.00  0.00     0.276 C 
HETATM   12  N1  UNL     1      30.839   7.545  27.296  1.00  0.00     0.089 N 
HETATM   13  C16 UNL     1      30.945   7.031  25.922  1.00  0.00     0.276 C 
HETATM   14  C17 UNL     1      31.828   7.884  25.043  1.00  0.00     0.073 C 
ENDROOT
BRANCH   4  15
HETATM   15  O2  UNL     1      34.573   9.924  24.291  1.00  0.00    -0.340 OA
ATOM     16  H2  UNL     1      35.242   9.509  23.760  1.00  0.00     0.220 HD
ENDBRANCH   4  15
BRANCH  12  17
HETATM   17  C10 UNL     1      31.288   6.561  28.238  1.00  0.00     0.277 C 
BRANCH  17  18
HETATM   18  C11 UNL     1      32.443   6.900  29.086  1.00  0.00     0.014 C 
HETATM   19  C12 UNL     1      33.725   6.188  28.920  1.00  0.00     0.006 C 
HETATM   20  C13 UNL     1      34.366   6.448  30.315  1.00  0.00     0.000 C 
HETATM   21  C14 UNL     1      33.177   6.020  31.192  1.00  0.00     0.000 C 
HETATM   22  C15 UNL     1      32.086   6.870  30.580  1.00  0.00     0.006 C 
ENDBRANCH  17  18
ENDBRANCH  12  17
TORSDOF 3
ENDMDL
MODEL 3
REMARK VINA RESULT: -7.197327981      4.711      7.231
REMARK  3 active torsions:
REMARK  status: ('A' for Active; 'I' for Inactive)
REMARK    1  A    between atoms: C3_4  and  O2_5 
REMARK    2  A    between atoms: N1_14  and  C10_15 
REMARK    3  A    between atoms: C10_15  and  C11_16 
ROOT
HETATM    1  C1  UNL     1      34.909   1.672  20.911  1.00  0.00     0.077 C 
HETATM    2  C2  UNL     1      34.885   3.129  21.253  1.00  0.00     0.061 A 
HETATM    3  O1  UNL     1      35.354   4.112  20.553  1.00  0.00    -0.292 OA
HETATM    4  C3  UNL     1      35.153   5.241  21.171  1.00  0.00     0.193 A 
HETATM    5  C4  UNL     1      34.507   4.976  22.356  1.00  0.00     0.045 A 
HETATM    6  C5  UNL     1      34.335   3.617  22.412  1.00  0.00     0.009 A 
HETATM    7  C6  UNL     1      33.639   3.330  23.685  1.00  0.00     0.211 C 
HETATM    8  O3  UNL     1      33.830   4.445  24.474  1.00  0.00    -0.370 OA
HETATM    9  C7  UNL     1      33.911   5.499  23.599  1.00  0.00     0.097 C 
HETATM   10  C8  UNL     1      32.512   6.040  23.356  1.00  0.00     0.073 C 
HETATM   11  C9  UNL     1      32.495   7.509  23.702  1.00  0.00     0.276 C 
HETATM   12  N1  UNL     1      32.738   7.615  25.158  1.00  0.00     0.089 N 
HETATM   13  C16 UNL     1      34.113   7.148  25.392  1.00  0.00     0.276 C 
HETATM   14  C17 UNL     1      34.775   6.624  24.141  1.00  0.00     0.073 C 
ENDROOT
BRANCH   4  15
HETATM   15  O2  UNL     1      35.524   6.530  20.721  1.00  0.00    -0.340 OA
ATOM     16  H2  UNL     1      36.400   6.896  20.705  1.00  0.00     0.220 HD
ENDBRANCH   4  15
BRANCH  12  17
HETATM   17  C10 UNL     1      32.606   8.995  25.526  1.00  0.00     0.277 C 
BRANCH  17  18
HETATM   18  C11 UNL     1      32.652   9.998  24.449  1.00  0.00     0.014 C 
HETATM   19  C12 UNL     1      33.901  10.732  24.166  1.00  0.00     0.006 C 
HETATM   20  C13 UNL     1      33.326  11.983  23.440  1.00  0.00     0.000 C 
HETATM   21  C14 UNL     1      32.244  12.361  24.465  1.00  0.00     0.000 C 
HETATM   22  C15 UNL     1      31.526  11.036  24.584  1.00  0.00     0.006 C 
ENDBRANCH  17  18
ENDBRANCH  12  17
TORSDOF 3
ENDMDL
MODEL 4
REMARK VINA RESULT: -7.136027411      3.492      7.288
REMARK  3 active torsions:
REMARK  status: ('A' for Active; 'I' for Inactive)
REMARK    1  A    between atoms: C3_4  and  O2_5 
REMARK    2  A    between atoms: N1_14  and  C10_15 
REMARK    3  A    between atoms: C10_15  and  C11_16 
ROOT
HETATM    1  C1  UNL     1      35.524   2.895  23.652  1.00  0.00     0.077 C 
HETATM    2  C2  UNL     1      34.966   4.071  24.393  1.00  0.00     0.061 A 
HETATM    3  O1  UNL     1      35.116   4.357  25.647  1.00  0.00    -0.292 OA
HETATM    4  C3  UNL     1      34.484   5.459  25.935  1.00  0.00     0.193 A 
HETATM    5  C4  UNL     1      33.881   5.924  24.790  1.00  0.00     0.045 A 
HETATM    6  C5  UNL     1      34.189   5.032  23.796  1.00  0.00     0.009 A 
HETATM    7  C6  UNL     1      33.542   5.531  22.562  1.00  0.00     0.211 C 
HETATM    8  O3  UNL     1      32.569   6.412  22.983  1.00  0.00    -0.370 OA
HETATM    9  C7  UNL     1      33.050   6.958  24.146  1.00  0.00     0.097 C 
HETATM   10  C8  UNL     1      33.869   8.192  23.803  1.00  0.00     0.073 C 
HETATM   11  C9  UNL     1      33.302   9.372  24.553  1.00  0.00     0.276 C 
HETATM   12  N1  UNL     1      31.942   9.612  24.021  1.00  0.00     0.089 N 
HETATM   13  C16 UNL     1      31.128   8.447  24.401  1.00  0.00     0.276 C 
HETATM   14  C17 UNL     1      31.932   7.369  25.087  1.00  0.00     0.073 C 
ENDROOT
BRANCH   4  15
HETATM   15  O2  UNL     1      34.414   6.090  27.200  1.00  0.00    -0.340 OA
ATOM     16  H2  UNL     1      33.627   6.334  27.671  1.00  0.00     0.220 HD
ENDBRANCH   4  15
BRANCH  12  17
HETATM   17  C10 UNL     1      31.434  10.804  24.636  1.00  0.00     0.277 C 
BRANCH  17  18
HETATM   18  C11 UNL     1      30.668  11.737  23.794  1.00  0.00     0.014 C 
HETATM   19  C12 UNL     1      29.421  11.298  23.138  1.00  0.00     0.006 C 
HETATM   20  C13 UNL     1      29.335  12.342  21.986  1.00  0.00     0.000 C 
HETATM   21  C14 UNL     1      30.766  12.196  21.443  1.00  0.00     0.000 C 
HETATM   22  C15 UNL     1      31.549  12.396  22.721  1.00  0.00     0.006 C 
ENDBRANCH  17  18
ENDBRANCH  12  17
TORSDOF 3
ENDMDL
MODEL 5
REMARK VINA RESULT: -7.133638083      3.216      7.131
REMARK  3 active torsions:
REMARK  status: ('A' for Active; 'I' for Inactive)
REMARK    1  A    between atoms: C3_4  and  O2_5 
REMARK    2  A    between atoms: N1_14  and  C10_15 
REMARK    3  A    between atoms: C10_15  and  C11_16 
ROOT
HETATM    1  C1  UNL     1      35.782   3.840  25.305  1.00  0.00     0.077 C 
HETATM    2  C2  UNL     1      35.273   5.079  24.637  1.00  0.00     0.061 A 
HETATM    3  O1  UNL     1      35.419   5.425  23.398  1.00  0.00    -0.292 OA
HETATM    4  C3  UNL     1      34.840   6.571  23.179  1.00  0.00     0.193 A 
HETATM    5  C4  UNL     1      34.276   7.003  24.357  1.00  0.00     0.045 A 
HETATM    6  C5  UNL     1      34.554   6.045  25.297  1.00  0.00     0.009 A 
HETATM    7  C6  UNL     1      33.946   6.506  26.565  1.00  0.00     0.211 C 
HETATM    8  O3  UNL     1      33.737   7.859  26.407  1.00  0.00    -0.370 OA
HETATM    9  C7  UNL     1      33.500   8.036  25.067  1.00  0.00     0.097 C 
HETATM   10  C8  UNL     1      32.010   7.882  24.811  1.00  0.00     0.073 C 
HETATM   11  C9  UNL     1      31.503   9.134  24.138  1.00  0.00     0.276 C 
HETATM   12  N1  UNL     1      31.648  10.240  25.110  1.00  0.00     0.089 N 
HETATM   13  C16 UNL     1      33.092  10.433  25.318  1.00  0.00     0.276 C 
HETATM   14  C17 UNL     1      33.931   9.411  24.589  1.00  0.00     0.073 C 
ENDROOT
BRANCH   4  15
HETATM   15  O2  UNL     1      34.786   7.272  21.951  1.00  0.00    -0.340 OA
ATOM     16  H2  UNL     1      35.396   7.932  21.646  1.00  0.00     0.220 HD
ENDBRANCH   4  15
BRANCH  12  17
HETATM   17  C10 UNL     1      31.061  11.413  24.532  1.00  0.00     0.277 C 
BRANCH  17  18
HETATM   18  C11 UNL     1      30.758  11.388  23.091  1.00  0.00     0.014 C 
HETATM   19  C12 UNL     1      31.407  12.348  22.176  1.00  0.00     0.006 C 
HETATM   20  C13 UNL     1      30.395  12.327  20.993  1.00  0.00     0.000 C 
HETATM   21  C14 UNL     1      29.103  12.546  21.798  1.00  0.00     0.000 C 
HETATM   22  C15 UNL     1      29.246  11.442  22.822  1.00  0.00     0.006 C 
ENDBRANCH  17  18
ENDBRANCH  12  17
TORSDOF 3
ENDMDL
