MODEL 1
REMARK VINA RESULT: -6.769882522      0.000      0.000
REMARK  3 active torsions:
REMARK  status: ('A' for Active; 'I' for Inactive)
REMARK    1  A    between atoms: C12_14  and  O3_15 
REMARK    2  A    between atoms: O3_15  and  O4_16 
REMARK    3  A    between atoms: C13_18  and  C14_19 
ROOT
HETATM    1  C1  UNL     1      31.656  12.206  20.747  1.00  0.00     0.049 C 
HETATM    2  C2  UNL     1      30.733  11.949  21.645  1.00  0.00     0.082 C 
HETATM    3  O1  UNL     1      29.456  11.531  21.356  1.00  0.00    -0.202 OA
HETATM    4  O2  UNL     1      28.975  10.946  22.450  1.00  0.00    -0.224 OA
HETATM    5  C3  UNL     1      29.521  11.632  23.552  1.00  0.00     0.103 C 
HETATM    6  C4  UNL     1      28.563  12.853  23.608  1.00  0.00     0.050 C 
HETATM    7  C5  UNL     1      29.243  10.883  24.763  1.00  0.00     0.042 C 
HETATM    8  C6  UNL     1      29.943   9.614  25.013  1.00  0.00     0.011 C 
HETATM    9  C7  UNL     1      31.084   9.286  24.097  1.00  0.00     0.028 C 
HETATM   10  C8  UNL     1      31.509   7.866  24.160  1.00  0.00    -0.012 C 
HETATM   11  C9  UNL     1      31.073   7.083  25.361  1.00  0.00     0.010 C 
HETATM   12  C10 UNL     1      32.990   7.917  23.974  1.00  0.00     0.008 C 
HETATM   13  C11 UNL     1      33.353   9.347  23.695  1.00  0.00     0.042 C 
HETATM   14  C12 UNL     1      32.240  10.207  24.270  1.00  0.00     0.105 C 
HETATM   15  C13 UNL     1      32.100  11.535  23.622  1.00  0.00     0.040 C 
HETATM   16  C17 UNL     1      30.836  12.042  23.128  1.00  0.00     0.089 C 
ENDROOT
BRANCH  14  17
HETATM   17  O3  UNL     1      32.594  10.417  25.602  1.00  0.00    -0.231 OA
BRANCH  17  18
HETATM   18  O4  UNL     1      33.546   9.692  26.054  1.00  0.00    -0.250 OA
ATOM     19  H4  UNL     1      33.330   9.120  26.781  1.00  0.00     0.253 HD
ENDBRANCH  17  18
ENDBRANCH  14  17
BRANCH  15  20
HETATM   20  C14 UNL     1      32.900  12.643  24.325  1.00  0.00    -0.015 C 
HETATM   21  C15 UNL     1      32.204  13.980  24.269  1.00  0.00     0.010 C 
HETATM   22  C16 UNL     1      34.330  12.681  24.030  1.00  0.00     0.010 C 
ENDBRANCH  15  20
TORSDOF 3
ENDMDL
MODEL 2
REMARK VINA RESULT: -6.258920457      2.143      5.317
REMARK  3 active torsions:
REMARK  status: ('A' for Active; 'I' for Inactive)
REMARK    1  A    between atoms: C12_14  and  O3_15 
REMARK    2  A    between atoms: O3_15  and  O4_16 
REMARK    3  A    between atoms: C13_18  and  C14_19 
ROOT
HETATM    1  C1  UNL     1      31.247   5.627  24.069  1.00  0.00     0.049 C 
HETATM    2  C2  UNL     1      32.242   6.483  24.026  1.00  0.00     0.082 C 
HETATM    3  O1  UNL     1      33.146   6.580  22.996  1.00  0.00    -0.202 OA
HETATM    4  O2  UNL     1      33.690   7.792  23.060  1.00  0.00    -0.224 OA
HETATM    5  C3  UNL     1      33.770   8.130  24.425  1.00  0.00     0.103 C 
HETATM    6  C4  UNL     1      35.065   7.368  24.814  1.00  0.00     0.050 C 
HETATM    7  C5  UNL     1      34.110   9.535  24.547  1.00  0.00     0.042 C 
HETATM    8  C6  UNL     1      33.117  10.561  24.195  1.00  0.00     0.011 C 
HETATM    9  C7  UNL     1      31.718  10.081  23.946  1.00  0.00     0.028 C 
HETATM   10  C8  UNL     1      30.861  11.076  23.257  1.00  0.00    -0.012 C 
HETATM   11  C9  UNL     1      31.328  12.500  23.278  1.00  0.00     0.010 C 
HETATM   12  C10 UNL     1      29.507  10.872  23.854  1.00  0.00     0.008 C 
HETATM   13  C11 UNL     1      29.604   9.694  24.780  1.00  0.00     0.042 C 
HETATM   14  C12 UNL     1      31.064   9.562  25.178  1.00  0.00     0.105 C 
HETATM   15  C13 UNL     1      31.463   8.191  25.583  1.00  0.00     0.040 C 
HETATM   16  C17 UNL     1      32.619   7.513  25.034  1.00  0.00     0.089 C 
ENDROOT
BRANCH  14  17
HETATM   17  O3  UNL     1      31.214  10.395  26.286  1.00  0.00    -0.231 OA
BRANCH  17  18
HETATM   18  O4  UNL     1      30.143  10.694  26.918  1.00  0.00    -0.250 OA
ATOM     19  H4  UNL     1      30.215  10.749  27.864  1.00  0.00     0.253 HD
ENDBRANCH  17  18
ENDBRANCH  14  17
BRANCH  15  20
HETATM   20  C14 UNL     1      31.347   7.945  27.096  1.00  0.00    -0.015 C 
HETATM   21  C15 UNL     1      32.690   7.934  27.782  1.00  0.00     0.010 C 
HETATM   22  C16 UNL     1      30.442   6.871  27.498  1.00  0.00     0.010 C 
ENDBRANCH  15  20
TORSDOF 3
ENDMDL
MODEL 3
REMARK VINA RESULT: -5.367920288      1.876      4.466
REMARK  3 active torsions:
REMARK  status: ('A' for Active; 'I' for Inactive)
REMARK    1  A    between atoms: C12_14  and  O3_15 
REMARK    2  A    between atoms: O3_15  and  O4_16 
REMARK    3  A    between atoms: C13_18  and  C14_19 
ROOT
HETATM    1  C1  UNL     1      31.318   8.993  27.708  1.00  0.00     0.049 C 
HETATM    2  C2  UNL     1      30.529   9.498  26.788  1.00  0.00     0.082 C 
HETATM    3  O1  UNL     1      29.374  10.197  27.046  1.00  0.00    -0.202 OA
HETATM    4  O2  UNL     1      29.102  10.922  25.964  1.00  0.00    -0.224 OA
HETATM    5  C3  UNL     1      29.524  10.169  24.852  1.00  0.00     0.103 C 
HETATM    6  C4  UNL     1      28.309   9.216  24.697  1.00  0.00     0.050 C 
HETATM    7  C5  UNL     1      29.494  11.010  23.670  1.00  0.00     0.042 C 
HETATM    8  C6  UNL     1      30.487  12.084  23.511  1.00  0.00     0.011 C 
HETATM    9  C7  UNL     1      31.624  12.094  24.488  1.00  0.00     0.028 C 
HETATM   10  C8  UNL     1      32.376  13.372  24.513  1.00  0.00    -0.012 C 
HETATM   11  C9  UNL     1      32.199  14.283  23.336  1.00  0.00     0.010 C 
HETATM   12  C10 UNL     1      33.791  12.961  24.755  1.00  0.00     0.008 C 
HETATM   13  C11 UNL     1      33.791  11.476  24.976  1.00  0.00     0.042 C 
HETATM   14  C12 UNL     1      32.536  10.930  24.315  1.00  0.00     0.105 C 
HETATM   15  C13 UNL     1      32.054   9.650  24.890  1.00  0.00     0.040 C 
HETATM   16  C17 UNL     1      30.682   9.441  25.307  1.00  0.00     0.089 C 
ENDROOT
BRANCH  14  17
HETATM   17  O3  UNL     1      32.898  10.694  22.990  1.00  0.00    -0.231 OA
BRANCH  17  18
HETATM   18  O4  UNL     1      34.123  10.909  22.691  1.00  0.00    -0.250 OA
ATOM     19  H4  UNL     1      34.750  10.264  22.998  1.00  0.00     0.253 HD
ENDBRANCH  17  18
ENDBRANCH  14  17
BRANCH  15  20
HETATM   20  C14 UNL     1      32.603   8.411  24.165  1.00  0.00    -0.015 C 
HETATM   21  C15 UNL     1      31.587   7.299  24.075  1.00  0.00     0.010 C 
HETATM   22  C16 UNL     1      33.945   7.988  24.555  1.00  0.00     0.010 C 
ENDBRANCH  15  20
TORSDOF 3
ENDMDL
MODEL 4
REMARK VINA RESULT: -5.311865536      1.545      4.105
REMARK  3 active torsions:
REMARK  status: ('A' for Active; 'I' for Inactive)
REMARK    1  A    between atoms: C12_14  and  O3_15 
REMARK    2  A    between atoms: O3_15  and  O4_16 
REMARK    3  A    between atoms: C13_18  and  C14_19 
ROOT
HETATM    1  C1  UNL     1      32.574  13.877  24.606  1.00  0.00     0.049 C 
HETATM    2  C2  UNL     1      33.065  12.674  24.414  1.00  0.00     0.082 C 
HETATM    3  O1  UNL     1      34.289  12.247  24.870  1.00  0.00    -0.202 OA
HETATM    4  O2  UNL     1      34.256  10.918  24.904  1.00  0.00    -0.224 OA
HETATM    5  C3  UNL     1      33.449  10.502  23.828  1.00  0.00     0.103 C 
HETATM    6  C4  UNL     1      34.480  10.592  22.670  1.00  0.00     0.050 C 
HETATM    7  C5  UNL     1      33.163   9.087  23.966  1.00  0.00     0.042 C 
HETATM    8  C6  UNL     1      32.252   8.625  25.025  1.00  0.00     0.011 C 
HETATM    9  C7  UNL     1      31.487   9.686  25.759  1.00  0.00     0.028 C 
HETATM   10  C8  UNL     1      30.877   9.211  27.024  1.00  0.00    -0.012 C 
HETATM   11  C9  UNL     1      30.736   7.728  27.192  1.00  0.00     0.010 C 
HETATM   12  C10 UNL     1      29.586   9.956  27.112  1.00  0.00     0.008 C 
HETATM   13  C11 UNL     1      29.549  10.917  25.959  1.00  0.00     0.042 C 
HETATM   14  C12 UNL     1      30.486  10.369  24.896  1.00  0.00     0.105 C 
HETATM   15  C13 UNL     1      31.032  11.399  23.977  1.00  0.00     0.040 C 
HETATM   16  C17 UNL     1      32.446  11.528  23.690  1.00  0.00     0.089 C 
ENDROOT
BRANCH  14  17
HETATM   17  O3  UNL     1      29.706   9.494  24.141  1.00  0.00    -0.231 OA
BRANCH  17  18
HETATM   18  O4  UNL     1      28.442   9.690  24.176  1.00  0.00    -0.250 OA
ATOM     19  H4  UNL     1      27.957   9.185  24.818  1.00  0.00     0.253 HD
ENDBRANCH  17  18
ENDBRANCH  14  17
BRANCH  15  20
HETATM   20  C14 UNL     1      30.193  11.585  22.702  1.00  0.00    -0.015 C 
HETATM   21  C15 UNL     1      31.038  11.930  21.502  1.00  0.00     0.010 C 
HETATM   22  C16 UNL     1      28.979  12.385  22.851  1.00  0.00     0.010 C 
ENDBRANCH  15  20
TORSDOF 3
ENDMDL
MODEL 5
REMARK VINA RESULT: -5.079228023      2.358      5.526
REMARK  3 active torsions:
REMARK  status: ('A' for Active; 'I' for Inactive)
REMARK    1  A    between atoms: C12_14  and  O3_15 
REMARK    2  A    between atoms: O3_15  and  O4_16 
REMARK    3  A    between atoms: C13_18  and  C14_19 
ROOT
HETATM    1  C1  UNL     1      34.569   6.360  26.656  1.00  0.00     0.049 C 
HETATM    2  C2  UNL     1      33.518   7.079  26.977  1.00  0.00     0.082 C 
HETATM    3  O1  UNL     1      33.312   7.657  28.206  1.00  0.00    -0.202 OA
HETATM    4  O2  UNL     1      32.434   8.642  28.037  1.00  0.00    -0.224 OA
HETATM    5  C3  UNL     1      31.547   8.229  27.025  1.00  0.00     0.103 C 
HETATM    6  C4  UNL     1      30.595   7.327  27.856  1.00  0.00     0.050 C 
HETATM    7  C5  UNL     1      30.733   9.357  26.616  1.00  0.00     0.042 C 
HETATM    8  C6  UNL     1      31.339  10.455  25.847  1.00  0.00     0.011 C 
HETATM    9  C7  UNL     1      32.727  10.224  25.330  1.00  0.00     0.028 C 
HETATM   10  C8  UNL     1      33.411  11.463  24.888  1.00  0.00    -0.012 C 
HETATM   11  C9  UNL     1      32.544  12.655  24.619  1.00  0.00     0.010 C 
HETATM   12  C10 UNL     1      34.231  11.032  23.716  1.00  0.00     0.008 C 
HETATM   13  C11 UNL     1      34.081   9.543  23.594  1.00  0.00     0.042 C 
HETATM   14  C12 UNL     1      32.778   9.170  24.280  1.00  0.00     0.105 C 
HETATM   15  C13 UNL     1      32.730   7.772  24.775  1.00  0.00     0.040 C 
HETATM   16  C17 UNL     1      32.344   7.429  26.129  1.00  0.00     0.089 C 
ENDROOT
BRANCH  14  17
HETATM   17  O3  UNL     1      31.799   9.310  23.298  1.00  0.00    -0.231 OA
BRANCH  17  18
HETATM   18  O4  UNL     1      30.643   9.680  23.702  1.00  0.00    -0.250 OA
ATOM     19  H4  UNL     1      30.461  10.612  23.660  1.00  0.00     0.253 HD
ENDBRANCH  17  18
ENDBRANCH  14  17
BRANCH  15  20
HETATM   20  C14 UNL     1      32.120   6.788  23.764  1.00  0.00    -0.015 C 
HETATM   21  C15 UNL     1      31.039   5.931  24.374  1.00  0.00     0.010 C 
HETATM   22  C16 UNL     1      33.073   6.070  22.921  1.00  0.00     0.010 C 
ENDBRANCH  15  20
TORSDOF 3
ENDMDL
