MODEL 1
REMARK VINA RESULT: -7.052245418      0.000      0.000
REMARK  2 active torsions:
REMARK  status: ('A' for Active; 'I' for Inactive)
REMARK    1  A    between atoms: C3_6  and  N2_7 
REMARK    2  A    between atoms: C12_17  and  N3_18 
ROOT
HETATM    1  N2  UNL     1     -22.712 -31.816 -21.203  1.00  0.00    -0.304 N 
HETATM    2  C4  UNL     1     -22.858 -31.022 -20.044  1.00  0.00     0.166 C 
HETATM    3  C5  UNL     1     -21.638 -30.199 -19.780  1.00  0.00     0.083 C 
HETATM    4  C6  UNL     1     -21.535 -30.128 -18.218  1.00  0.00     0.035 C 
HETATM    5  C7  UNL     1     -20.950 -28.784 -17.777  1.00  0.00     0.002 C 
HETATM    6  C8  UNL     1     -21.601 -27.541 -18.100  1.00  0.00     0.001 C 
HETATM    7  C9  UNL     1     -21.240 -26.726 -19.325  1.00  0.00     0.011 C 
HETATM    8  C10 UNL     1     -21.468 -27.527 -20.645  1.00  0.00     0.081 C 
HETATM    9  C11 UNL     1     -21.551 -28.892 -20.288  1.00  0.00    -0.160 C 
HETATM   10  S2  UNL     1     -20.338 -31.348 -20.397  1.00  0.00    -0.070 SA
HETATM   11  C12 UNL     1     -21.413 -32.263 -21.482  1.00  0.00     0.143 C 
ENDROOT
BRANCH   1  12
HETATM   12  C3  UNL     1     -23.822 -32.153 -22.046  1.00  0.00     0.170 A 
HETATM   13  S1  UNL     1     -24.910 -33.478 -21.941  1.00  0.00     0.024 SA
HETATM   14  N1  UNL     1     -25.868 -33.116 -23.278  1.00  0.00    -0.313 N 
HETATM   15  C2  UNL     1     -25.309 -31.994 -23.745  1.00  0.00     0.085 A 
ATOM     16  H1  UNL     1     -26.674 -33.624 -23.641  1.00  0.00     0.175 HD
HETATM   17  C1  UNL     1     -25.896 -31.328 -24.979  1.00  0.00     0.089 C 
HETATM   18  N4  UNL     1     -24.282 -31.520 -23.117  1.00  0.00    -0.325 N 
ATOM     19  H4  UNL     1     -23.829 -30.666 -23.443  1.00  0.00     0.169 HD
ENDBRANCH   1  12
BRANCH  11  20
HETATM   20  N3  UNL     1     -21.048 -33.131 -22.323  1.00  0.00    -0.380 N 
ATOM     21  H32 UNL     1     -21.205 -33.090 -23.330  1.00  0.00     0.158 HD
ATOM     22  H31 UNL     1     -20.548 -34.003 -22.154  1.00  0.00     0.158 HD
ENDBRANCH  11  20
TORSDOF 2
ENDMDL
MODEL 2
REMARK VINA RESULT: -6.926680238      3.691      6.357
REMARK  2 active torsions:
REMARK  status: ('A' for Active; 'I' for Inactive)
REMARK    1  A    between atoms: C3_6  and  N2_7 
REMARK    2  A    between atoms: C12_17  and  N3_18 
ROOT
HETATM    1  N2  UNL     1     -20.209 -32.161 -18.300  1.00  0.00    -0.304 N 
HETATM    2  C4  UNL     1     -20.049 -31.282 -19.394  1.00  0.00     0.166 C 
HETATM    3  C5  UNL     1     -21.239 -30.393 -19.568  1.00  0.00     0.083 C 
HETATM    4  C6  UNL     1     -21.365 -30.193 -21.116  1.00  0.00     0.035 C 
HETATM    5  C7  UNL     1     -21.901 -28.795 -21.437  1.00  0.00     0.002 C 
HETATM    6  C8  UNL     1     -21.195 -27.609 -21.028  1.00  0.00     0.001 C 
HETATM    7  C9  UNL     1     -21.504 -26.882 -19.735  1.00  0.00     0.011 C 
HETATM    8  C10 UNL     1     -21.287 -27.796 -18.488  1.00  0.00     0.081 C 
HETATM    9  C11 UNL     1     -21.265 -29.129 -18.955  1.00  0.00    -0.160 C 
HETATM   10  S2  UNL     1     -22.574 -31.537 -19.019  1.00  0.00    -0.070 SA
HETATM   11  C12 UNL     1     -21.520 -32.579 -18.032  1.00  0.00     0.143 C 
ENDROOT
BRANCH   1  12
HETATM   12  C3  UNL     1     -19.100 -32.608 -17.508  1.00  0.00     0.170 A 
HETATM   13  S1  UNL     1     -18.290 -34.123 -17.519  1.00  0.00     0.024 SA
HETATM   14  N1  UNL     1     -17.151 -33.803 -16.322  1.00  0.00    -0.313 N 
HETATM   15  C2  UNL     1     -17.444 -32.547 -15.966  1.00  0.00     0.085 A 
ATOM     16  H1  UNL     1     -16.420 -34.413 -15.958  1.00  0.00     0.175 HD
HETATM   17  C1  UNL     1     -16.622 -31.870 -14.881  1.00  0.00     0.089 C 
HETATM   18  N4  UNL     1     -18.425 -31.957 -16.570  1.00  0.00    -0.325 N 
ATOM     19  H4  UNL     1     -18.677 -30.999 -16.327  1.00  0.00     0.169 HD
ENDBRANCH   1  12
BRANCH  11  20
HETATM   20  N3  UNL     1     -21.906 -33.497 -17.257  1.00  0.00    -0.380 N 
ATOM     21  H32 UNL     1     -22.265 -34.408 -17.543  1.00  0.00     0.158 HD
ATOM     22  H31 UNL     1     -21.929 -33.495 -16.238  1.00  0.00     0.158 HD
ENDBRANCH  11  20
TORSDOF 2
ENDMDL
MODEL 3
REMARK VINA RESULT: -6.848898470      3.796      6.448
REMARK  2 active torsions:
REMARK  status: ('A' for Active; 'I' for Inactive)
REMARK    1  A    between atoms: C3_6  and  N2_7 
REMARK    2  A    between atoms: C12_17  and  N3_18 
ROOT
HETATM    1  N2  UNL     1     -20.141 -31.732 -18.226  1.00  0.00    -0.304 N 
HETATM    2  C4  UNL     1     -20.002 -30.982 -19.415  1.00  0.00     0.166 C 
HETATM    3  C5  UNL     1     -21.224 -30.169 -19.703  1.00  0.00     0.083 C 
HETATM    4  C6  UNL     1     -21.337 -30.158 -21.265  1.00  0.00     0.035 C 
HETATM    5  C7  UNL     1     -21.924 -28.831 -21.754  1.00  0.00     0.002 C 
HETATM    6  C8  UNL     1     -21.270 -27.578 -21.482  1.00  0.00     0.001 C 
HETATM    7  C9  UNL     1     -21.623 -26.715 -20.287  1.00  0.00     0.011 C 
HETATM    8  C10 UNL     1     -21.387 -27.466 -18.939  1.00  0.00     0.081 C 
HETATM    9  C11 UNL     1     -21.307 -28.844 -19.244  1.00  0.00    -0.160 C 
HETATM   10  S2  UNL     1     -22.519 -31.293 -19.033  1.00  0.00    -0.070 SA
HETATM   11  C12 UNL     1     -21.438 -32.167 -17.921  1.00  0.00     0.143 C 
ENDROOT
BRANCH   1  12
HETATM   12  C3  UNL     1     -19.025 -32.036 -17.378  1.00  0.00     0.170 A 
HETATM   13  S1  UNL     1     -17.842 -30.985 -16.711  1.00  0.00     0.024 SA
HETATM   14  N1  UNL     1     -16.940 -32.132 -15.871  1.00  0.00    -0.313 N 
HETATM   15  C2  UNL     1     -17.587 -33.270 -16.140  1.00  0.00     0.085 A 
ATOM     16  H1  UNL     1     -16.107 -31.993 -15.298  1.00  0.00     0.175 HD
HETATM   17  C1  UNL     1     -17.074 -34.575 -15.552  1.00  0.00     0.089 C 
HETATM   18  N4  UNL     1     -18.634 -33.210 -16.898  1.00  0.00    -0.325 N 
ATOM     19  H4  UNL     1     -19.154 -34.057 -17.125  1.00  0.00     0.169 HD
ENDBRANCH   1  12
BRANCH  11  20
HETATM   20  N3  UNL     1     -21.797 -33.002 -17.046  1.00  0.00    -0.380 N 
ATOM     21  H32 UNL     1     -22.609 -32.914 -16.434  1.00  0.00     0.158 HD
ATOM     22  H31 UNL     1     -21.356 -33.887 -16.798  1.00  0.00     0.158 HD
ENDBRANCH  11  20
TORSDOF 2
ENDMDL
MODEL 4
REMARK VINA RESULT: -6.708584373      3.086      4.677
REMARK  2 active torsions:
REMARK  status: ('A' for Active; 'I' for Inactive)
REMARK    1  A    between atoms: C3_6  and  N2_7 
REMARK    2  A    between atoms: C12_17  and  N3_18 
ROOT
HETATM    1  N2  UNL     1     -21.047 -29.131 -17.724  1.00  0.00    -0.304 N 
HETATM    2  C4  UNL     1     -21.839 -28.051 -17.274  1.00  0.00     0.166 C 
HETATM    3  C5  UNL     1     -20.998 -26.918 -16.777  1.00  0.00     0.083 C 
HETATM    4  C6  UNL     1     -21.820 -26.299 -15.596  1.00  0.00     0.035 C 
HETATM    5  C7  UNL     1     -21.599 -24.786 -15.520  1.00  0.00     0.002 C 
HETATM    6  C8  UNL     1     -21.942 -23.923 -16.621  1.00  0.00     0.001 C 
HETATM    7  C9  UNL     1     -20.937 -23.510 -17.677  1.00  0.00     0.011 C 
HETATM    8  C10 UNL     1     -20.357 -24.741 -18.441  1.00  0.00     0.081 C 
HETATM    9  C11 UNL     1     -20.632 -25.881 -17.652  1.00  0.00    -0.160 C 
HETATM   10  S2  UNL     1     -19.582 -27.859 -16.071  1.00  0.00    -0.070 SA
HETATM   11  C12 UNL     1     -19.827 -29.319 -17.060  1.00  0.00     0.143 C 
ENDROOT
BRANCH   1  12
HETATM   12  C3  UNL     1     -21.462 -29.991 -18.794  1.00  0.00     0.170 A 
HETATM   13  S1  UNL     1     -22.113 -31.580 -18.729  1.00  0.00     0.024 SA
HETATM   14  N1  UNL     1     -22.312 -31.832 -20.381  1.00  0.00    -0.313 N 
HETATM   15  C2  UNL     1     -21.870 -30.686 -20.909  1.00  0.00     0.085 A 
ATOM     16  H1  UNL     1     -22.679 -32.654 -20.860  1.00  0.00     0.175 HD
HETATM   17  C1  UNL     1     -21.884 -30.508 -22.419  1.00  0.00     0.089 C 
HETATM   18  N4  UNL     1     -21.446 -29.768 -20.102  1.00  0.00    -0.325 N 
ATOM     19  H4  UNL     1     -21.102 -28.880 -20.468  1.00  0.00     0.169 HD
ENDBRANCH   1  12
BRANCH  11  20
HETATM   20  N3  UNL     1     -19.043 -30.305 -17.129  1.00  0.00    -0.380 N 
ATOM     21  H32 UNL     1     -18.975 -30.960 -17.908  1.00  0.00     0.158 HD
ATOM     22  H31 UNL     1     -18.358 -30.617 -16.441  1.00  0.00     0.158 HD
ENDBRANCH  11  20
TORSDOF 2
ENDMDL
MODEL 5
REMARK VINA RESULT: -6.490308922      4.050      6.009
REMARK  2 active torsions:
REMARK  status: ('A' for Active; 'I' for Inactive)
REMARK    1  A    between atoms: C3_6  and  N2_7 
REMARK    2  A    between atoms: C12_17  and  N3_18 
ROOT
HETATM    1  N2  UNL     1     -21.147 -27.229 -18.011  1.00  0.00    -0.304 N 
HETATM    2  C4  UNL     1     -21.749 -25.959 -17.866  1.00  0.00     0.166 C 
HETATM    3  C5  UNL     1     -20.893 -25.029 -17.067  1.00  0.00     0.083 C 
HETATM    4  C6  UNL     1     -21.907 -24.143 -16.266  1.00  0.00     0.035 C 
HETATM    5  C7  UNL     1     -21.356 -22.727 -16.081  1.00  0.00     0.002 C 
HETATM    6  C8  UNL     1     -21.042 -21.892 -17.211  1.00  0.00     0.001 C 
HETATM    7  C9  UNL     1     -19.650 -21.814 -17.806  1.00  0.00     0.011 C 
HETATM    8  C10 UNL     1     -19.161 -23.202 -18.323  1.00  0.00     0.081 C 
HETATM    9  C11 UNL     1     -19.983 -24.180 -17.719  1.00  0.00    -0.160 C 
HETATM   10  S2  UNL     1     -20.121 -26.228 -15.902  1.00  0.00    -0.070 SA
HETATM   11  C12 UNL     1     -20.345 -27.655 -16.942  1.00  0.00     0.143 C 
ENDROOT
BRANCH   1  12
HETATM   12  C3  UNL     1     -21.342 -28.041 -19.176  1.00  0.00     0.170 A 
HETATM   13  S1  UNL     1     -21.361 -27.587 -20.833  1.00  0.00     0.024 SA
HETATM   14  N1  UNL     1     -21.642 -29.106 -21.502  1.00  0.00    -0.313 N 
HETATM   15  C2  UNL     1     -21.709 -29.894 -20.423  1.00  0.00     0.085 A 
ATOM     16  H1  UNL     1     -21.737 -29.362 -22.484  1.00  0.00     0.175 HD
HETATM   17  C1  UNL     1     -21.958 -31.383 -20.604  1.00  0.00     0.089 C 
HETATM   18  N4  UNL     1     -21.557 -29.348 -19.261  1.00  0.00    -0.325 N 
ATOM     19  H4  UNL     1     -21.600 -29.917 -18.415  1.00  0.00     0.169 HD
ENDBRANCH   1  12
BRANCH  11  20
HETATM   20  N3  UNL     1     -19.866 -28.804 -16.734  1.00  0.00    -0.380 N 
ATOM     21  H32 UNL     1     -19.600 -29.184 -15.825  1.00  0.00     0.158 HD
ATOM     22  H31 UNL     1     -19.664 -29.537 -17.413  1.00  0.00     0.158 HD
ENDBRANCH  11  20
TORSDOF 2
ENDMDL
