MODEL 1
REMARK VINA RESULT: -8.247860501      0.000      0.000
REMARK  2 active torsions:
REMARK  status: ('A' for Active; 'I' for Inactive)
REMARK    1  A    between atoms: O1_1  and  C1_3 
REMARK    2  A    between atoms: C4_9  and  C5_10 
ROOT
HETATM    1  C1  UNL     1     -21.421 -30.736 -21.852  1.00  0.00     0.155 A 
HETATM    2  C2  UNL     1     -21.028 -32.037 -21.736  1.00  0.00     0.109 A 
HETATM    3  S1  UNL     1     -20.615 -32.142 -20.085  1.00  0.00    -0.061 SA
HETATM    4  C3  UNL     1     -20.962 -30.534 -19.635  1.00  0.00     0.157 A 
HETATM    5  N1  UNL     1     -20.973 -29.637 -18.599  1.00  0.00    -0.338 N 
ATOM      6  H1  UNL     1     -20.696 -29.824 -17.635  1.00  0.00     0.168 HD
HETATM    7  C4  UNL     1     -21.410 -28.481 -19.082  1.00  0.00     0.031 A 
HETATM    8  C14 UNL     1     -21.667 -28.675 -20.421  1.00  0.00     0.126 A 
HETATM    9  N2  UNL     1     -21.380 -29.982 -20.767  1.00  0.00    -0.280 N 
ENDROOT
BRANCH   7  10
HETATM   10  C5  UNL     1     -21.595 -27.193 -18.322  1.00  0.00     0.037 C 
HETATM   11  C6  UNL     1     -21.447 -26.063 -19.317  1.00  0.00     0.011 C 
HETATM   12  C7  UNL     1     -21.631 -24.771 -18.553  1.00  0.00     0.012 C 
HETATM   13  C8  UNL     1     -20.530 -24.600 -17.552  1.00  0.00    -0.017 C 
HETATM   14  C9  UNL     1     -21.049 -23.812 -16.359  1.00  0.00     0.038 C 
HETATM   15  C11 UNL     1     -19.558 -23.567 -18.134  1.00  0.00     0.177 C 
HETATM   16  C12 UNL     1     -19.811 -25.836 -17.187  1.00  0.00     0.012 C 
HETATM   17  C10 UNL     1     -21.016 -22.406 -16.898  1.00  0.00     0.168 C 
HETATM   18  O2  UNL     1     -20.264 -22.397 -18.041  1.00  0.00    -0.390 OA
HETATM   19  C13 UNL     1     -20.653 -27.080 -17.170  1.00  0.00     0.011 C 
ENDBRANCH   7  10
BRANCH   1  20
HETATM   20  O1  UNL     1     -21.846 -30.282 -23.135  1.00  0.00    -0.345 OA
ATOM     21  H1  UNL     1     -22.752 -30.011 -23.231  1.00  0.00     0.219 HD
ENDBRANCH   1  20
TORSDOF 2
ENDMDL
MODEL 2
REMARK VINA RESULT: -8.033655308      1.731      1.972
REMARK  2 active torsions:
REMARK  status: ('A' for Active; 'I' for Inactive)
REMARK    1  A    between atoms: O1_1  and  C1_3 
REMARK    2  A    between atoms: C4_9  and  C5_10 
ROOT
HETATM    1  C1  UNL     1     -20.809 -31.996 -18.675  1.00  0.00     0.155 A 
HETATM    2  C2  UNL     1     -20.771 -32.677 -19.857  1.00  0.00     0.109 A 
HETATM    3  S1  UNL     1     -21.063 -31.439 -20.993  1.00  0.00    -0.061 SA
HETATM    4  C3  UNL     1     -21.216 -30.132 -19.909  1.00  0.00     0.157 A 
HETATM    5  N1  UNL     1     -21.443 -28.785 -19.802  1.00  0.00    -0.338 N 
ATOM      6  H1  UNL     1     -21.608 -28.136 -20.573  1.00  0.00     0.168 HD
HETATM    7  C4  UNL     1     -21.408 -28.479 -18.511  1.00  0.00     0.031 A 
HETATM    8  C14 UNL     1     -21.159 -29.648 -17.827  1.00  0.00     0.126 A 
HETATM    9  N2  UNL     1     -21.038 -30.696 -18.721  1.00  0.00    -0.280 N 
ENDROOT
BRANCH   7  10
HETATM   10  C5  UNL     1     -21.603 -27.118 -17.896  1.00  0.00     0.037 C 
HETATM   11  C6  UNL     1     -21.412 -26.100 -18.998  1.00  0.00     0.011 C 
HETATM   12  C7  UNL     1     -21.606 -24.733 -18.380  1.00  0.00     0.012 C 
HETATM   13  C8  UNL     1     -20.534 -24.466 -17.369  1.00  0.00    -0.017 C 
HETATM   14  C9  UNL     1     -21.081 -23.553 -16.282  1.00  0.00     0.038 C 
HETATM   15  C11 UNL     1     -19.534 -23.507 -18.024  1.00  0.00     0.177 C 
HETATM   16  C12 UNL     1     -19.840 -25.662 -16.853  1.00  0.00     0.012 C 
HETATM   17  C10 UNL     1     -21.016 -22.211 -16.964  1.00  0.00     0.168 C 
HETATM   18  O2  UNL     1     -20.230 -22.329 -18.076  1.00  0.00    -0.390 OA
HETATM   19  C13 UNL     1     -20.695 -26.891 -16.733  1.00  0.00     0.011 C 
ENDBRANCH   7  10
BRANCH   1  20
HETATM   20  O1  UNL     1     -20.599 -32.737 -17.475  1.00  0.00    -0.345 OA
ATOM     21  H1  UNL     1     -20.005 -33.478 -17.510  1.00  0.00     0.219 HD
ENDBRANCH   1  20
TORSDOF 2
ENDMDL
MODEL 3
REMARK VINA RESULT: -7.877188063      1.640      2.270
REMARK  2 active torsions:
REMARK  status: ('A' for Active; 'I' for Inactive)
REMARK    1  A    between atoms: O1_1  and  C1_3 
REMARK    2  A    between atoms: C4_9  and  C5_10 
ROOT
HETATM    1  C1  UNL     1     -23.558 -30.986 -22.666  1.00  0.00     0.155 A 
HETATM    2  C2  UNL     1     -23.882 -32.282 -22.385  1.00  0.00     0.109 A 
HETATM    3  S1  UNL     1     -23.205 -32.492 -20.834  1.00  0.00    -0.061 SA
HETATM    4  C3  UNL     1     -22.552 -30.930 -20.629  1.00  0.00     0.157 A 
HETATM    5  N1  UNL     1     -21.850 -30.110 -19.784  1.00  0.00    -0.338 N 
ATOM      6  H1  UNL     1     -21.491 -30.357 -18.862  1.00  0.00     0.168 HD
HETATM    7  C4  UNL     1     -21.726 -28.934 -20.388  1.00  0.00     0.031 A 
HETATM    8  C14 UNL     1     -22.354 -29.040 -21.609  1.00  0.00     0.126 A 
HETATM    9  N2  UNL     1     -22.877 -30.311 -21.757  1.00  0.00    -0.280 N 
ENDROOT
BRANCH   7  10
HETATM   10  C5  UNL     1     -21.031 -27.710 -19.853  1.00  0.00     0.037 C 
HETATM   11  C6  UNL     1     -21.371 -27.612 -18.382  1.00  0.00     0.011 C 
HETATM   12  C7  UNL     1     -20.675 -26.381 -17.845  1.00  0.00     0.012 C 
HETATM   13  C8  UNL     1     -21.231 -25.149 -18.491  1.00  0.00    -0.017 C 
HETATM   14  C9  UNL     1     -20.148 -24.084 -18.564  1.00  0.00     0.038 C 
HETATM   15  C11 UNL     1     -22.162 -24.492 -17.464  1.00  0.00     0.177 C 
HETATM   16  C12 UNL     1     -21.942 -25.370 -19.765  1.00  0.00     0.012 C 
HETATM   17  C10 UNL     1     -20.153 -23.560 -17.152  1.00  0.00     0.168 C 
HETATM   18  O2  UNL     1     -21.288 -24.002 -16.530  1.00  0.00    -0.390 OA
HETATM   19  C13 UNL     1     -21.393 -26.479 -20.616  1.00  0.00     0.011 C 
ENDBRANCH   7  10
BRANCH   1  20
HETATM   20  O1  UNL     1     -23.977 -30.455 -23.921  1.00  0.00    -0.345 OA
ATOM     21  H1  UNL     1     -24.820 -30.017 -23.957  1.00  0.00     0.219 HD
ENDBRANCH   1  20
TORSDOF 2
ENDMDL
MODEL 4
REMARK VINA RESULT: -7.755902482      2.669      2.941
REMARK  2 active torsions:
REMARK  status: ('A' for Active; 'I' for Inactive)
REMARK    1  A    between atoms: O1_1  and  C1_3 
REMARK    2  A    between atoms: C4_9  and  C5_10 
ROOT
HETATM    1  C1  UNL     1     -19.081 -32.471 -17.907  1.00  0.00     0.155 A 
HETATM    2  C2  UNL     1     -19.546 -33.728 -18.161  1.00  0.00     0.109 A 
HETATM    3  S1  UNL     1     -21.235 -33.507 -18.089  1.00  0.00    -0.061 SA
HETATM    4  C3  UNL     1     -21.257 -31.838 -17.743  1.00  0.00     0.157 A 
HETATM    5  N1  UNL     1     -22.059 -30.753 -17.505  1.00  0.00    -0.338 N 
ATOM      6  H1  UNL     1     -23.079 -30.746 -17.488  1.00  0.00     0.168 HD
HETATM    7  C4  UNL     1     -21.263 -29.710 -17.301  1.00  0.00     0.031 A 
HETATM    8  C14 UNL     1     -19.968 -30.164 -17.415  1.00  0.00     0.126 A 
HETATM    9  N2  UNL     1     -19.970 -31.517 -17.696  1.00  0.00    -0.280 N 
ENDROOT
BRANCH   7  10
HETATM   10  C5  UNL     1     -21.682 -28.294 -17.000  1.00  0.00     0.037 C 
HETATM   11  C6  UNL     1     -21.064 -27.412 -18.061  1.00  0.00     0.011 C 
HETATM   12  C7  UNL     1     -21.484 -25.991 -17.758  1.00  0.00     0.012 C 
HETATM   13  C8  UNL     1     -20.905 -25.548 -16.450  1.00  0.00    -0.017 C 
HETATM   14  C9  UNL     1     -21.838 -24.537 -15.801  1.00  0.00     0.038 C 
HETATM   15  C11 UNL     1     -19.723 -24.628 -16.776  1.00  0.00     0.177 C 
HETATM   16  C12 UNL     1     -20.479 -26.635 -15.547  1.00  0.00     0.012 C 
HETATM   17  C10 UNL     1     -21.502 -23.288 -16.573  1.00  0.00     0.168 C 
HETATM   18  O2  UNL     1     -20.336 -23.501 -17.256  1.00  0.00    -0.390 OA
HETATM   19  C13 UNL     1     -21.315 -27.882 -15.614  1.00  0.00     0.011 C 
ENDBRANCH   7  10
BRANCH   1  20
HETATM   20  O1  UNL     1     -17.668 -32.277 -17.888  1.00  0.00    -0.345 OA
ATOM     21  H1  UNL     1     -17.342 -31.420 -17.640  1.00  0.00     0.219 HD
ENDBRANCH   1  20
TORSDOF 2
ENDMDL
MODEL 5
REMARK VINA RESULT: -7.662084145      2.024      2.712
REMARK  2 active torsions:
REMARK  status: ('A' for Active; 'I' for Inactive)
REMARK    1  A    between atoms: O1_1  and  C1_3 
REMARK    2  A    between atoms: C4_9  and  C5_10 
ROOT
HETATM    1  C1  UNL     1     -22.868 -31.898 -21.144  1.00  0.00     0.155 A 
HETATM    2  C2  UNL     1     -23.726 -32.306 -22.124  1.00  0.00     0.109 A 
HETATM    3  S1  UNL     1     -24.055 -30.848 -22.944  1.00  0.00    -0.061 SA
HETATM    4  C3  UNL     1     -23.089 -29.805 -22.002  1.00  0.00     0.157 A 
HETATM    5  N1  UNL     1     -22.675 -28.510 -21.831  1.00  0.00    -0.338 N 
ATOM      6  H1  UNL     1     -22.947 -27.707 -22.399  1.00  0.00     0.168 HD
HETATM    7  C4  UNL     1     -21.852 -28.493 -20.788  1.00  0.00     0.031 A 
HETATM    8  C14 UNL     1     -21.766 -29.785 -20.322  1.00  0.00     0.126 A 
HETATM    9  N2  UNL     1     -22.554 -30.615 -21.097  1.00  0.00    -0.280 N 
ENDROOT
BRANCH   7  10
HETATM   10  C5  UNL     1     -21.142 -27.294 -20.214  1.00  0.00     0.037 C 
HETATM   11  C6  UNL     1     -21.272 -27.378 -18.710  1.00  0.00     0.011 C 
HETATM   12  C7  UNL     1     -20.560 -26.174 -18.134  1.00  0.00     0.012 C 
HETATM   13  C8  UNL     1     -21.257 -24.914 -18.549  1.00  0.00    -0.017 C 
HETATM   14  C9  UNL     1     -20.243 -23.785 -18.646  1.00  0.00     0.038 C 
HETATM   15  C11 UNL     1     -22.058 -24.430 -17.335  1.00  0.00     0.177 C 
HETATM   16  C12 UNL     1     -22.133 -25.037 -19.730  1.00  0.00     0.012 C 
HETATM   17  C10 UNL     1     -20.068 -23.419 -17.196  1.00  0.00     0.168 C 
HETATM   18  O2  UNL     1     -21.082 -23.993 -16.479  1.00  0.00    -0.390 OA
HETATM   19  C13 UNL     1     -21.664 -26.012 -20.772  1.00  0.00     0.011 C 
ENDBRANCH   7  10
BRANCH   1  20
HETATM   20  O1  UNL     1     -22.373 -32.885 -20.242  1.00  0.00    -0.345 OA
ATOM     21  H1  UNL     1     -21.846 -32.589 -19.508  1.00  0.00     0.219 HD
ENDBRANCH   1  20
TORSDOF 2
ENDMDL
