MODEL 1
REMARK VINA RESULT: -8.145739604      0.000      0.000
REMARK  1 active torsions:
REMARK  status: ('A' for Active; 'I' for Inactive)
REMARK    1  A    between atoms: N1_2  and  C1_4 
ROOT
HETATM    1  C1  UNL     1     -21.358 -28.807 -20.858  1.00  0.00     0.103 A 
HETATM    2  C2  UNL     1     -21.514 -27.841 -21.826  1.00  0.00     0.037 A 
HETATM    3  C3  UNL     1     -21.665 -26.532 -21.421  1.00  0.00     0.021 A 
HETATM    4  C4  UNL     1     -21.657 -26.234 -20.093  1.00  0.00     0.007 A 
HETATM    5  C5  UNL     1     -21.507 -27.155 -19.112  1.00  0.00    -0.034 A 
HETATM    6  C6  UNL     1     -21.353 -28.470 -19.495  1.00  0.00     0.045 A 
HETATM    7  C7  UNL     1     -21.517 -26.792 -17.711  1.00  0.00     0.034 C 
HETATM    8  C8  UNL     1     -21.030 -27.962 -16.827  1.00  0.00     0.011 C 
HETATM    9  C9  UNL     1     -20.958 -27.505 -15.391  1.00  0.00     0.011 C 
HETATM   10  C10 UNL     1     -19.551 -26.967 -15.073  1.00  0.00     0.074 C 
HETATM   11  S1  UNL     1     -19.155 -25.958 -16.561  1.00  0.00    -0.163 SA
HETATM   12  C11 UNL     1     -20.813 -25.578 -17.266  1.00  0.00     0.065 C 
HETATM   13  C12 UNL     1     -20.652 -24.432 -18.172  1.00  0.00     0.095 C 
HETATM   14  S2  UNL     1     -21.837 -24.535 -19.577  1.00  0.00    -0.128 SA
ENDROOT
BRANCH   1  15
HETATM   15  N1  UNL     1     -21.201 -30.151 -21.256  1.00  0.00    -0.116 N 
HETATM   16  O1  UNL     1     -20.574 -30.984 -20.585  1.00  0.00    -0.532 OA
HETATM   17  O2  UNL     1     -21.755 -30.577 -22.430  1.00  0.00    -0.532 OA
ENDBRANCH   1  15
TORSDOF 1
ENDMDL
MODEL 2
REMARK VINA RESULT: -7.217800690      3.831      5.349
REMARK  1 active torsions:
REMARK  status: ('A' for Active; 'I' for Inactive)
REMARK    1  A    between atoms: N1_2  and  C1_4 
ROOT
HETATM    1  C1  UNL     1     -21.476 -27.177 -17.407  1.00  0.00     0.103 A 
HETATM    2  C2  UNL     1     -21.598 -26.086 -18.237  1.00  0.00     0.037 A 
HETATM    3  C3  UNL     1     -21.516 -26.291 -19.598  1.00  0.00     0.021 A 
HETATM    4  C4  UNL     1     -21.318 -27.549 -20.077  1.00  0.00     0.007 A 
HETATM    5  C5  UNL     1     -21.193 -28.646 -19.293  1.00  0.00    -0.034 A 
HETATM    6  C6  UNL     1     -21.273 -28.464 -17.929  1.00  0.00     0.045 A 
HETATM    7  C7  UNL     1     -20.971 -29.964 -19.848  1.00  0.00     0.034 C 
HETATM    8  C8  UNL     1     -21.166 -31.062 -18.778  1.00  0.00     0.011 C 
HETATM    9  C9  UNL     1     -21.028 -32.418 -19.424  1.00  0.00     0.011 C 
HETATM   10  C10 UNL     1     -22.405 -32.930 -19.885  1.00  0.00     0.074 C 
HETATM   11  S1  UNL     1     -23.165 -31.433 -20.641  1.00  0.00    -0.163 SA
HETATM   12  C11 UNL     1     -21.708 -30.384 -21.051  1.00  0.00     0.065 C 
HETATM   13  C12 UNL     1     -22.149 -29.392 -22.042  1.00  0.00     0.095 C 
HETATM   14  S2  UNL     1     -21.229 -27.810 -21.840  1.00  0.00    -0.128 SA
ENDROOT
BRANCH   1  15
HETATM   15  N1  UNL     1     -21.559 -26.983 -16.012  1.00  0.00    -0.116 N 
HETATM   16  O1  UNL     1     -22.119 -26.004 -15.499  1.00  0.00    -0.532 OA
HETATM   17  O2  UNL     1     -21.002 -27.903 -15.168  1.00  0.00    -0.532 OA
ENDBRANCH   1  15
TORSDOF 1
ENDMDL
MODEL 3
REMARK VINA RESULT: -7.213814297      1.802      3.433
REMARK  1 active torsions:
REMARK  status: ('A' for Active; 'I' for Inactive)
REMARK    1  A    between atoms: N1_2  and  C1_4 
ROOT
HETATM    1  C1  UNL     1     -21.502 -27.965 -19.974  1.00  0.00     0.103 A 
HETATM    2  C2  UNL     1     -21.598 -29.106 -19.211  1.00  0.00     0.037 A 
HETATM    3  C3  UNL     1     -21.229 -29.036 -17.885  1.00  0.00     0.021 A 
HETATM    4  C4  UNL     1     -20.783 -27.857 -17.373  1.00  0.00     0.007 A 
HETATM    5  C5  UNL     1     -20.673 -26.714 -18.091  1.00  0.00    -0.034 A 
HETATM    6  C6  UNL     1     -21.039 -26.761 -19.419  1.00  0.00     0.045 A 
HETATM    7  C7  UNL     1     -20.182 -25.485 -17.506  1.00  0.00     0.034 C 
HETATM    8  C8  UNL     1     -20.439 -24.280 -18.438  1.00  0.00     0.011 C 
HETATM    9  C9  UNL     1     -20.006 -23.012 -17.744  1.00  0.00     0.011 C 
HETATM   10  C10 UNL     1     -21.191 -22.393 -16.979  1.00  0.00     0.074 C 
HETATM   11  S1  UNL     1     -21.974 -23.859 -16.187  1.00  0.00    -0.163 SA
HETATM   12  C11 UNL     1     -20.612 -25.098 -16.152  1.00  0.00     0.065 C 
HETATM   13  C12 UNL     1     -20.975 -26.120 -15.161  1.00  0.00     0.095 C 
HETATM   14  S2  UNL     1     -20.321 -27.769 -15.651  1.00  0.00    -0.128 SA
ENDROOT
BRANCH   1  15
HETATM   15  N1  UNL     1     -21.877 -28.020 -21.333  1.00  0.00    -0.116 N 
HETATM   16  O1  UNL     1     -22.378 -27.058 -21.934  1.00  0.00    -0.532 OA
HETATM   17  O2  UNL     1     -21.690 -29.174 -22.039  1.00  0.00    -0.532 OA
ENDBRANCH   1  15
TORSDOF 1
ENDMDL
MODEL 4
REMARK VINA RESULT: -7.156113049      2.661      3.776
REMARK  1 active torsions:
REMARK  status: ('A' for Active; 'I' for Inactive)
REMARK    1  A    between atoms: N1_2  and  C1_4 
ROOT
HETATM    1  C1  UNL     1     -21.692 -25.744 -19.806  1.00  0.00     0.103 A 
HETATM    2  C2  UNL     1     -21.764 -24.601 -19.042  1.00  0.00     0.037 A 
HETATM    3  C3  UNL     1     -21.668 -24.727 -17.672  1.00  0.00     0.021 A 
HETATM    4  C4  UNL     1     -21.508 -25.960 -17.120  1.00  0.00     0.007 A 
HETATM    5  C5  UNL     1     -21.434 -27.106 -17.837  1.00  0.00    -0.034 A 
HETATM    6  C6  UNL     1     -21.527 -27.004 -19.209  1.00  0.00     0.045 A 
HETATM    7  C7  UNL     1     -21.276 -28.398 -17.205  1.00  0.00     0.034 C 
HETATM    8  C8  UNL     1     -20.919 -29.488 -18.240  1.00  0.00     0.011 C 
HETATM    9  C9  UNL     1     -20.662 -30.791 -17.524  1.00  0.00     0.011 C 
HETATM   10  C10 UNL     1     -19.166 -30.928 -17.189  1.00  0.00     0.074 C 
HETATM   11  S1  UNL     1     -18.728 -29.245 -16.584  1.00  0.00    -0.163 SA
HETATM   12  C11 UNL     1     -20.352 -28.547 -16.069  1.00  0.00     0.065 C 
HETATM   13  C12 UNL     1     -20.077 -27.414 -15.174  1.00  0.00     0.095 C 
HETATM   14  S2  UNL     1     -21.369 -26.114 -15.348  1.00  0.00    -0.128 SA
ENDROOT
BRANCH   1  15
HETATM   15  N1  UNL     1     -21.788 -25.632 -21.209  1.00  0.00    -0.116 N 
HETATM   16  O1  UNL     1     -21.832 -24.542 -21.797  1.00  0.00    -0.532 OA
HETATM   17  O2  UNL     1     -21.836 -26.763 -21.975  1.00  0.00    -0.532 OA
ENDBRANCH   1  15
TORSDOF 1
ENDMDL
MODEL 5
REMARK VINA RESULT: -7.047387764      1.923      2.424
REMARK  1 active torsions:
REMARK  status: ('A' for Active; 'I' for Inactive)
REMARK    1  A    between atoms: N1_2  and  C1_4 
ROOT
HETATM    1  C1  UNL     1     -20.633 -30.208 -18.975  1.00  0.00     0.103 A 
HETATM    2  C2  UNL     1     -20.644 -30.132 -20.350  1.00  0.00     0.037 A 
HETATM    3  C3  UNL     1     -21.041 -28.948 -20.933  1.00  0.00     0.021 A 
HETATM    4  C4  UNL     1     -21.409 -27.901 -20.146  1.00  0.00     0.007 A 
HETATM    5  C5  UNL     1     -21.413 -27.938 -18.792  1.00  0.00    -0.034 A 
HETATM    6  C6  UNL     1     -21.018 -29.112 -18.187  1.00  0.00     0.045 A 
HETATM    7  C7  UNL     1     -21.825 -26.802 -17.995  1.00  0.00     0.034 C 
HETATM    8  C8  UNL     1     -21.452 -26.997 -16.508  1.00  0.00     0.011 C 
HETATM    9  C9  UNL     1     -21.805 -25.749 -15.738  1.00  0.00     0.011 C 
HETATM   10  C10 UNL     1     -20.597 -24.795 -15.688  1.00  0.00     0.074 C 
HETATM   11  S1  UNL     1     -19.949 -24.869 -17.409  1.00  0.00    -0.163 SA
HETATM   12  C11 UNL     1     -21.402 -25.446 -18.383  1.00  0.00     0.065 C 
HETATM   13  C12 UNL     1     -21.144 -25.117 -19.791  1.00  0.00     0.095 C 
HETATM   14  S2  UNL     1     -21.908 -26.366 -20.907  1.00  0.00    -0.128 SA
ENDROOT
BRANCH   1  15
HETATM   15  N1  UNL     1     -20.228 -31.413 -18.363  1.00  0.00    -0.116 N 
HETATM   16  O1  UNL     1     -20.270 -32.509 -18.939  1.00  0.00    -0.532 OA
HETATM   17  O2  UNL     1     -19.765 -31.395 -17.078  1.00  0.00    -0.532 OA
ENDBRANCH   1  15
TORSDOF 1
ENDMDL
