MODEL 1
REMARK VINA RESULT: -7.162464565      0.000      0.000
REMARK  1 active torsions:
REMARK  status: ('A' for Active; 'I' for Inactive)
REMARK    1  A    between atoms: C3_5  and  C4_6 
ROOT
HETATM    1  C4  UNL     1     -21.326 -32.070 -18.488  1.00  0.00     0.097 C 
HETATM    2  C5  UNL     1     -21.686 -31.468 -17.129  1.00  0.00     0.072 C 
HETATM    3  C6  UNL     1     -21.906 -30.026 -17.399  1.00  0.00     0.129 C 
HETATM    4  O1  UNL     1     -21.646 -29.200 -16.334  1.00  0.00    -0.381 OA
HETATM    5  C7  UNL     1     -21.126 -27.957 -16.694  1.00  0.00     0.117 C 
HETATM    6  C8  UNL     1     -21.657 -26.974 -15.659  1.00  0.00     0.039 C 
HETATM    7  C9  UNL     1     -21.605 -27.475 -18.030  1.00  0.00     0.032 C 
HETATM    8  C10 UNL     1     -21.337 -28.478 -19.155  1.00  0.00     0.010 C 
HETATM    9  C11 UNL     1     -20.861 -29.727 -18.460  1.00  0.00     0.026 C 
HETATM   10  C12 UNL     1     -20.691 -30.944 -19.277  1.00  0.00    -0.006 C 
HETATM   11  C13 UNL     1     -21.140 -30.850 -20.688  1.00  0.00     0.019 C 
HETATM   12  C14 UNL     1     -19.187 -31.249 -19.346  1.00  0.00     0.014 C 
HETATM   13  C15 UNL     1     -18.621 -31.665 -18.028  1.00  0.00     0.020 C 
HETATM   14  C16 UNL     1     -19.249 -32.993 -17.669  1.00  0.00     0.115 C 
HETATM   15  N2  UNL     1     -20.485 -33.218 -18.350  1.00  0.00    -0.406 N 
ATOM     16  H2  UNL     1     -20.748 -34.135 -18.712  1.00  0.00     0.154 HD
ENDROOT
BRANCH   1  17
HETATM   17  C3  UNL     1     -22.623 -32.533 -19.087  1.00  0.00     0.133 A 
HETATM   18  N1  UNL     1     -22.734 -33.532 -19.982  1.00  0.00    -0.325 N 
HETATM   19  C2  UNL     1     -24.009 -33.678 -20.304  1.00  0.00     0.144 A 
ATOM     20  H1  UNL     1     -21.962 -34.086 -20.353  1.00  0.00     0.169 HD
HETATM   21  C1  UNL     1     -24.490 -34.703 -21.269  1.00  0.00     0.100 C 
HETATM   22  O2  UNL     1     -24.658 -32.782 -19.616  1.00  0.00    -0.223 OA
HETATM   23  N3  UNL     1     -23.861 -32.080 -18.876  1.00  0.00    -0.245 N 
ATOM     24  H3  UNL     1     -24.129 -31.323 -18.248  1.00  0.00     0.196 HD
ENDBRANCH   1  17
TORSDOF 1
ENDMDL
MODEL 2
REMARK VINA RESULT: -7.017164083      2.261      4.544
REMARK  1 active torsions:
REMARK  status: ('A' for Active; 'I' for Inactive)
REMARK    1  A    between atoms: C3_5  and  C4_6 
ROOT
HETATM    1  C4  UNL     1     -20.716 -32.099 -19.042  1.00  0.00     0.097 C 
HETATM    2  C5  UNL     1     -20.279 -31.452 -20.357  1.00  0.00     0.072 C 
HETATM    3  C6  UNL     1     -20.428 -29.993 -20.130  1.00  0.00     0.129 C 
HETATM    4  O1  UNL     1     -20.684 -29.263 -21.264  1.00  0.00    -0.381 OA
HETATM    5  C7  UNL     1     -21.516 -28.163 -21.055  1.00  0.00     0.117 C 
HETATM    6  C8  UNL     1     -21.050 -27.102 -22.042  1.00  0.00     0.039 C 
HETATM    7  C9  UNL     1     -21.381 -27.566 -19.686  1.00  0.00     0.032 C 
HETATM    8  C10 UNL     1     -21.604 -28.586 -18.567  1.00  0.00     0.010 C 
HETATM    9  C11 UNL     1     -21.673 -29.920 -19.263  1.00  0.00     0.026 C 
HETATM   10  C12 UNL     1     -21.704 -31.133 -18.422  1.00  0.00    -0.006 C 
HETATM   11  C13 UNL     1     -21.525 -30.918 -16.964  1.00  0.00     0.019 C 
HETATM   12  C14 UNL     1     -23.095 -31.767 -18.574  1.00  0.00     0.014 C 
HETATM   13  C15 UNL     1     -23.331 -32.319 -19.941  1.00  0.00     0.020 C 
HETATM   14  C16 UNL     1     -22.377 -33.477 -20.128  1.00  0.00     0.115 C 
HETATM   15  N2  UNL     1     -21.251 -33.408 -19.251  1.00  0.00    -0.406 N 
ATOM     16  H2  UNL     1     -20.856 -34.237 -18.805  1.00  0.00     0.154 HD
ENDROOT
BRANCH   1  17
HETATM   17  C3  UNL     1     -19.466 -32.248 -18.224  1.00  0.00     0.133 A 
HETATM   18  N1  UNL     1     -19.257 -33.231 -17.327  1.00  0.00    -0.325 N 
HETATM   19  C2  UNL     1     -18.062 -33.067 -16.784  1.00  0.00     0.144 A 
ATOM     20  H1  UNL     1     -19.912 -33.979 -17.104  1.00  0.00     0.169 HD
HETATM   21  C1  UNL     1     -17.505 -33.985 -15.754  1.00  0.00     0.100 C 
HETATM   22  O2  UNL     1     -17.557 -32.003 -17.341  1.00  0.00    -0.223 OA
HETATM   23  N3  UNL     1     -18.369 -31.489 -18.209  1.00  0.00    -0.245 N 
ATOM     24  H3  UNL     1     -18.202 -30.657 -18.775  1.00  0.00     0.196 HD
ENDBRANCH   1  17
TORSDOF 1
ENDMDL
MODEL 3
REMARK VINA RESULT: -6.648818111      2.209      3.924
REMARK  1 active torsions:
REMARK  status: ('A' for Active; 'I' for Inactive)
REMARK    1  A    between atoms: C3_5  and  C4_6 
ROOT
HETATM    1  C4  UNL     1     -21.166 -32.766 -19.582  1.00  0.00     0.097 C 
HETATM    2  C5  UNL     1     -20.481 -31.430 -19.876  1.00  0.00     0.072 C 
HETATM    3  C6  UNL     1     -20.699 -30.616 -18.655  1.00  0.00     0.129 C 
HETATM    4  O1  UNL     1     -20.730 -29.260 -18.873  1.00  0.00    -0.381 OA
HETATM    5  C7  UNL     1     -21.607 -28.572 -18.034  1.00  0.00     0.117 C 
HETATM    6  C8  UNL     1     -20.968 -27.210 -17.802  1.00  0.00     0.039 C 
HETATM    7  C9  UNL     1     -21.764 -29.209 -16.685  1.00  0.00     0.032 C 
HETATM    8  C10 UNL     1     -22.192 -30.676 -16.766  1.00  0.00     0.010 C 
HETATM    9  C11 UNL     1     -22.095 -31.031 -18.227  1.00  0.00     0.026 C 
HETATM   10  C12 UNL     1     -22.276 -32.447 -18.602  1.00  0.00    -0.006 C 
HETATM   11  C13 UNL     1     -22.402 -33.408 -17.478  1.00  0.00     0.019 C 
HETATM   12  C14 UNL     1     -23.595 -32.555 -19.382  1.00  0.00     0.014 C 
HETATM   13  C15 UNL     1     -23.538 -31.875 -20.710  1.00  0.00     0.020 C 
HETATM   14  C16 UNL     1     -22.545 -32.636 -21.560  1.00  0.00     0.115 C 
HETATM   15  N2  UNL     1     -21.623 -33.399 -20.780  1.00  0.00    -0.406 N 
ATOM     16  H2  UNL     1     -21.313 -34.330 -21.058  1.00  0.00     0.154 HD
ENDROOT
BRANCH   1  17
HETATM   17  C3  UNL     1     -20.106 -33.647 -18.985  1.00  0.00     0.133 A 
HETATM   18  N1  UNL     1     -19.939 -34.948 -19.288  1.00  0.00    -0.325 N 
HETATM   19  C2  UNL     1     -18.924 -35.424 -18.585  1.00  0.00     0.144 A 
ATOM     20  H1  UNL     1     -20.503 -35.480 -19.950  1.00  0.00     0.169 HD
HETATM   21  C1  UNL     1     -18.460 -36.833 -18.682  1.00  0.00     0.100 C 
HETATM   22  O2  UNL     1     -18.485 -34.428 -17.869  1.00  0.00    -0.223 OA
HETATM   23  N3  UNL     1     -19.168 -33.349 -18.084  1.00  0.00    -0.245 N 
ATOM     24  H3  UNL     1     -19.017 -32.441 -17.646  1.00  0.00     0.196 HD
ENDBRANCH   1  17
TORSDOF 1
ENDMDL
MODEL 4
REMARK VINA RESULT: -6.573821856      2.049      4.120
REMARK  1 active torsions:
REMARK  status: ('A' for Active; 'I' for Inactive)
REMARK    1  A    between atoms: C3_5  and  C4_6 
ROOT
HETATM    1  C4  UNL     1     -21.350 -32.848 -19.736  1.00  0.00     0.097 C 
HETATM    2  C5  UNL     1     -20.647 -31.530 -20.064  1.00  0.00     0.072 C 
HETATM    3  C6  UNL     1     -20.778 -30.713 -18.832  1.00  0.00     0.129 C 
HETATM    4  O1  UNL     1     -20.785 -29.356 -19.045  1.00  0.00    -0.381 OA
HETATM    5  C7  UNL     1     -21.598 -28.648 -18.160  1.00  0.00     0.117 C 
HETATM    6  C8  UNL     1     -20.912 -27.304 -17.960  1.00  0.00     0.039 C 
HETATM    7  C9  UNL     1     -21.701 -29.284 -16.807  1.00  0.00     0.032 C 
HETATM    8  C10 UNL     1     -22.172 -30.740 -16.867  1.00  0.00     0.010 C 
HETATM    9  C11 UNL     1     -22.161 -31.092 -18.332  1.00  0.00     0.026 C 
HETATM   10  C12 UNL     1     -22.399 -32.502 -18.699  1.00  0.00    -0.006 C 
HETATM   11  C13 UNL     1     -22.491 -33.463 -17.572  1.00  0.00     0.019 C 
HETATM   12  C14 UNL     1     -23.759 -32.573 -19.408  1.00  0.00     0.014 C 
HETATM   13  C15 UNL     1     -23.754 -31.891 -20.737  1.00  0.00     0.020 C 
HETATM   14  C16 UNL     1     -22.828 -32.675 -21.639  1.00  0.00     0.115 C 
HETATM   15  N2  UNL     1     -21.887 -33.464 -20.909  1.00  0.00    -0.406 N 
ATOM     16  H2  UNL     1     -21.617 -34.402 -21.205  1.00  0.00     0.154 HD
ENDROOT
BRANCH   1  17
HETATM   17  C3  UNL     1     -20.285 -33.758 -19.197  1.00  0.00     0.133 A 
HETATM   18  N1  UNL     1     -19.367 -33.396 -18.280  1.00  0.00    -0.325 N 
HETATM   19  C2  UNL     1     -18.581 -34.429 -18.031  1.00  0.00     0.144 A 
ATOM     20  H1  UNL     1     -19.291 -32.475 -17.849  1.00  0.00     0.169 HD
HETATM   21  C1  UNL     1     -17.459 -34.379 -17.056  1.00  0.00     0.100 C 
HETATM   22  O2  UNL     1     -19.014 -35.400 -18.784  1.00  0.00    -0.223 OA
HETATM   23  N3  UNL     1     -20.033 -35.034 -19.494  1.00  0.00    -0.245 N 
ATOM     24  H3  UNL     1     -20.548 -35.613 -20.157  1.00  0.00     0.196 HD
ENDBRANCH   1  17
TORSDOF 1
ENDMDL
MODEL 5
REMARK VINA RESULT: -6.518474426      2.423      4.405
REMARK  1 active torsions:
REMARK  status: ('A' for Active; 'I' for Inactive)
REMARK    1  A    between atoms: C3_5  and  C4_6 
ROOT
HETATM    1  C4  UNL     1     -21.770 -33.224 -20.035  1.00  0.00     0.097 C 
HETATM    2  C5  UNL     1     -21.223 -32.400 -21.202  1.00  0.00     0.072 C 
HETATM    3  C6  UNL     1     -21.015 -31.042 -20.642  1.00  0.00     0.129 C 
HETATM    4  O1  UNL     1     -21.118 -30.025 -21.559  1.00  0.00    -0.381 OA
HETATM    5  C7  UNL     1     -21.658 -28.848 -21.042  1.00  0.00     0.117 C 
HETATM    6  C8  UNL     1     -20.977 -27.716 -21.800  1.00  0.00     0.039 C 
HETATM    7  C9  UNL     1     -21.351 -28.638 -19.590  1.00  0.00     0.032 C 
HETATM    8  C10 UNL     1     -21.783 -29.818 -18.714  1.00  0.00     0.010 C 
HETATM    9  C11 UNL     1     -22.185 -30.897 -19.685  1.00  0.00     0.026 C 
HETATM   10  C12 UNL     1     -22.483 -32.236 -19.137  1.00  0.00    -0.006 C 
HETATM   11  C13 UNL     1     -22.223 -32.419 -17.688  1.00  0.00     0.019 C 
HETATM   12  C14 UNL     1     -23.988 -32.485 -19.317  1.00  0.00     0.014 C 
HETATM   13  C15 UNL     1     -24.383 -32.629 -20.750  1.00  0.00     0.020 C 
HETATM   14  C16 UNL     1     -23.737 -33.894 -21.268  1.00  0.00     0.115 C 
HETATM   15  N2  UNL     1     -22.606 -34.291 -20.491  1.00  0.00    -0.406 N 
ATOM     16  H2  UNL     1     -22.409 -35.269 -20.275  1.00  0.00     0.154 HD
ENDROOT
BRANCH   1  17
HETATM   17  C3  UNL     1     -20.571 -33.842 -19.374  1.00  0.00     0.133 A 
HETATM   18  N1  UNL     1     -20.206 -35.131 -19.514  1.00  0.00    -0.325 N 
HETATM   19  C2  UNL     1     -19.114 -35.345 -18.799  1.00  0.00     0.144 A 
ATOM     20  H1  UNL     1     -20.692 -35.828 -20.078  1.00  0.00     0.169 HD
HETATM   21  C1  UNL     1     -18.433 -36.666 -18.732  1.00  0.00     0.100 C 
HETATM   22  O2  UNL     1     -18.824 -34.206 -18.235  1.00  0.00    -0.223 OA
HETATM   23  N3  UNL     1     -19.674 -33.285 -18.559  1.00  0.00    -0.245 N 
ATOM     24  H3  UNL     1     -19.660 -32.314 -18.249  1.00  0.00     0.196 HD
ENDBRANCH   1  17
TORSDOF 1
ENDMDL
