MODEL 1
REMARK VINA RESULT: -9.310839740      0.000      0.000
REMARK  3 active torsions:
REMARK  status: ('A' for Active; 'I' for Inactive)
REMARK    1  A    between atoms: C4_4  and  N1_5 
REMARK    2  A    between atoms: N1_5  and  O1_6 
REMARK    3  A    between atoms: C5_9  and  O2_10 
ROOT
HETATM    1  C1  UNL     1     -20.971 -28.700 -15.558  1.00  0.00     0.049 C 
HETATM    2  C2  UNL     1     -21.149 -28.564 -17.005  1.00  0.00    -0.049 A 
HETATM    3  C3  UNL     1     -21.183 -29.688 -17.800  1.00  0.00     0.043 A 
HETATM    4  C4  UNL     1     -21.357 -29.658 -19.176  1.00  0.00     0.110 A 
HETATM    5  C5  UNL     1     -21.505 -28.434 -19.786  1.00  0.00     0.113 A 
HETATM    6  C6  UNL     1     -21.476 -27.265 -19.005  1.00  0.00     0.084 A 
HETATM    7  C7  UNL     1     -21.301 -27.317 -17.646  1.00  0.00     0.002 A 
HETATM    8  C8  UNL     1     -21.291 -25.962 -17.162  1.00  0.00     0.100 A 
HETATM    9  C9  UNL     1     -19.834 -25.555 -16.817  1.00  0.00     0.044 C 
HETATM   10  C10 UNL     1     -19.857 -24.021 -16.869  1.00  0.00     0.003 C 
HETATM   11  C11 UNL     1     -20.677 -23.559 -15.697  1.00  0.00     0.000 C 
HETATM   12  C12 UNL     1     -21.397 -24.666 -14.995  1.00  0.00     0.003 C 
HETATM   13  C13 UNL     1     -22.070 -25.639 -15.942  1.00  0.00     0.044 C 
HETATM   14  O3  UNL     1     -21.564 -25.144 -18.251  1.00  0.00    -0.301 OA
HETATM   15  C14 UNL     1     -21.643 -25.865 -19.391  1.00  0.00     0.298 A 
HETATM   16  O4  UNL     1     -21.824 -25.474 -20.598  1.00  0.00    -0.259 OA
ENDROOT
BRANCH   5  17
HETATM   17  O2  UNL     1     -21.679 -28.322 -21.145  1.00  0.00    -0.357 OA
ATOM     18  H2  UNL     1     -21.072 -27.833 -21.687  1.00  0.00     0.217 HD
ENDBRANCH   5  17
BRANCH   4  19
HETATM   19  N1  UNL     1     -21.366 -30.886 -19.848  1.00  0.00    -0.160 N 
HETATM   20 CL1  UNL     1     -20.492 -32.153 -19.133  1.00  0.00     0.042 Cl
BRANCH  19  21
HETATM   21  O1  UNL     1     -22.496 -31.195 -20.474  1.00  0.00    -0.272 OA
ATOM     22  H1  UNL     1     -22.612 -32.114 -20.689  1.00  0.00     0.246 HD
ENDBRANCH  19  21
ENDBRANCH   4  19
TORSDOF 3
ENDMDL
MODEL 2
REMARK VINA RESULT: -8.556194178      2.831      5.671
REMARK  3 active torsions:
REMARK  status: ('A' for Active; 'I' for Inactive)
REMARK    1  A    between atoms: C4_4  and  N1_5 
REMARK    2  A    between atoms: N1_5  and  O1_6 
REMARK    3  A    between atoms: C5_9  and  O2_10 
ROOT
HETATM    1  C1  UNL     1     -21.108 -30.771 -16.201  1.00  0.00     0.049 C 
HETATM    2  C2  UNL     1     -21.217 -29.486 -16.896  1.00  0.00    -0.049 A 
HETATM    3  C3  UNL     1     -21.325 -28.322 -16.169  1.00  0.00     0.043 A 
HETATM    4  C4  UNL     1     -21.423 -27.060 -16.739  1.00  0.00     0.110 A 
HETATM    5  C5  UNL     1     -21.413 -26.963 -18.111  1.00  0.00     0.113 A 
HETATM    6  C6  UNL     1     -21.304 -28.133 -18.884  1.00  0.00     0.084 A 
HETATM    7  C7  UNL     1     -21.209 -29.370 -18.301  1.00  0.00     0.002 A 
HETATM    8  C8  UNL     1     -21.143 -30.340 -19.361  1.00  0.00     0.100 A 
HETATM    9  C9  UNL     1     -22.509 -31.066 -19.476  1.00  0.00     0.044 C 
HETATM   10  C10 UNL     1     -22.516 -31.616 -20.909  1.00  0.00     0.003 C 
HETATM   11  C11 UNL     1     -21.490 -32.713 -20.958  1.00  0.00     0.000 C 
HETATM   12  C12 UNL     1     -20.632 -32.787 -19.735  1.00  0.00     0.003 C 
HETATM   13  C13 UNL     1     -20.145 -31.433 -19.261  1.00  0.00     0.044 C 
HETATM   14  O3  UNL     1     -21.098 -29.630 -20.554  1.00  0.00    -0.301 OA
HETATM   15  C14 UNL     1     -21.234 -28.304 -20.334  1.00  0.00     0.298 A 
HETATM   16  O4  UNL     1     -21.297 -27.336 -21.172  1.00  0.00    -0.259 OA
ENDROOT
BRANCH   5  17
HETATM   17  O2  UNL     1     -21.509 -25.750 -18.749  1.00  0.00    -0.357 OA
ATOM     18  H2  UNL     1     -21.328 -25.659 -19.677  1.00  0.00     0.217 HD
ENDBRANCH   5  17
BRANCH   4  19
HETATM   19  N1  UNL     1     -21.530 -25.970 -15.866  1.00  0.00    -0.160 N 
HETATM   20 CL1  UNL     1     -22.062 -26.303 -14.290  1.00  0.00     0.042 Cl
BRANCH  19  21
HETATM   21  O1  UNL     1     -20.617 -25.016 -16.018  1.00  0.00    -0.272 OA
ATOM     22  H1  UNL     1     -20.216 -24.697 -15.218  1.00  0.00     0.246 HD
ENDBRANCH  19  21
ENDBRANCH   4  19
TORSDOF 3
ENDMDL
MODEL 3
REMARK VINA RESULT: -8.447258124      1.075      1.120
REMARK  3 active torsions:
REMARK  status: ('A' for Active; 'I' for Inactive)
REMARK    1  A    between atoms: C4_4  and  N1_5 
REMARK    2  A    between atoms: N1_5  and  O1_6 
REMARK    3  A    between atoms: C5_9  and  O2_10 
ROOT
HETATM    1  C1  UNL     1     -20.939 -29.397 -15.129  1.00  0.00     0.049 C 
HETATM    2  C2  UNL     1     -21.128 -29.321 -16.579  1.00  0.00    -0.049 A 
HETATM    3  C3  UNL     1     -21.224 -30.479 -17.318  1.00  0.00     0.043 A 
HETATM    4  C4  UNL     1     -21.413 -30.506 -18.692  1.00  0.00     0.110 A 
HETATM    5  C5  UNL     1     -21.508 -29.307 -19.360  1.00  0.00     0.113 A 
HETATM    6  C6  UNL     1     -21.415 -28.106 -18.636  1.00  0.00     0.084 A 
HETATM    7  C7  UNL     1     -21.227 -28.101 -17.277  1.00  0.00     0.002 A 
HETATM    8  C8  UNL     1     -21.146 -26.727 -16.861  1.00  0.00     0.100 A 
HETATM    9  C9  UNL     1     -19.668 -26.374 -16.549  1.00  0.00     0.044 C 
HETATM   10  C10 UNL     1     -19.618 -24.845 -16.675  1.00  0.00     0.003 C 
HETATM   11  C11 UNL     1     -20.400 -24.288 -15.519  1.00  0.00     0.000 C 
HETATM   12  C12 UNL     1     -21.165 -25.324 -14.758  1.00  0.00     0.003 C 
HETATM   13  C13 UNL     1     -21.894 -26.307 -15.650  1.00  0.00     0.044 C 
HETATM   14  O3  UNL     1     -21.392 -25.949 -17.985  1.00  0.00    -0.301 OA
HETATM   15  C14 UNL     1     -21.518 -26.719 -19.088  1.00  0.00     0.298 A 
HETATM   16  O4  UNL     1     -21.694 -26.377 -20.311  1.00  0.00    -0.259 OA
ENDROOT
BRANCH   5  17
HETATM   17  O2  UNL     1     -21.693 -29.252 -20.721  1.00  0.00    -0.357 OA
ATOM     18  H2  UNL     1     -21.153 -28.702 -21.275  1.00  0.00     0.217 HD
ENDBRANCH   5  17
BRANCH   4  19
HETATM   19  N1  UNL     1     -21.488 -31.764 -19.304  1.00  0.00    -0.160 N 
HETATM   20 CL1  UNL     1     -23.028 -32.466 -19.417  1.00  0.00     0.042 Cl
BRANCH  19  21
HETATM   21  O1  UNL     1     -20.643 -31.970 -20.308  1.00  0.00    -0.272 OA
ATOM     22  H1  UNL     1     -19.732 -31.768 -20.131  1.00  0.00     0.246 HD
ENDBRANCH  19  21
ENDBRANCH   4  19
TORSDOF 3
ENDMDL
MODEL 4
REMARK VINA RESULT: -8.421790421      2.345      3.427
REMARK  3 active torsions:
REMARK  status: ('A' for Active; 'I' for Inactive)
REMARK    1  A    between atoms: C4_4  and  N1_5 
REMARK    2  A    between atoms: N1_5  and  O1_6 
REMARK    3  A    between atoms: C5_9  and  O2_10 
ROOT
HETATM    1  C1  UNL     1     -21.695 -26.082 -19.214  1.00  0.00     0.049 C 
HETATM    2  C2  UNL     1     -21.294 -27.073 -18.214  1.00  0.00    -0.049 A 
HETATM    3  C3  UNL     1     -21.430 -28.415 -18.488  1.00  0.00     0.043 A 
HETATM    4  C4  UNL     1     -21.069 -29.425 -17.607  1.00  0.00     0.110 A 
HETATM    5  C5  UNL     1     -20.545 -29.068 -16.387  1.00  0.00     0.113 A 
HETATM    6  C6  UNL     1     -20.392 -27.705 -16.074  1.00  0.00     0.084 A 
HETATM    7  C7  UNL     1     -20.756 -26.723 -16.959  1.00  0.00     0.002 A 
HETATM    8  C8  UNL     1     -20.500 -25.458 -16.323  1.00  0.00     0.100 A 
HETATM    9  C9  UNL     1     -21.845 -24.833 -15.868  1.00  0.00     0.044 C 
HETATM   10  C10 UNL     1     -21.440 -23.846 -14.765  1.00  0.00     0.003 C 
HETATM   11  C11 UNL     1     -20.700 -22.724 -15.435  1.00  0.00     0.000 C 
HETATM   12  C12 UNL     1     -20.374 -22.994 -16.870  1.00  0.00     0.003 C 
HETATM   13  C13 UNL     1     -19.838 -24.390 -17.112  1.00  0.00     0.044 C 
HETATM   14  O3  UNL     1     -19.890 -25.734 -15.107  1.00  0.00    -0.301 OA
HETATM   15  C14 UNL     1     -19.836 -27.065 -14.883  1.00  0.00     0.298 A 
HETATM   16  O4  UNL     1     -19.403 -27.709 -13.862  1.00  0.00    -0.259 OA
ENDROOT
BRANCH   5  17
HETATM   17  O2  UNL     1     -20.166 -30.010 -15.461  1.00  0.00    -0.357 OA
ATOM     18  H2  UNL     1     -20.338 -30.935 -15.591  1.00  0.00     0.217 HD
ENDBRANCH   5  17
BRANCH   4  19
HETATM   19  N1  UNL     1     -21.271 -30.745 -18.029  1.00  0.00    -0.160 N 
HETATM   20 CL1  UNL     1     -22.069 -30.959 -19.511  1.00  0.00     0.042 Cl
BRANCH  19  21
HETATM   21  O1  UNL     1     -20.305 -31.605 -17.721  1.00  0.00    -0.272 OA
ATOM     22  H1  UNL     1     -20.570 -32.358 -17.206  1.00  0.00     0.246 HD
ENDBRANCH  19  21
ENDBRANCH   4  19
TORSDOF 3
ENDMDL
MODEL 5
REMARK VINA RESULT: -8.374032914      1.741      2.047
REMARK  3 active torsions:
REMARK  status: ('A' for Active; 'I' for Inactive)
REMARK    1  A    between atoms: C4_4  and  N1_5 
REMARK    2  A    between atoms: N1_5  and  O1_6 
REMARK    3  A    between atoms: C5_9  and  O2_10 
ROOT
HETATM    1  C1  UNL     1     -20.913 -27.311 -13.908  1.00  0.00     0.049 C 
HETATM    2  C2  UNL     1     -21.049 -27.896 -15.244  1.00  0.00    -0.049 A 
HETATM    3  C3  UNL     1     -21.130 -29.263 -15.388  1.00  0.00     0.043 A 
HETATM    4  C4  UNL     1     -21.269 -29.906 -16.610  1.00  0.00     0.110 A 
HETATM    5  C5  UNL     1     -21.330 -29.134 -17.747  1.00  0.00     0.113 A 
HETATM    6  C6  UNL     1     -21.251 -27.735 -17.637  1.00  0.00     0.084 A 
HETATM    7  C7  UNL     1     -21.112 -27.120 -16.419  1.00  0.00     0.002 A 
HETATM    8  C8  UNL     1     -21.034 -25.704 -16.660  1.00  0.00     0.100 A 
HETATM    9  C9  UNL     1     -19.564 -25.237 -16.487  1.00  0.00     0.044 C 
HETATM   10  C10 UNL     1     -19.496 -23.927 -17.284  1.00  0.00     0.003 C 
HETATM   11  C11 UNL     1     -20.314 -22.917 -16.530  1.00  0.00     0.000 C 
HETATM   12  C12 UNL     1     -21.115 -23.507 -15.413  1.00  0.00     0.003 C 
HETATM   13  C13 UNL     1     -21.821 -24.792 -15.794  1.00  0.00     0.044 C 
HETATM   14  O3  UNL     1     -21.232 -25.516 -18.022  1.00  0.00    -0.301 OA
HETATM   15  C14 UNL     1     -21.327 -26.699 -18.666  1.00  0.00     0.298 A 
HETATM   16  O4  UNL     1     -21.456 -26.944 -19.917  1.00  0.00    -0.259 OA
ENDROOT
BRANCH   5  17
HETATM   17  O2  UNL     1     -21.466 -29.697 -18.993  1.00  0.00    -0.357 OA
ATOM     18  H2  UNL     1     -21.879 -29.229 -19.709  1.00  0.00     0.217 HD
ENDBRANCH   5  17
BRANCH   4  19
HETATM   19  N1  UNL     1     -21.334 -31.304 -16.594  1.00  0.00    -0.160 N 
HETATM   20 CL1  UNL     1     -19.856 -32.137 -16.584  1.00  0.00     0.042 Cl
BRANCH  19  21
HETATM   21  O1  UNL     1     -22.340 -31.829 -15.902  1.00  0.00    -0.272 OA
ATOM     22  H1  UNL     1     -22.227 -32.733 -15.629  1.00  0.00     0.246 HD
ENDBRANCH  19  21
ENDBRANCH   4  19
TORSDOF 3
ENDMDL
