MODEL 1
REMARK VINA RESULT: -8.722868511      0.000      0.000
REMARK  1 active torsions:
REMARK  status: ('A' for Active; 'I' for Inactive)
REMARK    1  A    between atoms: C4_8  and  C5_9 
ROOT
HETATM    1  C5  UNL     1     -21.279 -27.126 -15.230  1.00  0.00     0.140 C 
HETATM    2  C6  UNL     1     -19.786 -27.586 -15.243  1.00  0.00     0.124 C 
HETATM    3  N2  UNL     1     -18.793 -26.908 -14.828  1.00  0.00    -0.383 N 
ATOM      4  H21 UNL     1     -17.818 -27.209 -14.836  1.00  0.00     0.158 HD
ATOM      5  H22 UNL     1     -18.821 -25.970 -14.429  1.00  0.00     0.158 HD
HETATM    6  O2  UNL     1     -19.749 -28.852 -15.781  1.00  0.00    -0.326 OA
HETATM    7  C7  UNL     1     -21.052 -29.301 -16.077  1.00  0.00     0.086 C 
HETATM    8  C8  UNL     1     -21.147 -30.242 -17.209  1.00  0.00     0.040 C 
HETATM    9  C9  UNL     1     -21.368 -31.673 -16.868  1.00  0.00     0.003 C 
HETATM   10  C10 UNL     1     -20.678 -32.136 -15.629  1.00  0.00     0.004 C 
HETATM   11  C11 UNL     1     -20.610 -31.108 -14.553  1.00  0.00    -0.016 C 
HETATM   12  C12 UNL     1     -20.751 -31.643 -13.153  1.00  0.00     0.010 C 
HETATM   13  C13 UNL     1     -21.543 -29.916 -14.772  1.00  0.00     0.044 C 
HETATM   14  C14 UNL     1     -21.715 -27.955 -16.393  1.00  0.00     0.146 C 
HETATM   15  C15 UNL     1     -21.330 -27.501 -17.690  1.00  0.00     0.068 C 
HETATM   16  N3  UNL     1     -21.040 -27.117 -18.740  1.00  0.00    -0.197 NA
ENDROOT
BRANCH   1  17
HETATM   17  C4  UNL     1     -21.237 -25.671 -15.408  1.00  0.00     0.091 A 
HETATM   18  C2  UNL     1     -21.985 -24.738 -14.688  1.00  0.00     0.039 A 
HETATM   19  C1  UNL     1     -23.095 -25.022 -13.700  1.00  0.00     0.071 C 
HETATM   20  N1  UNL     1     -21.641 -23.515 -15.127  1.00  0.00    -0.328 N 
HETATM   21  C3  UNL     1     -20.701 -23.708 -16.095  1.00  0.00     0.223 A 
ATOM     22  H1  UNL     1     -22.010 -22.622 -14.801  1.00  0.00     0.168 HD
HETATM   23 CL1  UNL     1     -19.944 -22.382 -16.949  1.00  0.00    -0.037 Cl
HETATM   24  O1  UNL     1     -20.480 -25.007 -16.246  1.00  0.00    -0.285 OA
ENDBRANCH   1  17
TORSDOF 1
ENDMDL
MODEL 2
REMARK VINA RESULT: -7.541944942      3.746      6.479
REMARK  1 active torsions:
REMARK  status: ('A' for Active; 'I' for Inactive)
REMARK    1  A    between atoms: C4_8  and  C5_9 
ROOT
HETATM    1  C5  UNL     1     -19.803 -29.771 -16.347  1.00  0.00     0.140 C 
HETATM    2  C6  UNL     1     -18.873 -29.202 -15.228  1.00  0.00     0.124 C 
HETATM    3  N2  UNL     1     -17.705 -29.620 -14.946  1.00  0.00    -0.383 N 
ATOM      4  H21 UNL     1     -17.097 -29.249 -14.215  1.00  0.00     0.158 HD
ATOM      5  H22 UNL     1     -17.204 -30.382 -15.402  1.00  0.00     0.158 HD
HETATM    6  O2  UNL     1     -19.549 -28.174 -14.612  1.00  0.00    -0.326 OA
HETATM    7  C7  UNL     1     -20.798 -27.965 -15.231  1.00  0.00     0.086 C 
HETATM    8  C8  UNL     1     -21.855 -27.443 -14.342  1.00  0.00     0.040 C 
HETATM    9  C9  UNL     1     -22.202 -26.005 -14.495  1.00  0.00     0.003 C 
HETATM   10  C10 UNL     1     -21.050 -25.112 -14.811  1.00  0.00     0.004 C 
HETATM   11  C11 UNL     1     -20.023 -25.735 -15.692  1.00  0.00    -0.016 C 
HETATM   12  C12 UNL     1     -19.383 -24.801 -16.683  1.00  0.00     0.010 C 
HETATM   13  C13 UNL     1     -20.492 -27.017 -16.383  1.00  0.00     0.044 C 
HETATM   14  C14 UNL     1     -21.092 -29.396 -15.693  1.00  0.00     0.146 C 
HETATM   15  C15 UNL     1     -21.514 -30.200 -14.592  1.00  0.00     0.068 C 
HETATM   16  N3  UNL     1     -21.867 -30.869 -13.718  1.00  0.00    -0.197 NA
ENDROOT
BRANCH   1  17
HETATM   17  C4  UNL     1     -19.474 -31.197 -16.437  1.00  0.00     0.091 A 
HETATM   18  C2  UNL     1     -19.529 -31.977 -17.593  1.00  0.00     0.039 A 
HETATM   19  C1  UNL     1     -20.082 -31.574 -18.943  1.00  0.00     0.071 C 
HETATM   20  N1  UNL     1     -19.126 -33.217 -17.267  1.00  0.00    -0.328 N 
HETATM   21  C3  UNL     1     -18.832 -33.185 -15.936  1.00  0.00     0.223 A 
ATOM     22  H1  UNL     1     -19.055 -34.021 -17.890  1.00  0.00     0.168 HD
HETATM   23 CL1  UNL     1     -18.246 -34.585 -15.068  1.00  0.00    -0.037 Cl
HETATM   24  O1  UNL     1     -19.052 -31.965 -15.463  1.00  0.00    -0.285 OA
ENDBRANCH   1  17
TORSDOF 1
ENDMDL
MODEL 3
REMARK VINA RESULT: -7.424151576      1.924      2.666
REMARK  1 active torsions:
REMARK  status: ('A' for Active; 'I' for Inactive)
REMARK    1  A    between atoms: C4_8  and  C5_9 
ROOT
HETATM    1  C5  UNL     1     -21.060 -29.156 -15.217  1.00  0.00     0.140 C 
HETATM    2  C6  UNL     1     -19.513 -29.371 -15.250  1.00  0.00     0.124 C 
HETATM    3  N2  UNL     1     -18.634 -28.453 -15.302  1.00  0.00    -0.383 N 
ATOM      4  H21 UNL     1     -17.624 -28.594 -15.324  1.00  0.00     0.158 HD
ATOM      5  H22 UNL     1     -18.804 -27.448 -15.331  1.00  0.00     0.158 HD
HETATM    6  O2  UNL     1     -19.284 -30.727 -15.211  1.00  0.00    -0.326 OA
HETATM    7  C7  UNL     1     -20.501 -31.430 -15.104  1.00  0.00     0.086 C 
HETATM    8  C8  UNL     1     -20.502 -32.774 -15.715  1.00  0.00     0.040 C 
HETATM    9  C9  UNL     1     -20.433 -33.930 -14.781  1.00  0.00     0.003 C 
HETATM   10  C10 UNL     1     -19.584 -33.711 -13.574  1.00  0.00     0.004 C 
HETATM   11  C11 UNL     1     -19.629 -32.319 -13.046  1.00  0.00    -0.016 C 
HETATM   12  C12 UNL     1     -19.570 -32.205 -11.546  1.00  0.00     0.010 C 
HETATM   13  C13 UNL     1     -20.777 -31.477 -13.606  1.00  0.00     0.044 C 
HETATM   14  C14 UNL     1     -21.419 -30.458 -15.853  1.00  0.00     0.146 C 
HETATM   15  C15 UNL     1     -21.217 -30.566 -17.262  1.00  0.00     0.068 C 
HETATM   16  N3  UNL     1     -21.078 -30.641 -18.406  1.00  0.00    -0.197 NA
ENDROOT
BRANCH   1  17
HETATM   17  C4  UNL     1     -21.297 -27.932 -15.989  1.00  0.00     0.091 A 
HETATM   18  C2  UNL     1     -21.624 -26.682 -15.459  1.00  0.00     0.039 A 
HETATM   19  C1  UNL     1     -21.955 -26.358 -14.018  1.00  0.00     0.071 C 
HETATM   20  N1  UNL     1     -21.730 -25.821 -16.485  1.00  0.00    -0.328 N 
HETATM   21  C3  UNL     1     -21.471 -26.539 -17.615  1.00  0.00     0.223 A 
ATOM     22  H1  UNL     1     -21.958 -24.828 -16.430  1.00  0.00     0.168 HD
HETATM   23 CL1  UNL     1     -21.480 -25.820 -19.209  1.00  0.00    -0.037 Cl
HETATM   24  O1  UNL     1     -21.219 -27.801 -17.290  1.00  0.00    -0.285 OA
ENDBRANCH   1  17
TORSDOF 1
ENDMDL
MODEL 4
REMARK VINA RESULT: -7.380070563      2.939      4.657
REMARK  1 active torsions:
REMARK  status: ('A' for Active; 'I' for Inactive)
REMARK    1  A    between atoms: C4_8  and  C5_9 
ROOT
HETATM    1  C5  UNL     1     -20.586 -30.641 -16.673  1.00  0.00     0.140 C 
HETATM    2  C6  UNL     1     -21.140 -31.562 -15.539  1.00  0.00     0.124 C 
HETATM    3  N2  UNL     1     -22.204 -31.364 -14.871  1.00  0.00    -0.383 N 
ATOM      4  H21 UNL     1     -22.566 -31.966 -14.131  1.00  0.00     0.158 HD
ATOM      5  H22 UNL     1     -22.850 -30.582 -14.972  1.00  0.00     0.158 HD
HETATM    6  O2  UNL     1     -20.268 -32.618 -15.402  1.00  0.00    -0.326 OA
HETATM    7  C7  UNL     1     -19.229 -32.526 -16.351  1.00  0.00     0.086 C 
HETATM    8  C8  UNL     1     -17.942 -33.111 -15.927  1.00  0.00     0.040 C 
HETATM    9  C9  UNL     1     -17.577 -34.422 -16.528  1.00  0.00     0.003 C 
HETATM   10  C10 UNL     1     -18.724 -35.347 -16.759  1.00  0.00     0.004 C 
HETATM   11  C11 UNL     1     -19.985 -34.661 -17.158  1.00  0.00    -0.016 C 
HETATM   12  C12 UNL     1     -20.826 -35.407 -18.160  1.00  0.00     0.010 C 
HETATM   13  C13 UNL     1     -19.793 -33.207 -17.592  1.00  0.00     0.044 C 
HETATM   14  C14 UNL     1     -19.149 -31.001 -16.488  1.00  0.00     0.146 C 
HETATM   15  C15 UNL     1     -18.480 -30.433 -15.362  1.00  0.00     0.068 C 
HETATM   16  N3  UNL     1     -17.935 -29.951 -14.465  1.00  0.00    -0.197 NA
ENDROOT
BRANCH   1  17
HETATM   17  C4  UNL     1     -21.001 -29.283 -16.305  1.00  0.00     0.091 A 
HETATM   18  C2  UNL     1     -21.345 -28.264 -17.195  1.00  0.00     0.039 A 
HETATM   19  C1  UNL     1     -21.215 -28.285 -18.703  1.00  0.00     0.071 C 
HETATM   20  N1  UNL     1     -21.691 -27.189 -16.468  1.00  0.00    -0.328 N 
HETATM   21  C3  UNL     1     -21.559 -27.552 -15.161  1.00  0.00     0.223 A 
ATOM     22  H1  UNL     1     -21.993 -26.281 -16.823  1.00  0.00     0.168 HD
HETATM   23 CL1  UNL     1     -21.920 -26.465 -13.840  1.00  0.00    -0.037 Cl
HETATM   24  O1  UNL     1     -21.140 -28.810 -15.091  1.00  0.00    -0.285 OA
ENDBRANCH   1  17
TORSDOF 1
ENDMDL
MODEL 5
REMARK VINA RESULT: -7.198432776      4.552      7.402
REMARK  1 active torsions:
REMARK  status: ('A' for Active; 'I' for Inactive)
REMARK    1  A    between atoms: C4_8  and  C5_9 
ROOT
HETATM    1  C5  UNL     1     -20.992 -31.814 -17.724  1.00  0.00     0.140 C 
HETATM    2  C6  UNL     1     -19.580 -31.317 -17.277  1.00  0.00     0.124 C 
HETATM    3  N2  UNL     1     -18.466 -31.734 -17.727  1.00  0.00    -0.383 N 
ATOM      4  H21 UNL     1     -17.543 -31.409 -17.435  1.00  0.00     0.158 HD
ATOM      5  H22 UNL     1     -18.326 -32.450 -18.440  1.00  0.00     0.158 HD
HETATM    6  O2  UNL     1     -19.768 -30.351 -16.315  1.00  0.00    -0.326 OA
HETATM    7  C7  UNL     1     -21.143 -30.117 -16.113  1.00  0.00     0.086 C 
HETATM    8  C8  UNL     1     -21.509 -29.683 -14.750  1.00  0.00     0.040 C 
HETATM    9  C9  UNL     1     -21.841 -28.244 -14.577  1.00  0.00     0.003 C 
HETATM   10  C10 UNL     1     -21.036 -27.309 -15.415  1.00  0.00     0.004 C 
HETATM   11  C11 UNL     1     -20.694 -27.845 -16.763  1.00  0.00    -0.016 C 
HETATM   12  C12 UNL     1     -20.690 -26.826 -17.871  1.00  0.00     0.010 C 
HETATM   13  C13 UNL     1     -21.505 -29.077 -17.166  1.00  0.00     0.044 C 
HETATM   14  C14 UNL     1     -21.685 -31.513 -16.436  1.00  0.00     0.146 C 
HETATM   15  C15 UNL     1     -21.444 -32.407 -15.349  1.00  0.00     0.068 C 
HETATM   16  N3  UNL     1     -21.268 -33.146 -14.480  1.00  0.00    -0.197 NA
ENDROOT
BRANCH   1  17
HETATM   17  C4  UNL     1     -20.809 -33.223 -18.087  1.00  0.00     0.091 A 
HETATM   18  C2  UNL     1     -21.471 -33.894 -19.116  1.00  0.00     0.039 A 
HETATM   19  C1  UNL     1     -22.613 -33.372 -19.962  1.00  0.00     0.071 C 
HETATM   20  N1  UNL     1     -21.008 -35.154 -19.144  1.00  0.00    -0.328 N 
HETATM   21  C3  UNL     1     -20.081 -35.243 -18.149  1.00  0.00     0.223 A 
ATOM     22  H1  UNL     1     -21.293 -35.898 -19.783  1.00  0.00     0.168 HD
HETATM   23 CL1  UNL     1     -19.193 -36.712 -17.817  1.00  0.00    -0.037 Cl
HETATM   24  O1  UNL     1     -19.984 -34.073 -17.528  1.00  0.00    -0.285 OA
ENDBRANCH   1  17
TORSDOF 1
ENDMDL
