MODEL 1
REMARK VINA RESULT: -6.872734975      0.000      0.000
REMARK  2 active torsions:
REMARK  status: ('A' for Active; 'I' for Inactive)
REMARK    1  A    between atoms: C3_3  and  S1_5 
REMARK    2  A    between atoms: S1_5  and  C4_6 
ROOT
HETATM    1  C4  UNL     1     -21.245 -26.034 -18.128  1.00  0.00     0.116 C 
HETATM    2  N1  UNL     1     -20.334 -26.704 -17.587  1.00  0.00    -0.330 N 
ATOM      3  H1  UNL     1     -19.842 -27.430 -18.106  1.00  0.00     0.165 HD
HETATM    4  C5  UNL     1     -19.998 -26.419 -16.197  1.00  0.00     0.214 C 
HETATM    5  C6  UNL     1     -21.079 -26.924 -15.307  1.00  0.00     0.093 C 
HETATM    6  C7  UNL     1     -20.542 -28.202 -14.709  1.00  0.00     0.021 C 
HETATM    7  C8  UNL     1     -19.792 -28.024 -13.410  1.00  0.00     0.010 C 
HETATM    8  C9  UNL     1     -18.609 -28.710 -14.060  1.00  0.00     0.033 C 
HETATM    9  C10 UNL     1     -19.238 -28.372 -15.418  1.00  0.00     0.130 C 
HETATM   10  O1  UNL     1     -18.853 -27.172 -15.934  1.00  0.00    -0.338 OA
HETATM   11  N2  UNL     1     -19.664 -25.053 -15.985  1.00  0.00    -0.357 N 
ATOM     12  H2  UNL     1     -18.717 -24.776 -15.726  1.00  0.00     0.159 HD
HETATM   13  C11 UNL     1     -20.693 -24.091 -16.146  1.00  0.00     0.077 C 
HETATM   14  C12 UNL     1     -21.274 -23.594 -14.840  1.00  0.00     0.050 C 
HETATM   15  C13 UNL     1     -20.111 -22.924 -16.945  1.00  0.00     0.050 C 
HETATM   16  S2  UNL     1     -22.037 -24.800 -17.140  1.00  0.00    -0.074 SA
ENDROOT
BRANCH   1  17
HETATM   17  S1  UNL     1     -21.749 -26.275 -19.794  1.00  0.00    -0.036 SA
BRANCH  17  18
HETATM   18  C3  UNL     1     -21.344 -27.879 -20.429  1.00  0.00     0.155 C 
HETATM   19  C2  UNL     1     -21.723 -28.948 -19.740  1.00  0.00     0.019 C 
HETATM   20  C1  UNL     1     -21.364 -30.288 -20.308  1.00  0.00     0.039 C 
HETATM   21  F1  UNL     1     -20.666 -27.963 -21.589  1.00  0.00    -0.198 F 
ENDBRANCH  17  18
ENDBRANCH   1  17
TORSDOF 2
ENDMDL
MODEL 2
REMARK VINA RESULT: -6.837949710      3.989      5.899
REMARK  2 active torsions:
REMARK  status: ('A' for Active; 'I' for Inactive)
REMARK    1  A    between atoms: C3_3  and  S1_5 
REMARK    2  A    between atoms: S1_5  and  C4_6 
ROOT
HETATM    1  C4  UNL     1     -19.027 -28.863 -14.992  1.00  0.00     0.116 C 
HETATM    2  N1  UNL     1     -18.302 -29.296 -14.067  1.00  0.00    -0.330 N 
ATOM      3  H1  UNL     1     -17.767 -28.656 -13.480  1.00  0.00     0.165 HD
HETATM    4  C5  UNL     1     -18.243 -30.736 -13.849  1.00  0.00     0.214 C 
HETATM    5  C6  UNL     1     -17.458 -31.375 -14.940  1.00  0.00     0.093 C 
HETATM    6  C7  UNL     1     -16.107 -31.678 -14.337  1.00  0.00     0.021 C 
HETATM    7  C8  UNL     1     -15.994 -33.040 -13.693  1.00  0.00     0.010 C 
HETATM    8  C9  UNL     1     -15.576 -32.343 -12.416  1.00  0.00     0.033 C 
HETATM    9  C10 UNL     1     -16.209 -31.064 -12.979  1.00  0.00     0.130 C 
HETATM   10  O1  UNL     1     -17.524 -30.900 -12.664  1.00  0.00    -0.338 OA
HETATM   11  N2  UNL     1     -19.527 -31.311 -13.647  1.00  0.00    -0.357 N 
ATOM     12  H2  UNL     1     -19.791 -31.712 -12.747  1.00  0.00     0.159 HD
HETATM   13  C11 UNL     1     -20.430 -31.308 -14.741  1.00  0.00     0.077 C 
HETATM   14  C12 UNL     1     -20.537 -32.642 -15.448  1.00  0.00     0.050 C 
HETATM   15  C13 UNL     1     -21.798 -30.880 -14.208  1.00  0.00     0.050 C 
HETATM   16  S2  UNL     1     -19.913 -30.056 -15.951  1.00  0.00    -0.074 SA
ENDROOT
BRANCH   1  17
HETATM   17  S1  UNL     1     -19.188 -27.153 -15.362  1.00  0.00    -0.036 SA
BRANCH  17  18
HETATM   18  C3  UNL     1     -20.621 -26.772 -16.332  1.00  0.00     0.155 C 
HETATM   19  C2  UNL     1     -20.485 -25.960 -17.373  1.00  0.00     0.019 C 
HETATM   20  C1  UNL     1     -21.718 -25.660 -18.170  1.00  0.00     0.039 C 
HETATM   21  F1  UNL     1     -21.803 -27.315 -15.982  1.00  0.00    -0.198 F 
ENDBRANCH  17  18
ENDBRANCH   1  17
TORSDOF 2
ENDMDL
MODEL 3
REMARK VINA RESULT: -6.719857147      3.797      6.994
REMARK  2 active torsions:
REMARK  status: ('A' for Active; 'I' for Inactive)
REMARK    1  A    between atoms: C3_3  and  S1_5 
REMARK    2  A    between atoms: S1_5  and  C4_6 
ROOT
HETATM    1  C4  UNL     1     -21.023 -30.508 -16.137  1.00  0.00     0.116 C 
HETATM    2  N1  UNL     1     -21.060 -30.159 -17.339  1.00  0.00    -0.330 N 
ATOM      3  H1  UNL     1     -21.288 -29.199 -17.598  1.00  0.00     0.165 HD
HETATM    4  C5  UNL     1     -20.769 -31.158 -18.360  1.00  0.00     0.214 C 
HETATM    5  C6  UNL     1     -21.907 -32.111 -18.466  1.00  0.00     0.093 C 
HETATM    6  C7  UNL     1     -22.656 -31.705 -19.711  1.00  0.00     0.021 C 
HETATM    7  C8  UNL     1     -22.193 -32.387 -20.977  1.00  0.00     0.010 C 
HETATM    8  C9  UNL     1     -21.962 -31.013 -21.570  1.00  0.00     0.033 C 
HETATM    9  C10 UNL     1     -21.938 -30.466 -20.137  1.00  0.00     0.130 C 
HETATM   10  O1  UNL     1     -20.704 -30.450 -19.561  1.00  0.00    -0.338 OA
HETATM   11  N2  UNL     1     -19.507 -31.783 -18.168  1.00  0.00    -0.357 N 
ATOM     12  H2  UNL     1     -18.743 -31.644 -18.829  1.00  0.00     0.159 HD
HETATM   13  C11 UNL     1     -19.347 -32.608 -17.025  1.00  0.00     0.077 C 
HETATM   14  C12 UNL     1     -19.431 -34.088 -17.324  1.00  0.00     0.050 C 
HETATM   15  C13 UNL     1     -17.992 -32.269 -16.400  1.00  0.00     0.050 C 
HETATM   16  S2  UNL     1     -20.619 -32.195 -15.796  1.00  0.00    -0.074 SA
ENDROOT
BRANCH   1  17
HETATM   17  S1  UNL     1     -21.353 -29.405 -14.809  1.00  0.00    -0.036 SA
BRANCH  17  18
HETATM   18  C3  UNL     1     -21.562 -27.722 -15.325  1.00  0.00     0.155 C 
HETATM   19  C2  UNL     1     -21.537 -26.769 -14.402  1.00  0.00     0.019 C 
HETATM   20  C1  UNL     1     -21.718 -25.357 -14.875  1.00  0.00     0.039 C 
HETATM   21  F1  UNL     1     -21.740 -27.464 -16.634  1.00  0.00    -0.198 F 
ENDBRANCH  17  18
ENDBRANCH   1  17
TORSDOF 2
ENDMDL
MODEL 4
REMARK VINA RESULT: -6.532255535      2.720      4.428
REMARK  2 active torsions:
REMARK  status: ('A' for Active; 'I' for Inactive)
REMARK    1  A    between atoms: C3_3  and  S1_5 
REMARK    2  A    between atoms: S1_5  and  C4_6 
ROOT
HETATM    1  C4  UNL     1     -20.956 -30.177 -17.182  1.00  0.00     0.116 C 
HETATM    2  N1  UNL     1     -21.424 -29.052 -16.888  1.00  0.00    -0.330 N 
ATOM      3  H1  UNL     1     -22.150 -28.623 -17.462  1.00  0.00     0.165 HD
HETATM    4  C5  UNL     1     -20.906 -28.373 -15.707  1.00  0.00     0.214 C 
HETATM    5  C6  UNL     1     -19.530 -27.876 -15.980  1.00  0.00     0.093 C 
HETATM    6  C7  UNL     1     -19.680 -26.393 -16.219  1.00  0.00     0.021 C 
HETATM    7  C8  UNL     1     -19.556 -25.539 -14.979  1.00  0.00     0.010 C 
HETATM    8  C9  UNL     1     -20.923 -24.971 -15.298  1.00  0.00     0.033 C 
HETATM    9  C10 UNL     1     -21.161 -26.203 -16.181  1.00  0.00     0.130 C 
HETATM   10  O1  UNL     1     -21.727 -27.259 -15.533  1.00  0.00    -0.338 OA
HETATM   11  N2  UNL     1     -21.011 -29.165 -14.531  1.00  0.00    -0.357 N 
ATOM     12  H2  UNL     1     -21.635 -28.898 -13.769  1.00  0.00     0.159 HD
HETATM   13  C11 UNL     1     -20.220 -30.340 -14.454  1.00  0.00     0.077 C 
HETATM   14  C12 UNL     1     -18.985 -30.189 -13.593  1.00  0.00     0.050 C 
HETATM   15  C13 UNL     1     -21.110 -31.460 -13.912  1.00  0.00     0.050 C 
HETATM   16  S2  UNL     1     -19.701 -30.832 -16.124  1.00  0.00    -0.074 SA
ENDROOT
BRANCH   1  17
HETATM   17  S1  UNL     1     -21.492 -31.102 -18.576  1.00  0.00    -0.036 SA
BRANCH  17  18
HETATM   18  C3  UNL     1     -21.369 -30.212 -20.104  1.00  0.00     0.155 C 
HETATM   19  C2  UNL     1     -21.069 -28.920 -20.063  1.00  0.00     0.019 C 
HETATM   20  C1  UNL     1     -20.973 -28.200 -21.375  1.00  0.00     0.039 C 
HETATM   21  F1  UNL     1     -21.584 -30.874 -21.257  1.00  0.00    -0.198 F 
ENDBRANCH  17  18
ENDBRANCH   1  17
TORSDOF 2
ENDMDL
MODEL 5
REMARK VINA RESULT: -6.502091668      4.141      6.311
REMARK  2 active torsions:
REMARK  status: ('A' for Active; 'I' for Inactive)
REMARK    1  A    between atoms: C3_3  and  S1_5 
REMARK    2  A    between atoms: S1_5  and  C4_6 
ROOT
HETATM    1  C4  UNL     1     -19.032 -28.877 -14.991  1.00  0.00     0.116 C 
HETATM    2  N1  UNL     1     -18.300 -29.303 -14.068  1.00  0.00    -0.330 N 
ATOM      3  H1  UNL     1     -17.755 -28.660 -13.495  1.00  0.00     0.165 HD
HETATM    4  C5  UNL     1     -18.247 -30.741 -13.833  1.00  0.00     0.214 C 
HETATM    5  C6  UNL     1     -17.477 -31.398 -14.924  1.00  0.00     0.093 C 
HETATM    6  C7  UNL     1     -16.123 -31.702 -14.332  1.00  0.00     0.021 C 
HETATM    7  C8  UNL     1     -16.012 -33.056 -13.673  1.00  0.00     0.010 C 
HETATM    8  C9  UNL     1     -15.576 -32.347 -12.408  1.00  0.00     0.033 C 
HETATM    9  C10 UNL     1     -16.207 -31.071 -12.981  1.00  0.00     0.130 C 
HETATM   10  O1  UNL     1     -17.517 -30.895 -12.654  1.00  0.00    -0.338 OA
HETATM   11  N2  UNL     1     -19.533 -31.306 -13.611  1.00  0.00    -0.357 N 
ATOM     12  H2  UNL     1     -19.790 -31.694 -12.703  1.00  0.00     0.159 HD
HETATM   13  C11 UNL     1     -20.447 -31.310 -14.696  1.00  0.00     0.077 C 
HETATM   14  C12 UNL     1     -20.570 -32.652 -15.385  1.00  0.00     0.050 C 
HETATM   15  C13 UNL     1     -21.807 -30.867 -14.154  1.00  0.00     0.050 C 
HETATM   16  S2  UNL     1     -19.935 -30.076 -15.926  1.00  0.00    -0.074 SA
ENDROOT
BRANCH   1  17
HETATM   17  S1  UNL     1     -19.187 -27.171 -15.380  1.00  0.00    -0.036 SA
BRANCH  17  18
HETATM   18  C3  UNL     1     -20.746 -26.476 -14.903  1.00  0.00     0.155 C 
HETATM   19  C2  UNL     1     -20.913 -25.163 -15.004  1.00  0.00     0.019 C 
HETATM   20  C1  UNL     1     -22.244 -24.611 -14.592  1.00  0.00     0.039 C 
HETATM   21  F1  UNL     1     -21.711 -27.300 -14.453  1.00  0.00    -0.198 F 
ENDBRANCH  17  18
ENDBRANCH   1  17
TORSDOF 2
ENDMDL
