MODEL 1
REMARK VINA RESULT: -8.355404524      0.000      0.000
REMARK  3 active torsions:
REMARK  status: ('A' for Active; 'I' for Inactive)
REMARK    1  A    between atoms: C2_2  and  O2_4 
REMARK    2  A    between atoms: O2_4  and  C3_5 
REMARK    3  A    between atoms: C9_13  and  O5_14 
ROOT
HETATM    1  C3  UNL     1     -21.235 -26.906 -16.447  1.00  0.00     0.311 C 
HETATM    2  O3  UNL     1     -20.209 -27.777 -16.197  1.00  0.00    -0.341 OA
HETATM    3  C4  UNL     1     -20.545 -29.070 -15.975  1.00  0.00     0.084 C 
HETATM    4  C5  UNL     1     -20.767 -29.872 -17.207  1.00  0.00     0.012 C 
HETATM    5  C6  UNL     1     -21.149 -29.403 -18.384  1.00  0.00     0.013 C 
HETATM    6  C7  UNL     1     -21.432 -28.017 -18.728  1.00  0.00     0.002 A 
HETATM    7  C8  UNL     1     -21.722 -27.538 -20.001  1.00  0.00     0.157 A 
HETATM    8  O4  UNL     1     -21.924 -26.242 -19.943  1.00  0.00    -0.299 OA
HETATM    9  C9  UNL     1     -21.787 -25.816 -18.697  1.00  0.00     0.195 A 
HETATM   10  C10 UNL     1     -21.481 -26.898 -17.916  1.00  0.00     0.067 A 
HETATM   11  C11 UNL     1     -21.727 -29.288 -15.078  1.00  0.00     0.044 C 
HETATM   12  C12 UNL     1     -21.527 -30.729 -14.641  1.00  0.00     0.023 C 
HETATM   13  C13 UNL     1     -20.051 -30.863 -14.418  1.00  0.00     0.085 C 
HETATM   14 CL1  UNL     1     -19.478 -32.388 -15.167  1.00  0.00    -0.125 Cl
HETATM   15  C14 UNL     1     -19.413 -29.719 -15.171  1.00  0.00     0.062 C 
ENDROOT
BRANCH   1  16
HETATM   16  O2  UNL     1     -20.971 -25.623 -15.946  1.00  0.00    -0.285 OA
BRANCH  16  17
HETATM   17  C2  UNL     1     -21.762 -25.006 -14.972  1.00  0.00     0.257 C 
HETATM   18  C1  UNL     1     -22.396 -25.769 -13.862  1.00  0.00     0.126 C 
HETATM   19  O1  UNL     1     -21.912 -23.764 -15.086  1.00  0.00    -0.266 OA
ENDBRANCH  16  17
ENDBRANCH   1  16
BRANCH   9  20
HETATM   20  O5  UNL     1     -21.920 -24.520 -18.219  1.00  0.00    -0.340 OA
ATOM     21  H5  UNL     1     -22.266 -24.239 -17.380  1.00  0.00     0.220 HD
ENDBRANCH   9  20
TORSDOF 3
ENDMDL
MODEL 2
REMARK VINA RESULT: -8.116124283      1.345      3.688
REMARK  3 active torsions:
REMARK  status: ('A' for Active; 'I' for Inactive)
REMARK    1  A    between atoms: C2_2  and  O2_4 
REMARK    2  A    between atoms: O2_4  and  C3_5 
REMARK    3  A    between atoms: C9_13  and  O5_14 
ROOT
HETATM    1  C3  UNL     1     -20.674 -26.204 -16.840  1.00  0.00     0.311 C 
HETATM    2  O3  UNL     1     -21.430 -27.339 -16.723  1.00  0.00    -0.341 OA
HETATM    3  C4  UNL     1     -21.070 -28.216 -15.755  1.00  0.00     0.084 C 
HETATM    4  C5  UNL     1     -21.579 -27.882 -14.398  1.00  0.00     0.012 C 
HETATM    5  C6  UNL     1     -21.879 -26.672 -13.955  1.00  0.00     0.013 C 
HETATM    6  C7  UNL     1     -21.781 -25.418 -14.688  1.00  0.00     0.002 A 
HETATM    7  C8  UNL     1     -22.212 -24.176 -14.235  1.00  0.00     0.157 A 
HETATM    8  O4  UNL     1     -21.966 -23.269 -15.152  1.00  0.00    -0.299 OA
HETATM    9  C9  UNL     1     -21.392 -23.830 -16.205  1.00  0.00     0.195 A 
HETATM   10  C10 UNL     1     -21.263 -25.168 -15.946  1.00  0.00     0.067 A 
HETATM   11  C11 UNL     1     -19.599 -28.479 -15.632  1.00  0.00     0.044 C 
HETATM   12  C12 UNL     1     -19.579 -29.797 -14.877  1.00  0.00     0.023 C 
HETATM   13  C13 UNL     1     -20.703 -30.596 -15.466  1.00  0.00     0.085 C 
HETATM   14 CL1  UNL     1     -21.640 -31.358 -14.141  1.00  0.00    -0.125 Cl
HETATM   15  C14 UNL     1     -21.607 -29.597 -16.148  1.00  0.00     0.062 C 
ENDROOT
BRANCH   1  16
HETATM   16  O2  UNL     1     -20.581 -25.768 -18.170  1.00  0.00    -0.285 OA
BRANCH  16  17
HETATM   17  C2  UNL     1     -21.570 -26.021 -19.127  1.00  0.00     0.257 C 
HETATM   18  C1  UNL     1     -21.550 -27.235 -19.988  1.00  0.00     0.126 C 
HETATM   19  O1  UNL     1     -22.481 -25.162 -19.221  1.00  0.00    -0.266 OA
ENDBRANCH  16  17
ENDBRANCH   1  16
BRANCH   9  20
HETATM   20  O5  UNL     1     -20.979 -23.218 -17.380  1.00  0.00    -0.340 OA
ATOM     21  H5  UNL     1     -20.364 -23.547 -18.025  1.00  0.00     0.220 HD
ENDBRANCH   9  20
TORSDOF 3
ENDMDL
MODEL 3
REMARK VINA RESULT: -8.098438831      2.783      4.665
REMARK  3 active torsions:
REMARK  status: ('A' for Active; 'I' for Inactive)
REMARK    1  A    between atoms: C2_2  and  O2_4 
REMARK    2  A    between atoms: O2_4  and  C3_5 
REMARK    3  A    between atoms: C9_13  and  O5_14 
ROOT
HETATM    1  C3  UNL     1     -20.998 -28.854 -17.151  1.00  0.00     0.311 C 
HETATM    2  O3  UNL     1     -21.670 -27.822 -16.555  1.00  0.00    -0.341 OA
HETATM    3  C4  UNL     1     -21.043 -26.622 -16.521  1.00  0.00     0.084 C 
HETATM    4  C5  UNL     1     -21.168 -25.823 -17.769  1.00  0.00     0.012 C 
HETATM    5  C6  UNL     1     -21.361 -26.305 -18.986  1.00  0.00     0.013 C 
HETATM    6  C7  UNL     1     -21.491 -27.704 -19.368  1.00  0.00     0.002 A 
HETATM    7  C8  UNL     1     -21.806 -28.175 -20.637  1.00  0.00     0.157 A 
HETATM    8  O4  UNL     1     -21.838 -29.488 -20.619  1.00  0.00    -0.299 OA
HETATM    9  C9  UNL     1     -21.562 -29.933 -19.403  1.00  0.00     0.195 A 
HETATM   10  C10 UNL     1     -21.341 -28.846 -18.601  1.00  0.00     0.067 A 
HETATM   11  C11 UNL     1     -19.589 -26.660 -16.156  1.00  0.00     0.044 C 
HETATM   12  C12 UNL     1     -19.338 -25.225 -15.723  1.00  0.00     0.023 C 
HETATM   13  C13 UNL     1     -20.563 -24.835 -14.953  1.00  0.00     0.085 C 
HETATM   14 CL1  UNL     1     -21.089 -23.201 -15.474  1.00  0.00    -0.125 Cl
HETATM   15  C14 UNL     1     -21.639 -25.811 -15.365  1.00  0.00     0.062 C 
ENDROOT
BRANCH   1  16
HETATM   16  O2  UNL     1     -21.280 -30.087 -16.545  1.00  0.00    -0.285 OA
BRANCH  16  17
HETATM   17  C2  UNL     1     -20.967 -30.372 -15.212  1.00  0.00     0.257 C 
HETATM   18  C1  UNL     1     -21.967 -30.935 -14.264  1.00  0.00     0.126 C 
HETATM   19  O1  UNL     1     -19.789 -30.124 -14.855  1.00  0.00    -0.266 OA
ENDBRANCH  16  17
ENDBRANCH   1  16
BRANCH   9  20
HETATM   20  O5  UNL     1     -21.497 -31.250 -18.971  1.00  0.00    -0.340 OA
ATOM     21  H5  UNL     1     -22.214 -31.862 -18.850  1.00  0.00     0.220 HD
ENDBRANCH   9  20
TORSDOF 3
ENDMDL
MODEL 4
REMARK VINA RESULT: -7.661651379      0.938      1.030
REMARK  3 active torsions:
REMARK  status: ('A' for Active; 'I' for Inactive)
REMARK    1  A    between atoms: C2_2  and  O2_4 
REMARK    2  A    between atoms: O2_4  and  C3_5 
REMARK    3  A    between atoms: C9_13  and  O5_14 
ROOT
HETATM    1  C3  UNL     1     -21.412 -27.601 -16.995  1.00  0.00     0.311 C 
HETATM    2  O3  UNL     1     -20.349 -28.310 -16.502  1.00  0.00    -0.341 OA
HETATM    3  C4  UNL     1     -20.589 -29.587 -16.123  1.00  0.00     0.084 C 
HETATM    4  C5  UNL     1     -20.578 -30.576 -17.235  1.00  0.00     0.012 C 
HETATM    5  C6  UNL     1     -20.850 -30.322 -18.504  1.00  0.00     0.013 C 
HETATM    6  C7  UNL     1     -21.215 -29.039 -19.086  1.00  0.00     0.002 A 
HETATM    7  C8  UNL     1     -21.385 -28.778 -20.441  1.00  0.00     0.157 A 
HETATM    8  O4  UNL     1     -21.713 -27.518 -20.605  1.00  0.00    -0.299 OA
HETATM    9  C9  UNL     1     -21.775 -26.907 -19.432  1.00  0.00     0.195 A 
HETATM   10  C10 UNL     1     -21.470 -27.828 -18.466  1.00  0.00     0.067 A 
HETATM   11  C11 UNL     1     -21.848 -29.806 -15.340  1.00  0.00     0.044 C 
HETATM   12  C12 UNL     1     -21.572 -31.141 -14.668  1.00  0.00     0.023 C 
HETATM   13  C13 UNL     1     -20.130 -31.077 -14.265  1.00  0.00     0.085 C 
HETATM   14 CL1  UNL     1     -19.328 -32.621 -14.703  1.00  0.00    -0.125 Cl
HETATM   15  C14 UNL     1     -19.512 -29.988 -15.108  1.00  0.00     0.062 C 
ENDROOT
BRANCH   1  16
HETATM   16  O2  UNL     1     -21.333 -26.239 -16.669  1.00  0.00    -0.285 OA
BRANCH  16  17
HETATM   17  C2  UNL     1     -21.121 -25.777 -15.367  1.00  0.00     0.257 C 
HETATM   18  C1  UNL     1     -21.946 -26.237 -14.216  1.00  0.00     0.126 C 
HETATM   19  O1  UNL     1     -20.192 -24.946 -15.219  1.00  0.00    -0.266 OA
ENDBRANCH  16  17
ENDBRANCH   1  16
BRANCH   9  20
HETATM   20  O5  UNL     1     -22.086 -25.579 -19.176  1.00  0.00    -0.340 OA
ATOM     21  H5  UNL     1     -22.738 -25.238 -18.575  1.00  0.00     0.220 HD
ENDBRANCH   9  20
TORSDOF 3
ENDMDL
MODEL 5
REMARK VINA RESULT: -7.657005118      2.378      4.467
REMARK  3 active torsions:
REMARK  status: ('A' for Active; 'I' for Inactive)
REMARK    1  A    between atoms: C2_2  and  O2_4 
REMARK    2  A    between atoms: O2_4  and  C3_5 
REMARK    3  A    between atoms: C9_13  and  O5_14 
ROOT
HETATM    1  C3  UNL     1     -21.118 -29.994 -19.100  1.00  0.00     0.311 C 
HETATM    2  O3  UNL     1     -21.850 -30.506 -18.063  1.00  0.00    -0.341 OA
HETATM    3  C4  UNL     1     -21.227 -30.608 -16.865  1.00  0.00     0.084 C 
HETATM    4  C5  UNL     1     -21.204 -29.352 -16.070  1.00  0.00     0.012 C 
HETATM    5  C6  UNL     1     -21.257 -28.122 -16.555  1.00  0.00     0.013 C 
HETATM    6  C7  UNL     1     -21.348 -27.732 -17.955  1.00  0.00     0.002 A 
HETATM    7  C8  UNL     1     -21.516 -26.436 -18.430  1.00  0.00     0.157 A 
HETATM    8  O4  UNL     1     -21.555 -26.454 -19.742  1.00  0.00    -0.299 OA
HETATM    9  C9  UNL     1     -21.423 -27.695 -20.184  1.00  0.00     0.195 A 
HETATM   10  C10 UNL     1     -21.292 -28.515 -19.095  1.00  0.00     0.067 A 
HETATM   11  C11 UNL     1     -19.825 -31.139 -16.907  1.00  0.00     0.044 C 
HETATM   12  C12 UNL     1     -19.619 -31.594 -15.471  1.00  0.00     0.023 C 
HETATM   13  C13 UNL     1     -20.924 -32.216 -15.074  1.00  0.00     0.085 C 
HETATM   14 CL1  UNL     1     -21.380 -31.633 -13.440  1.00  0.00    -0.125 Cl
HETATM   15  C14 UNL     1     -21.949 -31.686 -16.049  1.00  0.00     0.062 C 
ENDROOT
BRANCH   1  16
HETATM   16  O2  UNL     1     -21.473 -30.567 -20.329  1.00  0.00    -0.285 OA
BRANCH  16  17
HETATM   17  C2  UNL     1     -22.734 -31.117 -20.579  1.00  0.00     0.257 C 
HETATM   18  C1  UNL     1     -23.052 -32.541 -20.286  1.00  0.00     0.126 C 
HETATM   19  O1  UNL     1     -23.590 -30.339 -21.069  1.00  0.00    -0.266 OA
ENDBRANCH  16  17
ENDBRANCH   1  16
BRANCH   9  20
HETATM   20  O5  UNL     1     -21.413 -28.136 -21.500  1.00  0.00    -0.340 OA
ATOM     21  H5  UNL     1     -22.145 -28.452 -22.016  1.00  0.00     0.220 HD
ENDBRANCH   9  20
TORSDOF 3
ENDMDL
