MODEL 1
REMARK VINA RESULT: -8.307582173      0.000      0.000
REMARK  2 active torsions:
REMARK  status: ('A' for Active; 'I' for Inactive)
REMARK    1  A    between atoms: N2_16  and  N3_17 
REMARK    2  A    between atoms: N3_17  and  O1_19 
ROOT
HETATM    1  C1  UNL     1     -19.594 -26.803 -14.872  1.00  0.00     0.020 C 
HETATM    2  C2  UNL     1     -20.966 -27.394 -15.177  1.00  0.00    -0.013 C 
HETATM    3  C3  UNL     1     -20.998 -28.794 -14.693  1.00  0.00     0.020 C 
HETATM    4  C4  UNL     1     -22.059 -26.632 -14.435  1.00  0.00     0.062 C 
HETATM    5  C5  UNL     1     -21.759 -25.176 -14.261  1.00  0.00     0.238 C 
HETATM    6  F1  UNL     1     -22.993 -24.528 -14.099  1.00  0.00    -0.238 F 
HETATM    7  S1  UNL     1     -21.030 -24.589 -15.811  1.00  0.00    -0.085 SA
HETATM    8  C6  UNL     1     -21.185 -25.915 -17.029  1.00  0.00     0.054 A 
HETATM    9  S2  UNL     1     -21.384 -25.945 -18.709  1.00  0.00    -0.075 SA
HETATM   10  C7  UNL     1     -21.435 -27.629 -18.955  1.00  0.00     0.102 A 
HETATM   11  C8  UNL     1     -21.295 -28.139 -17.690  1.00  0.00     0.061 A 
HETATM   12  C9  UNL     1     -21.161 -27.243 -16.677  1.00  0.00     0.002 A 
HETATM   13  N1  UNL     1     -21.356 -29.593 -17.671  1.00  0.00    -0.370 N 
ATOM     14  H1  UNL     1     -21.718 -30.055 -16.837  1.00  0.00     0.161 HD
HETATM   15  C10 UNL     1     -20.926 -30.410 -18.783  1.00  0.00     0.276 C 
HETATM   16  N2  UNL     1     -21.500 -29.907 -20.037  1.00  0.00    -0.219 N 
HETATM   17  C11 UNL     1     -21.543 -28.495 -20.150  1.00  0.00     0.284 C 
HETATM   18  O2  UNL     1     -21.674 -27.961 -21.264  1.00  0.00    -0.265 OA
ENDROOT
BRANCH  16  19
HETATM   19  N3  UNL     1     -21.931 -30.807 -20.974  1.00  0.00    -0.203 N 
ATOM     20  H3  UNL     1     -22.449 -31.626 -20.654  1.00  0.00     0.216 HD
BRANCH  19  21
HETATM   21  O1  UNL     1     -21.723 -30.676 -22.206  1.00  0.00    -0.274 OA
ATOM     22  H1  UNL     1     -21.911 -31.355 -22.843  1.00  0.00     0.246 HD
ENDBRANCH  19  21
ENDBRANCH  16  19
TORSDOF 2
ENDMDL
MODEL 2
REMARK VINA RESULT: -7.766012551      4.120      5.765
REMARK  2 active torsions:
REMARK  status: ('A' for Active; 'I' for Inactive)
REMARK    1  A    between atoms: N2_16  and  N3_17 
REMARK    2  A    between atoms: N3_17  and  O1_19 
ROOT
HETATM    1  C1  UNL     1     -22.055 -31.207 -16.064  1.00  0.00     0.020 C 
HETATM    2  C2  UNL     1     -20.848 -30.338 -15.726  1.00  0.00    -0.013 C 
HETATM    3  C3  UNL     1     -20.756 -30.207 -14.254  1.00  0.00     0.020 C 
HETATM    4  C4  UNL     1     -19.558 -30.996 -16.206  1.00  0.00     0.062 C 
HETATM    5  C5  UNL     1     -19.727 -31.800 -17.457  1.00  0.00     0.238 C 
HETATM    6  F1  UNL     1     -18.465 -31.864 -18.066  1.00  0.00    -0.238 F 
HETATM    7  S1  UNL     1     -20.820 -30.863 -18.555  1.00  0.00    -0.085 SA
HETATM    8  C6  UNL     1     -21.068 -29.230 -17.821  1.00  0.00     0.054 A 
HETATM    9  S2  UNL     1     -21.334 -27.687 -18.462  1.00  0.00    -0.075 SA
HETATM   10  C7  UNL     1     -21.437 -26.796 -17.014  1.00  0.00     0.102 A 
HETATM   11  C8  UNL     1     -21.253 -27.747 -16.043  1.00  0.00     0.061 A 
HETATM   12  C9  UNL     1     -21.061 -29.026 -16.462  1.00  0.00     0.002 A 
HETATM   13  N1  UNL     1     -21.260 -27.178 -14.704  1.00  0.00    -0.370 N 
ATOM     14  H1  UNL     1     -20.709 -27.632 -13.977  1.00  0.00     0.161 HD
HETATM   15  C10 UNL     1     -22.016 -25.994 -14.360  1.00  0.00     0.276 C 
HETATM   16  N2  UNL     1     -21.781 -24.934 -15.348  1.00  0.00    -0.219 N 
HETATM   17  C11 UNL     1     -21.700 -25.377 -16.692  1.00  0.00     0.284 C 
HETATM   18  O2  UNL     1     -21.851 -24.571 -17.625  1.00  0.00    -0.265 OA
ENDROOT
BRANCH  16  19
HETATM   19  N3  UNL     1     -21.665 -23.641 -14.913  1.00  0.00    -0.203 N 
ATOM     20  H3  UNL     1     -22.188 -23.361 -14.084  1.00  0.00     0.216 HD
BRANCH  19  21
HETATM   21  O1  UNL     1     -20.948 -22.782 -15.484  1.00  0.00    -0.274 OA
ATOM     22  H1  UNL     1     -21.092 -21.846 -15.407  1.00  0.00     0.246 HD
ENDBRANCH  19  21
ENDBRANCH  16  19
TORSDOF 2
ENDMDL
MODEL 3
REMARK VINA RESULT: -7.757744331      1.036      1.168
REMARK  2 active torsions:
REMARK  status: ('A' for Active; 'I' for Inactive)
REMARK    1  A    between atoms: N2_16  and  N3_17 
REMARK    2  A    between atoms: N3_17  and  O1_19 
ROOT
HETATM    1  C1  UNL     1     -19.409 -28.195 -15.096  1.00  0.00     0.020 C 
HETATM    2  C2  UNL     1     -20.789 -28.745 -15.438  1.00  0.00    -0.013 C 
HETATM    3  C3  UNL     1     -20.803 -30.199 -15.157  1.00  0.00     0.020 C 
HETATM    4  C4  UNL     1     -21.859 -28.101 -14.562  1.00  0.00     0.062 C 
HETATM    5  C5  UNL     1     -21.555 -26.683 -14.193  1.00  0.00     0.238 C 
HETATM    6  F1  UNL     1     -22.784 -26.072 -13.902  1.00  0.00    -0.238 F 
HETATM    7  S1  UNL     1     -20.876 -25.878 -15.666  1.00  0.00    -0.085 SA
HETATM    8  C6  UNL     1     -21.068 -27.020 -17.055  1.00  0.00     0.054 A 
HETATM    9  S2  UNL     1     -21.321 -26.812 -18.714  1.00  0.00    -0.075 SA
HETATM   10  C7  UNL     1     -21.377 -28.445 -19.195  1.00  0.00     0.102 A 
HETATM   11  C8  UNL     1     -21.196 -29.129 -18.020  1.00  0.00     0.061 A 
HETATM   12  C9  UNL     1     -21.032 -28.384 -16.894  1.00  0.00     0.002 A 
HETATM   13  N1  UNL     1     -21.256 -30.571 -18.205  1.00  0.00    -0.370 N 
ATOM     14  H1  UNL     1     -21.590 -31.148 -17.434  1.00  0.00     0.161 HD
HETATM   15  C10 UNL     1     -20.860 -31.220 -19.434  1.00  0.00     0.276 C 
HETATM   16  N2  UNL     1     -21.474 -30.548 -20.586  1.00  0.00    -0.219 N 
HETATM   17  C11 UNL     1     -21.522 -29.134 -20.497  1.00  0.00     0.284 C 
HETATM   18  O2  UNL     1     -21.690 -28.448 -21.519  1.00  0.00    -0.265 OA
ENDROOT
BRANCH  16  19
HETATM   19  N3  UNL     1     -21.934 -31.308 -21.626  1.00  0.00    -0.203 N 
ATOM     20  H3  UNL     1     -21.542 -32.242 -21.753  1.00  0.00     0.216 HD
BRANCH  19  21
HETATM   21  O1  UNL     1     -22.815 -30.917 -22.433  1.00  0.00    -0.274 OA
ATOM     22  H1  UNL     1     -22.857 -31.200 -23.339  1.00  0.00     0.246 HD
ENDBRANCH  19  21
ENDBRANCH  16  19
TORSDOF 2
ENDMDL
MODEL 4
REMARK VINA RESULT: -7.454924034      4.293      6.187
REMARK  2 active torsions:
REMARK  status: ('A' for Active; 'I' for Inactive)
REMARK    1  A    between atoms: N2_16  and  N3_17 
REMARK    2  A    between atoms: N3_17  and  O1_19 
ROOT
HETATM    1  C1  UNL     1     -19.855 -31.364 -18.801  1.00  0.00     0.020 C 
HETATM    2  C2  UNL     1     -21.188 -30.626 -18.853  1.00  0.00    -0.013 C 
HETATM    3  C3  UNL     1     -21.218 -29.786 -20.072  1.00  0.00     0.020 C 
HETATM    4  C4  UNL     1     -22.347 -31.612 -18.950  1.00  0.00     0.062 C 
HETATM    5  C5  UNL     1     -22.095 -32.903 -18.236  1.00  0.00     0.238 C 
HETATM    6  F1  UNL     1     -23.353 -33.445 -17.932  1.00  0.00    -0.238 F 
HETATM    7  S1  UNL     1     -21.276 -32.501 -16.672  1.00  0.00    -0.085 SA
HETATM    8  C6  UNL     1     -21.315 -30.705 -16.477  1.00  0.00     0.054 A 
HETATM    9  S2  UNL     1     -21.399 -29.675 -15.138  1.00  0.00    -0.075 SA
HETATM   10  C7  UNL     1     -21.391 -28.172 -15.939  1.00  0.00     0.102 A 
HETATM   11  C8  UNL     1     -21.326 -28.519 -17.264  1.00  0.00     0.061 A 
HETATM   12  C9  UNL     1     -21.283 -29.848 -17.551  1.00  0.00     0.002 A 
HETATM   13  N1  UNL     1     -21.353 -27.359 -18.141  1.00  0.00    -0.370 N 
ATOM     14  H1  UNL     1     -21.760 -27.460 -19.071  1.00  0.00     0.161 HD
HETATM   15  C10 UNL     1     -20.829 -26.070 -17.752  1.00  0.00     0.276 C 
HETATM   16  N2  UNL     1     -21.327 -25.697 -16.422  1.00  0.00    -0.219 N 
HETATM   17  C11 UNL     1     -21.397 -26.762 -15.490  1.00  0.00     0.284 C 
HETATM   18  O2  UNL     1     -21.464 -26.525 -14.272  1.00  0.00    -0.265 OA
ENDROOT
BRANCH  16  19
HETATM   19  N3  UNL     1     -21.672 -24.393 -16.188  1.00  0.00    -0.203 N 
ATOM     20  H3  UNL     1     -21.537 -23.715 -16.938  1.00  0.00     0.216 HD
BRANCH  19  21
HETATM   21  O1  UNL     1     -22.147 -23.989 -15.097  1.00  0.00    -0.274 OA
ATOM     22  H1  UNL     1     -22.682 -24.530 -14.527  1.00  0.00     0.246 HD
ENDBRANCH  19  21
ENDBRANCH  16  19
TORSDOF 2
ENDMDL
MODEL 5
REMARK VINA RESULT: -7.350538795      1.030      1.034
REMARK  2 active torsions:
REMARK  status: ('A' for Active; 'I' for Inactive)
REMARK    1  A    between atoms: N2_16  and  N3_17 
REMARK    2  A    between atoms: N3_17  and  O1_19 
ROOT
HETATM    1  C1  UNL     1     -19.294 -27.336 -15.114  1.00  0.00     0.020 C 
HETATM    2  C2  UNL     1     -20.688 -27.941 -15.239  1.00  0.00    -0.013 C 
HETATM    3  C3  UNL     1     -20.699 -29.254 -14.553  1.00  0.00     0.020 C 
HETATM    4  C4  UNL     1     -21.723 -27.059 -14.548  1.00  0.00     0.062 C 
HETATM    5  C5  UNL     1     -21.400 -25.599 -14.611  1.00  0.00     0.238 C 
HETATM    6  F1  UNL     1     -22.615 -24.913 -14.467  1.00  0.00    -0.238 F 
HETATM    7  S1  UNL     1     -20.771 -25.259 -16.275  1.00  0.00    -0.085 SA
HETATM    8  C6  UNL     1     -21.017 -26.746 -17.271  1.00  0.00     0.054 A 
HETATM    9  S2  UNL     1     -21.328 -27.019 -18.911  1.00  0.00    -0.075 SA
HETATM   10  C7  UNL     1     -21.409 -28.720 -18.903  1.00  0.00     0.102 A 
HETATM   11  C8  UNL     1     -21.189 -29.041 -17.588  1.00  0.00     0.061 A 
HETATM   12  C9  UNL     1     -20.981 -28.008 -16.728  1.00  0.00     0.002 A 
HETATM   13  N1  UNL     1     -21.261 -30.475 -17.350  1.00  0.00    -0.370 N 
ATOM     14  H1  UNL     1     -21.570 -30.803 -16.436  1.00  0.00     0.161 HD
HETATM   15  C10 UNL     1     -20.913 -31.454 -18.355  1.00  0.00     0.276 C 
HETATM   16  N2  UNL     1     -21.565 -31.130 -19.630  1.00  0.00    -0.219 N 
HETATM   17  C11 UNL     1     -21.603 -29.749 -19.947  1.00  0.00     0.284 C 
HETATM   18  O2  UNL     1     -21.804 -29.382 -21.117  1.00  0.00    -0.265 OA
ENDROOT
BRANCH  16  19
HETATM   19  N3  UNL     1     -22.065 -32.150 -20.394  1.00  0.00    -0.203 N 
ATOM     20  H3  UNL     1     -22.690 -32.824 -19.951  1.00  0.00     0.216 HD
BRANCH  19  21
HETATM   21  O1  UNL     1     -21.794 -32.298 -21.612  1.00  0.00    -0.274 OA
ATOM     22  H1  UNL     1     -22.382 -32.716 -22.231  1.00  0.00     0.246 HD
ENDBRANCH  19  21
ENDBRANCH  16  19
TORSDOF 2
ENDMDL
