MODEL 1
REMARK VINA RESULT: -8.113125444      0.000      0.000
REMARK  12 active torsions:
REMARK  status: ('A' for Active; 'I' for Inactive)
REMARK    1  A    between atoms: C2_2  and  C3_3 
REMARK    2  A    between atoms: C3_3  and  C5_5 
REMARK    3  A    between atoms: C5_5  and  C6_6 
REMARK    4  A    between atoms: C6_6  and  C7_7 
REMARK    5  A    between atoms: C7_7  and  C9_9 
REMARK    6  A    between atoms: C10_10  and  C11_11 
REMARK    7  A    between atoms: C12_12  and  C13_13 
REMARK    8  A    between atoms: C14_14  and  C15_15 
REMARK    9  A    between atoms: C16_17  and  O2_18 
REMARK   10  A    between atoms: C17_20  and  O3_21 
REMARK   11  A    between atoms: C18_23  and  O4_24 
REMARK   12  A    between atoms: C19_26  and  O5_27 
ROOT
HETATM    1  C15 UNL     1     -35.199 -45.894  12.075  1.00  0.00     0.179 C 
HETATM    2  O1  UNL     1     -35.719 -46.987  11.486  1.00  0.00    -0.347 OA
HETATM    3  C16 UNL     1     -35.350 -47.373  10.251  1.00  0.00     0.289 C 
HETATM    4  C17 UNL     1     -33.926 -47.135   9.855  1.00  0.00     0.204 C 
HETATM    5  C18 UNL     1     -33.227 -46.115  10.714  1.00  0.00     0.183 C 
HETATM    6  C19 UNL     1     -34.274 -45.111  11.131  1.00  0.00     0.182 C 
ENDROOT
BRANCH   1   7
HETATM    7  C14 UNL     1     -36.309 -44.910  12.357  1.00  0.00     0.008 C 
HETATM    8  C13 UNL     1     -37.420 -45.375  12.918  1.00  0.00    -0.001 C 
BRANCH   8   9
HETATM    9  C12 UNL     1     -38.524 -44.501  13.213  1.00  0.00    -0.000 C 
HETATM   10  C11 UNL     1     -38.925 -44.253  14.444  1.00  0.00     0.000 C 
BRANCH  10  11
HETATM   11  C10 UNL     1     -38.312 -44.823  15.605  1.00  0.00     0.001 C 
HETATM   12  C9  UNL     1     -38.442 -44.539  16.844  1.00  0.00     0.019 C 
BRANCH  12  13
HETATM   13  C7  UNL     1     -39.188 -43.578  17.634  1.00  0.00    -0.005 C 
HETATM   14  C8  UNL     1     -38.790 -42.293  17.583  1.00  0.00     0.032 C 
BRANCH  13  15
HETATM   15  C6  UNL     1     -40.293 -43.841  18.493  1.00  0.00    -0.144 C 
BRANCH  15  16
HETATM   16  C5  UNL     1     -41.251 -44.071  19.238  1.00  0.00     0.093 C 
BRANCH  16  17
HETATM   17  C3  UNL     1     -41.236 -44.901  20.479  1.00  0.00     0.014 C 
HETATM   18  C4  UNL     1     -42.443 -45.800  20.394  1.00  0.00     0.015 C 
BRANCH  17  19
HETATM   19  C2  UNL     1     -39.945 -45.653  20.555  1.00  0.00    -0.032 C 
HETATM   20  C1  UNL     1     -39.110 -45.461  21.597  1.00  0.00     0.007 C 
ENDBRANCH  17  19
ENDBRANCH  16  17
ENDBRANCH  15  16
ENDBRANCH  13  15
ENDBRANCH  12  13
ENDBRANCH  10  11
ENDBRANCH   8   9
ENDBRANCH   1   7
BRANCH   6  21
HETATM   21  O5  UNL     1     -33.732 -44.005  11.772  1.00  0.00    -0.390 OA
ATOM     22  H5  UNL     1     -34.201 -43.212  11.536  1.00  0.00     0.210 HD
ENDBRANCH   6  21
BRANCH   3  23
HETATM   23  O2  UNL     1     -35.749 -48.690  10.031  1.00  0.00    -0.368 OA
ATOM     24  H2  UNL     1     -36.696 -48.731   9.967  1.00  0.00     0.212 HD
ENDBRANCH   3  23
BRANCH   5  25
HETATM   25  O4  UNL     1     -32.270 -45.452   9.922  1.00  0.00    -0.390 OA
ATOM     26  H4  UNL     1     -32.326 -44.522  10.103  1.00  0.00     0.210 HD
ENDBRANCH   5  25
BRANCH   4  27
HETATM   27  O3  UNL     1     -33.155 -48.303   9.942  1.00  0.00    -0.388 OA
ATOM     28  H3  UNL     1     -33.529 -49.015   9.436  1.00  0.00     0.210 HD
ENDBRANCH   4  27
TORSDOF 12
ENDMDL
MODEL 2
REMARK VINA RESULT: -8.110739201      0.423      1.231
REMARK  12 active torsions:
REMARK  status: ('A' for Active; 'I' for Inactive)
REMARK    1  A    between atoms: C2_2  and  C3_3 
REMARK    2  A    between atoms: C3_3  and  C5_5 
REMARK    3  A    between atoms: C5_5  and  C6_6 
REMARK    4  A    between atoms: C6_6  and  C7_7 
REMARK    5  A    between atoms: C7_7  and  C9_9 
REMARK    6  A    between atoms: C10_10  and  C11_11 
REMARK    7  A    between atoms: C12_12  and  C13_13 
REMARK    8  A    between atoms: C14_14  and  C15_15 
REMARK    9  A    between atoms: C16_17  and  O2_18 
REMARK   10  A    between atoms: C17_20  and  O3_21 
REMARK   11  A    between atoms: C18_23  and  O4_24 
REMARK   12  A    between atoms: C19_26  and  O5_27 
ROOT
HETATM    1  C15 UNL     1     -35.217 -45.915  12.069  1.00  0.00     0.179 C 
HETATM    2  O1  UNL     1     -35.735 -47.011  11.484  1.00  0.00    -0.347 OA
HETATM    3  C16 UNL     1     -35.358 -47.407  10.254  1.00  0.00     0.289 C 
HETATM    4  C17 UNL     1     -33.931 -47.175   9.867  1.00  0.00     0.204 C 
HETATM    5  C18 UNL     1     -33.236 -46.149  10.724  1.00  0.00     0.183 C 
HETATM    6  C19 UNL     1     -34.284 -45.140  11.125  1.00  0.00     0.182 C 
ENDROOT
BRANCH   1   7
HETATM    7  C14 UNL     1     -36.328 -44.926  12.335  1.00  0.00     0.008 C 
HETATM    8  C13 UNL     1     -37.385 -45.353  13.018  1.00  0.00    -0.001 C 
BRANCH   8   9
HETATM    9  C12 UNL     1     -38.485 -44.473  13.308  1.00  0.00    -0.000 C 
HETATM   10  C11 UNL     1     -38.904 -44.239  14.536  1.00  0.00     0.000 C 
BRANCH  10  11
HETATM   11  C10 UNL     1     -38.315 -44.831  15.699  1.00  0.00     0.001 C 
HETATM   12  C9  UNL     1     -38.508 -44.605  16.941  1.00  0.00     0.019 C 
BRANCH  12  13
HETATM   13  C7  UNL     1     -39.326 -43.709  17.736  1.00  0.00    -0.005 C 
HETATM   14  C8  UNL     1     -39.130 -42.386  17.577  1.00  0.00     0.032 C 
BRANCH  13  15
HETATM   15  C6  UNL     1     -40.309 -44.068  18.701  1.00  0.00    -0.144 C 
BRANCH  15  16
HETATM   16  C5  UNL     1     -41.162 -44.379  19.539  1.00  0.00     0.093 C 
BRANCH  16  17
HETATM   17  C3  UNL     1     -41.247 -45.669  20.288  1.00  0.00     0.014 C 
HETATM   18  C4  UNL     1     -40.238 -45.570  21.403  1.00  0.00     0.015 C 
BRANCH  17  19
HETATM   19  C2  UNL     1     -42.648 -45.865  20.775  1.00  0.00    -0.032 C 
HETATM   20  C1  UNL     1     -43.371 -46.922  20.349  1.00  0.00     0.007 C 
ENDBRANCH  17  19
ENDBRANCH  16  17
ENDBRANCH  15  16
ENDBRANCH  13  15
ENDBRANCH  12  13
ENDBRANCH  10  11
ENDBRANCH   8   9
ENDBRANCH   1   7
BRANCH   6  21
HETATM   21  O5  UNL     1     -33.745 -44.031  11.763  1.00  0.00    -0.390 OA
ATOM     22  H5  UNL     1     -34.343 -43.293  11.722  1.00  0.00     0.210 HD
ENDBRANCH   6  21
BRANCH   3  23
HETATM   23  O2  UNL     1     -35.757 -48.724  10.041  1.00  0.00    -0.368 OA
ATOM     24  H2  UNL     1     -36.706 -48.776  10.049  1.00  0.00     0.212 HD
ENDBRANCH   3  23
BRANCH   5  25
HETATM   25  O4  UNL     1     -32.272 -45.495   9.934  1.00  0.00    -0.390 OA
ATOM     26  H4  UNL     1     -32.562 -44.602   9.789  1.00  0.00     0.210 HD
ENDBRANCH   5  25
BRANCH   4  27
HETATM   27  O3  UNL     1     -33.162 -48.344   9.968  1.00  0.00    -0.388 OA
ATOM     28  H3  UNL     1     -33.295 -48.786  10.799  1.00  0.00     0.210 HD
ENDBRANCH   4  27
TORSDOF 12
ENDMDL
MODEL 3
REMARK VINA RESULT: -8.102657762      2.751      4.919
REMARK  12 active torsions:
REMARK  status: ('A' for Active; 'I' for Inactive)
REMARK    1  A    between atoms: C2_2  and  C3_3 
REMARK    2  A    between atoms: C3_3  and  C5_5 
REMARK    3  A    between atoms: C5_5  and  C6_6 
REMARK    4  A    between atoms: C6_6  and  C7_7 
REMARK    5  A    between atoms: C7_7  and  C9_9 
REMARK    6  A    between atoms: C10_10  and  C11_11 
REMARK    7  A    between atoms: C12_12  and  C13_13 
REMARK    8  A    between atoms: C14_14  and  C15_15 
REMARK    9  A    between atoms: C16_17  and  O2_18 
REMARK   10  A    between atoms: C17_20  and  O3_21 
REMARK   11  A    between atoms: C18_23  and  O4_24 
REMARK   12  A    between atoms: C19_26  and  O5_27 
ROOT
HETATM    1  C15 UNL     1     -35.264 -48.357   9.036  1.00  0.00     0.179 C 
HETATM    2  O1  UNL     1     -34.595 -48.900  10.071  1.00  0.00    -0.347 OA
HETATM    3  C16 UNL     1     -35.150 -49.834  10.865  1.00  0.00     0.289 C 
HETATM    4  C17 UNL     1     -36.096 -50.803  10.226  1.00  0.00     0.204 C 
HETATM    5  C18 UNL     1     -36.629 -50.334   8.897  1.00  0.00     0.183 C 
HETATM    6  C19 UNL     1     -36.725 -48.830   8.978  1.00  0.00     0.182 C 
ENDROOT
BRANCH   1   7
HETATM    7  C14 UNL     1     -35.398 -46.870   9.261  1.00  0.00     0.008 C 
HETATM    8  C13 UNL     1     -34.582 -46.303  10.144  1.00  0.00    -0.001 C 
BRANCH   8   9
HETATM    9  C12 UNL     1     -34.651 -44.892  10.417  1.00  0.00    -0.000 C 
HETATM   10  C11 UNL     1     -35.020 -44.411  11.587  1.00  0.00     0.000 C 
BRANCH  10  11
HETATM   11  C10 UNL     1     -35.390 -45.234  12.699  1.00  0.00     0.001 C 
HETATM   12  C9  UNL     1     -36.529 -45.456  13.233  1.00  0.00     0.019 C 
BRANCH  12  13
HETATM   13  C7  UNL     1     -37.896 -45.021  13.022  1.00  0.00    -0.005 C 
HETATM   14  C8  UNL     1     -38.455 -45.292  11.827  1.00  0.00     0.032 C 
BRANCH  13  15
HETATM   15  C6  UNL     1     -38.723 -44.305  13.933  1.00  0.00    -0.144 C 
BRANCH  15  16
HETATM   16  C5  UNL     1     -39.440 -43.682  14.724  1.00  0.00     0.093 C 
BRANCH  16  17
HETATM   17  C3  UNL     1     -39.214 -43.514  16.190  1.00  0.00     0.014 C 
HETATM   18  C4  UNL     1     -38.637 -44.821  16.675  1.00  0.00     0.015 C 
BRANCH  17  19
HETATM   19  C2  UNL     1     -38.305 -42.348  16.419  1.00  0.00    -0.032 C 
HETATM   20  C1  UNL     1     -38.000 -41.964  17.676  1.00  0.00     0.007 C 
ENDBRANCH  17  19
ENDBRANCH  16  17
ENDBRANCH  15  16
ENDBRANCH  13  15
ENDBRANCH  12  13
ENDBRANCH  10  11
ENDBRANCH   8   9
ENDBRANCH   1   7
BRANCH   6  21
HETATM   21  O5  UNL     1     -37.382 -48.275   7.887  1.00  0.00    -0.390 OA
ATOM     22  H5  UNL     1     -36.838 -48.312   7.109  1.00  0.00     0.210 HD
ENDBRANCH   6  21
BRANCH   3  23
HETATM   23  O2  UNL     1     -34.157 -50.473  11.604  1.00  0.00    -0.368 OA
ATOM     24  H2  UNL     1     -34.445 -50.578  12.503  1.00  0.00     0.212 HD
ENDBRANCH   3  23
BRANCH   5  25
HETATM   25  O4  UNL     1     -37.927 -50.852   8.735  1.00  0.00    -0.390 OA
ATOM     26  H4  UNL     1     -38.513 -50.132   8.536  1.00  0.00     0.210 HD
ENDBRANCH   5  25
BRANCH   4  27
HETATM   27  O3  UNL     1     -35.489 -52.044   9.980  1.00  0.00    -0.388 OA
ATOM     28  H3  UNL     1     -35.024 -52.370  10.741  1.00  0.00     0.210 HD
ENDBRANCH   4  27
TORSDOF 12
ENDMDL
MODEL 4
REMARK VINA RESULT: -8.058214392      1.675      3.468
REMARK  12 active torsions:
REMARK  status: ('A' for Active; 'I' for Inactive)
REMARK    1  A    between atoms: C2_2  and  C3_3 
REMARK    2  A    between atoms: C3_3  and  C5_5 
REMARK    3  A    between atoms: C5_5  and  C6_6 
REMARK    4  A    between atoms: C6_6  and  C7_7 
REMARK    5  A    between atoms: C7_7  and  C9_9 
REMARK    6  A    between atoms: C10_10  and  C11_11 
REMARK    7  A    between atoms: C12_12  and  C13_13 
REMARK    8  A    between atoms: C14_14  and  C15_15 
REMARK    9  A    between atoms: C16_17  and  O2_18 
REMARK   10  A    between atoms: C17_20  and  O3_21 
REMARK   11  A    between atoms: C18_23  and  O4_24 
REMARK   12  A    between atoms: C19_26  and  O5_27 
ROOT
HETATM    1  C15 UNL     1     -35.250 -45.854  12.013  1.00  0.00     0.179 C 
HETATM    2  O1  UNL     1     -35.755 -46.957  11.429  1.00  0.00    -0.347 OA
HETATM    3  C16 UNL     1     -35.353 -47.365  10.211  1.00  0.00     0.289 C 
HETATM    4  C17 UNL     1     -33.918 -47.135   9.851  1.00  0.00     0.204 C 
HETATM    5  C18 UNL     1     -33.241 -46.100  10.711  1.00  0.00     0.183 C 
HETATM    6  C19 UNL     1     -34.299 -45.088  11.081  1.00  0.00     0.182 C 
ENDROOT
BRANCH   1   7
HETATM    7  C14 UNL     1     -36.367 -44.864  12.245  1.00  0.00     0.008 C 
HETATM    8  C13 UNL     1     -37.361 -45.231  13.048  1.00  0.00    -0.001 C 
BRANCH   8   9
HETATM    9  C12 UNL     1     -38.463 -44.346  13.316  1.00  0.00    -0.000 C 
HETATM   10  C11 UNL     1     -38.959 -44.174  14.524  1.00  0.00     0.000 C 
BRANCH  10  11
HETATM   11  C10 UNL     1     -38.460 -44.844  15.687  1.00  0.00     0.001 C 
HETATM   12  C9  UNL     1     -38.353 -44.452  16.898  1.00  0.00     0.019 C 
BRANCH  12  13
HETATM   13  C7  UNL     1     -38.636 -43.240  17.643  1.00  0.00    -0.005 C 
HETATM   14  C8  UNL     1     -39.648 -43.281  18.531  1.00  0.00     0.032 C 
BRANCH  13  15
HETATM   15  C6  UNL     1     -37.977 -41.983  17.527  1.00  0.00    -0.144 C 
BRANCH  15  16
HETATM   16  C5  UNL     1     -37.404 -40.893  17.424  1.00  0.00     0.093 C 
BRANCH  16  17
HETATM   17  C3  UNL     1     -36.830 -40.080  18.537  1.00  0.00     0.014 C 
HETATM   18  C4  UNL     1     -36.455 -41.061  19.619  1.00  0.00     0.015 C 
BRANCH  17  19
HETATM   19  C2  UNL     1     -35.666 -39.294  18.024  1.00  0.00    -0.032 C 
HETATM   20  C1  UNL     1     -35.478 -39.150  16.696  1.00  0.00     0.007 C 
ENDBRANCH  17  19
ENDBRANCH  16  17
ENDBRANCH  15  16
ENDBRANCH  13  15
ENDBRANCH  12  13
ENDBRANCH  10  11
ENDBRANCH   8   9
ENDBRANCH   1   7
BRANCH   6  21
HETATM   21  O5  UNL     1     -33.774 -43.971  11.717  1.00  0.00    -0.390 OA
ATOM     22  H5  UNL     1     -32.917 -44.161  12.083  1.00  0.00     0.210 HD
ENDBRANCH   6  21
BRANCH   3  23
HETATM   23  O2  UNL     1     -35.746 -48.685  10.004  1.00  0.00    -0.368 OA
ATOM     24  H2  UNL     1     -35.837 -49.127  10.840  1.00  0.00     0.212 HD
ENDBRANCH   3  23
BRANCH   5  25
HETATM   25  O4  UNL     1     -32.262 -45.453   9.935  1.00  0.00    -0.390 OA
ATOM     26  H4  UNL     1     -31.599 -46.090   9.700  1.00  0.00     0.210 HD
ENDBRANCH   5  25
BRANCH   4  27
HETATM   27  O3  UNL     1     -33.151 -48.302   9.980  1.00  0.00    -0.388 OA
ATOM     28  H3  UNL     1     -32.832 -48.613   9.141  1.00  0.00     0.210 HD
ENDBRANCH   4  27
TORSDOF 12
ENDMDL
MODEL 5
REMARK VINA RESULT: -8.033729092      2.547      5.336
REMARK  12 active torsions:
REMARK  status: ('A' for Active; 'I' for Inactive)
REMARK    1  A    between atoms: C2_2  and  C3_3 
REMARK    2  A    between atoms: C3_3  and  C5_5 
REMARK    3  A    between atoms: C5_5  and  C6_6 
REMARK    4  A    between atoms: C6_6  and  C7_7 
REMARK    5  A    between atoms: C7_7  and  C9_9 
REMARK    6  A    between atoms: C10_10  and  C11_11 
REMARK    7  A    between atoms: C12_12  and  C13_13 
REMARK    8  A    between atoms: C14_14  and  C15_15 
REMARK    9  A    between atoms: C16_17  and  O2_18 
REMARK   10  A    between atoms: C17_20  and  O3_21 
REMARK   11  A    between atoms: C18_23  and  O4_24 
REMARK   12  A    between atoms: C19_26  and  O5_27 
ROOT
HETATM    1  C15 UNL     1     -34.542 -49.110   9.640  1.00  0.00     0.179 C 
HETATM    2  O1  UNL     1     -34.954 -50.333  10.023  1.00  0.00    -0.347 OA
HETATM    3  C16 UNL     1     -36.249 -50.696   9.970  1.00  0.00     0.289 C 
HETATM    4  C17 UNL     1     -37.070 -50.144   8.846  1.00  0.00     0.204 C 
HETATM    5  C18 UNL     1     -36.460 -48.930   8.197  1.00  0.00     0.183 C 
HETATM    6  C19 UNL     1     -35.718 -48.187   9.283  1.00  0.00     0.182 C 
ENDROOT
BRANCH   1   7
HETATM    7  C14 UNL     1     -33.909 -48.410  10.819  1.00  0.00     0.008 C 
HETATM    8  C13 UNL     1     -33.448 -47.178  10.633  1.00  0.00    -0.001 C 
BRANCH   8   9
HETATM    9  C12 UNL     1     -32.829 -46.448  11.706  1.00  0.00    -0.000 C 
HETATM   10  C11 UNL     1     -33.200 -45.229  12.044  1.00  0.00     0.000 C 
BRANCH  10  11
HETATM   11  C10 UNL     1     -34.247 -44.510  11.384  1.00  0.00     0.001 C 
HETATM   12  C9  UNL     1     -35.514 -44.544  11.543  1.00  0.00     0.019 C 
BRANCH  12  13
HETATM   13  C7  UNL     1     -36.455 -45.269  12.376  1.00  0.00    -0.005 C 
HETATM   14  C8  UNL     1     -36.233 -46.585  12.559  1.00  0.00     0.032 C 
BRANCH  13  15
HETATM   15  C6  UNL     1     -37.619 -44.752  13.012  1.00  0.00    -0.144 C 
BRANCH  15  16
HETATM   16  C5  UNL     1     -38.630 -44.303  13.563  1.00  0.00     0.093 C 
BRANCH  16  17
HETATM   17  C3  UNL     1     -38.717 -43.742  14.944  1.00  0.00     0.014 C 
HETATM   18  C4  UNL     1     -40.137 -43.265  15.110  1.00  0.00     0.015 C 
BRANCH  17  19
HETATM   19  C2  UNL     1     -38.330 -44.798  15.931  1.00  0.00    -0.032 C 
HETATM   20  C1  UNL     1     -38.746 -44.712  17.212  1.00  0.00     0.007 C 
ENDBRANCH  17  19
ENDBRANCH  16  17
ENDBRANCH  15  16
ENDBRANCH  13  15
ENDBRANCH  12  13
ENDBRANCH  10  11
ENDBRANCH   8   9
ENDBRANCH   1   7
BRANCH   6  21
HETATM   21  O5  UNL     1     -35.263 -46.943   8.867  1.00  0.00    -0.390 OA
ATOM     22  H5  UNL     1     -35.364 -46.297   9.557  1.00  0.00     0.210 HD
ENDBRANCH   6  21
BRANCH   3  23
HETATM   23  O2  UNL     1     -36.352 -52.082  10.070  1.00  0.00    -0.368 OA
ATOM     24  H2  UNL     1     -35.499 -52.453  10.266  1.00  0.00     0.212 HD
ENDBRANCH   3  23
BRANCH   5  25
HETATM   25  O4  UNL     1     -37.503 -48.107   7.733  1.00  0.00    -0.390 OA
ATOM     26  H4  UNL     1     -38.321 -48.578   7.832  1.00  0.00     0.210 HD
ENDBRANCH   5  25
BRANCH   4  27
HETATM   27  O3  UNL     1     -37.249 -51.080   7.817  1.00  0.00    -0.388 OA
ATOM     28  H3  UNL     1     -38.164 -51.309   7.699  1.00  0.00     0.210 HD
ENDBRANCH   4  27
TORSDOF 12
ENDMDL
