MODEL 1
REMARK VINA RESULT: -7.855810974      0.000      0.000
REMARK  8 active torsions:
REMARK  status: ('A' for Active; 'I' for Inactive)
REMARK    1  A    between atoms: C2_2  and  C4_4 
REMARK    2  A    between atoms: C4_4  and  N1_5 
REMARK    3  A    between atoms: C4_4  and  N2_9 
REMARK       I    between atoms: N2_9  and  C5_11 
REMARK    4  A    between atoms: C5_11  and  C6_13 
REMARK    5  A    between atoms: C6_13  and  C7_14 
REMARK    6  A    between atoms: C6_13  and  N3_16 
REMARK    7  A    between atoms: N3_16  and  S2_18 
REMARK    8  A    between atoms: S2_18  and  C8_21 
ROOT
HETATM    1  C6  UNL     1     -35.337 -45.499  11.923  1.00  0.00     0.195 C 
ENDROOT
BRANCH   1   2
HETATM    2  C5  UNL     1     -36.651 -45.359  12.571  1.00  0.00     0.243 C 
HETATM    3  N2  UNL     1     -36.832 -44.806  13.865  1.00  0.00    -0.331 N 
ATOM      4  H2  UNL     1     -36.010 -44.486  14.379  1.00  0.00     0.164 HD
HETATM    5  O1  UNL     1     -37.707 -45.749  11.959  1.00  0.00    -0.271 OA
BRANCH   3   6
HETATM    6  C4  UNL     1     -38.115 -44.678  14.478  1.00  0.00     0.287 C 
BRANCH   6   7
HETATM    7  C2  UNL     1     -38.091 -44.002  15.820  1.00  0.00     0.027 C 
HETATM    8  C1  UNL     1     -38.481 -45.001  16.914  1.00  0.00     0.013 C 
HETATM    9  C3  UNL     1     -39.010 -42.822  15.916  1.00  0.00     0.013 C 
ENDBRANCH   6   7
BRANCH   6  10
HETATM   10  N1  UNL     1     -39.056 -43.964  13.638  1.00  0.00    -0.058 N 
ATOM     11  H13 UNL     1     -39.985 -44.386  13.636  1.00  0.00     0.276 HD
ATOM     12  H12 UNL     1     -39.321 -43.056  14.022  1.00  0.00     0.276 HD
ATOM     13  H11 UNL     1     -38.651 -43.895  12.705  1.00  0.00     0.276 HD
ENDBRANCH   6  10
ENDBRANCH   3   6
ENDBRANCH   1   2
BRANCH   1  14
HETATM   14  C7  UNL     1     -34.651 -44.162  11.697  1.00  0.00     0.121 C 
HETATM   15  S1  UNL     1     -32.877 -44.403  11.586  1.00  0.00    -0.095 SA
ENDBRANCH   1  14
BRANCH   1  16
HETATM   16  N3  UNL     1     -35.477 -46.144  10.654  1.00  0.00    -0.301 N 
ATOM     17  H3  UNL     1     -36.022 -45.748   9.887  1.00  0.00     0.173 HD
BRANCH  16  18
HETATM   18  S2  UNL     1     -34.649 -47.640  10.534  1.00  0.00     0.259 S 
HETATM   19  O2  UNL     1     -34.230 -48.133  11.889  1.00  0.00    -0.201 OA
HETATM   20  O3  UNL     1     -33.447 -47.415   9.659  1.00  0.00    -0.201 OA
BRANCH  18  21
HETATM   21  C8  UNL     1     -35.623 -48.866   9.752  1.00  0.00     0.079 A 
HETATM   22  C9  UNL     1     -35.633 -50.179  10.159  1.00  0.00     0.025 A 
HETATM   23  C10 UNL     1     -36.400 -51.133   9.540  1.00  0.00     0.002 A 
HETATM   24  C11 UNL     1     -37.192 -50.746   8.466  1.00  0.00     0.000 A 
HETATM   25  C12 UNL     1     -37.208 -49.438   8.032  1.00  0.00     0.002 A 
HETATM   26  C13 UNL     1     -36.419 -48.512   8.684  1.00  0.00     0.025 A 
ENDBRANCH  18  21
ENDBRANCH  16  18
ENDBRANCH   1  16
TORSDOF 8
ENDMDL
MODEL 2
REMARK VINA RESULT: -7.853051763      0.032      1.041
REMARK  8 active torsions:
REMARK  status: ('A' for Active; 'I' for Inactive)
REMARK    1  A    between atoms: C2_2  and  C4_4 
REMARK    2  A    between atoms: C4_4  and  N1_5 
REMARK    3  A    between atoms: C4_4  and  N2_9 
REMARK       I    between atoms: N2_9  and  C5_11 
REMARK    4  A    between atoms: C5_11  and  C6_13 
REMARK    5  A    between atoms: C6_13  and  C7_14 
REMARK    6  A    between atoms: C6_13  and  N3_16 
REMARK    7  A    between atoms: N3_16  and  S2_18 
REMARK    8  A    between atoms: S2_18  and  C8_21 
ROOT
HETATM    1  C6  UNL     1     -35.319 -45.502  11.929  1.00  0.00     0.195 C 
ENDROOT
BRANCH   1   2
HETATM    2  C5  UNL     1     -36.634 -45.369  12.574  1.00  0.00     0.243 C 
HETATM    3  N2  UNL     1     -36.821 -44.806  13.864  1.00  0.00    -0.331 N 
ATOM      4  H2  UNL     1     -36.004 -44.473  14.375  1.00  0.00     0.164 HD
HETATM    5  O1  UNL     1     -37.686 -45.776  11.966  1.00  0.00    -0.271 OA
BRANCH   3   6
HETATM    6  C4  UNL     1     -38.106 -44.686  14.475  1.00  0.00     0.287 C 
BRANCH   6   7
HETATM    7  C2  UNL     1     -38.090 -44.002  15.813  1.00  0.00     0.027 C 
HETATM    8  C1  UNL     1     -38.471 -45.000  16.912  1.00  0.00     0.013 C 
HETATM    9  C3  UNL     1     -39.019 -42.830  15.902  1.00  0.00     0.013 C 
ENDBRANCH   6   7
BRANCH   6  10
HETATM   10  N1  UNL     1     -39.053 -43.984  13.630  1.00  0.00    -0.058 N 
ATOM     11  H13 UNL     1     -38.826 -42.996  13.517  1.00  0.00     0.276 HD
ATOM     12  H12 UNL     1     -38.982 -44.252  12.648  1.00  0.00     0.276 HD
ATOM     13  H11 UNL     1     -39.985 -44.135  14.014  1.00  0.00     0.276 HD
ENDBRANCH   6  10
ENDBRANCH   3   6
ENDBRANCH   1   2
BRANCH   1  14
HETATM   14  C7  UNL     1     -34.632 -44.162  11.721  1.00  0.00     0.121 C 
HETATM   15  S1  UNL     1     -32.860 -44.406  11.580  1.00  0.00    -0.095 SA
ENDBRANCH   1  14
BRANCH   1  16
HETATM   16  N3  UNL     1     -35.455 -46.132  10.652  1.00  0.00    -0.301 N 
ATOM     17  H3  UNL     1     -35.981 -45.717   9.882  1.00  0.00     0.173 HD
BRANCH  16  18
HETATM   18  S2  UNL     1     -34.656 -47.644  10.528  1.00  0.00     0.259 S 
HETATM   19  O2  UNL     1     -34.263 -48.157  11.884  1.00  0.00    -0.201 OA
HETATM   20  O3  UNL     1     -33.440 -47.435   9.669  1.00  0.00    -0.201 OA
BRANCH  18  21
HETATM   21  C8  UNL     1     -35.646 -48.842   9.724  1.00  0.00     0.079 A 
HETATM   22  C9  UNL     1     -36.459 -48.540   8.657  1.00  0.00     0.025 A 
HETATM   23  C10 UNL     1     -37.231 -49.486   8.032  1.00  0.00     0.002 A 
HETATM   24  C11 UNL     1     -37.180 -50.792   8.503  1.00  0.00     0.000 A 
HETATM   25  C12 UNL     1     -36.376 -51.131   9.569  1.00  0.00     0.002 A 
HETATM   26  C13 UNL     1     -35.616 -50.146  10.167  1.00  0.00     0.025 A 
ENDBRANCH  18  21
ENDBRANCH  16  18
ENDBRANCH   1  16
TORSDOF 8
ENDMDL
MODEL 3
REMARK VINA RESULT: -7.688051962      1.732      7.008
REMARK  8 active torsions:
REMARK  status: ('A' for Active; 'I' for Inactive)
REMARK    1  A    between atoms: C2_2  and  C4_4 
REMARK    2  A    between atoms: C4_4  and  N1_5 
REMARK    3  A    between atoms: C4_4  and  N2_9 
REMARK       I    between atoms: N2_9  and  C5_11 
REMARK    4  A    between atoms: C5_11  and  C6_13 
REMARK    5  A    between atoms: C6_13  and  C7_14 
REMARK    6  A    between atoms: C6_13  and  N3_16 
REMARK    7  A    between atoms: N3_16  and  S2_18 
REMARK    8  A    between atoms: S2_18  and  C8_21 
ROOT
HETATM    1  C6  UNL     1     -35.277 -46.121  11.864  1.00  0.00     0.195 C 
ENDROOT
BRANCH   1   2
HETATM    2  C5  UNL     1     -34.982 -47.460  11.329  1.00  0.00     0.243 C 
HETATM    3  N2  UNL     1     -35.753 -48.086  10.315  1.00  0.00    -0.331 N 
ATOM      4  H2  UNL     1     -36.556 -47.586   9.933  1.00  0.00     0.164 HD
HETATM    5  O1  UNL     1     -33.983 -48.121  11.784  1.00  0.00    -0.271 OA
BRANCH   3   6
HETATM    6  C4  UNL     1     -35.452 -49.387   9.809  1.00  0.00     0.287 C 
BRANCH   6   7
HETATM    7  C2  UNL     1     -36.352 -49.837   8.693  1.00  0.00     0.027 C 
HETATM    8  C1  UNL     1     -37.210 -48.663   8.210  1.00  0.00     0.013 C 
HETATM    9  C3  UNL     1     -37.268 -50.960   9.074  1.00  0.00     0.013 C 
ENDBRANCH   6   7
BRANCH   6  10
HETATM   10  N1  UNL     1     -34.082 -49.491   9.344  1.00  0.00    -0.058 N 
ATOM     11  H13 UNL     1     -33.841 -48.775   8.659  1.00  0.00     0.276 HD
ATOM     12  H12 UNL     1     -33.401 -49.233  10.057  1.00  0.00     0.276 HD
ATOM     13  H11 UNL     1     -33.945 -50.438   8.990  1.00  0.00     0.276 HD
ENDBRANCH   6  10
ENDBRANCH   3   6
ENDBRANCH   1   2
BRANCH   1  14
HETATM   14  C7  UNL     1     -34.060 -45.461  12.492  1.00  0.00     0.121 C 
HETATM   15  S1  UNL     1     -33.109 -44.617  11.227  1.00  0.00    -0.095 SA
ENDBRANCH   1  14
BRANCH   1  16
HETATM   16  N3  UNL     1     -36.300 -46.199  12.860  1.00  0.00    -0.301 N 
ATOM     17  H3  UNL     1     -36.248 -46.829  13.660  1.00  0.00     0.173 HD
BRANCH  16  18
HETATM   18  S2  UNL     1     -37.622 -45.142  12.590  1.00  0.00     0.259 S 
HETATM   19  O2  UNL     1     -38.678 -45.803  11.750  1.00  0.00    -0.201 OA
HETATM   20  O3  UNL     1     -37.082 -43.923  11.894  1.00  0.00    -0.201 OA
BRANCH  18  21
HETATM   21  C8  UNL     1     -38.339 -44.594  14.089  1.00  0.00     0.079 A 
HETATM   22  C9  UNL     1     -37.861 -44.970  15.322  1.00  0.00     0.025 A 
HETATM   23  C10 UNL     1     -38.429 -44.535  16.492  1.00  0.00     0.002 A 
HETATM   24  C11 UNL     1     -39.524 -43.684  16.416  1.00  0.00     0.000 A 
HETATM   25  C12 UNL     1     -40.029 -43.285  15.197  1.00  0.00     0.002 A 
HETATM   26  C13 UNL     1     -39.426 -43.748  14.045  1.00  0.00     0.025 A 
ENDBRANCH  18  21
ENDBRANCH  16  18
ENDBRANCH   1  16
TORSDOF 8
ENDMDL
MODEL 4
REMARK VINA RESULT: -7.651713248      1.736      7.068
REMARK  8 active torsions:
REMARK  status: ('A' for Active; 'I' for Inactive)
REMARK    1  A    between atoms: C2_2  and  C4_4 
REMARK    2  A    between atoms: C4_4  and  N1_5 
REMARK    3  A    between atoms: C4_4  and  N2_9 
REMARK       I    between atoms: N2_9  and  C5_11 
REMARK    4  A    between atoms: C5_11  and  C6_13 
REMARK    5  A    between atoms: C6_13  and  C7_14 
REMARK    6  A    between atoms: C6_13  and  N3_16 
REMARK    7  A    between atoms: N3_16  and  S2_18 
REMARK    8  A    between atoms: S2_18  and  C8_21 
ROOT
HETATM    1  C6  UNL     1     -35.261 -46.146  11.862  1.00  0.00     0.195 C 
ENDROOT
BRANCH   1   2
HETATM    2  C5  UNL     1     -34.984 -47.489  11.328  1.00  0.00     0.243 C 
HETATM    3  N2  UNL     1     -35.756 -48.101  10.306  1.00  0.00    -0.331 N 
ATOM      4  H2  UNL     1     -36.547 -47.587   9.916  1.00  0.00     0.164 HD
HETATM    5  O1  UNL     1     -34.001 -48.168  11.791  1.00  0.00    -0.271 OA
BRANCH   3   6
HETATM    6  C4  UNL     1     -35.472 -49.405   9.800  1.00  0.00     0.287 C 
BRANCH   6   7
HETATM    7  C2  UNL     1     -36.371 -49.839   8.676  1.00  0.00     0.027 C 
HETATM    8  C1  UNL     1     -37.222 -48.656   8.203  1.00  0.00     0.013 C 
HETATM    9  C3  UNL     1     -37.293 -50.962   9.042  1.00  0.00     0.013 C 
ENDBRANCH   6   7
BRANCH   6  10
HETATM   10  N1  UNL     1     -34.101 -49.532   9.345  1.00  0.00    -0.058 N 
ATOM     11  H13 UNL     1     -33.493 -49.967  10.039  1.00  0.00     0.276 HD
ATOM     12  H12 UNL     1     -33.991 -50.232   8.611  1.00  0.00     0.276 HD
ATOM     13  H11 UNL     1     -33.780 -48.607   9.061  1.00  0.00     0.276 HD
ENDBRANCH   6  10
ENDBRANCH   3   6
ENDBRANCH   1   2
BRANCH   1  14
HETATM   14  C7  UNL     1     -34.042 -45.514  12.514  1.00  0.00     0.121 C 
HETATM   15  S1  UNL     1     -33.262 -44.379  11.364  1.00  0.00    -0.095 SA
ENDBRANCH   1  14
BRANCH   1  16
HETATM   16  N3  UNL     1     -36.303 -46.207  12.839  1.00  0.00    -0.301 N 
ATOM     17  H3  UNL     1     -36.275 -46.836  13.642  1.00  0.00     0.173 HD
BRANCH  16  18
HETATM   18  S2  UNL     1     -37.604 -45.130  12.543  1.00  0.00     0.259 S 
HETATM   19  O2  UNL     1     -38.652 -45.775  11.682  1.00  0.00    -0.201 OA
HETATM   20  O3  UNL     1     -37.032 -43.919  11.860  1.00  0.00    -0.201 OA
BRANCH  18  21
HETATM   21  C8  UNL     1     -38.342 -44.572  14.029  1.00  0.00     0.079 A 
HETATM   22  C9  UNL     1     -39.425 -43.725  14.048  1.00  0.00     0.025 A 
HETATM   23  C10 UNL     1     -39.998 -43.294  15.217  1.00  0.00     0.002 A 
HETATM   24  C11 UNL     1     -39.456 -43.735  16.418  1.00  0.00     0.000 A 
HETATM   25  C12 UNL     1     -38.371 -44.585  16.436  1.00  0.00     0.002 A 
HETATM   26  C13 UNL     1     -37.827 -44.993  15.235  1.00  0.00     0.025 A 
ENDBRANCH  18  21
ENDBRANCH  16  18
ENDBRANCH   1  16
TORSDOF 8
ENDMDL
MODEL 5
REMARK VINA RESULT: -7.505607887      1.601      6.979
REMARK  8 active torsions:
REMARK  status: ('A' for Active; 'I' for Inactive)
REMARK    1  A    between atoms: C2_2  and  C4_4 
REMARK    2  A    between atoms: C4_4  and  N1_5 
REMARK    3  A    between atoms: C4_4  and  N2_9 
REMARK       I    between atoms: N2_9  and  C5_11 
REMARK    4  A    between atoms: C5_11  and  C6_13 
REMARK    5  A    between atoms: C6_13  and  C7_14 
REMARK    6  A    between atoms: C6_13  and  N3_16 
REMARK    7  A    between atoms: N3_16  and  S2_18 
REMARK    8  A    between atoms: S2_18  and  C8_21 
ROOT
HETATM    1  C6  UNL     1     -35.663 -45.338  11.131  1.00  0.00     0.195 C 
ENDROOT
BRANCH   1   2
HETATM    2  C5  UNL     1     -35.313 -46.759  10.983  1.00  0.00     0.243 C 
HETATM    3  N2  UNL     1     -35.822 -47.588   9.949  1.00  0.00    -0.331 N 
ATOM      4  H2  UNL     1     -36.466 -47.183   9.269  1.00  0.00     0.164 HD
HETATM    5  O1  UNL     1     -34.508 -47.307  11.817  1.00  0.00    -0.271 OA
BRANCH   3   6
HETATM    6  C4  UNL     1     -35.471 -48.966   9.821  1.00  0.00     0.287 C 
BRANCH   6   7
HETATM    7  C2  UNL     1     -36.201 -49.688   8.724  1.00  0.00     0.027 C 
HETATM    8  C1  UNL     1     -37.213 -48.747   8.064  1.00  0.00     0.013 C 
HETATM    9  C3  UNL     1     -36.932 -50.910   9.190  1.00  0.00     0.013 C 
ENDBRANCH   6   7
BRANCH   6  10
HETATM   10  N1  UNL     1     -34.049 -49.153   9.606  1.00  0.00    -0.058 N 
ATOM     11  H13 UNL     1     -33.671 -49.946  10.125  1.00  0.00     0.276 HD
ATOM     12  H12 UNL     1     -33.832 -49.489   8.668  1.00  0.00     0.276 HD
ATOM     13  H11 UNL     1     -33.582 -48.275   9.830  1.00  0.00     0.276 HD
ENDBRANCH   6  10
ENDBRANCH   3   6
ENDBRANCH   1   2
BRANCH   1  14
HETATM   14  C7  UNL     1     -34.563 -44.410  10.640  1.00  0.00     0.121 C 
HETATM   15  S1  UNL     1     -33.155 -44.503  11.747  1.00  0.00    -0.095 SA
ENDBRANCH   1  14
BRANCH   1  16
HETATM   16  N3  UNL     1     -35.919 -45.031  12.504  1.00  0.00    -0.301 N 
ATOM     17  H3  UNL     1     -35.269 -44.501  13.085  1.00  0.00     0.173 HD
BRANCH  16  18
HETATM   18  S2  UNL     1     -37.414 -45.633  13.089  1.00  0.00     0.259 S 
HETATM   19  O2  UNL     1     -37.255 -47.018  13.649  1.00  0.00    -0.201 OA
HETATM   20  O3  UNL     1     -38.374 -45.638  11.931  1.00  0.00    -0.201 OA
BRANCH  18  21
HETATM   21  C8  UNL     1     -38.104 -44.591  14.315  1.00  0.00     0.079 A 
HETATM   22  C9  UNL     1     -37.526 -44.413  15.549  1.00  0.00     0.025 A 
HETATM   23  C10 UNL     1     -38.073 -43.594  16.504  1.00  0.00     0.002 A 
HETATM   24  C11 UNL     1     -39.253 -42.927  16.200  1.00  0.00     0.000 A 
HETATM   25  C12 UNL     1     -39.860 -43.081  14.972  1.00  0.00     0.002 A 
HETATM   26  C13 UNL     1     -39.273 -43.916  14.042  1.00  0.00     0.025 A 
ENDBRANCH  18  21
ENDBRANCH  16  18
ENDBRANCH   1  16
TORSDOF 8
ENDMDL
