MODEL 1
REMARK VINA RESULT: -5.267131639      0.000      0.000
REMARK  2 active torsions:
REMARK  status: ('A' for Active; 'I' for Inactive)
REMARK    1  A    between atoms: O1_2  and  N1_3 
REMARK    2  A    between atoms: N1_3  and  C2_4 
ROOT
HETATM    1  C2  UNL     1      32.840  41.704  22.660  1.00  0.00     0.204 C 
HETATM    2  C3  UNL     1      34.264  41.861  22.348  1.00  0.00     0.044 C 
HETATM    3  C4  UNL     1      35.017  40.581  22.138  1.00  0.00     0.004 C 
HETATM    4  C5  UNL     1      35.294  39.998  23.499  1.00  0.00     0.007 C 
HETATM    5  C6  UNL     1      34.293  38.953  23.808  1.00  0.00     0.075 C 
HETATM    6  C7  UNL     1      32.966  39.153  23.218  1.00  0.00     0.071 C 
HETATM    7  N2  UNL     1      32.272  38.098  22.996  1.00  0.00    -0.389 N 
ATOM      8  H21 UNL     1      31.350  38.237  22.585  1.00  0.00     0.157 HD
ATOM      9  H22 UNL     1      32.711  37.214  23.255  1.00  0.00     0.157 HD
HETATM   10  N3  UNL     1      32.356  40.382  22.858  1.00  0.00    -0.360 N 
ATOM     11  H3  UNL     1      31.350  40.299  22.709  1.00  0.00     0.162 HD
ENDROOT
BRANCH   1  12
HETATM   12  N1  UNL     1      32.044  42.315  21.583  1.00  0.00    -0.076 NA
BRANCH  12  13
HETATM   13  O1  UNL     1      31.237  43.271  22.071  1.00  0.00    -0.289 OA
HETATM   14  C1  UNL     1      31.935  44.280  22.720  1.00  0.00     0.231 C 
ENDBRANCH  12  13
ENDBRANCH   1  12
TORSDOF 2
ENDMDL
MODEL 2
REMARK VINA RESULT: -4.750074683      2.018      3.998
REMARK  2 active torsions:
REMARK  status: ('A' for Active; 'I' for Inactive)
REMARK    1  A    between atoms: O1_2  and  N1_3 
REMARK    2  A    between atoms: N1_3  and  C2_4 
ROOT
HETATM    1  C2  UNL     1      32.800  40.478  22.202  1.00  0.00     0.204 C 
HETATM    2  C3  UNL     1      34.217  40.452  22.579  1.00  0.00     0.044 C 
HETATM    3  C4  UNL     1      34.755  41.736  23.136  1.00  0.00     0.004 C 
HETATM    4  C5  UNL     1      34.995  42.662  21.973  1.00  0.00     0.007 C 
HETATM    5  C6  UNL     1      33.859  43.600  21.837  1.00  0.00     0.075 C 
HETATM    6  C7  UNL     1      32.555  43.080  22.261  1.00  0.00     0.071 C 
HETATM    7  N2  UNL     1      31.698  43.944  22.666  1.00  0.00    -0.389 N 
ATOM      8  H21 UNL     1      30.792  43.583  22.962  1.00  0.00     0.157 HD
ATOM      9  H22 UNL     1      32.006  44.916  22.654  1.00  0.00     0.157 HD
HETATM   10  N3  UNL     1      32.127  41.728  22.279  1.00  0.00    -0.360 N 
ATOM     11  H3  UNL     1      31.115  41.631  22.365  1.00  0.00     0.162 HD
ENDROOT
BRANCH   1  12
HETATM   12  N1  UNL     1      32.064  39.522  23.044  1.00  0.00    -0.076 NA
BRANCH  12  13
HETATM   13  O1  UNL     1      32.511  38.270  22.846  1.00  0.00    -0.289 OA
HETATM   14  C1  UNL     1      33.518  37.916  23.733  1.00  0.00     0.231 C 
ENDBRANCH  12  13
ENDBRANCH   1  12
TORSDOF 2
ENDMDL
MODEL 3
REMARK VINA RESULT: -4.377048823      7.680      8.864
REMARK  2 active torsions:
REMARK  status: ('A' for Active; 'I' for Inactive)
REMARK    1  A    between atoms: O1_2  and  N1_3 
REMARK    2  A    between atoms: N1_3  and  C2_4 
ROOT
HETATM    1  C2  UNL     1      29.224  35.087  19.296  1.00  0.00     0.204 C 
HETATM    2  C3  UNL     1      28.848  34.511  18.001  1.00  0.00     0.044 C 
HETATM    3  C4  UNL     1      27.751  33.489  18.050  1.00  0.00     0.004 C 
HETATM    4  C5  UNL     1      28.362  32.201  18.539  1.00  0.00     0.007 C 
HETATM    5  C6  UNL     1      28.102  32.043  19.987  1.00  0.00     0.075 C 
HETATM    6  C7  UNL     1      28.006  33.290  20.753  1.00  0.00     0.071 C 
HETATM    7  N2  UNL     1      27.287  33.257  21.815  1.00  0.00    -0.389 N 
ATOM      8  H21 UNL     1      27.221  34.123  22.347  1.00  0.00     0.157 HD
ATOM      9  H22 UNL     1      26.848  32.361  22.027  1.00  0.00     0.157 HD
HETATM   10  N3  UNL     1      28.617  34.535  20.457  1.00  0.00    -0.360 N 
ATOM     11  H3  UNL     1      28.622  35.176  21.252  1.00  0.00     0.162 HD
ENDROOT
BRANCH   1  12
HETATM   12  N1  UNL     1      28.933  36.529  19.281  1.00  0.00    -0.076 NA
BRANCH  12  13
HETATM   13  O1  UNL     1      29.534  37.125  18.238  1.00  0.00    -0.289 OA
HETATM   14  C1  UNL     1      28.947  38.338  17.905  1.00  0.00     0.231 C 
ENDBRANCH  12  13
ENDBRANCH   1  12
TORSDOF 2
ENDMDL
MODEL 4
REMARK VINA RESULT: -4.360090493      7.868      8.887
REMARK  2 active torsions:
REMARK  status: ('A' for Active; 'I' for Inactive)
REMARK    1  A    between atoms: O1_2  and  N1_3 
REMARK    2  A    between atoms: N1_3  and  C2_4 
ROOT
HETATM    1  C2  UNL     1      29.387  35.100  18.634  1.00  0.00     0.204 C 
HETATM    2  C3  UNL     1      29.862  34.879  17.264  1.00  0.00     0.044 C 
HETATM    3  C4  UNL     1      29.638  33.497  16.726  1.00  0.00     0.004 C 
HETATM    4  C5  UNL     1      30.696  32.608  17.324  1.00  0.00     0.007 C 
HETATM    5  C6  UNL     1      30.137  31.873  18.480  1.00  0.00     0.075 C 
HETATM    6  C7  UNL     1      29.084  32.571  19.225  1.00  0.00     0.071 C 
HETATM    7  N2  UNL     1      28.233  31.836  19.841  1.00  0.00    -0.389 N 
ATOM      8  H21 UNL     1      27.501  32.322  20.359  1.00  0.00     0.157 HD
ATOM      9  H22 UNL     1      28.370  30.829  19.755  1.00  0.00     0.157 HD
HETATM   10  N3  UNL     1      28.894  33.972  19.344  1.00  0.00    -0.360 N 
ATOM     11  H3  UNL     1      28.265  34.225  20.107  1.00  0.00     0.162 HD
ENDROOT
BRANCH   1  12
HETATM   12  N1  UNL     1      28.323  36.116  18.613  1.00  0.00    -0.076 NA
BRANCH  12  13
HETATM   13  O1  UNL     1      28.786  37.301  19.045  1.00  0.00    -0.289 OA
HETATM   14  C1  UNL     1      28.814  38.261  18.044  1.00  0.00     0.231 C 
ENDBRANCH  12  13
ENDBRANCH   1  12
TORSDOF 2
ENDMDL
MODEL 5
REMARK VINA RESULT: -4.343180444      7.890      9.021
REMARK  2 active torsions:
REMARK  status: ('A' for Active; 'I' for Inactive)
REMARK    1  A    between atoms: O1_2  and  N1_3 
REMARK    2  A    between atoms: N1_3  and  C2_4 
ROOT
HETATM    1  C2  UNL     1      29.360  35.010  17.683  1.00  0.00     0.204 C 
HETATM    2  C3  UNL     1      28.595  34.822  18.920  1.00  0.00     0.044 C 
HETATM    3  C4  UNL     1      28.997  33.635  19.745  1.00  0.00     0.004 C 
HETATM    4  C5  UNL     1      28.401  32.415  19.093  1.00  0.00     0.007 C 
HETATM    5  C6  UNL     1      29.422  31.745  18.259  1.00  0.00     0.075 C 
HETATM    6  C7  UNL     1      30.432  32.626  17.664  1.00  0.00     0.071 C 
HETATM    7  N2  UNL     1      31.575  32.101  17.413  1.00  0.00    -0.389 N 
ATOM      8  H21 UNL     1      32.277  32.714  16.999  1.00  0.00     0.157 HD
ATOM      9  H22 UNL     1      31.674  31.114  17.652  1.00  0.00     0.157 HD
HETATM   10  N3  UNL     1      30.294  33.998  17.332  1.00  0.00    -0.360 N 
ATOM     11  H3  UNL     1      31.026  34.332  16.704  1.00  0.00     0.162 HD
ENDROOT
BRANCH   1  12
HETATM   12  N1  UNL     1      30.090  36.285  17.761  1.00  0.00    -0.076 NA
BRANCH  12  13
HETATM   13  O1  UNL     1      29.413  37.177  18.503  1.00  0.00    -0.289 OA
HETATM   14  C1  UNL     1      29.082  38.322  17.793  1.00  0.00     0.231 C 
ENDBRANCH  12  13
ENDBRANCH   1  12
TORSDOF 2
ENDMDL
