MODEL 1
REMARK VINA RESULT: -4.201473313      0.000      0.000
REMARK  2 active torsions:
REMARK  status: ('A' for Active; 'I' for Inactive)
REMARK    1  A    between atoms: C2_2  and  C3_3 
REMARK    2  A    between atoms: C3_3  and  C4_4 
ROOT
HETATM    1  C4  UNL     1      28.386  33.856  20.026  1.00  0.00     0.067 C 
HETATM    2  C5  UNL     1      27.051  33.587  20.689  1.00  0.00     0.037 C 
HETATM    3  N1  UNL     1      28.874  35.108  20.599  1.00  0.00    -0.118 NA
HETATM    4  N2  UNL     1      29.076  35.993  19.540  1.00  0.00    -0.038 NA
HETATM    5  N3  UNL     1      28.019  35.656  18.669  1.00  0.00    -0.118 NA
HETATM    6  C6  UNL     1      28.229  34.198  18.595  1.00  0.00     0.064 C 
HETATM    7  C7  UNL     1      29.433  33.991  17.743  1.00  0.00     0.037 C 
HETATM    8  C8  UNL     1      26.958  33.663  17.975  1.00  0.00     0.037 C 
ENDROOT
BRANCH   1   9
HETATM    9  C3  UNL     1      29.362  32.795  20.347  1.00  0.00     0.030 C 
BRANCH   9  10
HETATM   10  C2  UNL     1      29.109  32.087  21.652  1.00  0.00    -0.002 C 
HETATM   11  C1  UNL     1      30.333  31.339  22.099  1.00  0.00     0.005 C 
ENDBRANCH   9  10
ENDBRANCH   1   9
TORSDOF 2
ENDMDL
MODEL 2
REMARK VINA RESULT: -4.017782097      1.722      3.382
REMARK  2 active torsions:
REMARK  status: ('A' for Active; 'I' for Inactive)
REMARK    1  A    between atoms: C2_2  and  C3_3 
REMARK    2  A    between atoms: C3_3  and  C4_4 
ROOT
HETATM    1  C4  UNL     1      28.126  34.056  18.857  1.00  0.00     0.067 C 
HETATM    2  C5  UNL     1      29.037  35.144  19.386  1.00  0.00     0.037 C 
HETATM    3  N1  UNL     1      26.809  34.670  18.710  1.00  0.00    -0.118 NA
HETATM    4  N2  UNL     1      25.920  33.925  19.485  1.00  0.00    -0.038 NA
HETATM    5  N3  UNL     1      26.722  33.568  20.590  1.00  0.00    -0.118 NA
HETATM    6  C6  UNL     1      27.880  33.005  19.869  1.00  0.00     0.064 C 
HETATM    7  C7  UNL     1      27.444  31.684  19.341  1.00  0.00     0.037 C 
HETATM    8  C8  UNL     1      28.964  32.903  20.918  1.00  0.00     0.037 C 
ENDROOT
BRANCH   1   9
HETATM    9  C3  UNL     1      28.567  33.595  17.524  1.00  0.00     0.030 C 
BRANCH   9  10
HETATM   10  C2  UNL     1      30.032  33.801  17.244  1.00  0.00    -0.002 C 
HETATM   11  C1  UNL     1      30.794  32.516  17.412  1.00  0.00     0.005 C 
ENDBRANCH   9  10
ENDBRANCH   1   9
TORSDOF 2
ENDMDL
MODEL 3
REMARK VINA RESULT: -4.013557424      2.156      3.865
REMARK  2 active torsions:
REMARK  status: ('A' for Active; 'I' for Inactive)
REMARK    1  A    between atoms: C2_2  and  C3_3 
REMARK    2  A    between atoms: C3_3  and  C4_4 
ROOT
HETATM    1  C4  UNL     1      28.658  34.508  18.809  1.00  0.00     0.067 C 
HETATM    2  C5  UNL     1      28.987  34.490  20.288  1.00  0.00     0.037 C 
HETATM    3  N1  UNL     1      27.221  34.758  18.720  1.00  0.00    -0.118 NA
HETATM    4  N2  UNL     1      26.662  33.694  18.013  1.00  0.00    -0.038 NA
HETATM    5  N3  UNL     1      27.446  32.605  18.452  1.00  0.00    -0.118 NA
HETATM    6  C6  UNL     1      28.788  33.165  18.202  1.00  0.00     0.064 C 
HETATM    7  C7  UNL     1      28.986  33.136  16.726  1.00  0.00     0.037 C 
HETATM    8  C8  UNL     1      29.726  32.245  18.950  1.00  0.00     0.037 C 
ENDROOT
BRANCH   1   9
HETATM    9  C3  UNL     1      29.358  35.612  18.123  1.00  0.00     0.030 C 
BRANCH   9  10
HETATM   10  C2  UNL     1      28.806  36.982  18.417  1.00  0.00    -0.002 C 
HETATM   11  C1  UNL     1      29.393  38.005  17.486  1.00  0.00     0.005 C 
ENDBRANCH   9  10
ENDBRANCH   1   9
TORSDOF 2
ENDMDL
MODEL 4
REMARK VINA RESULT: -3.910087937      1.878      3.835
REMARK  2 active torsions:
REMARK  status: ('A' for Active; 'I' for Inactive)
REMARK    1  A    between atoms: C2_2  and  C3_3 
REMARK    2  A    between atoms: C3_3  and  C4_4 
ROOT
HETATM    1  C4  UNL     1      28.636  34.481  18.805  1.00  0.00     0.067 C 
HETATM    2  C5  UNL     1      29.199  35.049  20.092  1.00  0.00     0.037 C 
HETATM    3  N1  UNL     1      27.325  35.103  18.631  1.00  0.00    -0.118 NA
HETATM    4  N2  UNL     1      26.389  34.071  18.555  1.00  0.00    -0.038 NA
HETATM    5  N3  UNL     1      26.918  33.126  19.460  1.00  0.00    -0.118 NA
HETATM    6  C6  UNL     1      28.297  33.047  18.940  1.00  0.00     0.064 C 
HETATM    7  C7  UNL     1      28.221  32.276  17.668  1.00  0.00     0.037 C 
HETATM    8  C8  UNL     1      29.071  32.336  20.027  1.00  0.00     0.037 C 
ENDROOT
BRANCH   1   9
HETATM    9  C3  UNL     1      29.475  34.854  17.648  1.00  0.00     0.030 C 
BRANCH   9  10
HETATM   10  C2  UNL     1      29.838  36.314  17.583  1.00  0.00    -0.002 C 
HETATM   11  C1  UNL     1      30.271  36.695  16.195  1.00  0.00     0.005 C 
ENDBRANCH   9  10
ENDBRANCH   1   9
TORSDOF 2
ENDMDL
MODEL 5
REMARK VINA RESULT: -3.904278597      2.123      2.990
REMARK  2 active torsions:
REMARK  status: ('A' for Active; 'I' for Inactive)
REMARK    1  A    between atoms: C2_2  and  C3_3 
REMARK    2  A    between atoms: C3_3  and  C4_4 
ROOT
HETATM    1  C4  UNL     1      27.166  32.902  20.575  1.00  0.00     0.067 C 
HETATM    2  C5  UNL     1      26.862  31.430  20.388  1.00  0.00     0.037 C 
HETATM    3  N1  UNL     1      26.047  33.624  19.972  1.00  0.00    -0.118 NA
HETATM    4  N2  UNL     1      26.580  34.461  18.992  1.00  0.00    -0.038 NA
HETATM    5  N3  UNL     1      27.638  33.679  18.481  1.00  0.00    -0.118 NA
HETATM    6  C6  UNL     1      28.313  33.336  19.747  1.00  0.00     0.064 C 
HETATM    7  C7  UNL     1      29.009  34.573  20.199  1.00  0.00     0.037 C 
HETATM    8  C8  UNL     1      29.259  32.216  19.380  1.00  0.00     0.037 C 
ENDROOT
BRANCH   1   9
HETATM    9  C3  UNL     1      27.218  33.255  22.009  1.00  0.00     0.030 C 
BRANCH   9  10
HETATM   10  C2  UNL     1      25.891  33.644  22.606  1.00  0.00    -0.002 C 
HETATM   11  C1  UNL     1      25.395  32.580  23.544  1.00  0.00     0.005 C 
ENDBRANCH   9  10
ENDBRANCH   1   9
TORSDOF 2
ENDMDL
