MODEL 1
REMARK VINA RESULT: -7.149951607      0.000      0.000
REMARK  13 active torsions:
REMARK  status: ('A' for Active; 'I' for Inactive)
REMARK    1  A    between atoms: C2_2  and  N1_5 
REMARK    2  A    between atoms: N1_5  and  C5_7 
REMARK    3  A    between atoms: C5_7  and  O1_8 
REMARK    4  A    between atoms: C5_7  and  N2_10 
REMARK    5  A    between atoms: N2_10  and  C6_12 
REMARK    6  A    between atoms: C6_12  and  O2_13 
REMARK    7  A    between atoms: C6_12  and  C7_15 
REMARK    8  A    between atoms: C7_15  and  O3_16 
REMARK    9  A    between atoms: O3_16  and  C8_17 
REMARK   10  A    between atoms: C8_17  and  C9_19 
REMARK   11  A    between atoms: C12_22  and  O5_23 
REMARK   12  A    between atoms: O5_23  and  C13_24 
REMARK   13  A    between atoms: C13_24  and  C14_26 
ROOT
HETATM    1  O3  UNL     1       7.439  57.901   0.112  1.00  0.00    -0.309 OA
ENDROOT
BRANCH   1   2
HETATM    2  C7  UNL     1       8.781  57.829   0.584  1.00  0.00     0.263 C 
BRANCH   2   3
HETATM    3  C6  UNL     1       9.434  56.581   0.322  1.00  0.00     0.143 C 
BRANCH   3   4
HETATM    4  N2  UNL     1      10.280  55.856   1.129  1.00  0.00    -0.305 N 
ATOM      5  H2  UNL     1      11.161  56.313   1.365  1.00  0.00     0.171 HD
BRANCH   4   6
HETATM    6  C5  UNL     1      10.103  54.582   1.668  1.00  0.00     0.219 C 
BRANCH   6   7
HETATM    7  N1  UNL     1      11.010  53.719   2.308  1.00  0.00    -0.348 N 
ATOM      8  H1  UNL     1      11.340  53.938   3.248  1.00  0.00     0.163 HD
BRANCH   7   9
HETATM    9  C2  UNL     1      11.487  52.505   1.633  1.00  0.00     0.022 C 
HETATM   10  C1  UNL     1      11.518  52.675   0.134  1.00  0.00     0.037 C 
HETATM   11  C3  UNL     1      12.888  52.220   2.153  1.00  0.00     0.037 C 
HETATM   12  C4  UNL     1      10.573  51.350   1.961  1.00  0.00     0.037 C 
ENDBRANCH   7   9
ENDBRANCH   6   7
BRANCH   6  13
HETATM   13  O1  UNL     1       8.885  54.079   1.574  1.00  0.00    -0.332 OA
ATOM     14  H1  UNL     1       8.276  54.655   1.126  1.00  0.00     0.220 HD
ENDBRANCH   6  13
ENDBRANCH   4   6
ENDBRANCH   3   4
BRANCH   3  15
HETATM   15  O2  UNL     1       9.194  56.057  -0.845  1.00  0.00    -0.348 OA
ATOM     16  H2  UNL     1       8.276  56.005  -1.085  1.00  0.00     0.219 HD
ENDBRANCH   3  15
ENDBRANCH   2   3
ENDBRANCH   1   2
BRANCH   1  17
HETATM   17  C8  UNL     1       6.315  57.663   0.843  1.00  0.00     0.293 C 
HETATM   18  O4  UNL     1       5.455  58.572   0.972  1.00  0.00    -0.259 OA
BRANCH  17  19
HETATM   19  C9  UNL     1       6.047  56.386   1.499  1.00  0.00     0.039 A 
HETATM   20  C10 UNL     1       5.750  55.252   0.775  1.00  0.00     0.020 A 
HETATM   21  C11 UNL     1       5.493  54.044   1.375  1.00  0.00     0.038 A 
HETATM   22  C12 UNL     1       5.529  53.941   2.726  1.00  0.00     0.079 A 
HETATM   23  C18 UNL     1       5.819  55.037   3.492  1.00  0.00     0.038 A 
HETATM   24  C19 UNL     1       6.072  56.239   2.873  1.00  0.00     0.020 A 
BRANCH  22  25
HETATM   25  O5  UNL     1       5.256  52.682   3.274  1.00  0.00    -0.278 OA
BRANCH  25  26
HETATM   26  C13 UNL     1       6.087  51.589   3.152  1.00  0.00     0.271 C 
HETATM   27  O6  UNL     1       7.312  51.749   3.084  1.00  0.00    -0.264 OA
BRANCH  26  28
HETATM   28  C14 UNL     1       5.553  50.188   3.097  1.00  0.00     0.037 C 
HETATM   29  C15 UNL     1       6.619  49.288   2.562  1.00  0.00     0.025 C 
HETATM   30  C16 UNL     1       5.180  49.710   4.484  1.00  0.00     0.025 C 
HETATM   31  C17 UNL     1       4.332  50.111   2.235  1.00  0.00     0.025 C 
ENDBRANCH  26  28
ENDBRANCH  25  26
ENDBRANCH  22  25
ENDBRANCH  17  19
ENDBRANCH   1  17
TORSDOF 13
ENDMDL
MODEL 2
REMARK VINA RESULT: -7.023948336      2.967      6.467
REMARK  13 active torsions:
REMARK  status: ('A' for Active; 'I' for Inactive)
REMARK    1  A    between atoms: C2_2  and  N1_5 
REMARK    2  A    between atoms: N1_5  and  C5_7 
REMARK    3  A    between atoms: C5_7  and  O1_8 
REMARK    4  A    between atoms: C5_7  and  N2_10 
REMARK    5  A    between atoms: N2_10  and  C6_12 
REMARK    6  A    between atoms: C6_12  and  O2_13 
REMARK    7  A    between atoms: C6_12  and  C7_15 
REMARK    8  A    between atoms: C7_15  and  O3_16 
REMARK    9  A    between atoms: O3_16  and  C8_17 
REMARK   10  A    between atoms: C8_17  and  C9_19 
REMARK   11  A    between atoms: C12_22  and  O5_23 
REMARK   12  A    between atoms: O5_23  and  C13_24 
REMARK   13  A    between atoms: C13_24  and  C14_26 
ROOT
HETATM    1  O3  UNL     1       5.289  59.141   0.256  1.00  0.00    -0.309 OA
ENDROOT
BRANCH   1   2
HETATM    2  C7  UNL     1       4.255  59.352   1.212  1.00  0.00     0.263 C 
BRANCH   2   3
HETATM    3  C6  UNL     1       3.884  58.181   1.949  1.00  0.00     0.143 C 
BRANCH   3   4
HETATM    4  N2  UNL     1       4.204  56.865   1.710  1.00  0.00    -0.305 N 
ATOM      5  H2  UNL     1       4.557  56.662   0.774  1.00  0.00     0.171 HD
BRANCH   4   6
HETATM    6  C5  UNL     1       4.115  55.769   2.567  1.00  0.00     0.219 C 
BRANCH   6   7
HETATM    7  N1  UNL     1       5.112  55.054   3.255  1.00  0.00    -0.348 N 
ATOM      8  H1  UNL     1       5.305  55.267   4.233  1.00  0.00     0.163 HD
BRANCH   7   9
HETATM    9  C2  UNL     1       5.879  54.003   2.574  1.00  0.00     0.022 C 
HETATM   10  C1  UNL     1       7.349  54.077   2.908  1.00  0.00     0.037 C 
HETATM   11  C3  UNL     1       5.310  52.666   3.026  1.00  0.00     0.037 C 
HETATM   12  C4  UNL     1       5.723  54.147   1.081  1.00  0.00     0.037 C 
ENDBRANCH   7   9
ENDBRANCH   6   7
BRANCH   6  13
HETATM   13  O1  UNL     1       2.898  55.305   2.787  1.00  0.00    -0.332 OA
ATOM     14  H1  UNL     1       2.648  55.329   3.703  1.00  0.00     0.220 HD
ENDBRANCH   6  13
ENDBRANCH   4   6
ENDBRANCH   3   4
BRANCH   3  15
HETATM   15  O2  UNL     1       3.137  58.389   2.994  1.00  0.00    -0.348 OA
ATOM     16  H2  UNL     1       2.204  58.433   2.823  1.00  0.00     0.219 HD
ENDBRANCH   3  15
ENDBRANCH   2   3
ENDBRANCH   1   2
BRANCH   1  17
HETATM   17  C8  UNL     1       6.609  59.438   0.420  1.00  0.00     0.293 C 
HETATM   18  O4  UNL     1       6.940  60.558   0.885  1.00  0.00    -0.259 OA
BRANCH  17  19
HETATM   19  C9  UNL     1       7.681  58.507   0.076  1.00  0.00     0.039 A 
HETATM   20  C10 UNL     1       8.730  58.883  -0.735  1.00  0.00     0.020 A 
HETATM   21  C11 UNL     1       9.744  58.021  -1.069  1.00  0.00     0.038 A 
HETATM   22  C12 UNL     1       9.735  56.751  -0.594  1.00  0.00     0.079 A 
HETATM   23  C18 UNL     1       8.717  56.328   0.216  1.00  0.00     0.038 A 
HETATM   24  C19 UNL     1       7.709  57.205   0.539  1.00  0.00     0.020 A 
BRANCH  22  25
HETATM   25  O5  UNL     1      10.798  55.924  -0.974  1.00  0.00    -0.278 OA
BRANCH  25  26
HETATM   26  C13 UNL     1      10.843  55.214  -2.154  1.00  0.00     0.271 C 
HETATM   27  O6  UNL     1      10.127  55.551  -3.106  1.00  0.00    -0.264 OA
BRANCH  26  28
HETATM   28  C14 UNL     1      11.743  54.027  -2.333  1.00  0.00     0.037 C 
HETATM   29  C15 UNL     1      11.817  53.280  -1.042  1.00  0.00     0.025 C 
HETATM   30  C16 UNL     1      11.186  53.096  -3.389  1.00  0.00     0.025 C 
HETATM   31  C17 UNL     1      13.113  54.450  -2.764  1.00  0.00     0.025 C 
ENDBRANCH  26  28
ENDBRANCH  25  26
ENDBRANCH  22  25
ENDBRANCH  17  19
ENDBRANCH   1  17
TORSDOF 13
ENDMDL
MODEL 3
REMARK VINA RESULT: -6.970805669      2.705      6.324
REMARK  13 active torsions:
REMARK  status: ('A' for Active; 'I' for Inactive)
REMARK    1  A    between atoms: C2_2  and  N1_5 
REMARK    2  A    between atoms: N1_5  and  C5_7 
REMARK    3  A    between atoms: C5_7  and  O1_8 
REMARK    4  A    between atoms: C5_7  and  N2_10 
REMARK    5  A    between atoms: N2_10  and  C6_12 
REMARK    6  A    between atoms: C6_12  and  O2_13 
REMARK    7  A    between atoms: C6_12  and  C7_15 
REMARK    8  A    between atoms: C7_15  and  O3_16 
REMARK    9  A    between atoms: O3_16  and  C8_17 
REMARK   10  A    between atoms: C8_17  and  C9_19 
REMARK   11  A    between atoms: C12_22  and  O5_23 
REMARK   12  A    between atoms: O5_23  and  C13_24 
REMARK   13  A    between atoms: C13_24  and  C14_26 
ROOT
HETATM    1  O3  UNL     1       4.297  57.581   0.798  1.00  0.00    -0.309 OA
ENDROOT
BRANCH   1   2
HETATM    2  C7  UNL     1       3.547  57.230   1.957  1.00  0.00     0.263 C 
BRANCH   2   3
HETATM    3  C6  UNL     1       4.136  56.192   2.750  1.00  0.00     0.143 C 
BRANCH   3   4
HETATM    4  N2  UNL     1       5.349  56.175   3.398  1.00  0.00    -0.305 N 
ATOM      5  H2  UNL     1       5.710  57.086   3.680  1.00  0.00     0.171 HD
BRANCH   4   6
HETATM    6  C5  UNL     1       6.156  55.085   3.723  1.00  0.00     0.219 C 
BRANCH   6   7
HETATM    7  N1  UNL     1       5.867  53.709   3.774  1.00  0.00    -0.348 N 
ATOM      8  H1  UNL     1       5.463  53.307   4.619  1.00  0.00     0.163 HD
BRANCH   7   9
HETATM    9  C2  UNL     1       6.145  52.847   2.618  1.00  0.00     0.022 C 
HETATM   10  C1  UNL     1       6.129  53.624   1.325  1.00  0.00     0.037 C 
HETATM   11  C3  UNL     1       7.517  52.227   2.837  1.00  0.00     0.037 C 
HETATM   12  C4  UNL     1       5.100  51.762   2.532  1.00  0.00     0.037 C 
ENDBRANCH   7   9
ENDBRANCH   6   7
BRANCH   6  13
HETATM   13  O1  UNL     1       7.407  55.365   4.041  1.00  0.00    -0.332 OA
ATOM     14  H1  UNL     1       7.549  56.288   4.220  1.00  0.00     0.220 HD
ENDBRANCH   6  13
ENDBRANCH   4   6
ENDBRANCH   3   4
BRANCH   3  15
HETATM   15  O2  UNL     1       3.423  55.111   2.876  1.00  0.00    -0.348 OA
ATOM     16  H2  UNL     1       3.842  54.312   2.578  1.00  0.00     0.219 HD
ENDBRANCH   3  15
ENDBRANCH   2   3
ENDBRANCH   1   2
BRANCH   1  17
HETATM   17  C8  UNL     1       5.287  58.515   0.732  1.00  0.00     0.293 C 
HETATM   18  O4  UNL     1       5.021  59.719   0.979  1.00  0.00    -0.259 OA
BRANCH  17  19
HETATM   19  C9  UNL     1       6.667  58.188   0.383  1.00  0.00     0.039 A 
HETATM   20  C10 UNL     1       7.194  56.937   0.619  1.00  0.00     0.020 A 
HETATM   21  C11 UNL     1       8.490  56.614   0.300  1.00  0.00     0.038 A 
HETATM   22  C12 UNL     1       9.296  57.544  -0.270  1.00  0.00     0.079 A 
HETATM   23  C18 UNL     1       8.822  58.801  -0.526  1.00  0.00     0.038 A 
HETATM   24  C19 UNL     1       7.522  59.107  -0.198  1.00  0.00     0.020 A 
BRANCH  22  25
HETATM   25  O5  UNL     1      10.605  57.150  -0.569  1.00  0.00    -0.278 OA
BRANCH  25  26
HETATM   26  C13 UNL     1      11.059  56.875  -1.841  1.00  0.00     0.271 C 
HETATM   27  O6  UNL     1      11.165  57.788  -2.670  1.00  0.00    -0.264 OA
BRANCH  26  28
HETATM   28  C14 UNL     1      11.438  55.487  -2.267  1.00  0.00     0.037 C 
HETATM   29  C15 UNL     1      11.376  54.585  -1.078  1.00  0.00     0.025 C 
HETATM   30  C16 UNL     1      10.466  54.970  -3.307  1.00  0.00     0.025 C 
HETATM   31  C17 UNL     1      12.811  55.463  -2.863  1.00  0.00     0.025 C 
ENDBRANCH  26  28
ENDBRANCH  25  26
ENDBRANCH  22  25
ENDBRANCH  17  19
ENDBRANCH   1  17
TORSDOF 13
ENDMDL
MODEL 4
REMARK VINA RESULT: -6.936956037      2.664      5.312
REMARK  13 active torsions:
REMARK  status: ('A' for Active; 'I' for Inactive)
REMARK    1  A    between atoms: C2_2  and  N1_5 
REMARK    2  A    between atoms: N1_5  and  C5_7 
REMARK    3  A    between atoms: C5_7  and  O1_8 
REMARK    4  A    between atoms: C5_7  and  N2_10 
REMARK    5  A    between atoms: N2_10  and  C6_12 
REMARK    6  A    between atoms: C6_12  and  O2_13 
REMARK    7  A    between atoms: C6_12  and  C7_15 
REMARK    8  A    between atoms: C7_15  and  O3_16 
REMARK    9  A    between atoms: O3_16  and  C8_17 
REMARK   10  A    between atoms: C8_17  and  C9_19 
REMARK   11  A    between atoms: C12_22  and  O5_23 
REMARK   12  A    between atoms: O5_23  and  C13_24 
REMARK   13  A    between atoms: C13_24  and  C14_26 
ROOT
HETATM    1  O3  UNL     1       6.279  58.667   1.059  1.00  0.00    -0.309 OA
ENDROOT
BRANCH   1   2
HETATM    2  C7  UNL     1       4.997  58.099   0.810  1.00  0.00     0.263 C 
BRANCH   2   3
HETATM    3  C6  UNL     1       4.352  57.563   1.972  1.00  0.00     0.143 C 
BRANCH   3   4
HETATM    4  N2  UNL     1       4.630  56.407   2.665  1.00  0.00    -0.305 N 
ATOM      5  H2  UNL     1       5.528  56.390   3.149  1.00  0.00     0.171 HD
BRANCH   4   6
HETATM    6  C5  UNL     1       3.854  55.256   2.798  1.00  0.00     0.219 C 
BRANCH   6   7
HETATM    7  N1  UNL     1       4.226  53.904   2.908  1.00  0.00    -0.348 N 
ATOM      8  H1  UNL     1       3.595  53.240   3.355  1.00  0.00     0.163 HD
BRANCH   7   9
HETATM    9  C2  UNL     1       5.516  53.441   2.382  1.00  0.00     0.022 C 
HETATM   10  C1  UNL     1       5.811  54.030   1.024  1.00  0.00     0.037 C 
HETATM   11  C3  UNL     1       6.587  53.866   3.377  1.00  0.00     0.037 C 
HETATM   12  C4  UNL     1       5.503  51.938   2.255  1.00  0.00     0.037 C 
ENDBRANCH   7   9
ENDBRANCH   6   7
BRANCH   6  13
HETATM   13  O1  UNL     1       2.547  55.440   2.830  1.00  0.00    -0.332 OA
ATOM     14  H1  UNL     1       2.091  55.009   2.116  1.00  0.00     0.220 HD
ENDBRANCH   6  13
ENDBRANCH   4   6
ENDBRANCH   3   4
BRANCH   3  15
HETATM   15  O2  UNL     1       3.363  58.267   2.440  1.00  0.00    -0.348 OA
ATOM     16  H2  UNL     1       3.585  59.152   2.704  1.00  0.00     0.219 HD
ENDBRANCH   3  15
ENDBRANCH   2   3
ENDBRANCH   1   2
BRANCH   1  17
HETATM   17  C8  UNL     1       7.373  58.570   0.253  1.00  0.00     0.293 C 
HETATM   18  O4  UNL     1       7.605  59.475  -0.589  1.00  0.00    -0.259 OA
BRANCH  17  19
HETATM   19  C9  UNL     1       8.309  57.451   0.314  1.00  0.00     0.039 A 
HETATM   20  C10 UNL     1       9.251  57.245  -0.670  1.00  0.00     0.020 A 
HETATM   21  C11 UNL     1      10.137  56.197  -0.630  1.00  0.00     0.038 A 
HETATM   22  C12 UNL     1      10.101  55.323   0.405  1.00  0.00     0.079 A 
HETATM   23  C18 UNL     1       9.185  55.482   1.409  1.00  0.00     0.038 A 
HETATM   24  C19 UNL     1       8.306  56.537   1.352  1.00  0.00     0.020 A 
BRANCH  22  25
HETATM   25  O5  UNL     1      11.031  54.276   0.384  1.00  0.00    -0.278 OA
BRANCH  25  26
HETATM   26  C13 UNL     1      11.186  53.357   1.399  1.00  0.00     0.271 C 
HETATM   27  O6  UNL     1      11.699  53.702   2.472  1.00  0.00    -0.264 OA
BRANCH  26  28
HETATM   28  C14 UNL     1      10.748  51.930   1.253  1.00  0.00     0.037 C 
HETATM   29  C15 UNL     1      11.682  51.058   2.029  1.00  0.00     0.025 C 
HETATM   30  C16 UNL     1       9.353  51.745   1.809  1.00  0.00     0.025 C 
HETATM   31  C17 UNL     1      10.733  51.517  -0.186  1.00  0.00     0.025 C 
ENDBRANCH  26  28
ENDBRANCH  25  26
ENDBRANCH  22  25
ENDBRANCH  17  19
ENDBRANCH   1  17
TORSDOF 13
ENDMDL
MODEL 5
REMARK VINA RESULT: -6.829902551      5.705      7.905
REMARK  13 active torsions:
REMARK  status: ('A' for Active; 'I' for Inactive)
REMARK    1  A    between atoms: C2_2  and  N1_5 
REMARK    2  A    between atoms: N1_5  and  C5_7 
REMARK    3  A    between atoms: C5_7  and  O1_8 
REMARK    4  A    between atoms: C5_7  and  N2_10 
REMARK    5  A    between atoms: N2_10  and  C6_12 
REMARK    6  A    between atoms: C6_12  and  O2_13 
REMARK    7  A    between atoms: C6_12  and  C7_15 
REMARK    8  A    between atoms: C7_15  and  O3_16 
REMARK    9  A    between atoms: O3_16  and  C8_17 
REMARK   10  A    between atoms: C8_17  and  C9_19 
REMARK   11  A    between atoms: C12_22  and  O5_23 
REMARK   12  A    between atoms: O5_23  and  C13_24 
REMARK   13  A    between atoms: C13_24  and  C14_26 
ROOT
HETATM    1  O3  UNL     1      11.420  58.734  -2.329  1.00  0.00    -0.309 OA
ENDROOT
BRANCH   1   2
HETATM    2  C7  UNL     1      12.840  58.827  -2.363  1.00  0.00     0.263 C 
BRANCH   2   3
HETATM    3  C6  UNL     1      13.339  60.104  -2.778  1.00  0.00     0.143 C 
BRANCH   3   4
HETATM    4  N2  UNL     1      14.335  60.872  -2.219  1.00  0.00    -0.305 N 
ATOM      5  H2  UNL     1      14.494  60.728  -1.222  1.00  0.00     0.171 HD
BRANCH   4   6
HETATM    6  C5  UNL     1      15.157  61.821  -2.826  1.00  0.00     0.219 C 
BRANCH   6   7
HETATM    7  N1  UNL     1      15.429  63.158  -2.483  1.00  0.00    -0.348 N 
ATOM      8  H1  UNL     1      14.785  63.895  -2.769  1.00  0.00     0.163 HD
BRANCH   7   9
HETATM    9  C2  UNL     1      16.633  63.500  -1.717  1.00  0.00     0.022 C 
HETATM   10  C1  UNL     1      17.036  62.386  -0.781  1.00  0.00     0.037 C 
HETATM   11  C3  UNL     1      17.746  63.765  -2.720  1.00  0.00     0.037 C 
HETATM   12  C4  UNL     1      16.378  64.739  -0.896  1.00  0.00     0.037 C 
ENDBRANCH   7   9
ENDBRANCH   6   7
BRANCH   6  13
HETATM   13  O1  UNL     1      15.801  61.420  -3.908  1.00  0.00    -0.332 OA
ATOM     14  H1  UNL     1      15.281  60.850  -4.463  1.00  0.00     0.220 HD
ENDBRANCH   6  13
ENDBRANCH   4   6
ENDBRANCH   3   4
BRANCH   3  15
HETATM   15  O2  UNL     1      12.771  60.613  -3.832  1.00  0.00    -0.348 OA
ATOM     16  H2  UNL     1      13.355  61.065  -4.429  1.00  0.00     0.219 HD
ENDBRANCH   3  15
ENDBRANCH   2   3
ENDBRANCH   1   2
BRANCH   1  17
HETATM   17  C8  UNL     1      10.693  57.636  -1.980  1.00  0.00     0.293 C 
HETATM   18  O4  UNL     1      11.002  56.511  -2.451  1.00  0.00    -0.259 OA
BRANCH  17  19
HETATM   19  C9  UNL     1       9.551  57.694  -1.071  1.00  0.00     0.039 A 
HETATM   20  C10 UNL     1       9.188  56.611  -0.300  1.00  0.00     0.020 A 
HETATM   21  C11 UNL     1       8.116  56.648   0.558  1.00  0.00     0.038 A 
HETATM   22  C12 UNL     1       7.377  57.779   0.666  1.00  0.00     0.079 A 
HETATM   23  C18 UNL     1       7.696  58.883  -0.076  1.00  0.00     0.038 A 
HETATM   24  C19 UNL     1       8.772  58.827  -0.931  1.00  0.00     0.020 A 
BRANCH  22  25
HETATM   25  O5  UNL     1       6.298  57.748   1.558  1.00  0.00    -0.278 OA
BRANCH  25  26
HETATM   26  C13 UNL     1       5.191  56.943   1.406  1.00  0.00     0.271 C 
HETATM   27  O6  UNL     1       4.270  57.294   0.657  1.00  0.00    -0.264 OA
BRANCH  26  28
HETATM   28  C14 UNL     1       5.055  55.633   2.125  1.00  0.00     0.037 C 
HETATM   29  C15 UNL     1       3.619  55.427   2.482  1.00  0.00     0.025 C 
HETATM   30  C16 UNL     1       5.492  54.492   1.232  1.00  0.00     0.025 C 
HETATM   31  C17 UNL     1       5.902  55.607   3.359  1.00  0.00     0.025 C 
ENDBRANCH  26  28
ENDBRANCH  25  26
ENDBRANCH  22  25
ENDBRANCH  17  19
ENDBRANCH   1  17
TORSDOF 13
ENDMDL
