MODEL 1
REMARK VINA RESULT: -9.138284218      0.000      0.000
REMARK  5 active torsions:
REMARK  status: ('A' for Active; 'I' for Inactive)
REMARK    1  A    between atoms: O1_2  and  C2_3 
REMARK       I    between atoms: C2_3  and  N1_5 
REMARK    2  A    between atoms: N1_5  and  C3_6 
REMARK    3  A    between atoms: C3_6  and  C4_7 
REMARK    4  A    between atoms: C3_6  and  C15_23 
REMARK       I    between atoms: C4_7  and  N2_9 
REMARK    5  A    between atoms: N2_9  and  C5_11 
ROOT
HETATM    1  C4  UNL     1       9.188  56.260   1.439  1.00  0.00     0.260 C 
HETATM    2  O3  UNL     1       9.902  56.222   2.469  1.00  0.00    -0.270 OA
HETATM    3  N2  UNL     1       8.381  55.136   1.183  1.00  0.00    -0.329 N 
ATOM      4  H2  UNL     1       7.797  55.099   0.348  1.00  0.00     0.165 HD
ENDROOT
BRANCH   1   5
HETATM    5  C3  UNL     1       9.184  57.444   0.499  1.00  0.00     0.294 C 
BRANCH   5   6
HETATM    6  N1  UNL     1       9.755  57.025  -0.776  1.00  0.00    -0.370 NA
HETATM    7  C2  UNL     1      10.258  56.657  -1.894  1.00  0.00     0.435 C 
HETATM    8  O2  UNL     1      10.202  55.552  -2.556  1.00  0.00    -0.221 OA
BRANCH   7   9
HETATM    9  O1  UNL     1      11.082  57.586  -2.681  1.00  0.00    -0.298 OA
HETATM   10  C1  UNL     1      12.327  58.005  -2.283  1.00  0.00     0.216 C 
ENDBRANCH   7   9
ENDBRANCH   5   6
BRANCH   5  11
HETATM   11  C15 UNL     1       7.843  58.038   0.410  1.00  0.00    -0.013 A 
HETATM   12  C16 UNL     1       6.667  57.399   0.784  1.00  0.00     0.011 A 
HETATM   13  C17 UNL     1       5.444  58.048   0.771  1.00  0.00     0.001 A 
HETATM   14  C18 UNL     1       5.412  59.349   0.380  1.00  0.00     0.000 A 
HETATM   15  C19 UNL     1       6.502  60.049   0.001  1.00  0.00     0.001 A 
HETATM   16  C20 UNL     1       7.720  59.357   0.024  1.00  0.00     0.011 A 
ENDBRANCH   5  11
ENDBRANCH   1   5
BRANCH   3  17
HETATM   17  C5  UNL     1       8.389  54.018   2.129  1.00  0.00     0.264 C 
HETATM   18  O4  UNL     1       9.064  52.957   1.511  1.00  0.00    -0.320 OA
HETATM   19  C6  UNL     1       8.758  51.637   1.679  1.00  0.00     0.105 A 
HETATM   20  C7  UNL     1       9.491  50.575   1.159  1.00  0.00     0.040 A 
HETATM   21  C11 UNL     1       7.646  51.280   2.415  1.00  0.00     0.103 A 
HETATM   22  C8  UNL     1       9.157  49.263   1.341  1.00  0.00     0.003 A 
HETATM   23  C9  UNL     1       8.021  48.925   2.087  1.00  0.00     0.003 A 
HETATM   24  C10 UNL     1       7.286  49.961   2.614  1.00  0.00     0.040 A 
HETATM   25  O5  UNL     1       6.888  52.310   2.952  1.00  0.00    -0.334 OA
HETATM   26  C12 UNL     1       6.983  53.658   2.523  1.00  0.00     0.105 C 
HETATM   27  C13 UNL     1       6.591  54.597   3.646  1.00  0.00     0.051 C 
HETATM   28  C14 UNL     1       5.995  53.802   1.390  1.00  0.00     0.051 C 
ENDBRANCH   3  17
TORSDOF 5
ENDMDL
MODEL 2
REMARK VINA RESULT: -9.090903685      1.777      6.834
REMARK  5 active torsions:
REMARK  status: ('A' for Active; 'I' for Inactive)
REMARK    1  A    between atoms: O1_2  and  C2_3 
REMARK       I    between atoms: C2_3  and  N1_5 
REMARK    2  A    between atoms: N1_5  and  C3_6 
REMARK    3  A    between atoms: C3_6  and  C4_7 
REMARK    4  A    between atoms: C3_6  and  C15_23 
REMARK       I    between atoms: C4_7  and  N2_9 
REMARK    5  A    between atoms: N2_9  and  C5_11 
ROOT
HETATM    1  C4  UNL     1       9.004  56.411   0.434  1.00  0.00     0.260 C 
HETATM    2  O3  UNL     1       9.816  56.799   1.307  1.00  0.00    -0.270 OA
HETATM    3  N2  UNL     1       9.535  56.097  -0.832  1.00  0.00    -0.329 N 
ATOM      4  H2  UNL     1       8.921  55.799  -1.590  1.00  0.00     0.165 HD
ENDROOT
BRANCH   1   5
HETATM    5  C3  UNL     1       7.522  56.285   0.701  1.00  0.00     0.294 C 
BRANCH   5   6
HETATM    6  N1  UNL     1       7.338  55.570   1.960  1.00  0.00    -0.370 NA
HETATM    7  C2  UNL     1       7.178  54.942   3.064  1.00  0.00     0.435 C 
HETATM    8  O2  UNL     1       6.852  55.330   4.250  1.00  0.00    -0.221 OA
BRANCH   7   9
HETATM    9  O1  UNL     1       7.374  53.487   3.128  1.00  0.00    -0.298 OA
HETATM   10  C1  UNL     1       8.014  52.773   2.147  1.00  0.00     0.216 C 
ENDBRANCH   7   9
ENDBRANCH   5   6
BRANCH   5  11
HETATM   11  C15 UNL     1       6.863  57.595   0.633  1.00  0.00    -0.013 A 
HETATM   12  C16 UNL     1       7.412  58.729   0.044  1.00  0.00     0.011 A 
HETATM   13  C17 UNL     1       6.700  59.909  -0.078  1.00  0.00     0.001 A 
HETATM   14  C18 UNL     1       5.427  59.943   0.396  1.00  0.00     0.000 A 
HETATM   15  C19 UNL     1       4.812  58.893   0.981  1.00  0.00     0.001 A 
HETATM   16  C20 UNL     1       5.566  57.717   1.090  1.00  0.00     0.011 A 
ENDBRANCH   5  11
ENDBRANCH   1   5
BRANCH   3  17
HETATM   17  C5  UNL     1      10.979  56.204  -1.050  1.00  0.00     0.264 C 
HETATM   18  O4  UNL     1      11.247  57.531  -1.412  1.00  0.00    -0.320 OA
HETATM   19  C6  UNL     1      12.216  57.916  -2.293  1.00  0.00     0.105 A 
HETATM   20  C7  UNL     1      12.561  59.235  -2.574  1.00  0.00     0.040 A 
HETATM   21  C11 UNL     1      12.935  56.961  -2.982  1.00  0.00     0.103 A 
HETATM   22  C8  UNL     1      13.534  59.590  -3.465  1.00  0.00     0.003 A 
HETATM   23  C9  UNL     1      14.247  58.602  -4.155  1.00  0.00     0.003 A 
HETATM   24  C10 UNL     1      13.923  57.292  -3.889  1.00  0.00     0.040 A 
HETATM   25  O5  UNL     1      12.622  55.633  -2.731  1.00  0.00    -0.334 OA
HETATM   26  C12 UNL     1      11.424  55.218  -2.095  1.00  0.00     0.105 C 
HETATM   27  C13 UNL     1      11.635  53.896  -1.384  1.00  0.00     0.051 C 
HETATM   28  C14 UNL     1      10.412  55.030  -3.200  1.00  0.00     0.051 C 
ENDBRANCH   3  17
TORSDOF 5
ENDMDL
MODEL 3
REMARK VINA RESULT: -8.910507441      2.440      7.806
REMARK  5 active torsions:
REMARK  status: ('A' for Active; 'I' for Inactive)
REMARK    1  A    between atoms: O1_2  and  C2_3 
REMARK       I    between atoms: C2_3  and  N1_5 
REMARK    2  A    between atoms: N1_5  and  C3_6 
REMARK    3  A    between atoms: C3_6  and  C4_7 
REMARK    4  A    between atoms: C3_6  and  C15_23 
REMARK       I    between atoms: C4_7  and  N2_9 
REMARK    5  A    between atoms: N2_9  and  C5_11 
ROOT
HETATM    1  C4  UNL     1       7.801  52.751   2.317  1.00  0.00     0.260 C 
HETATM    2  O3  UNL     1       7.052  52.252   1.443  1.00  0.00    -0.270 OA
HETATM    3  N2  UNL     1       7.746  54.149   2.477  1.00  0.00    -0.329 N 
ATOM      4  H2  UNL     1       8.349  54.614   3.155  1.00  0.00     0.165 HD
ENDROOT
BRANCH   1   5
HETATM    5  C3  UNL     1       8.731  51.913   3.163  1.00  0.00     0.294 C 
BRANCH   5   6
HETATM    6  N1  UNL     1       8.036  50.686   3.539  1.00  0.00    -0.370 NA
HETATM    7  C2  UNL     1       7.426  49.610   3.868  1.00  0.00     0.435 C 
HETATM    8  O2  UNL     1       7.721  48.363   3.734  1.00  0.00    -0.221 OA
BRANCH   7   9
HETATM    9  O1  UNL     1       6.119  49.671   4.539  1.00  0.00    -0.298 OA
HETATM   10  C1  UNL     1       5.042  50.346   4.023  1.00  0.00     0.216 C 
ENDBRANCH   7   9
ENDBRANCH   5   6
BRANCH   5  11
HETATM   11  C15 UNL     1      10.019  51.712   2.487  1.00  0.00    -0.013 A 
HETATM   12  C16 UNL     1      10.920  52.725   2.180  1.00  0.00     0.011 A 
HETATM   13  C17 UNL     1      12.163  52.459   1.631  1.00  0.00     0.001 A 
HETATM   14  C18 UNL     1      12.495  51.164   1.394  1.00  0.00     0.000 A 
HETATM   15  C19 UNL     1      11.687  50.117   1.659  1.00  0.00     0.001 A 
HETATM   16  C20 UNL     1      10.436  50.425   2.210  1.00  0.00     0.011 A 
ENDBRANCH   5  11
ENDBRANCH   1   5
BRANCH   3  17
HETATM   17  C5  UNL     1       6.813  54.927   1.660  1.00  0.00     0.264 C 
HETATM   18  O4  UNL     1       7.559  55.925   1.017  1.00  0.00    -0.320 OA
HETATM   19  C6  UNL     1       7.101  57.180   0.739  1.00  0.00     0.105 A 
HETATM   20  C7  UNL     1       7.794  58.138   0.004  1.00  0.00     0.040 A 
HETATM   21  C11 UNL     1       5.862  57.576   1.200  1.00  0.00     0.103 A 
HETATM   22  C8  UNL     1       7.312  59.389  -0.255  1.00  0.00     0.003 A 
HETATM   23  C9  UNL     1       6.053  59.769   0.228  1.00  0.00     0.003 A 
HETATM   24  C10 UNL     1       5.350  58.835   0.953  1.00  0.00     0.040 A 
HETATM   25  O5  UNL     1       5.138  56.650   1.937  1.00  0.00    -0.334 OA
HETATM   26  C12 UNL     1       5.712  55.490   2.516  1.00  0.00     0.105 C 
HETATM   27  C13 UNL     1       4.669  54.399   2.656  1.00  0.00     0.051 C 
HETATM   28  C14 UNL     1       6.183  55.903   3.890  1.00  0.00     0.051 C 
ENDBRANCH   3  17
TORSDOF 5
ENDMDL
MODEL 4
REMARK VINA RESULT: -8.888550257      0.884      1.080
REMARK  5 active torsions:
REMARK  status: ('A' for Active; 'I' for Inactive)
REMARK    1  A    between atoms: O1_2  and  C2_3 
REMARK       I    between atoms: C2_3  and  N1_5 
REMARK    2  A    between atoms: N1_5  and  C3_6 
REMARK    3  A    between atoms: C3_6  and  C4_7 
REMARK    4  A    between atoms: C3_6  and  C15_23 
REMARK       I    between atoms: C4_7  and  N2_9 
REMARK    5  A    between atoms: N2_9  and  C5_11 
ROOT
HETATM    1  C4  UNL     1       8.886  55.934   1.750  1.00  0.00     0.260 C 
HETATM    2  O3  UNL     1       9.235  56.013   2.951  1.00  0.00    -0.270 OA
HETATM    3  N2  UNL     1       8.252  54.743   1.348  1.00  0.00    -0.329 N 
ATOM      4  H2  UNL     1       7.968  54.612   0.378  1.00  0.00     0.165 HD
ENDROOT
BRANCH   1   5
HETATM    5  C3  UNL     1       9.130  57.050   0.759  1.00  0.00     0.294 C 
BRANCH   5   6
HETATM    6  N1  UNL     1       9.734  56.480  -0.440  1.00  0.00    -0.370 NA
HETATM    7  C2  UNL     1      10.264  55.979  -1.492  1.00  0.00     0.435 C 
HETATM    8  O2  UNL     1      10.105  56.217  -2.749  1.00  0.00    -0.221 OA
BRANCH   7   9
HETATM    9  O1  UNL     1      11.270  54.912  -1.383  1.00  0.00    -0.298 OA
HETATM   10  C1  UNL     1      12.114  54.570  -2.408  1.00  0.00     0.216 C 
ENDBRANCH   7   9
ENDBRANCH   5   6
BRANCH   5  11
HETATM   11  C15 UNL     1       7.903  57.822   0.526  1.00  0.00    -0.013 A 
HETATM   12  C16 UNL     1       6.619  57.376   0.816  1.00  0.00     0.011 A 
HETATM   13  C17 UNL     1       5.509  58.191   0.666  1.00  0.00     0.001 A 
HETATM   14  C18 UNL     1       5.700  59.460   0.223  1.00  0.00     0.000 A 
HETATM   15  C19 UNL     1       6.908  59.979  -0.083  1.00  0.00     0.001 A 
HETATM   16  C20 UNL     1       8.006  59.124   0.077  1.00  0.00     0.011 A 
ENDBRANCH   5  11
ENDBRANCH   1   5
BRANCH   3  17
HETATM   17  C5  UNL     1       8.006  53.694   2.339  1.00  0.00     0.264 C 
HETATM   18  O4  UNL     1       8.632  52.529   1.874  1.00  0.00    -0.320 OA
HETATM   19  C6  UNL     1       8.158  51.263   2.063  1.00  0.00     0.105 A 
HETATM   20  C7  UNL     1       8.828  50.097   1.702  1.00  0.00     0.040 A 
HETATM   21  C11 UNL     1       6.925  51.074   2.653  1.00  0.00     0.103 A 
HETATM   22  C8  UNL     1       8.325  48.843   1.899  1.00  0.00     0.003 A 
HETATM   23  C9  UNL     1       7.069  48.677   2.496  1.00  0.00     0.003 A 
HETATM   24  C10 UNL     1       6.393  49.816   2.863  1.00  0.00     0.040 A 
HETATM   25  O5  UNL     1       6.224  52.211   3.028  1.00  0.00    -0.334 OA
HETATM   26  C12 UNL     1       6.528  53.511   2.550  1.00  0.00     0.105 C 
HETATM   27  C13 UNL     1       6.100  54.557   3.561  1.00  0.00     0.051 C 
HETATM   28  C14 UNL     1       5.723  53.687   1.285  1.00  0.00     0.051 C 
ENDBRANCH   3  17
TORSDOF 5
ENDMDL
MODEL 5
REMARK VINA RESULT: -8.489920182      2.420      7.762
REMARK  5 active torsions:
REMARK  status: ('A' for Active; 'I' for Inactive)
REMARK    1  A    between atoms: O1_2  and  C2_3 
REMARK       I    between atoms: C2_3  and  N1_5 
REMARK    2  A    between atoms: N1_5  and  C3_6 
REMARK    3  A    between atoms: C3_6  and  C4_7 
REMARK    4  A    between atoms: C3_6  and  C15_23 
REMARK       I    between atoms: C4_7  and  N2_9 
REMARK    5  A    between atoms: N2_9  and  C5_11 
ROOT
HETATM    1  C4  UNL     1       7.736  52.637   2.299  1.00  0.00     0.260 C 
HETATM    2  O3  UNL     1       6.995  52.150   1.413  1.00  0.00    -0.270 OA
HETATM    3  N2  UNL     1       7.713  54.037   2.447  1.00  0.00    -0.329 N 
ATOM      4  H2  UNL     1       8.313  54.493   3.136  1.00  0.00     0.165 HD
ENDROOT
BRANCH   1   5
HETATM    5  C3  UNL     1       8.624  51.783   3.174  1.00  0.00     0.294 C 
BRANCH   5   6
HETATM    6  N1  UNL     1       7.889  50.579   3.544  1.00  0.00    -0.370 NA
HETATM    7  C2  UNL     1       7.245  49.521   3.869  1.00  0.00     0.435 C 
HETATM    8  O2  UNL     1       6.062  49.330   4.343  1.00  0.00    -0.221 OA
BRANCH   7   9
HETATM    9  O1  UNL     1       7.865  48.196   3.719  1.00  0.00    -0.298 OA
HETATM   10  C1  UNL     1       7.759  47.443   2.578  1.00  0.00     0.216 C 
ENDBRANCH   7   9
ENDBRANCH   5   6
BRANCH   5  11
HETATM   11  C15 UNL     1       9.921  51.542   2.529  1.00  0.00    -0.013 A 
HETATM   12  C16 UNL     1      10.489  50.287   2.338  1.00  0.00     0.011 A 
HETATM   13  C17 UNL     1      11.669  50.117   1.633  1.00  0.00     0.001 A 
HETATM   14  C18 UNL     1      12.274  51.220   1.119  1.00  0.00     0.000 A 
HETATM   15  C19 UNL     1      11.796  52.475   1.255  1.00  0.00     0.001 A 
HETATM   16  C20 UNL     1      10.603  52.607   1.977  1.00  0.00     0.011 A 
ENDBRANCH   5  11
ENDBRANCH   1   5
BRANCH   3  17
HETATM   17  C5  UNL     1       6.821  54.833   1.602  1.00  0.00     0.264 C 
HETATM   18  O4  UNL     1       7.598  55.838   1.009  1.00  0.00    -0.320 OA
HETATM   19  C6  UNL     1       7.157  57.099   0.732  1.00  0.00     0.105 A 
HETATM   20  C7  UNL     1       7.885  58.066   0.044  1.00  0.00     0.040 A 
HETATM   21  C11 UNL     1       5.899  57.492   1.143  1.00  0.00     0.103 A 
HETATM   22  C8  UNL     1       7.418  59.323  -0.215  1.00  0.00     0.003 A 
HETATM   23  C9  UNL     1       6.140  59.700   0.217  1.00  0.00     0.003 A 
HETATM   24  C10 UNL     1       5.404  58.757   0.895  1.00  0.00     0.040 A 
HETATM   25  O5  UNL     1       5.141  56.557   1.832  1.00  0.00    -0.334 OA
HETATM   26  C12 UNL     1       5.685  55.386   2.418  1.00  0.00     0.105 C 
HETATM   27  C13 UNL     1       4.633  54.297   2.492  1.00  0.00     0.051 C 
HETATM   28  C14 UNL     1       6.095  55.775   3.818  1.00  0.00     0.051 C 
ENDBRANCH   3  17
TORSDOF 5
ENDMDL
