MODEL 1
REMARK VINA RESULT: -9.019808781      0.000      0.000
REMARK  4 active torsions:
REMARK  status: ('A' for Active; 'I' for Inactive)
REMARK    1  A    between atoms: C4_4  and  C5_5 
REMARK    2  A    between atoms: C13_14  and  N1_15 
REMARK       I    between atoms: N1_15  and  C14_17 
REMARK    3  A    between atoms: C14_17  and  C15_19 
REMARK    4  A    between atoms: C18_24  and  N3_25 
ROOT
HETATM    1  C1  UNL     1       4.211  57.622   2.021  1.00  0.00     0.025 C 
HETATM    2  C2  UNL     1       5.338  57.173   1.535  1.00  0.00    -0.018 A 
HETATM    3  C3  UNL     1       5.822  55.772   1.713  1.00  0.00     0.026 A 
HETATM    4  C4  UNL     1       5.145  54.846   2.356  1.00  0.00     0.028 C 
HETATM    5  C11 UNL     1       7.134  55.700   1.096  1.00  0.00     0.196 A 
HETATM    6  O1  UNL     1       7.809  54.626   1.089  1.00  0.00    -0.286 OA
HETATM    7  C12 UNL     1       7.447  57.010   0.553  1.00  0.00     0.055 A 
HETATM    8  C13 UNL     1       8.625  57.379  -0.104  1.00  0.00     0.050 A 
HETATM    9  C16 UNL     1       8.708  58.684  -0.511  1.00  0.00     0.033 A 
HETATM   10  C17 UNL     1       7.685  59.567  -0.285  1.00  0.00     0.039 A 
HETATM   11  C18 UNL     1       6.489  59.188   0.381  1.00  0.00     0.115 A 
HETATM   12  C19 UNL     1       6.380  57.889   0.808  1.00  0.00     0.024 A 
ENDROOT
BRANCH   4  13
HETATM   13  C5  UNL     1       5.503  53.474   2.581  1.00  0.00    -0.035 A 
HETATM   14  C6  UNL     1       6.581  53.023   3.307  1.00  0.00     0.011 A 
HETATM   15  C7  UNL     1       6.855  51.685   3.507  1.00  0.00     0.001 A 
HETATM   16  C8  UNL     1       6.037  50.730   2.973  1.00  0.00     0.000 A 
HETATM   17  C9  UNL     1       4.939  51.130   2.235  1.00  0.00     0.001 A 
HETATM   18  C10 UNL     1       4.680  52.470   2.045  1.00  0.00     0.011 A 
ENDBRANCH   4  13
BRANCH  11  19
HETATM   19  N3  UNL     1       5.520  60.195   0.516  1.00  0.00    -0.115 N 
HETATM   20  O4  UNL     1       4.598  60.151  -0.416  1.00  0.00    -0.532 OA
HETATM   21  O5  UNL     1       5.371  61.186   1.392  1.00  0.00    -0.532 OA
ENDBRANCH  11  19
BRANCH   8  22
HETATM   22  N1  UNL     1       9.656  56.444  -0.267  1.00  0.00    -0.318 N 
HETATM   23  C14 UNL     1      10.223  56.042  -1.490  1.00  0.00     0.311 C 
HETATM   24  O2  UNL     1       9.851  56.480  -2.594  1.00  0.00    -0.262 OA
ATOM     25  H1  UNL     1      10.030  56.015   0.579  1.00  0.00     0.169 HD
BRANCH  23  26
HETATM   26  C15 UNL     1      11.320  55.043  -1.441  1.00  0.00     0.322 C 
HETATM   27  N2  UNL     1      12.333  55.114  -2.423  1.00  0.00    -0.053 NA
HETATM   28  O3  UNL     1      11.347  54.156  -0.548  1.00  0.00    -0.266 OA
ENDBRANCH  23  26
ENDBRANCH   8  22
TORSDOF 4
ENDMDL
MODEL 2
REMARK VINA RESULT: -8.758361069      1.628      1.937
REMARK  4 active torsions:
REMARK  status: ('A' for Active; 'I' for Inactive)
REMARK    1  A    between atoms: C4_4  and  C5_5 
REMARK    2  A    between atoms: C13_14  and  N1_15 
REMARK       I    between atoms: N1_15  and  C14_17 
REMARK    3  A    between atoms: C14_17  and  C15_19 
REMARK    4  A    between atoms: C18_24  and  N3_25 
ROOT
HETATM    1  C1  UNL     1       3.528  56.617   2.158  1.00  0.00     0.025 C 
HETATM    2  C2  UNL     1       4.696  56.189   1.756  1.00  0.00    -0.018 A 
HETATM    3  C3  UNL     1       5.172  54.785   1.929  1.00  0.00     0.026 A 
HETATM    4  C4  UNL     1       4.449  53.835   2.482  1.00  0.00     0.028 C 
HETATM    5  C11 UNL     1       6.532  54.738   1.423  1.00  0.00     0.196 A 
HETATM    6  O1  UNL     1       7.213  53.668   1.439  1.00  0.00    -0.286 OA
HETATM    7  C12 UNL     1       6.882  56.067   0.952  1.00  0.00     0.055 A 
HETATM    8  C13 UNL     1       8.109  56.462   0.410  1.00  0.00     0.050 A 
HETATM    9  C16 UNL     1       8.216  57.780   0.054  1.00  0.00     0.033 A 
HETATM   10  C17 UNL     1       7.173  58.651   0.221  1.00  0.00     0.039 A 
HETATM   11  C18 UNL     1       5.927  58.245   0.770  1.00  0.00     0.115 A 
HETATM   12  C19 UNL     1       5.791  56.933   1.144  1.00  0.00     0.024 A 
ENDROOT
BRANCH   4  13
HETATM   13  C5  UNL     1       4.796  52.458   2.691  1.00  0.00    -0.035 A 
HETATM   14  C6  UNL     1       5.697  51.977   3.613  1.00  0.00     0.011 A 
HETATM   15  C7  UNL     1       5.966  50.634   3.782  1.00  0.00     0.001 A 
HETATM   16  C8  UNL     1       5.326  49.704   3.013  1.00  0.00     0.000 A 
HETATM   17  C9  UNL     1       4.411  50.135   2.071  1.00  0.00     0.001 A 
HETATM   18  C10 UNL     1       4.154  51.479   1.915  1.00  0.00     0.011 A 
ENDBRANCH   4  13
BRANCH  11  19
HETATM   19  N3  UNL     1       4.943  59.243   0.855  1.00  0.00    -0.115 N 
HETATM   20  O4  UNL     1       5.031  60.136  -0.101  1.00  0.00    -0.532 OA
HETATM   21  O5  UNL     1       3.960  59.463   1.724  1.00  0.00    -0.532 OA
ENDBRANCH  11  19
BRANCH   8  22
HETATM   22  N1  UNL     1       9.156  55.537   0.305  1.00  0.00    -0.318 N 
HETATM   23  C14 UNL     1       9.995  55.113   1.351  1.00  0.00     0.311 C 
HETATM   24  O2  UNL     1       9.901  55.536   2.517  1.00  0.00    -0.262 OA
ATOM     25  H1  UNL     1       9.325  55.134  -0.617  1.00  0.00     0.169 HD
BRANCH  23  26
HETATM   26  C15 UNL     1      11.040  54.110   1.027  1.00  0.00     0.322 C 
HETATM   27  N2  UNL     1      11.723  53.487   2.095  1.00  0.00    -0.053 NA
HETATM   28  O3  UNL     1      11.311  53.822  -0.168  1.00  0.00    -0.266 OA
ENDBRANCH  23  26
ENDBRANCH   8  22
TORSDOF 4
ENDMDL
MODEL 3
REMARK VINA RESULT: -8.730267562      2.713      6.136
REMARK  4 active torsions:
REMARK  status: ('A' for Active; 'I' for Inactive)
REMARK    1  A    between atoms: C4_4  and  C5_5 
REMARK    2  A    between atoms: C13_14  and  N1_15 
REMARK       I    between atoms: N1_15  and  C14_17 
REMARK    3  A    between atoms: C14_17  and  C15_19 
REMARK    4  A    between atoms: C18_24  and  N3_25 
ROOT
HETATM    1  C1  UNL     1       9.330  50.882   1.961  1.00  0.00     0.025 C 
HETATM    2  C2  UNL     1       8.438  51.817   2.157  1.00  0.00    -0.018 A 
HETATM    3  C3  UNL     1       7.001  51.546   2.452  1.00  0.00     0.026 A 
HETATM    4  C4  UNL     1       6.498  50.336   2.570  1.00  0.00     0.028 C 
HETATM    5  C11 UNL     1       6.337  52.835   2.526  1.00  0.00     0.196 A 
HETATM    6  O1  UNL     1       5.094  52.933   2.763  1.00  0.00    -0.286 OA
HETATM    7  C12 UNL     1       7.332  53.866   2.287  1.00  0.00     0.055 A 
HETATM    8  C13 UNL     1       7.108  55.246   2.247  1.00  0.00     0.050 A 
HETATM    9  C16 UNL     1       8.201  56.028   1.981  1.00  0.00     0.033 A 
HETATM   10  C17 UNL     1       9.437  55.478   1.772  1.00  0.00     0.039 A 
HETATM   11  C18 UNL     1       9.661  54.076   1.815  1.00  0.00     0.115 A 
HETATM   12  C19 UNL     1       8.584  53.266   2.071  1.00  0.00     0.024 A 
ENDROOT
BRANCH   4  13
HETATM   13  C5  UNL     1       5.144  49.957   2.858  1.00  0.00    -0.035 A 
HETATM   14  C6  UNL     1       4.074  50.040   1.998  1.00  0.00     0.011 A 
HETATM   15  C7  UNL     1       2.798  49.632   2.331  1.00  0.00     0.001 A 
HETATM   16  C8  UNL     1       2.545  49.114   3.570  1.00  0.00     0.000 A 
HETATM   17  C9  UNL     1       3.586  49.009   4.473  1.00  0.00     0.001 A 
HETATM   18  C10 UNL     1       4.854  49.421   4.125  1.00  0.00     0.011 A 
ENDBRANCH   4  13
BRANCH  11  19
HETATM   19  N3  UNL     1      10.986  53.662   1.606  1.00  0.00    -0.115 N 
HETATM   20  O4  UNL     1      11.259  53.425   0.346  1.00  0.00    -0.532 OA
HETATM   21  O5  UNL     1      12.002  53.450   2.439  1.00  0.00    -0.532 OA
ENDBRANCH  11  19
BRANCH   8  22
HETATM   22  N1  UNL     1       5.813  55.748   2.425  1.00  0.00    -0.318 N 
HETATM   23  C14 UNL     1       5.168  56.688   1.600  1.00  0.00     0.311 C 
HETATM   24  O2  UNL     1       5.700  57.197   0.598  1.00  0.00    -0.262 OA
ATOM     25  H1  UNL     1       5.288  55.401   3.228  1.00  0.00     0.169 HD
BRANCH  23  26
HETATM   26  C15 UNL     1       3.782  57.079   1.960  1.00  0.00     0.322 C 
HETATM   27  N2  UNL     1       3.461  58.454   1.985  1.00  0.00    -0.053 NA
HETATM   28  O3  UNL     1       2.916  56.208   2.236  1.00  0.00    -0.266 OA
ENDBRANCH  23  26
ENDBRANCH   8  22
TORSDOF 4
ENDMDL
MODEL 4
REMARK VINA RESULT: -8.503109753      3.480      5.849
REMARK  4 active torsions:
REMARK  status: ('A' for Active; 'I' for Inactive)
REMARK    1  A    between atoms: C4_4  and  C5_5 
REMARK    2  A    between atoms: C13_14  and  N1_15 
REMARK       I    between atoms: N1_15  and  C14_17 
REMARK    3  A    between atoms: C14_17  and  C15_19 
REMARK    4  A    between atoms: C18_24  and  N3_25 
ROOT
HETATM    1  C1  UNL     1       8.644  56.978   0.212  1.00  0.00     0.025 C 
HETATM    2  C2  UNL     1       8.239  56.002   0.981  1.00  0.00    -0.018 A 
HETATM    3  C3  UNL     1       9.063  54.800   1.304  1.00  0.00     0.026 A 
HETATM    4  C4  UNL     1      10.289  54.621   0.864  1.00  0.00     0.028 C 
HETATM    5  C11 UNL     1       8.233  53.928   2.115  1.00  0.00     0.196 A 
HETATM    6  O1  UNL     1       8.659  52.813   2.546  1.00  0.00    -0.286 OA
HETATM    7  C12 UNL     1       6.942  54.571   2.289  1.00  0.00     0.055 A 
HETATM    8  C13 UNL     1       5.844  54.058   2.985  1.00  0.00     0.050 A 
HETATM    9  C16 UNL     1       4.717  54.837   2.997  1.00  0.00     0.033 A 
HETATM   10  C17 UNL     1       4.683  56.050   2.361  1.00  0.00     0.039 A 
HETATM   11  C18 UNL     1       5.801  56.568   1.655  1.00  0.00     0.115 A 
HETATM   12  C19 UNL     1       6.942  55.807   1.620  1.00  0.00     0.024 A 
ENDROOT
BRANCH   4  13
HETATM   13  C5  UNL     1      11.174  53.518   1.115  1.00  0.00    -0.035 A 
HETATM   14  C6  UNL     1      11.888  53.293   2.269  1.00  0.00     0.011 A 
HETATM   15  C7  UNL     1      12.703  52.196   2.455  1.00  0.00     0.001 A 
HETATM   16  C8  UNL     1      12.834  51.262   1.466  1.00  0.00     0.000 A 
HETATM   17  C9  UNL     1      12.138  51.440   0.286  1.00  0.00     0.001 A 
HETATM   18  C10 UNL     1      11.328  52.542   0.116  1.00  0.00     0.011 A 
ENDBRANCH   4  13
BRANCH  11  19
HETATM   19  N3  UNL     1       5.625  57.835   1.076  1.00  0.00    -0.115 N 
HETATM   20  O4  UNL     1       4.422  58.014   0.587  1.00  0.00    -0.532 OA
HETATM   21  O5  UNL     1       6.445  58.871   0.916  1.00  0.00    -0.532 OA
ENDBRANCH  11  19
BRANCH   8  22
HETATM   22  N1  UNL     1       5.923  52.792   3.579  1.00  0.00    -0.318 N 
HETATM   23  C14 UNL     1       5.411  51.594   3.047  1.00  0.00     0.311 C 
HETATM   24  O2  UNL     1       4.805  51.531   1.963  1.00  0.00    -0.262 OA
ATOM     25  H1  UNL     1       6.395  52.733   4.482  1.00  0.00     0.169 HD
BRANCH  23  26
HETATM   26  C15 UNL     1       5.615  50.353   3.835  1.00  0.00     0.322 C 
HETATM   27  N2  UNL     1       6.939  49.928   4.083  1.00  0.00    -0.053 NA
HETATM   28  O3  UNL     1       4.633  49.696   4.271  1.00  0.00    -0.266 OA
ENDBRANCH  23  26
ENDBRANCH   8  22
TORSDOF 4
ENDMDL
MODEL 5
REMARK VINA RESULT: -8.489813708      2.466      5.323
REMARK  4 active torsions:
REMARK  status: ('A' for Active; 'I' for Inactive)
REMARK    1  A    between atoms: C4_4  and  C5_5 
REMARK    2  A    between atoms: C13_14  and  N1_15 
REMARK       I    between atoms: N1_15  and  C14_17 
REMARK    3  A    between atoms: C14_17  and  C15_19 
REMARK    4  A    between atoms: C18_24  and  N3_25 
ROOT
HETATM    1  C1  UNL     1       7.997  59.416  -0.175  1.00  0.00     0.025 C 
HETATM    2  C2  UNL     1       7.502  58.298   0.288  1.00  0.00    -0.018 A 
HETATM    3  C3  UNL     1       8.230  56.995   0.268  1.00  0.00     0.026 A 
HETATM    4  C4  UNL     1       9.453  56.853  -0.195  1.00  0.00     0.028 C 
HETATM    5  C11 UNL     1       7.317  55.997   0.796  1.00  0.00     0.196 A 
HETATM    6  O1  UNL     1       7.652  54.778   0.902  1.00  0.00    -0.286 OA
HETATM    7  C12 UNL     1       6.071  56.662   1.133  1.00  0.00     0.055 A 
HETATM    8  C13 UNL     1       4.920  56.060   1.650  1.00  0.00     0.050 A 
HETATM    9  C16 UNL     1       3.851  56.888   1.870  1.00  0.00     0.033 A 
HETATM   10  C17 UNL     1       3.920  58.229   1.598  1.00  0.00     0.039 A 
HETATM   11  C18 UNL     1       5.092  58.837   1.075  1.00  0.00     0.115 A 
HETATM   12  C19 UNL     1       6.177  58.032   0.837  1.00  0.00     0.024 A 
ENDROOT
BRANCH   4  13
HETATM   13  C5  UNL     1      10.250  55.660  -0.256  1.00  0.00    -0.035 A 
HETATM   14  C6  UNL     1      10.482  54.782   0.777  1.00  0.00     0.011 A 
HETATM   15  C7  UNL     1      11.239  53.637   0.644  1.00  0.00     0.001 A 
HETATM   16  C8  UNL     1      11.804  53.324  -0.560  1.00  0.00     0.000 A 
HETATM   17  C9  UNL     1      11.603  54.173  -1.631  1.00  0.00     0.001 A 
HETATM   18  C10 UNL     1      10.844  55.313  -1.481  1.00  0.00     0.011 A 
ENDBRANCH   4  13
BRANCH  11  19
HETATM   19  N3  UNL     1       5.022  60.224   0.872  1.00  0.00    -0.115 N 
HETATM   20  O4  UNL     1       4.714  60.550  -0.361  1.00  0.00    -0.532 OA
HETATM   21  O5  UNL     1       5.224  61.261   1.681  1.00  0.00    -0.532 OA
ENDBRANCH  11  19
BRANCH   8  22
HETATM   22  N1  UNL     1       4.892  54.676   1.867  1.00  0.00    -0.318 N 
HETATM   23  C14 UNL     1       5.402  54.005   2.993  1.00  0.00     0.311 C 
HETATM   24  O2  UNL     1       5.958  54.584   3.942  1.00  0.00    -0.262 OA
ATOM     25  H1  UNL     1       4.463  54.103   1.141  1.00  0.00     0.169 HD
BRANCH  23  26
HETATM   26  C15 UNL     1       5.258  52.527   3.032  1.00  0.00     0.322 C 
HETATM   27  N2  UNL     1       4.636  51.887   1.938  1.00  0.00    -0.053 NA
HETATM   28  O3  UNL     1       5.681  51.863   4.014  1.00  0.00    -0.266 OA
ENDBRANCH  23  26
ENDBRANCH   8  22
TORSDOF 4
ENDMDL
