MODEL 1
REMARK VINA RESULT: -6.860139172      0.000      0.000
REMARK  14 active torsions:
REMARK  status: ('A' for Active; 'I' for Inactive)
REMARK    1  A    between atoms: N1_1  and  C1_4 
REMARK    2  A    between atoms: C3_9  and  N4_10 
REMARK    3  A    between atoms: N4_10  and  C4_12 
REMARK    4  A    between atoms: C5_13  and  N5_14 
REMARK    5  A    between atoms: N5_14  and  O1_16 
REMARK    6  A    between atoms: N6_18  and  O2_19 
REMARK    7  A    between atoms: C8_26  and  C9_27 
REMARK    8  A    between atoms: C9_27  and  O3_28 
REMARK    9  A    between atoms: C9_27  and  C10_30 
REMARK   10  A    between atoms: C10_30  and  C11_31 
REMARK   11  A    between atoms: C10_30  and  C12_34 
REMARK   12  A    between atoms: N10_36  and  C14_37 
REMARK   13  A    between atoms: C14_37  and  C15_38 
REMARK   14  A    between atoms: C15_38  and  O6_39 
ROOT
HETATM    1  C1  UNL     1       2.026   0.558  13.664  1.00  0.00     0.147 A 
HETATM    2  N2  UNL     1       0.725   0.348  13.783  1.00  0.00    -0.325 N 
ATOM      3  H2  UNL     1       0.382  -0.399  14.387  1.00  0.00     0.169 HD
HETATM    4  C2  UNL     1      -0.147   1.122  13.105  1.00  0.00     0.163 A 
HETATM    5  N3  UNL     1      -1.517   0.850  13.254  1.00  0.00    -0.079 NA
HETATM    6  C3  UNL     1       0.289   2.144  12.277  1.00  0.00     0.157 A 
HETATM    7  N9  UNL     1       1.602   2.357  12.153  1.00  0.00    -0.261 N 
HETATM    8  C8  UNL     1       2.309   3.246  11.444  1.00  0.00     0.136 A 
HETATM    9  N13 UNL     1       3.625   2.973  11.729  1.00  0.00    -0.285 N 
ATOM     10  H13 UNL     1       4.421   3.481  11.343  1.00  0.00     0.188 HD
HETATM   11  N14 UNL     1       3.713   1.970  12.566  1.00  0.00    -0.281 N 
ATOM     12  H14 UNL     1       4.573   1.568  12.938  1.00  0.00     0.188 HD
HETATM   13  C16 UNL     1       2.471   1.571  12.842  1.00  0.00     0.174 A 
ENDROOT
BRANCH   8  14
HETATM   14  C9  UNL     1       1.847   4.286  10.500  1.00  0.00     0.208 C 
BRANCH  14  15
HETATM   15  O3  UNL     1       1.603   3.743   9.240  1.00  0.00    -0.387 OA
ATOM     16  H3  UNL     1       2.197   4.103   8.594  1.00  0.00     0.210 HD
ENDBRANCH  14  15
BRANCH  14  17
HETATM   17  C10 UNL     1       2.993   5.290  10.302  1.00  0.00     0.175 C 
BRANCH  17  18
HETATM   18  C11 UNL     1       3.230   6.030  11.584  1.00  0.00     0.186 C 
HETATM   19  O4  UNL     1       2.320   6.748  12.049  1.00  0.00    -0.647 OA
HETATM   20  O5  UNL     1       4.424   5.948  12.277  1.00  0.00    -0.647 OA
ENDBRANCH  17  18
BRANCH  17  21
HETATM   21  C12 UNL     1       2.651   6.295   9.266  1.00  0.00     0.058 A 
HETATM   22  C13 UNL     1       3.503   7.269   8.789  1.00  0.00     0.135 A 
HETATM   23  N10 UNL     1       2.849   8.009   7.846  1.00  0.00    -0.283 N 
HETATM   24  N11 UNL     1       1.633   7.493   7.758  1.00  0.00    -0.020 NA
HETATM   25  N12 UNL     1       1.500   6.469   8.600  1.00  0.00    -0.286 N 
ATOM     26  H12 UNL     1       0.657   5.908   8.720  1.00  0.00     0.184 HD
BRANCH  23  27
HETATM   27  C14 UNL     1       3.372   9.132   7.091  1.00  0.00     0.172 C 
BRANCH  27  28
HETATM   28  C15 UNL     1       3.410   8.851   5.610  1.00  0.00     0.185 C 
BRANCH  28  29
HETATM   29  O6  UNL     1       2.159   8.853   5.030  1.00  0.00    -0.399 OA
ATOM     30  H6  UNL     1       1.799   9.727   4.929  1.00  0.00     0.209 HD
ENDBRANCH  28  29
ENDBRANCH  27  28
ENDBRANCH  23  27
ENDBRANCH  17  21
ENDBRANCH  14  17
ENDBRANCH   8  14
BRANCH   6  31
HETATM   31  N4  UNL     1      -0.646   2.958  11.613  1.00  0.00    -0.334 N 
ATOM     32  H4  UNL     1      -0.752   2.840  10.606  1.00  0.00     0.168 HD
BRANCH  31  33
HETATM   33  C4  UNL     1      -1.375   3.840  12.194  1.00  0.00     0.110 A 
HETATM   34  C5  UNL     1      -1.072   4.898  13.129  1.00  0.00     0.183 A 
HETATM   35  N6  UNL     1      -2.320   5.546  13.429  1.00  0.00    -0.188 N 
HETATM   36  C6  UNL     1      -3.342   4.898  12.698  1.00  0.00     0.172 A 
HETATM   37  N7  UNL     1      -4.712   5.291  12.764  1.00  0.00    -0.078 NA
HETATM   38  C7  UNL     1      -2.836   3.918  11.983  1.00  0.00     0.120 A 
HETATM   39  N8  UNL     1      -3.612   3.078  11.140  1.00  0.00    -0.096 NA
BRANCH  34  40
HETATM   40  N5  UNL     1       0.085   5.194  13.584  1.00  0.00    -0.249 N 
ATOM     41  H5  UNL     1       0.784   4.456  13.663  1.00  0.00     0.196 HD
BRANCH  40  42
HETATM   42  O1  UNL     1       0.424   6.467  13.970  1.00  0.00    -0.288 OA
ATOM     43  H1  UNL     1       1.033   6.642  14.676  1.00  0.00     0.244 HD
ENDBRANCH  40  42
ENDBRANCH  34  40
BRANCH  35  44
HETATM   44  O2  UNL     1      -2.411   6.601  14.286  1.00  0.00    -0.280 OA
ATOM     45  H2  UNL     1      -3.166   7.177  14.310  1.00  0.00     0.245 HD
ENDBRANCH  35  44
ENDBRANCH  31  33
ENDBRANCH   6  31
BRANCH   1  46
HETATM   46  N1  UNL     1       2.860  -0.177  14.309  1.00  0.00    -0.382 N 
ATOM     47  H12 UNL     1       2.619  -1.136  14.564  1.00  0.00     0.157 HD
ATOM     48  H11 UNL     1       3.772   0.195  14.572  1.00  0.00     0.157 HD
ENDBRANCH   1  46
TORSDOF 14
ENDMDL
MODEL 2
REMARK VINA RESULT: -6.750139374      3.336      8.386
REMARK  14 active torsions:
REMARK  status: ('A' for Active; 'I' for Inactive)
REMARK    1  A    between atoms: N1_1  and  C1_4 
REMARK    2  A    between atoms: C3_9  and  N4_10 
REMARK    3  A    between atoms: N4_10  and  C4_12 
REMARK    4  A    between atoms: C5_13  and  N5_14 
REMARK    5  A    between atoms: N5_14  and  O1_16 
REMARK    6  A    between atoms: N6_18  and  O2_19 
REMARK    7  A    between atoms: C8_26  and  C9_27 
REMARK    8  A    between atoms: C9_27  and  O3_28 
REMARK    9  A    between atoms: C9_27  and  C10_30 
REMARK   10  A    between atoms: C10_30  and  C11_31 
REMARK   11  A    between atoms: C10_30  and  C12_34 
REMARK   12  A    between atoms: N10_36  and  C14_37 
REMARK   13  A    between atoms: C14_37  and  C15_38 
REMARK   14  A    between atoms: C15_38  and  O6_39 
ROOT
HETATM    1  C1  UNL     1      -3.695   5.088  12.681  1.00  0.00     0.147 A 
HETATM    2  N2  UNL     1      -2.857   6.096  12.856  1.00  0.00    -0.325 N 
ATOM      3  H2  UNL     1      -3.194   7.057  12.798  1.00  0.00     0.169 HD
HETATM    4  C2  UNL     1      -1.554   5.853  13.110  1.00  0.00     0.163 A 
HETATM    5  N3  UNL     1      -0.702   6.957  13.274  1.00  0.00    -0.079 NA
HETATM    6  C3  UNL     1      -1.066   4.559  13.194  1.00  0.00     0.157 A 
HETATM    7  N9  UNL     1      -1.910   3.538  13.016  1.00  0.00    -0.261 N 
HETATM    8  C8  UNL     1      -1.737   2.211  13.035  1.00  0.00     0.136 A 
HETATM    9  N13 UNL     1      -2.981   1.680  12.788  1.00  0.00    -0.285 N 
ATOM     10  H13 UNL     1      -3.188   0.683  12.738  1.00  0.00     0.188 HD
HETATM   11  N14 UNL     1      -3.861   2.635  12.625  1.00  0.00    -0.281 N 
ATOM     12  H14 UNL     1      -4.855   2.513  12.431  1.00  0.00     0.188 HD
HETATM   13  C16 UNL     1      -3.221   3.797  12.761  1.00  0.00     0.174 A 
ENDROOT
BRANCH   8  14
HETATM   14  C9  UNL     1      -0.503   1.419  13.221  1.00  0.00     0.208 C 
BRANCH  14  15
HETATM   15  O3  UNL     1      -0.540   0.253  12.458  1.00  0.00    -0.387 OA
ATOM     16  H3  UNL     1       0.259   0.152  11.954  1.00  0.00     0.210 HD
ENDBRANCH  14  15
BRANCH  14  17
HETATM   17  C10 UNL     1      -0.453   0.954  14.684  1.00  0.00     0.175 C 
BRANCH  17  18
HETATM   18  C11 UNL     1       0.971   0.938  15.150  1.00  0.00     0.186 C 
HETATM   19  O4  UNL     1       1.811   1.655  14.567  1.00  0.00    -0.647 OA
HETATM   20  O5  UNL     1       1.395   0.156  16.210  1.00  0.00    -0.647 OA
ENDBRANCH  17  18
BRANCH  17  21
HETATM   21  C12 UNL     1      -0.982  -0.425  14.826  1.00  0.00     0.058 A 
HETATM   22  C13 UNL     1      -2.294  -0.751  15.100  1.00  0.00     0.135 A 
HETATM   23  N10 UNL     1      -2.411  -2.110  15.158  1.00  0.00    -0.283 N 
HETATM   24  N11 UNL     1      -1.200  -2.589  14.925  1.00  0.00    -0.020 NA
HETATM   25  N12 UNL     1      -0.336  -1.595  14.726  1.00  0.00    -0.286 N 
ATOM     26  H12 UNL     1       0.658  -1.707  14.529  1.00  0.00     0.184 HD
BRANCH  23  27
HETATM   27  C14 UNL     1      -3.613  -2.878  15.421  1.00  0.00     0.172 C 
BRANCH  27  28
HETATM   28  C15 UNL     1      -3.906  -2.985  16.897  1.00  0.00     0.185 C 
BRANCH  28  29
HETATM   29  O6  UNL     1      -2.775  -3.201  17.655  1.00  0.00    -0.399 OA
ATOM     30  H6  UNL     1      -2.960  -3.270  18.584  1.00  0.00     0.209 HD
ENDBRANCH  28  29
ENDBRANCH  27  28
ENDBRANCH  23  27
ENDBRANCH  17  21
ENDBRANCH  14  17
ENDBRANCH   8  14
BRANCH   6  31
HETATM   31  N4  UNL     1       0.290   4.337  13.498  1.00  0.00    -0.334 N 
ATOM     32  H4  UNL     1       0.510   3.826  14.352  1.00  0.00     0.168 HD
BRANCH  31  33
HETATM   33  C4  UNL     1       1.266   4.738  12.768  1.00  0.00     0.110 A 
HETATM   34  C5  UNL     1       2.343   5.670  13.001  1.00  0.00     0.183 A 
HETATM   35  N6  UNL     1       3.119   5.707  11.791  1.00  0.00    -0.188 N 
HETATM   36  C6  UNL     1       2.527   4.824  10.859  1.00  0.00     0.172 A 
HETATM   37  N7  UNL     1       3.047   4.619   9.547  1.00  0.00    -0.078 NA
HETATM   38  C7  UNL     1       1.465   4.255  11.385  1.00  0.00     0.120 A 
HETATM   39  N8  UNL     1       0.654   3.315  10.695  1.00  0.00    -0.096 NA
BRANCH  34  40
HETATM   40  N5  UNL     1       2.557   6.321  14.080  1.00  0.00    -0.249 N 
ATOM     41  H5  UNL     1       3.405   6.884  14.153  1.00  0.00     0.196 HD
BRANCH  40  42
HETATM   42  O1  UNL     1       1.692   6.291  15.146  1.00  0.00    -0.288 OA
ATOM     43  H1  UNL     1       1.990   6.211  16.044  1.00  0.00     0.244 HD
ENDBRANCH  40  42
ENDBRANCH  34  40
BRANCH  35  44
HETATM   44  O2  UNL     1       4.225   6.491  11.653  1.00  0.00    -0.280 OA
ATOM     45  H2  UNL     1       4.195   7.353  11.255  1.00  0.00     0.245 HD
ENDBRANCH  35  44
ENDBRANCH  31  33
ENDBRANCH   6  31
BRANCH   1  46
HETATM   46  N1  UNL     1      -4.937   5.316  12.440  1.00  0.00    -0.382 N 
ATOM     47  H12 UNL     1      -5.270   5.417  11.481  1.00  0.00     0.157 HD
ATOM     48  H11 UNL     1      -5.600   5.399  13.210  1.00  0.00     0.157 HD
ENDBRANCH   1  46
TORSDOF 14
ENDMDL
MODEL 3
REMARK VINA RESULT: -6.704210804      5.261      7.694
REMARK  14 active torsions:
REMARK  status: ('A' for Active; 'I' for Inactive)
REMARK    1  A    between atoms: N1_1  and  C1_4 
REMARK    2  A    between atoms: C3_9  and  N4_10 
REMARK    3  A    between atoms: N4_10  and  C4_12 
REMARK    4  A    between atoms: C5_13  and  N5_14 
REMARK    5  A    between atoms: N5_14  and  O1_16 
REMARK    6  A    between atoms: N6_18  and  O2_19 
REMARK    7  A    between atoms: C8_26  and  C9_27 
REMARK    8  A    between atoms: C9_27  and  O3_28 
REMARK    9  A    between atoms: C9_27  and  C10_30 
REMARK   10  A    between atoms: C10_30  and  C11_31 
REMARK   11  A    between atoms: C10_30  and  C12_34 
REMARK   12  A    between atoms: N10_36  and  C14_37 
REMARK   13  A    between atoms: C14_37  and  C15_38 
REMARK   14  A    between atoms: C15_38  and  O6_39 
ROOT
HETATM    1  C1  UNL     1       0.986   6.723   8.430  1.00  0.00     0.147 A 
HETATM    2  N2  UNL     1      -0.181   7.274   8.143  1.00  0.00    -0.325 N 
ATOM      3  H2  UNL     1      -1.024   6.701   8.116  1.00  0.00     0.169 HD
HETATM    4  C2  UNL     1      -0.256   8.597   7.885  1.00  0.00     0.163 A 
HETATM    5  N3  UNL     1      -1.516   9.133   7.572  1.00  0.00    -0.079 NA
HETATM    6  C3  UNL     1       0.872   9.401   7.913  1.00  0.00     0.157 A 
HETATM    7  N9  UNL     1       2.053   8.846   8.201  1.00  0.00    -0.261 N 
HETATM    8  C8  UNL     1       3.288   9.352   8.299  1.00  0.00     0.136 A 
HETATM    9  N13 UNL     1       4.092   8.287   8.627  1.00  0.00    -0.285 N 
ATOM     10  H13 UNL     1       5.099   8.342   8.776  1.00  0.00     0.188 HD
HETATM   11  N14 UNL     1       3.382   7.191   8.721  1.00  0.00    -0.281 N 
ATOM     12  H14 UNL     1       3.734   6.262   8.952  1.00  0.00     0.188 HD
HETATM   13  C16 UNL     1       2.115   7.512   8.460  1.00  0.00     0.174 A 
ENDROOT
BRANCH   8  14
HETATM   14  C9  UNL     1       3.767  10.731   8.068  1.00  0.00     0.208 C 
BRANCH  14  15
HETATM   15  O3  UNL     1       4.023  10.950   6.715  1.00  0.00    -0.387 OA
ATOM     16  H3  UNL     1       4.872  11.357   6.592  1.00  0.00     0.210 HD
ENDBRANCH  14  15
BRANCH  14  17
HETATM   17  C10 UNL     1       5.121  10.889   8.776  1.00  0.00     0.175 C 
BRANCH  17  18
HETATM   18  C11 UNL     1       5.205  12.255   9.386  1.00  0.00     0.186 C 
HETATM   19  O4  UNL     1       4.862  13.247   8.709  1.00  0.00    -0.647 OA
HETATM   20  O5  UNL     1       5.649  12.463  10.680  1.00  0.00    -0.647 OA
ENDBRANCH  17  18
BRANCH  17  21
HETATM   21  C12 UNL     1       6.245  10.762   7.815  1.00  0.00     0.058 A 
HETATM   22  C13 UNL     1       6.834   9.577   7.429  1.00  0.00     0.135 A 
HETATM   23  N10 UNL     1       7.831   9.845   6.537  1.00  0.00    -0.283 N 
HETATM   24  N11 UNL     1       7.843  11.160   6.390  1.00  0.00    -0.020 NA
HETATM   25  N12 UNL     1       6.902  11.721   7.148  1.00  0.00    -0.286 N 
ATOM     26  H12 UNL     1       6.712  12.722   7.210  1.00  0.00     0.184 HD
BRANCH  23  27
HETATM   27  C14 UNL     1       8.704   8.890   5.881  1.00  0.00     0.172 C 
BRANCH  27  28
HETATM   28  C15 UNL     1       8.000   8.146   4.774  1.00  0.00     0.185 C 
BRANCH  28  29
HETATM   29  O6  UNL     1       8.388   8.557   3.517  1.00  0.00    -0.399 OA
ATOM     30  H6  UNL     1       8.518   7.835   2.915  1.00  0.00     0.209 HD
ENDBRANCH  28  29
ENDBRANCH  27  28
ENDBRANCH  23  27
ENDBRANCH  17  21
ENDBRANCH  14  17
ENDBRANCH   8  14
BRANCH   6  31
HETATM   31  N4  UNL     1       0.756  10.783   7.677  1.00  0.00    -0.334 N 
ATOM     32  H4  UNL     1       1.005  11.131   6.752  1.00  0.00     0.168 HD
BRANCH  31  33
HETATM   33  C4  UNL     1       0.358  11.632   8.551  1.00  0.00     0.110 A 
HETATM   34  C5  UNL     1       0.696  11.839   9.940  1.00  0.00     0.183 A 
HETATM   35  N6  UNL     1      -0.098  12.949  10.392  1.00  0.00    -0.188 N 
HETATM   36  C6  UNL     1      -0.889  13.397   9.309  1.00  0.00     0.172 A 
HETATM   37  N7  UNL     1      -1.799  14.491   9.413  1.00  0.00    -0.078 NA
HETATM   38  C7  UNL     1      -0.654  12.665   8.242  1.00  0.00     0.120 A 
HETATM   39  N8  UNL     1      -1.296  12.868   6.992  1.00  0.00    -0.096 NA
BRANCH  34  40
HETATM   40  N5  UNL     1       1.544  11.165  10.618  1.00  0.00    -0.249 N 
ATOM     41  H5  UNL     1       2.410  10.872  10.167  1.00  0.00     0.196 HD
BRANCH  40  42
HETATM   42  O1  UNL     1       1.334  10.819  11.930  1.00  0.00    -0.288 OA
ATOM     43  H1  UNL     1       2.010  10.895  12.593  1.00  0.00     0.244 HD
ENDBRANCH  40  42
ENDBRANCH  34  40
BRANCH  35  44
HETATM   44  O2  UNL     1      -0.035  13.425  11.667  1.00  0.00    -0.280 OA
ATOM     45  H2  UNL     1       0.784  13.520  12.137  1.00  0.00     0.245 HD
ENDBRANCH  35  44
ENDBRANCH  31  33
ENDBRANCH   6  31
BRANCH   1  46
HETATM   46  N1  UNL     1       1.060   5.463   8.677  1.00  0.00    -0.382 N 
ATOM     47  H12 UNL     1       0.238   4.866   8.587  1.00  0.00     0.157 HD
ATOM     48  H11 UNL     1       1.947   5.050   8.967  1.00  0.00     0.157 HD
ENDBRANCH   1  46
TORSDOF 14
ENDMDL
MODEL 4
REMARK VINA RESULT: -6.703695174      1.123      1.200
REMARK  14 active torsions:
REMARK  status: ('A' for Active; 'I' for Inactive)
REMARK    1  A    between atoms: N1_1  and  C1_4 
REMARK    2  A    between atoms: C3_9  and  N4_10 
REMARK    3  A    between atoms: N4_10  and  C4_12 
REMARK    4  A    between atoms: C5_13  and  N5_14 
REMARK    5  A    between atoms: N5_14  and  O1_16 
REMARK    6  A    between atoms: N6_18  and  O2_19 
REMARK    7  A    between atoms: C8_26  and  C9_27 
REMARK    8  A    between atoms: C9_27  and  O3_28 
REMARK    9  A    between atoms: C9_27  and  C10_30 
REMARK   10  A    between atoms: C10_30  and  C11_31 
REMARK   11  A    between atoms: C10_30  and  C12_34 
REMARK   12  A    between atoms: N10_36  and  C14_37 
REMARK   13  A    between atoms: C14_37  and  C15_38 
REMARK   14  A    between atoms: C15_38  and  O6_39 
ROOT
HETATM    1  C1  UNL     1       2.432   0.485  13.818  1.00  0.00     0.147 A 
HETATM    2  N2  UNL     1       1.133   0.244  13.874  1.00  0.00    -0.325 N 
ATOM      3  H2  UNL     1       0.780  -0.518  14.452  1.00  0.00     0.169 HD
HETATM    4  C2  UNL     1       0.275   1.007  13.165  1.00  0.00     0.163 A 
HETATM    5  N3  UNL     1      -1.093   0.703  13.248  1.00  0.00    -0.079 NA
HETATM    6  C3  UNL     1       0.726   2.049  12.371  1.00  0.00     0.157 A 
HETATM    7  N9  UNL     1       2.038   2.293  12.310  1.00  0.00    -0.261 N 
HETATM    8  C8  UNL     1       2.756   3.206  11.644  1.00  0.00     0.136 A 
HETATM    9  N13 UNL     1       4.063   2.959  11.987  1.00  0.00    -0.285 N 
ATOM     10  H13 UNL     1       4.865   3.489  11.644  1.00  0.00     0.188 HD
HETATM   11  N14 UNL     1       4.136   1.948  12.815  1.00  0.00    -0.281 N 
ATOM     12  H14 UNL     1       4.987   1.561  13.222  1.00  0.00     0.188 HD
HETATM   13  C16 UNL     1       2.892   1.517  13.029  1.00  0.00     0.174 A 
ENDROOT
BRANCH   8  14
HETATM   14  C9  UNL     1       2.315   4.247  10.693  1.00  0.00     0.208 C 
BRANCH  14  15
HETATM   15  O3  UNL     1       2.502   3.830   9.376  1.00  0.00    -0.387 OA
ATOM     16  H3  UNL     1       3.153   4.365   8.939  1.00  0.00     0.210 HD
ENDBRANCH  14  15
BRANCH  14  17
HETATM   17  C10 UNL     1       3.225   5.471  10.872  1.00  0.00     0.175 C 
BRANCH  17  18
HETATM   18  C11 UNL     1       2.875   6.166  12.152  1.00  0.00     0.186 C 
HETATM   19  O4  UNL     1       2.016   7.073  12.137  1.00  0.00    -0.647 OA
HETATM   20  O5  UNL     1       3.468   5.840  13.359  1.00  0.00    -0.647 OA
ENDBRANCH  17  18
BRANCH  17  21
HETATM   21  C12 UNL     1       3.034   6.446   9.770  1.00  0.00     0.058 A 
HETATM   22  C13 UNL     1       3.968   7.372   9.354  1.00  0.00     0.135 A 
HETATM   23  N10 UNL     1       3.447   8.097   8.321  1.00  0.00    -0.283 N 
HETATM   24  N11 UNL     1       2.229   7.620   8.122  1.00  0.00    -0.020 NA
HETATM   25  N12 UNL     1       1.968   6.635   8.979  1.00  0.00    -0.286 N 
ATOM     26  H12 UNL     1       1.096   6.108   9.027  1.00  0.00     0.184 HD
BRANCH  23  27
HETATM   27  C14 UNL     1       4.090   9.171   7.589  1.00  0.00     0.172 C 
BRANCH  27  28
HETATM   28  C15 UNL     1       5.145   9.867   8.413  1.00  0.00     0.185 C 
BRANCH  28  29
HETATM   29  O6  UNL     1       4.615  10.758   9.322  1.00  0.00    -0.399 OA
ATOM     30  H6  UNL     1       3.728  10.540   9.581  1.00  0.00     0.209 HD
ENDBRANCH  28  29
ENDBRANCH  27  28
ENDBRANCH  23  27
ENDBRANCH  17  21
ENDBRANCH  14  17
ENDBRANCH   8  14
BRANCH   6  31
HETATM   31  N4  UNL     1      -0.196   2.850  11.673  1.00  0.00    -0.334 N 
ATOM     32  H4  UNL     1      -0.242   2.753  10.659  1.00  0.00     0.168 HD
BRANCH  31  33
HETATM   33  C4  UNL     1      -0.983   3.695  12.232  1.00  0.00     0.110 A 
HETATM   34  C5  UNL     1      -0.775   4.709  13.239  1.00  0.00     0.183 A 
HETATM   35  N6  UNL     1      -2.053   5.330  13.463  1.00  0.00    -0.188 N 
HETATM   36  C6  UNL     1      -3.000   4.709  12.616  1.00  0.00     0.172 A 
HETATM   37  N7  UNL     1      -4.376   5.086  12.584  1.00  0.00    -0.078 NA
HETATM   38  C7  UNL     1      -2.422   3.770  11.901  1.00  0.00     0.120 A 
HETATM   39  N8  UNL     1      -3.112   2.965  10.955  1.00  0.00    -0.096 NA
BRANCH  34  40
HETATM   40  N5  UNL     1       0.335   4.993  13.804  1.00  0.00    -0.249 N 
ATOM     41  H5  UNL     1       1.068   4.284  13.830  1.00  0.00     0.196 HD
BRANCH  40  42
HETATM   42  O1  UNL     1       0.581   6.216  14.378  1.00  0.00    -0.288 OA
ATOM     43  H1  UNL     1       1.252   6.346  15.037  1.00  0.00     0.244 HD
ENDBRANCH  40  42
ENDBRANCH  34  40
BRANCH  35  44
HETATM   44  O2  UNL     1      -2.230   6.341  14.359  1.00  0.00    -0.280 OA
ATOM     45  H2  UNL     1      -1.939   7.229  14.191  1.00  0.00     0.245 HD
ENDBRANCH  35  44
ENDBRANCH  31  33
ENDBRANCH   6  31
BRANCH   1  46
HETATM   46  N1  UNL     1       3.253  -0.240  14.492  1.00  0.00    -0.382 N 
ATOM     47  H12 UNL     1       3.443  -1.204  14.217  1.00  0.00     0.157 HD
ATOM     48  H11 UNL     1       3.720   0.146  15.312  1.00  0.00     0.157 HD
ENDBRANCH   1  46
TORSDOF 14
ENDMDL
MODEL 5
REMARK VINA RESULT: -6.696480683      1.435      1.615
REMARK  14 active torsions:
REMARK  status: ('A' for Active; 'I' for Inactive)
REMARK    1  A    between atoms: N1_1  and  C1_4 
REMARK    2  A    between atoms: C3_9  and  N4_10 
REMARK    3  A    between atoms: N4_10  and  C4_12 
REMARK    4  A    between atoms: C5_13  and  N5_14 
REMARK    5  A    between atoms: N5_14  and  O1_16 
REMARK    6  A    between atoms: N6_18  and  O2_19 
REMARK    7  A    between atoms: C8_26  and  C9_27 
REMARK    8  A    between atoms: C9_27  and  O3_28 
REMARK    9  A    between atoms: C9_27  and  C10_30 
REMARK   10  A    between atoms: C10_30  and  C11_31 
REMARK   11  A    between atoms: C10_30  and  C12_34 
REMARK   12  A    between atoms: N10_36  and  C14_37 
REMARK   13  A    between atoms: C14_37  and  C15_38 
REMARK   14  A    between atoms: C15_38  and  O6_39 
ROOT
HETATM    1  C1  UNL     1       3.227   1.103  14.074  1.00  0.00     0.147 A 
HETATM    2  N2  UNL     1       2.092   0.824  14.694  1.00  0.00    -0.325 N 
ATOM      3  H2  UNL     1       2.091   0.197  15.498  1.00  0.00     0.169 HD
HETATM    4  C2  UNL     1       0.936   1.369  14.261  1.00  0.00     0.163 A 
HETATM    5  N3  UNL     1      -0.243   1.030  14.943  1.00  0.00    -0.079 NA
HETATM    6  C3  UNL     1       0.907   2.224  13.171  1.00  0.00     0.157 A 
HETATM    7  N9  UNL     1       2.051   2.506  12.541  1.00  0.00    -0.261 N 
HETATM    8  C8  UNL     1       2.333   3.277  11.484  1.00  0.00     0.136 A 
HETATM    9  N13 UNL     1       3.692   3.171  11.310  1.00  0.00    -0.285 N 
ATOM     10  H13 UNL     1       4.224   3.646  10.580  1.00  0.00     0.188 HD
HETATM   11  N14 UNL     1       4.208   2.377  12.214  1.00  0.00    -0.281 N 
ATOM     12  H14 UNL     1       5.193   2.130  12.308  1.00  0.00     0.188 HD
HETATM   13  C16 UNL     1       3.210   1.951  12.988  1.00  0.00     0.174 A 
ENDROOT
BRANCH   8  14
HETATM   14  C9  UNL     1       1.429   4.056  10.612  1.00  0.00     0.208 C 
BRANCH  14  15
HETATM   15  O3  UNL     1       0.931   3.266   9.577  1.00  0.00    -0.387 OA
ATOM     16  H3  UNL     1       1.592   2.661   9.264  1.00  0.00     0.210 HD
ENDBRANCH  14  15
BRANCH  14  17
HETATM   17  C10 UNL     1       2.256   5.156   9.932  1.00  0.00     0.175 C 
BRANCH  17  18
HETATM   18  C11 UNL     1       2.823   6.069  10.977  1.00  0.00     0.186 C 
HETATM   19  O4  UNL     1       4.052   6.284  10.995  1.00  0.00    -0.647 OA
HETATM   20  O5  UNL     1       2.031   6.687  11.929  1.00  0.00    -0.647 OA
ENDBRANCH  17  18
BRANCH  17  21
HETATM   21  C12 UNL     1       1.413   5.981   9.032  1.00  0.00     0.058 A 
HETATM   22  C13 UNL     1       1.878   6.962   8.182  1.00  0.00     0.135 A 
HETATM   23  N10 UNL     1       0.821   7.508   7.512  1.00  0.00    -0.283 N 
HETATM   24  N11 UNL     1      -0.254   6.871   7.949  1.00  0.00    -0.020 NA
HETATM   25  N12 UNL     1       0.084   5.958   8.857  1.00  0.00    -0.286 N 
ATOM     26  H12 UNL     1      -0.566   5.339   9.342  1.00  0.00     0.184 HD
BRANCH  23  27
HETATM   27  C14 UNL     1       0.860   8.569   6.523  1.00  0.00     0.172 C 
BRANCH  27  28
HETATM   28  C15 UNL     1       2.262   9.073   6.287  1.00  0.00     0.185 C 
BRANCH  28  29
HETATM   29  O6  UNL     1       2.665   8.946   4.975  1.00  0.00    -0.399 OA
ATOM     30  H6  UNL     1       3.583   9.152   4.848  1.00  0.00     0.209 HD
ENDBRANCH  28  29
ENDBRANCH  27  28
ENDBRANCH  23  27
ENDBRANCH  17  21
ENDBRANCH  14  17
ENDBRANCH   8  14
BRANCH   6  31
HETATM   31  N4  UNL     1      -0.308   2.806  12.766  1.00  0.00    -0.334 N 
ATOM     32  H4  UNL     1      -1.053   2.185  12.453  1.00  0.00     0.168 HD
BRANCH  31  33
HETATM   33  C4  UNL     1      -0.538   4.067  12.768  1.00  0.00     0.110 A 
HETATM   34  C5  UNL     1      -0.097   5.142  13.625  1.00  0.00     0.183 A 
HETATM   35  N6  UNL     1      -0.707   6.343  13.122  1.00  0.00    -0.188 N 
HETATM   36  C6  UNL     1      -1.491   6.001  11.996  1.00  0.00     0.172 A 
HETATM   37  N7  UNL     1      -2.238   6.962  11.251  1.00  0.00    -0.078 NA
HETATM   38  C7  UNL     1      -1.418   4.708  11.767  1.00  0.00     0.120 A 
HETATM   39  N8  UNL     1      -2.097   4.059  10.703  1.00  0.00    -0.096 NA
BRANCH  34  40
HETATM   40  N5  UNL     1       0.690   5.033  14.627  1.00  0.00    -0.249 N 
ATOM     41  H5  UNL     1       0.657   4.180  15.185  1.00  0.00     0.196 HD
BRANCH  40  42
HETATM   42  O1  UNL     1       1.578   6.018  14.980  1.00  0.00    -0.288 OA
ATOM     43  H1  UNL     1       1.358   6.710  15.591  1.00  0.00     0.244 HD
ENDBRANCH  40  42
ENDBRANCH  34  40
BRANCH  35  44
HETATM   44  O2  UNL     1      -0.508   7.563  13.695  1.00  0.00    -0.280 OA
ATOM     45  H2  UNL     1      -1.180   8.007  14.197  1.00  0.00     0.245 HD
ENDBRANCH  35  44
ENDBRANCH  31  33
ENDBRANCH   6  31
BRANCH   1  46
HETATM   46  N1  UNL     1       4.330   0.586  14.485  1.00  0.00    -0.382 N 
ATOM     47  H12 UNL     1       4.327  -0.173  15.166  1.00  0.00     0.157 HD
ATOM     48  H11 UNL     1       5.221   0.935  14.130  1.00  0.00     0.157 HD
ENDBRANCH   1  46
TORSDOF 14
ENDMDL
