MODEL 1
REMARK VINA RESULT: -7.868414977      0.000      0.000
REMARK  15 active torsions:
REMARK  status: ('A' for Active; 'I' for Inactive)
REMARK       I    between atoms: C1_2  and  N1_3 
REMARK    1  A    between atoms: C1_2  and  C3_14 
REMARK    2  A    between atoms: N1_3  and  N2_5 
REMARK    3  A    between atoms: N2_5  and  C2_7 
REMARK    4  A    between atoms: N9_19  and  C4_20 
REMARK    5  A    between atoms: C4_20  and  C5_21 
REMARK    6  A    between atoms: C5_21  and  O2_22 
REMARK    7  A    between atoms: C5_21  and  N10_24 
REMARK    8  A    between atoms: N10_24  and  C6_26 
REMARK    9  A    between atoms: C10_32  and  C11_33 
REMARK   10  A    between atoms: C11_33  and  O3_34 
REMARK   11  A    between atoms: C11_33  and  C12_36 
REMARK   12  A    between atoms: C12_36  and  O4_37 
REMARK   13  A    between atoms: C13_39  and  O5_40 
REMARK   14  A    between atoms: C15_43  and  O6_44 
REMARK   15  A    between atoms: C16_49  and  O8_50 
ROOT
HETATM    1  C5  UNL     1       5.171   4.396  13.756  1.00  0.00     0.240 C 
ENDROOT
BRANCH   1   2
HETATM    2  C4  UNL     1       4.528   5.502  12.943  1.00  0.00     0.206 C 
BRANCH   2   3
HETATM    3  N9  UNL     1       3.188   5.770  13.381  1.00  0.00    -0.250 N 
HETATM    4  N8  UNL     1       2.800   6.340  14.500  1.00  0.00    -0.238 N 
HETATM    5  N7  UNL     1       1.483   6.402  14.540  1.00  0.00    -0.277 N 
ATOM      6  H8  UNL     1       3.425   6.683  15.230  1.00  0.00     0.208 HD
HETATM    7  C3  UNL     1       0.985   5.843  13.386  1.00  0.00     0.171 A 
ATOM      8  H7  UNL     1       0.927   6.798  15.299  1.00  0.00     0.189 HD
HETATM    9  C16 UNL     1       2.079   5.446  12.657  1.00  0.00     0.193 A 
BRANCH   7  10
HETATM   10  C1  UNL     1      -0.404   5.693  13.035  1.00  0.00     0.292 C 
HETATM   11  O1  UNL     1      -0.689   5.758  11.774  1.00  0.00    -0.264 OA
HETATM   12  N1  UNL     1      -1.448   5.486  13.947  1.00  0.00    -0.262 N 
ATOM     13  H1  UNL     1      -1.237   5.425  14.943  1.00  0.00     0.190 HD
BRANCH  12  14
HETATM   14  N2  UNL     1      -2.767   5.360  13.522  1.00  0.00    -0.266 N 
ATOM     15  H2  UNL     1      -3.051   4.486  13.081  1.00  0.00     0.190 HD
BRANCH  14  16
HETATM   16  C2  UNL     1      -3.728   6.373  13.668  1.00  0.00     0.224 C 
HETATM   17  N3  UNL     1      -4.660   6.451  14.538  1.00  0.00    -0.255 N 
HETATM   18  N4  UNL     1      -5.406   7.612  14.348  1.00  0.00    -0.006 NA
ATOM     19  H3  UNL     1      -4.834   5.761  15.269  1.00  0.00     0.187 HD
HETATM   20  N5  UNL     1      -5.102   8.086  13.073  1.00  0.00    -0.006 NA
HETATM   21  N6  UNL     1      -3.838   7.548  12.834  1.00  0.00    -0.255 N 
ATOM     22  H6  UNL     1      -3.130   7.913  12.197  1.00  0.00     0.187 HD
ENDBRANCH  14  16
ENDBRANCH  12  14
ENDBRANCH   7  10
BRANCH   9  23
HETATM   23  O8  UNL     1       2.122   4.826  11.415  1.00  0.00    -0.343 OA
ATOM     24  H8  UNL     1       2.876   4.513  10.930  1.00  0.00     0.219 HD
ENDBRANCH   9  23
ENDBRANCH   2   3
ENDBRANCH   1   2
BRANCH   1  25
HETATM   25  O2  UNL     1       6.452   4.743  14.154  1.00  0.00    -0.375 OA
ATOM     26  H2  UNL     1       6.444   5.514  14.709  1.00  0.00     0.212 HD
ENDBRANCH   1  25
BRANCH   1  27
HETATM   27  N10 UNL     1       5.072   3.097  13.183  1.00  0.00    -0.327 N 
ATOM     28  H10 UNL     1       5.757   2.825  12.478  1.00  0.00     0.165 HD
BRANCH  27  29
HETATM   29  C6  UNL     1       4.073   2.164  13.541  1.00  0.00     0.246 A 
HETATM   30  N11 UNL     1       2.770   2.263  13.293  1.00  0.00    -0.305 N 
HETATM   31  C7  UNL     1       2.076   1.225  13.757  1.00  0.00     0.142 A 
ATOM     32  H11 UNL     1       2.348   3.050  12.800  1.00  0.00     0.171 HD
HETATM   33  C8  UNL     1       0.669   0.890  13.736  1.00  0.00     0.044 A 
HETATM   34  N12 UNL     1       3.052   0.447  14.326  1.00  0.00    -0.240 N 
HETATM   35  C9  UNL     1       0.255  -0.274  14.406  1.00  0.00     0.030 A 
HETATM   36  C15 UNL     1      -0.292   1.640  13.109  1.00  0.00     0.082 A 
HETATM   37  C10 UNL     1      -1.075  -0.630  14.420  1.00  0.00     0.007 A 
HETATM   38  C13 UNL     1      -2.043   0.127  13.788  1.00  0.00     0.077 A 
HETATM   39  C14 UNL     1      -1.650   1.244  13.144  1.00  0.00     0.074 A 
HETATM   40  O7  UNL     1       4.207   1.019  14.185  1.00  0.00    -0.199 OA
ATOM     41  H12 UNL     1       2.893  -0.447  14.790  1.00  0.00     0.196 HD
BRANCH  37  42
HETATM   42  C11 UNL     1      -1.521  -1.870  15.135  1.00  0.00     0.177 C 
BRANCH  42  43
HETATM   43  O3  UNL     1      -2.050  -2.736  14.159  1.00  0.00    -0.389 OA
ATOM     44  H3  UNL     1      -1.368  -3.362  13.947  1.00  0.00     0.210 HD
ENDBRANCH  42  43
BRANCH  42  45
HETATM   45  C12 UNL     1      -0.370  -2.561  15.840  1.00  0.00     0.200 C 
BRANCH  45  46
HETATM   46  O4  UNL     1      -0.614  -2.754  17.186  1.00  0.00    -0.398 OA
ATOM     47  H4  UNL     1      -0.335  -3.611  17.487  1.00  0.00     0.209 HD
ENDBRANCH  45  46
ENDBRANCH  42  45
ENDBRANCH  37  42
BRANCH  38  48
HETATM   48  O5  UNL     1      -3.366  -0.315  13.858  1.00  0.00    -0.360 OA
ATOM     49  H5  UNL     1      -4.049   0.339  13.953  1.00  0.00     0.217 HD
ENDBRANCH  38  48
BRANCH  36  50
HETATM   50  O6  UNL     1      -0.022   2.795  12.421  1.00  0.00    -0.360 OA
ATOM     51  H6  UNL     1       0.281   3.594  12.837  1.00  0.00     0.217 HD
ENDBRANCH  36  50
ENDBRANCH  27  29
ENDBRANCH   1  27
TORSDOF 15
ENDMDL
MODEL 2
REMARK VINA RESULT: -7.841041299      2.127      6.104
REMARK  15 active torsions:
REMARK  status: ('A' for Active; 'I' for Inactive)
REMARK       I    between atoms: C1_2  and  N1_3 
REMARK    1  A    between atoms: C1_2  and  C3_14 
REMARK    2  A    between atoms: N1_3  and  N2_5 
REMARK    3  A    between atoms: N2_5  and  C2_7 
REMARK    4  A    between atoms: N9_19  and  C4_20 
REMARK    5  A    between atoms: C4_20  and  C5_21 
REMARK    6  A    between atoms: C5_21  and  O2_22 
REMARK    7  A    between atoms: C5_21  and  N10_24 
REMARK    8  A    between atoms: N10_24  and  C6_26 
REMARK    9  A    between atoms: C10_32  and  C11_33 
REMARK   10  A    between atoms: C11_33  and  O3_34 
REMARK   11  A    between atoms: C11_33  and  C12_36 
REMARK   12  A    between atoms: C12_36  and  O4_37 
REMARK   13  A    between atoms: C13_39  and  O5_40 
REMARK   14  A    between atoms: C15_43  and  O6_44 
REMARK   15  A    between atoms: C16_49  and  O8_50 
ROOT
HETATM    1  C5  UNL     1      -3.734   5.038  12.135  1.00  0.00     0.240 C 
ENDROOT
BRANCH   1   2
HETATM    2  C4  UNL     1      -2.742   5.993  11.502  1.00  0.00     0.206 C 
BRANCH   2   3
HETATM    3  N9  UNL     1      -1.620   6.236  12.361  1.00  0.00    -0.250 N 
HETATM    4  N8  UNL     1      -1.445   7.227  13.207  1.00  0.00    -0.238 N 
HETATM    5  N7  UNL     1      -0.278   7.104  13.810  1.00  0.00    -0.277 N 
ATOM      6  H8  UNL     1      -2.113   7.980  13.372  1.00  0.00     0.208 HD
HETATM    7  C3  UNL     1       0.342   5.972  13.333  1.00  0.00     0.171 A 
ATOM      8  H7  UNL     1       0.100   7.741  14.512  1.00  0.00     0.189 HD
HETATM    9  C16 UNL     1      -0.521   5.429  12.414  1.00  0.00     0.193 A 
BRANCH   7  10
HETATM   10  C1  UNL     1       1.640   5.480  13.714  1.00  0.00     0.292 C 
HETATM   11  O1  UNL     1       2.060   5.817  14.891  1.00  0.00    -0.264 OA
HETATM   12  N1  UNL     1       2.467   4.679  12.914  1.00  0.00    -0.262 N 
ATOM     13  H1  UNL     1       2.146   4.401  11.986  1.00  0.00     0.190 HD
BRANCH  12  14
HETATM   14  N2  UNL     1       3.715   4.254  13.358  1.00  0.00    -0.266 N 
ATOM     15  H2  UNL     1       4.413   4.963  13.582  1.00  0.00     0.190 HD
BRANCH  14  16
HETATM   16  C2  UNL     1       4.064   2.904  13.513  1.00  0.00     0.224 C 
HETATM   17  N3  UNL     1       3.560   1.889  12.924  1.00  0.00    -0.255 N 
HETATM   18  N4  UNL     1       4.181   0.719  13.353  1.00  0.00    -0.006 NA
ATOM     19  H3  UNL     1       2.809   1.930  12.235  1.00  0.00     0.187 HD
HETATM   20  N5  UNL     1       4.872   1.031  14.522  1.00  0.00    -0.006 NA
HETATM   21  N6  UNL     1       5.093   2.402  14.397  1.00  0.00    -0.255 N 
ATOM     22  H6  UNL     1       5.834   2.945  14.840  1.00  0.00     0.187 HD
ENDBRANCH  14  16
ENDBRANCH  12  14
ENDBRANCH   7  10
BRANCH   9  23
HETATM   23  O8  UNL     1      -0.369   4.281  11.646  1.00  0.00    -0.343 OA
ATOM     24  H8  UNL     1      -0.959   3.915  10.998  1.00  0.00     0.219 HD
ENDBRANCH   9  23
ENDBRANCH   2   3
ENDBRANCH   1   2
BRANCH   1  25
HETATM   25  O2  UNL     1      -3.662   5.080  13.518  1.00  0.00    -0.375 OA
ATOM     26  H2  UNL     1      -4.138   5.825  13.866  1.00  0.00     0.212 HD
ENDBRANCH   1  25
BRANCH   1  27
HETATM   27  N10 UNL     1      -3.728   3.722  11.593  1.00  0.00    -0.327 N 
ATOM     28  H10 UNL     1      -4.019   3.597  10.623  1.00  0.00     0.165 HD
BRANCH  27  29
HETATM   29  C6  UNL     1      -3.341   2.580  12.328  1.00  0.00     0.246 A 
HETATM   30  N11 UNL     1      -2.147   2.351  12.867  1.00  0.00    -0.305 N 
HETATM   31  C7  UNL     1      -2.082   1.180  13.500  1.00  0.00     0.142 A 
ATOM     32  H11 UNL     1      -1.364   3.002  12.803  1.00  0.00     0.171 HD
HETATM   33  C8  UNL     1      -1.024   0.504  14.219  1.00  0.00     0.044 A 
HETATM   34  N12 UNL     1      -3.345   0.676  13.320  1.00  0.00    -0.240 N 
HETATM   35  C9  UNL     1      -1.277  -0.789  14.707  1.00  0.00     0.030 A 
HETATM   36  C15 UNL     1       0.215   1.042  14.451  1.00  0.00     0.082 A 
HETATM   37  C10 UNL     1      -0.298  -1.476  15.390  1.00  0.00     0.007 A 
HETATM   38  C13 UNL     1       0.951  -0.933  15.624  1.00  0.00     0.077 A 
HETATM   39  C14 UNL     1       1.197   0.307  15.158  1.00  0.00     0.074 A 
HETATM   40  O7  UNL     1      -4.058   1.513  12.632  1.00  0.00    -0.199 OA
ATOM     41  H12 UNL     1      -3.674  -0.222  13.674  1.00  0.00     0.196 HD
BRANCH  37  42
HETATM   42  C11 UNL     1      -0.563  -2.857  15.910  1.00  0.00     0.177 C 
BRANCH  42  43
HETATM   43  O3  UNL     1      -0.497  -2.784  17.315  1.00  0.00    -0.389 OA
ATOM     44  H3  UNL     1      -0.096  -3.592  17.614  1.00  0.00     0.210 HD
ENDBRANCH  42  43
BRANCH  42  45
HETATM   45  C12 UNL     1      -1.933  -3.361  15.503  1.00  0.00     0.200 C 
BRANCH  45  46
HETATM   46  O4  UNL     1      -2.548  -4.089  16.504  1.00  0.00    -0.398 OA
ATOM     47  H4  UNL     1      -3.362  -4.486  16.218  1.00  0.00     0.209 HD
ENDBRANCH  45  46
ENDBRANCH  42  45
ENDBRANCH  37  42
BRANCH  38  48
HETATM   48  O5  UNL     1       1.878  -1.706  16.326  1.00  0.00    -0.360 OA
ATOM     49  H5  UNL     1       2.048  -1.481  17.234  1.00  0.00     0.217 HD
ENDBRANCH  38  48
BRANCH  36  50
HETATM   50  O6  UNL     1       0.588   2.293  14.030  1.00  0.00    -0.360 OA
ATOM     51  H6  UNL     1       1.480   2.617  14.076  1.00  0.00     0.217 HD
ENDBRANCH  36  50
ENDBRANCH  27  29
ENDBRANCH   1  27
TORSDOF 15
ENDMDL
MODEL 3
REMARK VINA RESULT: -7.628284039      2.212      5.994
REMARK  15 active torsions:
REMARK  status: ('A' for Active; 'I' for Inactive)
REMARK       I    between atoms: C1_2  and  N1_3 
REMARK    1  A    between atoms: C1_2  and  C3_14 
REMARK    2  A    between atoms: N1_3  and  N2_5 
REMARK    3  A    between atoms: N2_5  and  C2_7 
REMARK    4  A    between atoms: N9_19  and  C4_20 
REMARK    5  A    between atoms: C4_20  and  C5_21 
REMARK    6  A    between atoms: C5_21  and  O2_22 
REMARK    7  A    between atoms: C5_21  and  N10_24 
REMARK    8  A    between atoms: N10_24  and  C6_26 
REMARK    9  A    between atoms: C10_32  and  C11_33 
REMARK   10  A    between atoms: C11_33  and  O3_34 
REMARK   11  A    between atoms: C11_33  and  C12_36 
REMARK   12  A    between atoms: C12_36  and  O4_37 
REMARK   13  A    between atoms: C13_39  and  O5_40 
REMARK   14  A    between atoms: C15_43  and  O6_44 
REMARK   15  A    between atoms: C16_49  and  O8_50 
ROOT
HETATM    1  C5  UNL     1      -4.414   3.969  10.614  1.00  0.00     0.240 C 
ENDROOT
BRANCH   1   2
HETATM    2  C4  UNL     1      -4.242   5.464  10.795  1.00  0.00     0.206 C 
BRANCH   2   3
HETATM    3  N9  UNL     1      -3.430   5.768  11.939  1.00  0.00    -0.250 N 
HETATM    4  N8  UNL     1      -3.818   5.962  13.179  1.00  0.00    -0.238 N 
HETATM    5  N7  UNL     1      -2.773   6.225  13.941  1.00  0.00    -0.277 N 
ATOM      6  H8  UNL     1      -4.783   5.917  13.505  1.00  0.00     0.208 HD
HETATM    7  C3  UNL     1      -1.644   6.200  13.156  1.00  0.00     0.171 A 
ATOM      8  H7  UNL     1      -2.799   6.415  14.943  1.00  0.00     0.189 HD
HETATM    9  C16 UNL     1      -2.075   5.907  11.886  1.00  0.00     0.193 A 
BRANCH   7  10
HETATM   10  C1  UNL     1      -0.293   6.453  13.588  1.00  0.00     0.292 C 
HETATM   11  O1  UNL     1       0.236   7.568  13.200  1.00  0.00    -0.264 OA
HETATM   12  N1  UNL     1       0.474   5.589  14.383  1.00  0.00    -0.262 N 
ATOM     13  H1  UNL     1       0.067   4.709  14.700  1.00  0.00     0.190 HD
BRANCH  12  14
HETATM   14  N2  UNL     1       1.778   5.907  14.747  1.00  0.00    -0.266 N 
ATOM     15  H2  UNL     1       1.931   6.352  15.652  1.00  0.00     0.190 HD
BRANCH  14  16
HETATM   16  C2  UNL     1       2.895   5.649  13.936  1.00  0.00     0.224 C 
HETATM   17  N3  UNL     1       4.018   5.148  14.282  1.00  0.00    -0.255 N 
HETATM   18  N4  UNL     1       4.867   5.053  13.183  1.00  0.00    -0.006 NA
ATOM     19  H3  UNL     1       4.258   4.858  15.230  1.00  0.00     0.187 HD
HETATM   20  N5  UNL     1       4.329   5.861  12.183  1.00  0.00    -0.006 NA
HETATM   21  N6  UNL     1       2.976   5.911  12.517  1.00  0.00    -0.255 N 
ATOM     22  H6  UNL     1       2.197   6.095  11.885  1.00  0.00     0.187 HD
ENDBRANCH  14  16
ENDBRANCH  12  14
ENDBRANCH   7  10
BRANCH   9  23
HETATM   23  O8  UNL     1      -1.329   5.767  10.722  1.00  0.00    -0.343 OA
ATOM     24  H8  UNL     1      -1.574   5.355   9.903  1.00  0.00     0.219 HD
ENDBRANCH   9  23
ENDBRANCH   2   3
ENDBRANCH   1   2
BRANCH   1  25
HETATM   25  O2  UNL     1      -5.098   3.408  11.680  1.00  0.00    -0.375 OA
ATOM     26  H2  UNL     1      -4.838   2.505  11.821  1.00  0.00     0.212 HD
ENDBRANCH   1  25
BRANCH   1  27
HETATM   27  N10 UNL     1      -3.230   3.269  10.250  1.00  0.00    -0.327 N 
ATOM     28  H10 UNL     1      -2.903   3.339   9.287  1.00  0.00     0.165 HD
BRANCH  27  29
HETATM   29  C6  UNL     1      -2.483   2.481  11.155  1.00  0.00     0.246 A 
HETATM   30  N11 UNL     1      -1.181   2.578  11.403  1.00  0.00    -0.305 N 
HETATM   31  C7  UNL     1      -0.760   1.694  12.307  1.00  0.00     0.142 A 
ATOM     32  H11 UNL     1      -0.569   3.257  10.950  1.00  0.00     0.171 HD
HETATM   33  C8  UNL     1       0.536   1.414  12.885  1.00  0.00     0.044 A 
HETATM   34  N12 UNL     1      -1.912   1.019  12.618  1.00  0.00    -0.240 N 
HETATM   35  C9  UNL     1       0.645   0.331  13.774  1.00  0.00     0.030 A 
HETATM   36  C15 UNL     1       1.671   2.136  12.617  1.00  0.00     0.082 A 
HETATM   37  C10 UNL     1       1.860   0.022  14.344  1.00  0.00     0.007 A 
HETATM   38  C13 UNL     1       3.003   0.749  14.073  1.00  0.00     0.077 A 
HETATM   39  C14 UNL     1       2.903   1.789  13.222  1.00  0.00     0.074 A 
HETATM   40  O7  UNL     1      -2.902   1.499  11.931  1.00  0.00    -0.199 OA
ATOM     41  H12 UNL     1      -1.981   0.254  13.290  1.00  0.00     0.196 HD
BRANCH  37  42
HETATM   42  C11 UNL     1       1.981  -1.135  15.291  1.00  0.00     0.177 C 
BRANCH  42  43
HETATM   43  O3  UNL     1       2.111  -0.592  16.583  1.00  0.00    -0.389 OA
ATOM     44  H3  UNL     1       2.004  -1.310  17.196  1.00  0.00     0.210 HD
ENDBRANCH  42  43
BRANCH  42  45
HETATM   45  C12 UNL     1       0.758  -2.030  15.249  1.00  0.00     0.200 C 
BRANCH  45  46
HETATM   46  O4  UNL     1       0.217  -2.245  16.502  1.00  0.00    -0.398 OA
ATOM     47  H4  UNL     1      -0.657  -1.885  16.587  1.00  0.00     0.209 HD
ENDBRANCH  45  46
ENDBRANCH  42  45
ENDBRANCH  37  42
BRANCH  38  48
HETATM   48  O5  UNL     1       4.189   0.359  14.699  1.00  0.00    -0.360 OA
ATOM     49  H5  UNL     1       4.526  -0.510  14.512  1.00  0.00     0.217 HD
ENDBRANCH  38  48
BRANCH  36  50
HETATM   50  O6  UNL     1       1.700   3.214  11.771  1.00  0.00    -0.360 OA
ATOM     51  H6  UNL     1       1.272   4.041  11.961  1.00  0.00     0.217 HD
ENDBRANCH  36  50
ENDBRANCH  27  29
ENDBRANCH   1  27
TORSDOF 15
ENDMDL
MODEL 4
REMARK VINA RESULT: -7.542005331      0.958      1.381
REMARK  15 active torsions:
REMARK  status: ('A' for Active; 'I' for Inactive)
REMARK       I    between atoms: C1_2  and  N1_3 
REMARK    1  A    between atoms: C1_2  and  C3_14 
REMARK    2  A    between atoms: N1_3  and  N2_5 
REMARK    3  A    between atoms: N2_5  and  C2_7 
REMARK    4  A    between atoms: N9_19  and  C4_20 
REMARK    5  A    between atoms: C4_20  and  C5_21 
REMARK    6  A    between atoms: C5_21  and  O2_22 
REMARK    7  A    between atoms: C5_21  and  N10_24 
REMARK    8  A    between atoms: N10_24  and  C6_26 
REMARK    9  A    between atoms: C10_32  and  C11_33 
REMARK   10  A    between atoms: C11_33  and  O3_34 
REMARK   11  A    between atoms: C11_33  and  C12_36 
REMARK   12  A    between atoms: C12_36  and  O4_37 
REMARK   13  A    between atoms: C13_39  and  O5_40 
REMARK   14  A    between atoms: C15_43  and  O6_44 
REMARK   15  A    between atoms: C16_49  and  O8_50 
ROOT
HETATM    1  C5  UNL     1       5.096   4.470  13.662  1.00  0.00     0.240 C 
ENDROOT
BRANCH   1   2
HETATM    2  C4  UNL     1       4.367   5.503  12.826  1.00  0.00     0.206 C 
BRANCH   2   3
HETATM    3  N9  UNL     1       3.051   5.761  13.335  1.00  0.00    -0.250 N 
HETATM    4  N8  UNL     1       2.705   6.101  14.556  1.00  0.00    -0.238 N 
HETATM    5  N7  UNL     1       1.396   6.243  14.631  1.00  0.00    -0.277 N 
ATOM      6  H8  UNL     1       3.354   6.236  15.332  1.00  0.00     0.208 HD
HETATM    7  C3  UNL     1       0.858   5.981  13.392  1.00  0.00     0.171 A 
ATOM      8  H7  UNL     1       0.871   6.502  15.466  1.00  0.00     0.189 HD
HETATM    9  C16 UNL     1       1.920   5.677  12.577  1.00  0.00     0.193 A 
BRANCH   7  10
HETATM   10  C1  UNL     1      -0.539   6.004  13.041  1.00  0.00     0.292 C 
HETATM   11  O1  UNL     1      -0.819   5.863  11.785  1.00  0.00    -0.264 OA
HETATM   12  N1  UNL     1      -1.596   6.169  13.947  1.00  0.00    -0.262 N 
ATOM     13  H1  UNL     1      -1.390   6.276  14.941  1.00  0.00     0.190 HD
BRANCH  12  14
HETATM   14  N2  UNL     1      -2.920   6.189  13.520  1.00  0.00    -0.266 N 
ATOM     15  H2  UNL     1      -3.494   6.995  13.768  1.00  0.00     0.190 HD
BRANCH  14  16
HETATM   16  C2  UNL     1      -3.507   5.161  12.766  1.00  0.00     0.224 C 
HETATM   17  N3  UNL     1      -3.940   4.033  13.181  1.00  0.00    -0.255 N 
HETATM   18  N4  UNL     1      -4.452   3.290  12.120  1.00  0.00    -0.006 NA
ATOM     19  H3  UNL     1      -3.916   3.721  14.152  1.00  0.00     0.187 HD
HETATM   20  N5  UNL     1      -3.986   3.881  10.947  1.00  0.00    -0.006 NA
HETATM   21  N6  UNL     1      -3.736   5.196  11.340  1.00  0.00    -0.255 N 
ATOM     22  H6  UNL     1      -3.719   6.020  10.739  1.00  0.00     0.187 HD
ENDBRANCH  14  16
ENDBRANCH  12  14
ENDBRANCH   7  10
BRANCH   9  23
HETATM   23  O8  UNL     1       1.917   5.338  11.230  1.00  0.00    -0.343 OA
ATOM     24  H8  UNL     1       1.298   4.798  10.752  1.00  0.00     0.219 HD
ENDBRANCH   9  23
ENDBRANCH   2   3
ENDBRANCH   1   2
BRANCH   1  25
HETATM   25  O2  UNL     1       6.372   4.897  13.991  1.00  0.00    -0.375 OA
ATOM     26  H2  UNL     1       6.563   4.742  14.909  1.00  0.00     0.212 HD
ENDBRANCH   1  25
BRANCH   1  27
HETATM   27  N10 UNL     1       5.041   3.142  13.154  1.00  0.00    -0.327 N 
ATOM     28  H10 UNL     1       5.747   2.854  12.476  1.00  0.00     0.165 HD
BRANCH  27  29
HETATM   29  C6  UNL     1       4.059   2.202  13.539  1.00  0.00     0.246 A 
HETATM   30  N11 UNL     1       2.750   2.290  13.323  1.00  0.00    -0.305 N 
HETATM   31  C7  UNL     1       2.076   1.247  13.808  1.00  0.00     0.142 A 
ATOM     32  H11 UNL     1       2.309   3.070  12.837  1.00  0.00     0.171 HD
HETATM   33  C8  UNL     1       0.671   0.901  13.823  1.00  0.00     0.044 A 
HETATM   34  N12 UNL     1       3.072   0.480  14.356  1.00  0.00    -0.240 N 
HETATM   35  C9  UNL     1       0.284  -0.264  14.508  1.00  0.00     0.030 A 
HETATM   36  C15 UNL     1      -0.311   1.640  13.217  1.00  0.00     0.082 A 
HETATM   37  C10 UNL     1      -1.042  -0.631  14.556  1.00  0.00     0.007 A 
HETATM   38  C13 UNL     1      -2.032   0.115  13.944  1.00  0.00     0.077 A 
HETATM   39  C14 UNL     1      -1.664   1.232  13.287  1.00  0.00     0.074 A 
HETATM   40  O7  UNL     1       4.219   1.062  14.185  1.00  0.00    -0.199 OA
ATOM     41  H12 UNL     1       2.932  -0.413  14.828  1.00  0.00     0.196 HD
BRANCH  37  42
HETATM   42  C11 UNL     1      -1.460  -1.872  15.287  1.00  0.00     0.177 C 
BRANCH  42  43
HETATM   43  O3  UNL     1      -1.999  -2.749  14.327  1.00  0.00    -0.389 OA
ATOM     44  H3  UNL     1      -1.810  -3.632  14.624  1.00  0.00     0.210 HD
ENDBRANCH  42  43
BRANCH  42  45
HETATM   45  C12 UNL     1      -0.287  -2.546  15.973  1.00  0.00     0.200 C 
BRANCH  45  46
HETATM   46  O4  UNL     1      -0.513  -2.759  17.319  1.00  0.00    -0.398 OA
ATOM     47  H4  UNL     1       0.158  -3.299  17.719  1.00  0.00     0.209 HD
ENDBRANCH  45  46
ENDBRANCH  42  45
ENDBRANCH  37  42
BRANCH  38  48
HETATM   48  O5  UNL     1      -3.349  -0.338  14.049  1.00  0.00    -0.360 OA
ATOM     49  H5  UNL     1      -3.493  -1.274  14.121  1.00  0.00     0.217 HD
ENDBRANCH  38  48
BRANCH  36  50
HETATM   50  O6  UNL     1      -0.067   2.794  12.517  1.00  0.00    -0.360 OA
ATOM     51  H6  UNL     1      -0.320   2.921  11.610  1.00  0.00     0.217 HD
ENDBRANCH  36  50
ENDBRANCH  27  29
ENDBRANCH   1  27
TORSDOF 15
ENDMDL
MODEL 5
REMARK VINA RESULT: -7.539580794      4.382      7.315
REMARK  15 active torsions:
REMARK  status: ('A' for Active; 'I' for Inactive)
REMARK       I    between atoms: C1_2  and  N1_3 
REMARK    1  A    between atoms: C1_2  and  C3_14 
REMARK    2  A    between atoms: N1_3  and  N2_5 
REMARK    3  A    between atoms: N2_5  and  C2_7 
REMARK    4  A    between atoms: N9_19  and  C4_20 
REMARK    5  A    between atoms: C4_20  and  C5_21 
REMARK    6  A    between atoms: C5_21  and  O2_22 
REMARK    7  A    between atoms: C5_21  and  N10_24 
REMARK    8  A    between atoms: N10_24  and  C6_26 
REMARK    9  A    between atoms: C10_32  and  C11_33 
REMARK   10  A    between atoms: C11_33  and  O3_34 
REMARK   11  A    between atoms: C11_33  and  C12_36 
REMARK   12  A    between atoms: C12_36  and  O4_37 
REMARK   13  A    between atoms: C13_39  and  O5_40 
REMARK   14  A    between atoms: C15_43  and  O6_44 
REMARK   15  A    between atoms: C16_49  and  O8_50 
ROOT
HETATM    1  C5  UNL     1      -1.222   5.344  10.192  1.00  0.00     0.240 C 
ENDROOT
BRANCH   1   2
HETATM    2  C4  UNL     1      -0.019   4.814   9.438  1.00  0.00     0.206 C 
BRANCH   2   3
HETATM    3  N9  UNL     1       0.801   5.879   8.935  1.00  0.00    -0.250 N 
HETATM    4  N8  UNL     1       0.631   6.586   7.841  1.00  0.00    -0.238 N 
HETATM    5  N7  UNL     1       1.602   7.470   7.720  1.00  0.00    -0.277 N 
ATOM      6  H8  UNL     1      -0.140   6.469   7.182  1.00  0.00     0.208 HD
HETATM    7  C3  UNL     1       2.452   7.333   8.793  1.00  0.00     0.171 A 
ATOM      8  H7  UNL     1       1.705   8.142   6.959  1.00  0.00     0.189 HD
HETATM    9  C16 UNL     1       1.931   6.320   9.558  1.00  0.00     0.193 A 
BRANCH   7  10
HETATM   10  C1  UNL     1       3.651   8.092   9.040  1.00  0.00     0.292 C 
HETATM   11  O1  UNL     1       4.666   7.431   9.495  1.00  0.00    -0.264 OA
HETATM   12  N1  UNL     1       3.792   9.470   8.826  1.00  0.00    -0.262 N 
ATOM     13  H1  UNL     1       3.002  10.003   8.461  1.00  0.00     0.190 HD
BRANCH  12  14
HETATM   14  N2  UNL     1       4.987  10.127   9.101  1.00  0.00    -0.266 N 
ATOM     15  H2  UNL     1       5.076  10.615   9.992  1.00  0.00     0.190 HD
BRANCH  14  16
HETATM   16  C2  UNL     1       6.078  10.155   8.217  1.00  0.00     0.224 C 
HETATM   17  N3  UNL     1       6.507  11.143   7.530  1.00  0.00    -0.255 N 
HETATM   18  N4  UNL     1       7.613  10.765   6.773  1.00  0.00    -0.006 NA
ATOM     19  H3  UNL     1       6.097  12.077   7.535  1.00  0.00     0.187 HD
HETATM   20  N5  UNL     1       7.637   9.371   6.757  1.00  0.00    -0.006 NA
HETATM   21  N6  UNL     1       6.940   9.035   7.917  1.00  0.00    -0.255 N 
ATOM     22  H6  UNL     1       7.023   8.169   8.449  1.00  0.00     0.187 HD
ENDBRANCH  14  16
ENDBRANCH  12  14
ENDBRANCH   7  10
BRANCH   9  23
HETATM   23  O8  UNL     1       2.412   5.791  10.750  1.00  0.00    -0.343 OA
ATOM     24  H8  UNL     1       2.177   4.977  11.179  1.00  0.00     0.219 HD
ENDBRANCH   9  23
ENDBRANCH   2   3
ENDBRANCH   1   2
BRANCH   1  25
HETATM   25  O2  UNL     1      -1.615   6.582   9.708  1.00  0.00    -0.375 OA
ATOM     26  H2  UNL     1      -2.455   6.529   9.266  1.00  0.00     0.212 HD
ENDBRANCH   1  25
BRANCH   1  27
HETATM   27  N10 UNL     1      -1.116   5.282  11.610  1.00  0.00    -0.327 N 
ATOM     28  H10 UNL     1      -1.460   6.071  12.156  1.00  0.00     0.165 HD
BRANCH  27  29
HETATM   29  C6  UNL     1      -0.558   4.182  12.300  1.00  0.00     0.246 A 
HETATM   30  N11 UNL     1       0.735   3.953  12.513  1.00  0.00    -0.305 N 
HETATM   31  C7  UNL     1       0.953   2.829  13.194  1.00  0.00     0.142 A 
ATOM     32  H11 UNL     1       1.478   4.571  12.190  1.00  0.00     0.171 HD
HETATM   33  C8  UNL     1       2.158   2.170  13.650  1.00  0.00     0.044 A 
HETATM   34  N12 UNL     1      -0.317   2.355  13.400  1.00  0.00    -0.240 N 
HETATM   35  C9  UNL     1       2.031   0.924  14.287  1.00  0.00     0.030 A 
HETATM   36  C15 UNL     1       3.421   2.682  13.497  1.00  0.00     0.082 A 
HETATM   37  C10 UNL     1       3.150   0.256  14.732  1.00  0.00     0.007 A 
HETATM   38  C13 UNL     1       4.422   0.772  14.577  1.00  0.00     0.077 A 
HETATM   39  C14 UNL     1       4.548   1.967  13.968  1.00  0.00     0.074 A 
HETATM   40  O7  UNL     1      -1.179   3.165  12.867  1.00  0.00    -0.199 OA
ATOM     41  H12 UNL     1      -0.549   1.496  13.897  1.00  0.00     0.196 HD
BRANCH  37  42
HETATM   42  C11 UNL     1       3.019  -1.076  15.409  1.00  0.00     0.177 C 
BRANCH  42  43
HETATM   43  O3  UNL     1       3.273  -0.864  16.778  1.00  0.00    -0.389 OA
ATOM     44  H3  UNL     1       3.429  -1.718  17.164  1.00  0.00     0.210 HD
ENDBRANCH  42  43
BRANCH  42  45
HETATM   45  C12 UNL     1       1.629  -1.658  15.247  1.00  0.00     0.200 C 
BRANCH  45  46
HETATM   46  O4  UNL     1       0.914  -1.659  16.430  1.00  0.00    -0.398 OA
ATOM     47  H4  UNL     1       0.352  -2.420  16.514  1.00  0.00     0.209 HD
ENDBRANCH  45  46
ENDBRANCH  42  45
ENDBRANCH  37  42
BRANCH  38  48
HETATM   48  O5  UNL     1       5.495   0.021  15.062  1.00  0.00    -0.360 OA
ATOM     49  H5  UNL     1       6.372   0.280  14.804  1.00  0.00     0.217 HD
ENDBRANCH  38  48
BRANCH  36  50
HETATM   50  O6  UNL     1       3.682   3.887  12.896  1.00  0.00    -0.360 OA
ATOM     51  H6  UNL     1       4.242   4.553  13.277  1.00  0.00     0.217 HD
ENDBRANCH  36  50
ENDBRANCH  27  29
ENDBRANCH   1  27
TORSDOF 15
ENDMDL
