MODEL 1
REMARK VINA RESULT: -7.836259239      0.000      0.000
REMARK  11 active torsions:
REMARK  status: ('A' for Active; 'I' for Inactive)
REMARK    1  A    between atoms: C2_7  and  N3_8 
REMARK    2  A    between atoms: N4_10  and  N5_12 
REMARK       I    between atoms: N5_12  and  C3_13 
REMARK       I    between atoms: N5_12  and  C10_32 
REMARK    3  A    between atoms: C3_13  and  O2_15 
REMARK    4  A    between atoms: O2_15  and  C4_16 
REMARK    5  A    between atoms: C4_16  and  C5_17 
REMARK    6  A    between atoms: C5_17  and  O3_18 
REMARK    7  A    between atoms: C5_17  and  N6_20 
REMARK    8  A    between atoms: N6_20  and  C6_22 
REMARK       I    between atoms: C10_32  and  N9_33 
REMARK       I    between atoms: C10_32  and  N10_37 
REMARK    9  A    between atoms: N12_43  and  N13_44 
REMARK   10  A    between atoms: N14_46  and  C11_48 
REMARK   11  A    between atoms: N17_54  and  N18_55 
ROOT
HETATM    1  N5  UNL     1      -2.901   1.432  12.895  1.00  0.00    -0.165 N 
HETATM    2  C3  UNL     1      -3.292   0.276  13.657  1.00  0.00     0.386 C 
HETATM    3  O1  UNL     1      -4.357  -0.342  13.354  1.00  0.00    -0.236 OA
HETATM    4  C10 UNL     1      -3.722   1.879  11.795  1.00  0.00     0.506 C 
HETATM    5  N9  UNL     1      -5.035   2.280  12.295  1.00  0.00    -0.031 N 
ATOM      6  H91 UNL     1      -5.615   2.596  11.518  1.00  0.00     0.279 HD
ATOM      7  H92 UNL     1      -4.967   2.980  13.034  1.00  0.00     0.279 HD
ATOM      8  H93 UNL     1      -5.483   1.540  12.834  1.00  0.00     0.279 HD
HETATM    9  N10 UNL     1      -3.893   0.852  10.795  1.00  0.00    -0.031 N 
ATOM     10 1H10 UNL     1      -4.473   1.167  10.018  1.00  0.00     0.279 HD
ATOM     11 2H10 UNL     1      -4.260  -0.007  11.206  1.00  0.00     0.279 HD
ATOM     12 3H10 UNL     1      -2.992   0.502  10.468  1.00  0.00     0.279 HD
ENDROOT
BRANCH   1  13
HETATM   13  N4  UNL     1      -1.735   2.125  13.214  1.00  0.00    -0.218 N 
HETATM   14  N3  UNL     1      -1.611   3.365  13.311  1.00  0.00    -0.115 N 
ATOM     15  H3  UNL     1      -2.408   3.982  13.152  1.00  0.00     0.207 HD
ATOM     16  H4  UNL     1      -0.900   1.564  13.383  1.00  0.00     0.209 HD
BRANCH  14  17
HETATM   17  C2  UNL     1      -0.334   3.898  13.648  1.00  0.00     0.729 A 
HETATM   18  N2  UNL     1      -0.121   5.027  14.334  1.00  0.00    -0.017 N 
HETATM   19  C1  UNL     1       1.204   5.209  14.451  1.00  0.00     0.728 A 
ATOM     20  H2  UNL     1      -0.843   5.645  14.706  1.00  0.00     0.203 HD
HETATM   21  N1  UNL     1       1.798   6.161  15.041  1.00  0.00    -0.231 N 
HETATM   22  N12 UNL     1       1.842   4.176  13.830  1.00  0.00     0.009 N 
ATOM     23  H12 UNL     1       1.320   6.933  15.506  1.00  0.00     0.174 HD
ATOM     24  H11 UNL     1       2.805   6.299  15.129  1.00  0.00     0.174 HD
HETATM   25  N11 UNL     1       0.880   3.401  13.355  1.00  0.00    -0.093 N 
ATOM     26  H11 UNL     1       1.040   2.538  12.834  1.00  0.00     0.208 HD
BRANCH  22  27
HETATM   27  N13 UNL     1       3.223   3.998  13.731  1.00  0.00    -0.204 N 
HETATM   28  N14 UNL     1       3.903   4.132  12.679  1.00  0.00    -0.266 N 
ATOM     29  H14 UNL     1       4.911   3.980  12.697  1.00  0.00     0.190 HD
ATOM     30  H13 UNL     1       3.724   3.738  14.581  1.00  0.00     0.211 HD
BRANCH  28  31
HETATM   31  C11 UNL     1       3.251   4.499  11.457  1.00  0.00     0.160 A 
HETATM   32  C12 UNL     1       2.929   3.626  10.413  1.00  0.00     0.142 A 
HETATM   33  N15 UNL     1       2.333   4.351   9.461  1.00  0.00    -0.335 N 
HETATM   34  C13 UNL     1       2.245   5.640   9.819  1.00  0.00     0.215 A 
ATOM     35  H15 UNL     1       1.989   3.973   8.578  1.00  0.00     0.168 HD
HETATM   36  N16 UNL     1       1.680   6.715   9.082  1.00  0.00    -0.061 NA
HETATM   37  N17 UNL     1       2.823   5.706  11.058  1.00  0.00    -0.215 N 
BRANCH  37  38
HETATM   38  N18 UNL     1       2.937   6.892  11.778  1.00  0.00    -0.334 N 
ATOM     39 2H18 UNL     1       2.168   7.291  12.317  1.00  0.00     0.177 HD
ATOM     40 1H18 UNL     1       3.771   7.475  11.843  1.00  0.00     0.177 HD
ENDBRANCH  37  38
ENDBRANCH  28  31
ENDBRANCH  22  27
ENDBRANCH  14  17
ENDBRANCH   1  13
BRANCH   2  41
HETATM   41  O2  UNL     1      -2.558  -0.204  14.717  1.00  0.00    -0.298 OA
BRANCH  41  42
HETATM   42  C4  UNL     1      -2.273  -1.583  14.912  1.00  0.00     0.234 C 
BRANCH  42  43
HETATM   43  C5  UNL     1      -1.148  -1.805  15.863  1.00  0.00     0.243 C 
BRANCH  43  44
HETATM   44  O3  UNL     1      -1.487  -2.785  16.795  1.00  0.00    -0.375 OA
ATOM     45  H3  UNL     1      -1.718  -2.386  17.626  1.00  0.00     0.212 HD
ENDBRANCH  43  44
BRANCH  43  46
HETATM   46  N6  UNL     1       0.038  -2.196  15.149  1.00  0.00    -0.348 N 
ATOM     47  H6  UNL     1       0.018  -3.082  14.645  1.00  0.00     0.163 HD
BRANCH  46  48
HETATM   48  C6  UNL     1       1.233  -1.437  15.098  1.00  0.00     0.112 A 
HETATM   49  C7  UNL     1       1.479  -0.521  14.093  1.00  0.00     0.122 A 
HETATM   50  C8  UNL     1       2.630   0.225  13.990  1.00  0.00     0.252 A 
HETATM   51  O4  UNL     1       2.791   1.043  13.048  1.00  0.00    -0.268 OA
HETATM   52  N7  UNL     1       3.582   0.043  14.941  1.00  0.00    -0.275 N 
HETATM   53  C9  UNL     1       3.359  -0.841  15.922  1.00  0.00     0.328 A 
ATOM     54  H7  UNL     1       4.455   0.571  14.909  1.00  0.00     0.173 HD
HETATM   55  O5  UNL     1       4.287  -0.968  16.785  1.00  0.00    -0.247 OA
HETATM   56  N8  UNL     1       2.224  -1.573  16.019  1.00  0.00    -0.294 N 
ATOM     57  H8  UNL     1       2.112  -2.232  16.789  1.00  0.00     0.172 HD
ENDBRANCH  46  48
ENDBRANCH  43  46
ENDBRANCH  42  43
ENDBRANCH  41  42
ENDBRANCH   2  41
TORSDOF 11
ENDMDL
MODEL 2
REMARK VINA RESULT: -7.826547425      4.639      7.566
REMARK  11 active torsions:
REMARK  status: ('A' for Active; 'I' for Inactive)
REMARK    1  A    between atoms: C2_7  and  N3_8 
REMARK    2  A    between atoms: N4_10  and  N5_12 
REMARK       I    between atoms: N5_12  and  C3_13 
REMARK       I    between atoms: N5_12  and  C10_32 
REMARK    3  A    between atoms: C3_13  and  O2_15 
REMARK    4  A    between atoms: O2_15  and  C4_16 
REMARK    5  A    between atoms: C4_16  and  C5_17 
REMARK    6  A    between atoms: C5_17  and  O3_18 
REMARK    7  A    between atoms: C5_17  and  N6_20 
REMARK    8  A    between atoms: N6_20  and  C6_22 
REMARK       I    between atoms: C10_32  and  N9_33 
REMARK       I    between atoms: C10_32  and  N10_37 
REMARK    9  A    between atoms: N12_43  and  N13_44 
REMARK   10  A    between atoms: N14_46  and  C11_48 
REMARK   11  A    between atoms: N17_54  and  N18_55 
ROOT
HETATM    1  N5  UNL     1       2.283   5.909   9.759  1.00  0.00    -0.165 N 
HETATM    2  C3  UNL     1       2.110   5.495  11.126  1.00  0.00     0.386 C 
HETATM    3  O1  UNL     1       1.246   4.612  11.408  1.00  0.00    -0.236 OA
HETATM    4  C10 UNL     1       1.474   5.316   8.721  1.00  0.00     0.506 C 
HETATM    5  N9  UNL     1       0.068   5.636   8.954  1.00  0.00    -0.031 N 
ATOM      6  H91 UNL     1      -0.504   5.217   8.221  1.00  0.00     0.279 HD
ATOM      7  H92 UNL     1      -0.089   6.640   9.039  1.00  0.00     0.279 HD
ATOM      8  H93 UNL     1      -0.240   5.361   9.887  1.00  0.00     0.279 HD
HETATM    9  N10 UNL     1       1.628   3.882   8.667  1.00  0.00    -0.031 N 
ATOM     10 1H10 UNL     1       1.056   3.463   7.934  1.00  0.00     0.279 HD
ATOM     11 2H10 UNL     1       1.438   3.455   9.574  1.00  0.00     0.279 HD
ATOM     12 3H10 UNL     1       2.608   3.619   8.568  1.00  0.00     0.279 HD
ENDROOT
BRANCH   1  13
HETATM   13  N4  UNL     1       3.228   6.879   9.430  1.00  0.00    -0.218 N 
HETATM   14  N3  UNL     1       3.063   8.118   9.465  1.00  0.00    -0.115 N 
ATOM     15  H3  UNL     1       2.169   8.516   9.755  1.00  0.00     0.207 HD
ATOM     16  H4  UNL     1       4.144   6.546   9.130  1.00  0.00     0.209 HD
BRANCH  14  17
HETATM   17  C2  UNL     1       4.148   8.961   9.093  1.00  0.00     0.729 A 
HETATM   18  N2  UNL     1       4.155  10.298   9.171  1.00  0.00    -0.017 N 
HETATM   19  C1  UNL     1       5.341  10.742   8.728  1.00  0.00     0.728 A 
ATOM     20  H2  UNL     1       3.389  10.879   9.510  1.00  0.00     0.203 HD
HETATM   21  N1  UNL     1       5.730  11.947   8.655  1.00  0.00    -0.231 N 
HETATM   22  N12 UNL     1       6.101   9.669   8.365  1.00  0.00     0.009 N 
ATOM     23  H12 UNL     1       5.162  12.749   8.928  1.00  0.00     0.174 HD
ATOM     24  H11 UNL     1       6.632  12.284   8.318  1.00  0.00     0.174 HD
HETATM   25  N11 UNL     1       5.347   8.607   8.599  1.00  0.00    -0.093 N 
ATOM     26  H11 UNL     1       5.639   7.644   8.428  1.00  0.00     0.208 HD
BRANCH  22  27
HETATM   27  N13 UNL     1       7.400   9.711   7.855  1.00  0.00    -0.204 N 
HETATM   28  N14 UNL     1       7.703   9.853   6.640  1.00  0.00    -0.266 N 
ATOM     29  H14 UNL     1       8.682   9.871   6.355  1.00  0.00     0.190 HD
ATOM     30  H13 UNL     1       8.167   9.619   8.520  1.00  0.00     0.211 HD
BRANCH  28  31
HETATM   31  C11 UNL     1       6.665   9.988   5.662  1.00  0.00     0.160 A 
HETATM   32  C12 UNL     1       5.972   8.933   5.060  1.00  0.00     0.142 A 
HETATM   33  N15 UNL     1       5.090   9.473   4.213  1.00  0.00    -0.335 N 
HETATM   34  C13 UNL     1       5.164  10.811   4.225  1.00  0.00     0.215 A 
ATOM     35  H15 UNL     1       4.445   8.936   3.633  1.00  0.00     0.168 HD
HETATM   36  N16 UNL     1       4.395  11.735   3.468  1.00  0.00    -0.061 NA
HETATM   37  N17 UNL     1       6.148  11.106   5.129  1.00  0.00    -0.215 N 
BRANCH  37  38
HETATM   38  N18 UNL     1       6.538  12.409   5.427  1.00  0.00    -0.334 N 
ATOM     39 2H18 UNL     1       7.210  12.633   6.161  1.00  0.00     0.177 HD
ATOM     40 1H18 UNL     1       6.205  13.254   4.964  1.00  0.00     0.177 HD
ENDBRANCH  37  38
ENDBRANCH  28  31
ENDBRANCH  22  27
ENDBRANCH  14  17
ENDBRANCH   1  13
BRANCH   2  41
HETATM   41  O2  UNL     1       2.847   6.018  12.164  1.00  0.00    -0.298 OA
BRANCH  41  42
HETATM   42  C4  UNL     1       4.107   5.499  12.569  1.00  0.00     0.234 C 
BRANCH  42  43
HETATM   43  C5  UNL     1       3.985   4.492  13.661  1.00  0.00     0.243 C 
BRANCH  43  44
HETATM   44  O3  UNL     1       2.699   4.515  14.199  1.00  0.00    -0.375 OA
ATOM     45  H3  UNL     1       2.467   3.657  14.537  1.00  0.00     0.212 HD
ENDBRANCH  43  44
BRANCH  43  46
HETATM   46  N6  UNL     1       4.285   3.176  13.161  1.00  0.00    -0.348 N 
ATOM     47  H6  UNL     1       5.211   3.019  12.765  1.00  0.00     0.163 HD
BRANCH  46  48
HETATM   48  C6  UNL     1       3.383   2.085  13.180  1.00  0.00     0.112 A 
HETATM   49  C7  UNL     1       3.592   0.973  13.974  1.00  0.00     0.122 A 
HETATM   50  C8  UNL     1       2.756  -0.119  14.013  1.00  0.00     0.252 A 
HETATM   51  O4  UNL     1       3.005  -1.100  14.759  1.00  0.00    -0.268 OA
HETATM   52  N7  UNL     1       1.657  -0.096  13.215  1.00  0.00    -0.275 N 
HETATM   53  C9  UNL     1       1.440   0.975  12.440  1.00  0.00     0.328 A 
ATOM     54  H7  UNL     1       1.006  -0.882  13.207  1.00  0.00     0.173 HD
HETATM   55  O5  UNL     1       0.393   0.940  11.715  1.00  0.00    -0.247 OA
HETATM   56  N8  UNL     1       2.266   2.047  12.405  1.00  0.00    -0.294 N 
ATOM     57  H8  UNL     1       2.049   2.833  11.793  1.00  0.00     0.172 HD
ENDBRANCH  46  48
ENDBRANCH  43  46
ENDBRANCH  42  43
ENDBRANCH  41  42
ENDBRANCH   2  41
TORSDOF 11
ENDMDL
MODEL 3
REMARK VINA RESULT: -7.788968749      3.315      6.434
REMARK  11 active torsions:
REMARK  status: ('A' for Active; 'I' for Inactive)
REMARK    1  A    between atoms: C2_7  and  N3_8 
REMARK    2  A    between atoms: N4_10  and  N5_12 
REMARK       I    between atoms: N5_12  and  C3_13 
REMARK       I    between atoms: N5_12  and  C10_32 
REMARK    3  A    between atoms: C3_13  and  O2_15 
REMARK    4  A    between atoms: O2_15  and  C4_16 
REMARK    5  A    between atoms: C4_16  and  C5_17 
REMARK    6  A    between atoms: C5_17  and  O3_18 
REMARK    7  A    between atoms: C5_17  and  N6_20 
REMARK    8  A    between atoms: N6_20  and  C6_22 
REMARK       I    between atoms: C10_32  and  N9_33 
REMARK       I    between atoms: C10_32  and  N10_37 
REMARK    9  A    between atoms: N12_43  and  N13_44 
REMARK   10  A    between atoms: N14_46  and  C11_48 
REMARK   11  A    between atoms: N17_54  and  N18_55 
ROOT
HETATM    1  N5  UNL     1       1.629   5.533  12.507  1.00  0.00    -0.165 N 
HETATM    2  C3  UNL     1       1.863   4.126  12.697  1.00  0.00     0.386 C 
HETATM    3  O1  UNL     1       1.512   3.574  13.783  1.00  0.00    -0.236 OA
HETATM    4  C10 UNL     1       0.998   6.304  13.552  1.00  0.00     0.506 C 
HETATM    5  N9  UNL     1       1.844   6.299  14.743  1.00  0.00    -0.031 N 
ATOM      6  H91 UNL     1       1.398   6.843  15.481  1.00  0.00     0.279 HD
ATOM      7  H92 UNL     1       2.790   6.623  14.543  1.00  0.00     0.279 HD
ATOM      8  H93 UNL     1       2.074   5.354  15.047  1.00  0.00     0.279 HD
HETATM    9  N10 UNL     1      -0.304   5.783  13.897  1.00  0.00    -0.031 N 
ATOM     10 1H10 UNL     1      -0.749   6.327  14.635  1.00  0.00     0.279 HD
ATOM     11 2H10 UNL     1      -0.253   4.795  14.145  1.00  0.00     0.279 HD
ATOM     12 3H10 UNL     1      -0.903   5.713  13.075  1.00  0.00     0.279 HD
ENDROOT
BRANCH   1  13
HETATM   13  N4  UNL     1       2.009   6.157  11.321  1.00  0.00    -0.218 N 
HETATM   14  N3  UNL     1       3.131   6.644  11.064  1.00  0.00    -0.115 N 
ATOM     15  H3  UNL     1       3.883   6.611  11.753  1.00  0.00     0.207 HD
ATOM     16  H4  UNL     1       1.301   6.223  10.590  1.00  0.00     0.209 HD
BRANCH  14  17
HETATM   17  C2  UNL     1       3.339   7.245   9.790  1.00  0.00     0.729 A 
HETATM   18  N2  UNL     1       2.493   7.182   8.754  1.00  0.00    -0.017 N 
HETATM   19  C1  UNL     1       3.030   7.859   7.728  1.00  0.00     0.728 A 
ATOM     20  H2  UNL     1       1.594   6.700   8.747  1.00  0.00     0.203 HD
HETATM   21  N1  UNL     1       2.526   8.033   6.577  1.00  0.00    -0.231 N 
HETATM   22  N12 UNL     1       4.235   8.363   8.119  1.00  0.00     0.009 N 
ATOM     23  H12 UNL     1       1.624   7.657   6.284  1.00  0.00     0.174 HD
ATOM     24  H11 UNL     1       2.934   8.548   5.796  1.00  0.00     0.174 HD
HETATM   25  N11 UNL     1       4.390   7.972   9.374  1.00  0.00    -0.093 N 
ATOM     26  H11 UNL     1       5.203   8.194   9.951  1.00  0.00     0.208 HD
BRANCH  22  27
HETATM   27  N13 UNL     1       5.104   9.129   7.339  1.00  0.00    -0.204 N 
HETATM   28  N14 UNL     1       5.194  10.385   7.368  1.00  0.00    -0.266 N 
ATOM     29  H14 UNL     1       5.858  10.866   6.760  1.00  0.00     0.190 HD
ATOM     30  H13 UNL     1       5.715   8.631   6.693  1.00  0.00     0.211 HD
BRANCH  28  31
HETATM   31  C11 UNL     1       4.360  11.136   8.259  1.00  0.00     0.160 A 
HETATM   32  C12 UNL     1       4.724  11.579   9.534  1.00  0.00     0.142 A 
HETATM   33  N15 UNL     1       3.676  12.239  10.037  1.00  0.00    -0.335 N 
HETATM   34  C13 UNL     1       2.653  12.254   9.171  1.00  0.00     0.215 A 
ATOM     35  H15 UNL     1       3.657  12.674  10.960  1.00  0.00     0.168 HD
HETATM   36  N16 UNL     1       1.376  12.852   9.338  1.00  0.00    -0.061 NA
HETATM   37  N17 UNL     1       3.101  11.563   8.078  1.00  0.00    -0.215 N 
BRANCH  37  38
HETATM   38  N18 UNL     1       2.320  11.346   6.945  1.00  0.00    -0.334 N 
ATOM     39 2H18 UNL     1       1.957  12.105   6.369  1.00  0.00     0.177 HD
ATOM     40 1H18 UNL     1       2.033  10.438   6.582  1.00  0.00     0.177 HD
ENDBRANCH  37  38
ENDBRANCH  28  31
ENDBRANCH  22  27
ENDBRANCH  14  17
ENDBRANCH   1  13
BRANCH   2  41
HETATM   41  O2  UNL     1       2.459   3.332  11.744  1.00  0.00    -0.298 OA
BRANCH  41  42
HETATM   42  C4  UNL     1       3.851   3.045  11.723  1.00  0.00     0.234 C 
BRANCH  42  43
HETATM   43  C5  UNL     1       4.236   2.015  12.729  1.00  0.00     0.243 C 
BRANCH  43  44
HETATM   44  O3  UNL     1       4.553   2.620  13.945  1.00  0.00    -0.375 OA
ATOM     45  H3  UNL     1       5.362   2.263  14.292  1.00  0.00     0.212 HD
ENDBRANCH  43  44
BRANCH  43  46
HETATM   46  N6  UNL     1       3.164   1.073  12.913  1.00  0.00    -0.348 N 
ATOM     47  H6  UNL     1       2.443   1.028  12.194  1.00  0.00     0.163 HD
BRANCH  46  48
HETATM   48  C6  UNL     1       3.040   0.204  14.024  1.00  0.00     0.112 A 
HETATM   49  C7  UNL     1       1.927  -0.592  14.213  1.00  0.00     0.122 A 
HETATM   50  C8  UNL     1       1.752  -1.437  15.285  1.00  0.00     0.252 A 
HETATM   51  O4  UNL     1       0.712  -2.136  15.397  1.00  0.00    -0.268 OA
HETATM   52  N7  UNL     1       2.742  -1.486  16.213  1.00  0.00    -0.275 N 
HETATM   53  C9  UNL     1       3.828  -0.720  16.044  1.00  0.00     0.328 A 
ATOM     54  H7  UNL     1       2.660  -2.096  17.027  1.00  0.00     0.173 HD
HETATM   55  O5  UNL     1       4.723  -0.810  16.946  1.00  0.00    -0.247 OA
HETATM   56  N8  UNL     1       3.995   0.110  14.988  1.00  0.00    -0.294 N 
ATOM     57  H8  UNL     1       4.844   0.669  14.914  1.00  0.00     0.172 HD
ENDBRANCH  46  48
ENDBRANCH  43  46
ENDBRANCH  42  43
ENDBRANCH  41  42
ENDBRANCH   2  41
TORSDOF 11
ENDMDL
MODEL 4
REMARK VINA RESULT: -7.733269624      4.312      7.353
REMARK  11 active torsions:
REMARK  status: ('A' for Active; 'I' for Inactive)
REMARK    1  A    between atoms: C2_7  and  N3_8 
REMARK    2  A    between atoms: N4_10  and  N5_12 
REMARK       I    between atoms: N5_12  and  C3_13 
REMARK       I    between atoms: N5_12  and  C10_32 
REMARK    3  A    between atoms: C3_13  and  O2_15 
REMARK    4  A    between atoms: O2_15  and  C4_16 
REMARK    5  A    between atoms: C4_16  and  C5_17 
REMARK    6  A    between atoms: C5_17  and  O3_18 
REMARK    7  A    between atoms: C5_17  and  N6_20 
REMARK    8  A    between atoms: N6_20  and  C6_22 
REMARK       I    between atoms: C10_32  and  N9_33 
REMARK       I    between atoms: C10_32  and  N10_37 
REMARK    9  A    between atoms: N12_43  and  N13_44 
REMARK   10  A    between atoms: N14_46  and  C11_48 
REMARK   11  A    between atoms: N17_54  and  N18_55 
ROOT
HETATM    1  N5  UNL     1       1.773   5.457  10.152  1.00  0.00    -0.165 N 
HETATM    2  C3  UNL     1       1.913   5.331  11.578  1.00  0.00     0.386 C 
HETATM    3  O1  UNL     1       1.119   4.580  12.220  1.00  0.00    -0.236 OA
HETATM    4  C10 UNL     1       0.733   4.731   9.465  1.00  0.00     0.506 C 
HETATM    5  N9  UNL     1      -0.573   5.185   9.935  1.00  0.00    -0.031 N 
ATOM      6  H91 UNL     1      -1.309   4.672   9.449  1.00  0.00     0.279 HD
ATOM      7  H92 UNL     1      -0.684   6.195   9.844  1.00  0.00     0.279 HD
ATOM      8  H93 UNL     1      -0.662   5.118  10.948  1.00  0.00     0.279 HD
HETATM    9  N10 UNL     1       0.839   3.306   9.674  1.00  0.00    -0.031 N 
ATOM     10 1H10 UNL     1       0.104   2.793   9.188  1.00  0.00     0.279 HD
ATOM     11 2H10 UNL     1       0.855   3.078  10.668  1.00  0.00     0.279 HD
ATOM     12 3H10 UNL     1       1.764   2.963   9.415  1.00  0.00     0.279 HD
ENDROOT
BRANCH   1  13
HETATM   13  N4  UNL     1       2.637   6.278   9.429  1.00  0.00    -0.218 N 
HETATM   14  N3  UNL     1       2.843   7.495   9.626  1.00  0.00    -0.115 N 
ATOM     15  H3  UNL     1       2.359   7.990  10.375  1.00  0.00     0.207 HD
ATOM     16  H4  UNL     1       3.152   5.843   8.664  1.00  0.00     0.209 HD
BRANCH  14  17
HETATM   17  C2  UNL     1       3.767   8.176   8.783  1.00  0.00     0.729 A 
HETATM   18  N2  UNL     1       3.748   8.169   7.444  1.00  0.00    -0.017 N 
HETATM   19  C1  UNL     1       4.773   8.914   7.002  1.00  0.00     0.728 A 
ATOM     20  H2  UNL     1       3.070   7.680   6.860  1.00  0.00     0.203 HD
HETATM   21  N1  UNL     1       5.082   9.153   5.796  1.00  0.00    -0.231 N 
HETATM   22  N12 UNL     1       5.453   9.404   8.078  1.00  0.00     0.009 N 
ATOM     23  H12 UNL     1       4.574   8.787   4.991  1.00  0.00     0.174 HD
ATOM     24  H11 UNL     1       5.862   9.719   5.460  1.00  0.00     0.174 HD
HETATM   25  N11 UNL     1       4.816   8.937   9.141  1.00  0.00    -0.093 N 
ATOM     26  H11 UNL     1       5.085   9.131  10.106  1.00  0.00     0.208 HD
BRANCH  22  27
HETATM   27  N13 UNL     1       6.581  10.225   8.039  1.00  0.00    -0.204 N 
HETATM   28  N14 UNL     1       6.566  11.484   8.009  1.00  0.00    -0.266 N 
ATOM     29  H14 UNL     1       7.442  12.007   7.980  1.00  0.00     0.190 HD
ATOM     30  H13 UNL     1       7.493   9.768   8.035  1.00  0.00     0.211 HD
BRANCH  28  31
HETATM   31  C11 UNL     1       5.313  12.178   8.015  1.00  0.00     0.160 A 
HETATM   32  C12 UNL     1       4.633  12.637   6.883  1.00  0.00     0.142 A 
HETATM   33  N15 UNL     1       3.510  13.227   7.309  1.00  0.00    -0.335 N 
HETATM   34  C13 UNL     1       3.417  13.180   8.645  1.00  0.00     0.215 A 
ATOM     35  H15 UNL     1       2.816  13.656   6.697  1.00  0.00     0.168 HD
HETATM   36  N16 UNL     1       2.378  13.693   9.466  1.00  0.00    -0.061 NA
HETATM   37  N17 UNL     1       4.547  12.528   9.059  1.00  0.00    -0.215 N 
BRANCH  37  38
HETATM   38  N18 UNL     1       4.831  12.281  10.400  1.00  0.00    -0.334 N 
ATOM     39 2H18 UNL     1       5.716  11.885  10.715  1.00  0.00     0.177 HD
ATOM     40 1H18 UNL     1       4.207  12.459  11.186  1.00  0.00     0.177 HD
ENDBRANCH  37  38
ENDBRANCH  28  31
ENDBRANCH  22  27
ENDBRANCH  14  17
ENDBRANCH   1  13
BRANCH   2  41
HETATM   41  O2  UNL     1       2.882   5.994  12.296  1.00  0.00    -0.298 OA
BRANCH  41  42
HETATM   42  C4  UNL     1       4.200   5.494  12.480  1.00  0.00     0.234 C 
BRANCH  42  43
HETATM   43  C5  UNL     1       4.322   4.642  13.696  1.00  0.00     0.243 C 
BRANCH  43  44
HETATM   44  O3  UNL     1       3.132   4.659  14.422  1.00  0.00    -0.375 OA
ATOM     45  H3  UNL     1       2.870   5.554  14.606  1.00  0.00     0.212 HD
ENDBRANCH  43  44
BRANCH  43  46
HETATM   46  N6  UNL     1       4.653   3.291  13.327  1.00  0.00    -0.348 N 
ATOM     47  H6  UNL     1       5.614   3.097  13.047  1.00  0.00     0.163 HD
BRANCH  46  48
HETATM   48  C6  UNL     1       3.736   2.211  13.325  1.00  0.00     0.112 A 
HETATM   49  C7  UNL     1       3.865   1.136  14.183  1.00  0.00     0.122 A 
HETATM   50  C8  UNL     1       3.013   0.056  14.206  1.00  0.00     0.252 A 
HETATM   51  O4  UNL     1       3.188  -0.891  15.014  1.00  0.00    -0.268 OA
HETATM   52  N7  UNL     1       1.980   0.054  13.323  1.00  0.00    -0.275 N 
HETATM   53  C9  UNL     1       1.841   1.090  12.485  1.00  0.00     0.328 A 
ATOM     54  H7  UNL     1       1.321  -0.724  13.299  1.00  0.00     0.173 HD
HETATM   55  O5  UNL     1       0.854   1.032  11.682  1.00  0.00    -0.247 OA
HETATM   56  N8  UNL     1       2.683   2.149  12.467  1.00  0.00    -0.294 N 
ATOM     57  H8  UNL     1       2.526   2.908  11.804  1.00  0.00     0.172 HD
ENDBRANCH  46  48
ENDBRANCH  43  46
ENDBRANCH  42  43
ENDBRANCH  41  42
ENDBRANCH   2  41
TORSDOF 11
ENDMDL
MODEL 5
REMARK VINA RESULT: -7.681716634      6.199     10.854
REMARK  11 active torsions:
REMARK  status: ('A' for Active; 'I' for Inactive)
REMARK    1  A    between atoms: C2_7  and  N3_8 
REMARK    2  A    between atoms: N4_10  and  N5_12 
REMARK       I    between atoms: N5_12  and  C3_13 
REMARK       I    between atoms: N5_12  and  C10_32 
REMARK    3  A    between atoms: C3_13  and  O2_15 
REMARK    4  A    between atoms: O2_15  and  C4_16 
REMARK    5  A    between atoms: C4_16  and  C5_17 
REMARK    6  A    between atoms: C5_17  and  O3_18 
REMARK    7  A    between atoms: C5_17  and  N6_20 
REMARK    8  A    between atoms: N6_20  and  C6_22 
REMARK       I    between atoms: C10_32  and  N9_33 
REMARK       I    between atoms: C10_32  and  N10_37 
REMARK    9  A    between atoms: N12_43  and  N13_44 
REMARK   10  A    between atoms: N14_46  and  C11_48 
REMARK   11  A    between atoms: N17_54  and  N18_55 
ROOT
HETATM    1  N5  UNL     1       2.455   8.940   8.254  1.00  0.00    -0.165 N 
HETATM    2  C3  UNL     1       2.553  10.375   8.257  1.00  0.00     0.386 C 
HETATM    3  O1  UNL     1       2.370  11.017   7.179  1.00  0.00    -0.236 OA
HETATM    4  C10 UNL     1       2.149   8.243   7.028  1.00  0.00     0.506 C 
HETATM    5  N9  UNL     1       3.216   8.471   6.056  1.00  0.00    -0.031 N 
ATOM      6  H91 UNL     1       3.000   7.979   5.189  1.00  0.00     0.279 HD
ATOM      7  H92 UNL     1       4.132   8.218   6.425  1.00  0.00     0.279 HD
ATOM      8  H93 UNL     1       3.389   9.464   5.902  1.00  0.00     0.279 HD
HETATM    9  N10 UNL     1       0.894   8.673   6.459  1.00  0.00    -0.031 N 
ATOM     10 1H10 UNL     1       0.678   8.181   5.593  1.00  0.00     0.279 HD
ATOM     11 2H10 UNL     1       0.876   9.685   6.325  1.00  0.00     0.279 HD
ATOM     12 3H10 UNL     1       0.134   8.587   7.134  1.00  0.00     0.279 HD
ENDROOT
BRANCH   1  13
HETATM   13  N4  UNL     1       2.654   8.217   9.429  1.00  0.00    -0.218 N 
HETATM   14  N3  UNL     1       2.731   6.974   9.532  1.00  0.00    -0.115 N 
ATOM     15  H3  UNL     1       2.647   6.377   8.708  1.00  0.00     0.207 HD
ATOM     16  H4  UNL     1       2.745   8.756  10.290  1.00  0.00     0.209 HD
BRANCH  14  17
HETATM   17  C2  UNL     1       2.939   6.407  10.822  1.00  0.00     0.729 A 
HETATM   18  N2  UNL     1       3.565   5.251  11.070  1.00  0.00    -0.017 N 
HETATM   19  C1  UNL     1       3.562   5.043  12.396  1.00  0.00     0.728 A 
ATOM     20  H2  UNL     1       3.976   4.632  10.370  1.00  0.00     0.203 HD
HETATM   21  N1  UNL     1       4.065   4.060  13.020  1.00  0.00    -0.231 N 
HETATM   22  N12 UNL     1       2.924   6.087  12.999  1.00  0.00     0.009 N 
ATOM     23  H12 UNL     1       4.543   3.280  12.568  1.00  0.00     0.174 HD
ATOM     24  H11 UNL     1       4.062   3.903  14.027  1.00  0.00     0.174 HD
HETATM   25  N11 UNL     1       2.560   6.895  12.016  1.00  0.00    -0.093 N 
ATOM     26  H11 UNL     1       2.058   7.773  12.147  1.00  0.00     0.208 HD
BRANCH  22  27
HETATM   27  N13 UNL     1       2.713   6.245  14.370  1.00  0.00    -0.204 N 
HETATM   28  N14 UNL     1       1.665   5.921  14.990  1.00  0.00    -0.266 N 
ATOM     29  H14 UNL     1       1.596   6.075  15.996  1.00  0.00     0.190 HD
ATOM     30  H13 UNL     1       3.470   6.658  14.916  1.00  0.00     0.211 HD
BRANCH  28  31
HETATM   31  C11 UNL     1       0.572   5.335  14.273  1.00  0.00     0.160 A 
HETATM   32  C12 UNL     1       0.369   3.966  14.076  1.00  0.00     0.142 A 
HETATM   33  N15 UNL     1      -0.756   3.832  13.366  1.00  0.00    -0.335 N 
HETATM   34  C13 UNL     1      -1.299   5.026  13.088  1.00  0.00     0.215 A 
ATOM     35  H15 UNL     1      -1.150   2.937  13.073  1.00  0.00     0.168 HD
HETATM   36  N16 UNL     1      -2.487   5.297  12.359  1.00  0.00    -0.061 NA
HETATM   37  N17 UNL     1      -0.456   5.941  13.659  1.00  0.00    -0.215 N 
BRANCH  37  38
HETATM   38  N18 UNL     1      -0.670   7.315  13.587  1.00  0.00    -0.334 N 
ATOM     39 2H18 UNL     1      -1.508   7.766  13.952  1.00  0.00     0.177 HD
ATOM     40 1H18 UNL     1      -0.035   7.998  13.173  1.00  0.00     0.177 HD
ENDBRANCH  37  38
ENDBRANCH  28  31
ENDBRANCH  22  27
ENDBRANCH  14  17
ENDBRANCH   1  13
BRANCH   2  41
HETATM   41  O2  UNL     1       2.841  11.102   9.389  1.00  0.00    -0.298 OA
BRANCH  41  42
HETATM   42  C4  UNL     1       3.505  12.359   9.365  1.00  0.00     0.234 C 
BRANCH  42  43
HETATM   43  C5  UNL     1       4.963  12.239   9.650  1.00  0.00     0.243 C 
BRANCH  43  44
HETATM   44  O3  UNL     1       5.200  12.348  11.020  1.00  0.00    -0.375 OA
ATOM     45  H3  UNL     1       6.086  12.072  11.225  1.00  0.00     0.212 HD
ENDBRANCH  43  44
BRANCH  43  46
HETATM   46  N6  UNL     1       5.464  10.980   9.164  1.00  0.00    -0.348 N 
ATOM     47  H6  UNL     1       5.451  10.186   9.804  1.00  0.00     0.163 HD
BRANCH  46  48
HETATM   48  C6  UNL     1       5.973  10.766   7.860  1.00  0.00     0.112 A 
HETATM   49  C7  UNL     1       7.067   9.957   7.622  1.00  0.00     0.122 A 
HETATM   50  C8  UNL     1       7.609   9.734   6.378  1.00  0.00     0.252 A 
HETATM   51  O4  UNL     1       8.608   8.984   6.230  1.00  0.00    -0.268 OA
HETATM   52  N7  UNL     1       7.026  10.353   5.319  1.00  0.00    -0.275 N 
HETATM   53  C9  UNL     1       5.964  11.141   5.534  1.00  0.00     0.328 A 
ATOM     54  H7  UNL     1       7.391  10.221   4.376  1.00  0.00     0.173 HD
HETATM   55  O5  UNL     1       5.459  11.694   4.503  1.00  0.00    -0.247 OA
HETATM   56  N8  UNL     1       5.435  11.358   6.760  1.00  0.00    -0.294 N 
ATOM     57  H8  UNL     1       4.625  11.969   6.861  1.00  0.00     0.172 HD
ENDBRANCH  46  48
ENDBRANCH  43  46
ENDBRANCH  42  43
ENDBRANCH  41  42
ENDBRANCH   2  41
TORSDOF 11
ENDMDL
