MODEL 1
REMARK VINA RESULT: -7.338245657      0.000      0.000
REMARK  14 active torsions:
REMARK  status: ('A' for Active; 'I' for Inactive)
REMARK    1  A    between atoms: N1_1  and  C1_4 
REMARK    2  A    between atoms: C4_9  and  N3_10 
REMARK    3  A    between atoms: C5_15  and  O1_16 
REMARK    4  A    between atoms: O1_16  and  C6_17 
REMARK    5  A    between atoms: C6_17  and  C7_18 
REMARK    6  A    between atoms: C6_17  and  C12_36 
REMARK    7  A    between atoms: C8_23  and  C9_24 
REMARK    8  A    between atoms: N9_28  and  C10_29 
REMARK    9  A    between atoms: C10_29  and  C11_30 
REMARK   10  A    between atoms: C11_30  and  O2_31 
REMARK   11  A    between atoms: C13_38  and  C14_39 
REMARK   12  A    between atoms: C14_39  and  O5_40 
REMARK   13  A    between atoms: C14_39  and  O6_42 
REMARK   14  A    between atoms: C16_45  and  O7_46 
ROOT
HETATM    1  C6  UNL     1       0.145   4.009  11.401  1.00  0.00     0.260 C 
ENDROOT
BRANCH   1   2
HETATM    2  O1  UNL     1       0.943   3.057  11.993  1.00  0.00    -0.344 OA
BRANCH   2   3
HETATM    3  C5  UNL     1       1.208   3.434  13.307  1.00  0.00     0.274 C 
HETATM    4  C3  UNL     1       2.619   3.853  13.502  1.00  0.00     0.077 A 
HETATM    5  C2  UNL     1       3.561   2.852  13.609  1.00  0.00     0.147 A 
HETATM    6  C4  UNL     1       3.018   5.172  13.579  1.00  0.00     0.128 A 
HETATM    7  N2  UNL     1       4.854   3.186  13.788  1.00  0.00    -0.175 N 
HETATM    8  N13 UNL     1       3.121   1.504  13.527  1.00  0.00    -0.272 N 
HETATM    9  C1  UNL     1       5.252   4.468  13.864  1.00  0.00     0.679 A 
ATOM     10  H2  UNL     1       5.550   2.445  13.869  1.00  0.00     0.186 HD
HETATM   11  N4  UNL     1       4.326   5.454  13.757  1.00  0.00    -0.177 N 
ATOM     12  H4  UNL     1       4.624   6.428  13.813  1.00  0.00     0.186 HD
HETATM   13  N12 UNL     1       1.775   1.163  13.690  1.00  0.00    -0.027 NA
ATOM     14  H13 UNL     1       3.804   0.768  13.346  1.00  0.00     0.185 HD
HETATM   15  N11 UNL     1       1.009   2.239  14.125  1.00  0.00    -0.089 NA
BRANCH   9  16
HETATM   16  N1  UNL     1       6.510   4.691  14.035  1.00  0.00    -0.234 N 
ATOM     17  H12 UNL     1       7.204   3.949  14.134  1.00  0.00     0.174 HD
ATOM     18  H11 UNL     1       6.815   5.665  14.072  1.00  0.00     0.174 HD
ENDBRANCH   9  16
BRANCH   6  19
HETATM   19  N3  UNL     1       2.118   6.116  13.475  1.00  0.00    -0.384 N 
ATOM     20  H32 UNL     1       1.454   6.142  12.702  1.00  0.00     0.157 HD
ATOM     21  H31 UNL     1       2.080   6.845  14.188  1.00  0.00     0.157 HD
ENDBRANCH   6  19
ENDBRANCH   2   3
ENDBRANCH   1   2
BRANCH   1  22
HETATM   22  C7  UNL     1       0.847   4.749  10.296  1.00  0.00     0.176 A 
HETATM   23  N5  UNL     1       0.951   4.346   9.004  1.00  0.00    -0.279 N 
HETATM   24  N6  UNL     1       1.642   5.267   8.334  1.00  0.00    -0.275 N 
ATOM     25  H5  UNL     1       0.565   3.487   8.612  1.00  0.00     0.189 HD
HETATM   26  C8  UNL     1       1.973   6.239   9.189  1.00  0.00     0.211 A 
ATOM     27  H6  UNL     1       1.878   5.236   7.342  1.00  0.00     0.189 HD
HETATM   28  O3  UNL     1       1.479   5.894  10.354  1.00  0.00    -0.271 OA
BRANCH  26  29
HETATM   29  C9  UNL     1       2.740   7.461   8.885  1.00  0.00     0.188 A 
HETATM   30  N7  UNL     1       2.530   8.665   9.452  1.00  0.00    -0.263 N 
HETATM   31  N8  UNL     1       3.426   9.502   8.910  1.00  0.00    -0.003 NA
ATOM     32  H7  UNL     1       1.827   8.895  10.155  1.00  0.00     0.186 HD
HETATM   33  N9  UNL     1       4.180   8.861   8.035  1.00  0.00    -0.214 N 
HETATM   34  N10 UNL     1       3.754   7.594   8.018  1.00  0.00    -0.266 N 
ATOM     35  H10 UNL     1       4.139   6.847   7.440  1.00  0.00     0.190 HD
BRANCH  33  36
HETATM   36  C10 UNL     1       5.250   9.458   7.263  1.00  0.00     0.193 C 
BRANCH  36  37
HETATM   37  C11 UNL     1       6.550   9.476   8.054  1.00  0.00     0.187 C 
BRANCH  37  38
HETATM   38  O2  UNL     1       6.391   8.649   9.160  1.00  0.00    -0.399 OA
ATOM     39  H2  UNL     1       7.177   8.123   9.249  1.00  0.00     0.209 HD
ENDBRANCH  37  38
ENDBRANCH  36  37
ENDBRANCH  33  36
ENDBRANCH  26  29
ENDBRANCH   1  22
BRANCH   1  40
HETATM   40  C12 UNL     1      -1.102   3.442  10.840  1.00  0.00     0.123 A 
HETATM   41  O4  UNL     1      -1.753   3.880   9.771  1.00  0.00    -0.308 OA
HETATM   42  C13 UNL     1      -2.814   3.168   9.540  1.00  0.00     0.110 A 
HETATM   43  C15 UNL     1      -2.912   2.180  10.493  1.00  0.00     0.077 A 
HETATM   44  C16 UNL     1      -1.800   2.374  11.320  1.00  0.00     0.101 A 
BRANCH  42  45
HETATM   45  C14 UNL     1      -3.805   3.352   8.424  1.00  0.00     0.312 C 
BRANCH  45  46
HETATM   46  O5  UNL     1      -3.229   3.011   7.202  1.00  0.00    -0.365 OA
ATOM     47  H5  UNL     1      -3.851   3.140   6.496  1.00  0.00     0.213 HD
ENDBRANCH  45  46
BRANCH  45  48
HETATM   48  O6  UNL     1      -4.915   2.566   8.732  1.00  0.00    -0.365 OA
ATOM     49  H6  UNL     1      -5.682   3.119   8.639  1.00  0.00     0.213 HD
ENDBRANCH  45  48
ENDBRANCH  42  45
BRANCH  44  50
HETATM   50  O7  UNL     1      -1.557   1.556  12.410  1.00  0.00    -0.358 OA
ATOM     51  H7  UNL     1      -2.078   1.393  13.188  1.00  0.00     0.217 HD
ENDBRANCH  44  50
ENDBRANCH   1  40
TORSDOF 14
ENDMDL
MODEL 2
REMARK VINA RESULT: -7.163222574      3.930      7.082
REMARK  14 active torsions:
REMARK  status: ('A' for Active; 'I' for Inactive)
REMARK    1  A    between atoms: N1_1  and  C1_4 
REMARK    2  A    between atoms: C4_9  and  N3_10 
REMARK    3  A    between atoms: C5_15  and  O1_16 
REMARK    4  A    between atoms: O1_16  and  C6_17 
REMARK    5  A    between atoms: C6_17  and  C7_18 
REMARK    6  A    between atoms: C6_17  and  C12_36 
REMARK    7  A    between atoms: C8_23  and  C9_24 
REMARK    8  A    between atoms: N9_28  and  C10_29 
REMARK    9  A    between atoms: C10_29  and  C11_30 
REMARK   10  A    between atoms: C11_30  and  O2_31 
REMARK   11  A    between atoms: C13_38  and  C14_39 
REMARK   12  A    between atoms: C14_39  and  O5_40 
REMARK   13  A    between atoms: C14_39  and  O6_42 
REMARK   14  A    between atoms: C16_45  and  O7_46 
ROOT
HETATM    1  C6  UNL     1       0.498   4.118  11.877  1.00  0.00     0.260 C 
ENDROOT
BRANCH   1   2
HETATM    2  O1  UNL     1       1.399   3.510  12.721  1.00  0.00    -0.344 OA
BRANCH   2   3
HETATM    3  C5  UNL     1       1.734   2.260  12.211  1.00  0.00     0.274 C 
HETATM    4  C3  UNL     1       1.697   1.197  13.247  1.00  0.00     0.077 A 
HETATM    5  C2  UNL     1       2.772   1.123  14.107  1.00  0.00     0.147 A 
HETATM    6  C4  UNL     1       0.657   0.300  13.381  1.00  0.00     0.128 A 
HETATM    7  N2  UNL     1       2.782   0.173  15.063  1.00  0.00    -0.175 N 
HETATM    8  N13 UNL     1       3.829   2.058  13.945  1.00  0.00    -0.272 N 
HETATM    9  C1  UNL     1       1.772  -0.704  15.202  1.00  0.00     0.679 A 
ATOM     10  H2  UNL     1       3.577   0.118  15.698  1.00  0.00     0.186 HD
HETATM   11  N4  UNL     1       0.713  -0.632  14.356  1.00  0.00    -0.177 N 
ATOM     12  H4  UNL     1      -0.055  -1.295  14.459  1.00  0.00     0.186 HD
HETATM   13  N12 UNL     1       3.977   2.795  12.766  1.00  0.00    -0.027 NA
ATOM     14  H13 UNL     1       4.494   2.194  14.706  1.00  0.00     0.185 HD
HETATM   15  N11 UNL     1       3.121   2.358  11.760  1.00  0.00    -0.089 NA
BRANCH   9  16
HETATM   16  N1  UNL     1       1.868  -1.578  16.146  1.00  0.00    -0.234 N 
ATOM     17  H12 UNL     1       1.892  -1.333  17.136  1.00  0.00     0.174 HD
ATOM     18  H11 UNL     1       1.921  -2.560  15.875  1.00  0.00     0.174 HD
ENDBRANCH   9  16
BRANCH   6  19
HETATM   19  N3  UNL     1      -0.360   0.377  12.561  1.00  0.00    -0.384 N 
ATOM     20  H32 UNL     1      -1.079   1.094  12.663  1.00  0.00     0.157 HD
ATOM     21  H31 UNL     1      -0.435  -0.296  11.799  1.00  0.00     0.157 HD
ENDBRANCH   6  19
ENDBRANCH   2   3
ENDBRANCH   1   2
BRANCH   1  22
HETATM   22  C7  UNL     1      -0.386   5.107  12.585  1.00  0.00     0.176 A 
HETATM   23  N5  UNL     1       0.029   6.130  13.373  1.00  0.00    -0.279 N 
HETATM   24  N6  UNL     1      -1.046   6.779  13.817  1.00  0.00    -0.275 N 
ATOM     25  H5  UNL     1       0.998   6.363  13.589  1.00  0.00     0.189 HD
HETATM   26  C8  UNL     1      -2.128   6.175  13.317  1.00  0.00     0.211 A 
ATOM     27  H6  UNL     1      -1.044   7.593  14.430  1.00  0.00     0.189 HD
HETATM   28  O3  UNL     1      -1.694   5.178  12.585  1.00  0.00    -0.271 OA
BRANCH  26  29
HETATM   29  C9  UNL     1      -3.536   6.553  13.543  1.00  0.00     0.188 A 
HETATM   30  N7  UNL     1      -4.214   6.357  14.690  1.00  0.00    -0.263 N 
HETATM   31  N8  UNL     1      -5.450   6.835  14.488  1.00  0.00    -0.003 NA
ATOM     32  H7  UNL     1      -3.857   5.928  15.545  1.00  0.00     0.186 HD
HETATM   33  N9  UNL     1      -5.559   7.320  13.264  1.00  0.00    -0.214 N 
HETATM   34  N10 UNL     1      -4.371   7.145  12.676  1.00  0.00    -0.266 N 
ATOM     35  H10 UNL     1      -4.137   7.417  11.722  1.00  0.00     0.190 HD
BRANCH  33  36
HETATM   36  C10 UNL     1      -6.756   7.916  12.708  1.00  0.00     0.193 C 
BRANCH  36  37
HETATM   37  C11 UNL     1      -6.946   9.336  13.218  1.00  0.00     0.187 C 
BRANCH  37  38
HETATM   38  O2  UNL     1      -5.839   9.668  13.990  1.00  0.00    -0.399 OA
ATOM     39  H2  UNL     1      -6.150   9.987  14.829  1.00  0.00     0.209 HD
ENDBRANCH  37  38
ENDBRANCH  36  37
ENDBRANCH  33  36
ENDBRANCH  26  29
ENDBRANCH   1  22
BRANCH   1  40
HETATM   40  C12 UNL     1       1.153   4.826  10.754  1.00  0.00     0.123 A 
HETATM   41  O4  UNL     1       1.843   5.955  10.832  1.00  0.00    -0.308 OA
HETATM   42  C13 UNL     1       2.289   6.317   9.668  1.00  0.00     0.110 A 
HETATM   43  C15 UNL     1       1.891   5.398   8.725  1.00  0.00     0.077 A 
HETATM   44  C16 UNL     1       1.162   4.445   9.444  1.00  0.00     0.101 A 
BRANCH  42  45
HETATM   45  C14 UNL     1       3.110   7.536   9.349  1.00  0.00     0.312 C 
BRANCH  45  46
HETATM   46  O5  UNL     1       2.411   8.694   9.688  1.00  0.00    -0.365 OA
ATOM     47  H5  UNL     1       1.475   8.544   9.627  1.00  0.00     0.213 HD
ENDBRANCH  45  46
BRANCH  45  48
HETATM   48  O6  UNL     1       4.311   7.412  10.045  1.00  0.00    -0.365 OA
ATOM     49  H6  UNL     1       4.322   8.096  10.705  1.00  0.00     0.213 HD
ENDBRANCH  45  48
ENDBRANCH  42  45
BRANCH  44  50
HETATM   50  O7  UNL     1       0.593   3.347   8.822  1.00  0.00    -0.358 OA
ATOM     51  H7  UNL     1       0.537   2.440   9.101  1.00  0.00     0.217 HD
ENDBRANCH  44  50
ENDBRANCH   1  40
TORSDOF 14
ENDMDL
MODEL 3
REMARK VINA RESULT: -7.157911203      4.237      7.638
REMARK  14 active torsions:
REMARK  status: ('A' for Active; 'I' for Inactive)
REMARK    1  A    between atoms: N1_1  and  C1_4 
REMARK    2  A    between atoms: C4_9  and  N3_10 
REMARK    3  A    between atoms: C5_15  and  O1_16 
REMARK    4  A    between atoms: O1_16  and  C6_17 
REMARK    5  A    between atoms: C6_17  and  C7_18 
REMARK    6  A    between atoms: C6_17  and  C12_36 
REMARK    7  A    between atoms: C8_23  and  C9_24 
REMARK    8  A    between atoms: N9_28  and  C10_29 
REMARK    9  A    between atoms: C10_29  and  C11_30 
REMARK   10  A    between atoms: C11_30  and  O2_31 
REMARK   11  A    between atoms: C13_38  and  C14_39 
REMARK   12  A    between atoms: C14_39  and  O5_40 
REMARK   13  A    between atoms: C14_39  and  O6_42 
REMARK   14  A    between atoms: C16_45  and  O7_46 
ROOT
HETATM    1  C6  UNL     1       0.405   4.335  12.295  1.00  0.00     0.260 C 
ENDROOT
BRANCH   1   2
HETATM    2  O1  UNL     1       0.714   3.347  13.201  1.00  0.00    -0.344 OA
BRANCH   2   3
HETATM    3  C5  UNL     1       0.580   2.104  12.589  1.00  0.00     0.274 C 
HETATM    4  C3  UNL     1      -0.357   1.212  13.318  1.00  0.00     0.077 A 
HETATM    5  C2  UNL     1       0.124   0.591  14.451  1.00  0.00     0.147 A 
HETATM    6  C4  UNL     1      -1.658   0.984  12.919  1.00  0.00     0.128 A 
HETATM    7  N2  UNL     1      -0.691  -0.229  15.145  1.00  0.00    -0.175 N 
HETATM    8  N13 UNL     1       1.467   0.844  14.839  1.00  0.00    -0.272 N 
HETATM    9  C1  UNL     1      -1.960  -0.456  14.763  1.00  0.00     0.679 A 
ATOM     10  H2  UNL     1      -0.335  -0.689  15.982  1.00  0.00     0.186 HD
HETATM   11  N4  UNL     1      -2.435   0.155  13.649  1.00  0.00    -0.177 N 
ATOM     12  H4  UNL     1      -3.397  -0.014  13.357  1.00  0.00     0.186 HD
HETATM   13  N12 UNL     1       2.391   1.400  13.949  1.00  0.00    -0.027 NA
ATOM     14  H13 UNL     1       1.763   0.614  15.787  1.00  0.00     0.185 HD
HETATM   15  N11 UNL     1       1.895   1.471  12.651  1.00  0.00    -0.089 NA
BRANCH   9  16
HETATM   16  N1  UNL     1      -2.666  -1.255  15.490  1.00  0.00    -0.234 N 
ATOM     17  H12 UNL     1      -3.315  -0.934  16.209  1.00  0.00     0.174 HD
ATOM     18  H11 UNL     1      -2.560  -2.257  15.327  1.00  0.00     0.174 HD
ENDBRANCH   9  16
BRANCH   6  19
HETATM   19  N3  UNL     1      -2.108   1.578  11.843  1.00  0.00    -0.384 N 
ATOM     20  H32 UNL     1      -2.887   1.198  11.307  1.00  0.00     0.157 HD
ATOM     21  H31 UNL     1      -1.668   2.445  11.535  1.00  0.00     0.157 HD
ENDBRANCH   6  19
ENDBRANCH   2   3
ENDBRANCH   1   2
BRANCH   1  22
HETATM   22  C7  UNL     1      -0.552   5.353  12.849  1.00  0.00     0.176 A 
HETATM   23  N5  UNL     1      -0.217   6.522  13.453  1.00  0.00    -0.279 N 
HETATM   24  N6  UNL     1      -1.339   7.147  13.804  1.00  0.00    -0.275 N 
ATOM     25  H5  UNL     1       0.732   6.862  13.610  1.00  0.00     0.189 HD
HETATM   26  C8  UNL     1      -2.371   6.386  13.429  1.00  0.00     0.211 A 
ATOM     27  H6  UNL     1      -1.400   8.049  14.277  1.00  0.00     0.189 HD
HETATM   28  O3  UNL     1      -1.861   5.321  12.860  1.00  0.00    -0.271 OA
BRANCH  26  29
HETATM   29  C9  UNL     1      -3.803   6.684  13.615  1.00  0.00     0.188 A 
HETATM   30  N7  UNL     1      -4.516   6.387  14.719  1.00  0.00    -0.263 N 
HETATM   31  N8  UNL     1      -5.766   6.818  14.492  1.00  0.00    -0.003 NA
ATOM     32  H7  UNL     1      -4.174   5.925  15.561  1.00  0.00     0.186 HD
HETATM   33  N9  UNL     1      -5.849   7.371  13.295  1.00  0.00    -0.214 N 
HETATM   34  N10 UNL     1      -4.630   7.288  12.750  1.00  0.00    -0.266 N 
ATOM     35  H10 UNL     1      -4.372   7.628  11.824  1.00  0.00     0.190 HD
BRANCH  33  36
HETATM   36  C10 UNL     1      -7.050   7.943  12.723  1.00  0.00     0.193 C 
BRANCH  36  37
HETATM   37  C11 UNL     1      -7.244   9.379  13.186  1.00  0.00     0.187 C 
BRANCH  37  38
HETATM   38  O2  UNL     1      -6.172   9.717  14.003  1.00  0.00    -0.399 OA
ATOM     39  H2  UNL     1      -6.393   9.473  14.894  1.00  0.00     0.209 HD
ENDBRANCH  37  38
ENDBRANCH  36  37
ENDBRANCH  33  36
ENDBRANCH  26  29
ENDBRANCH   1  22
BRANCH   1  40
HETATM   40  C12 UNL     1       1.601   5.061  11.810  1.00  0.00     0.123 A 
HETATM   41  O4  UNL     1       1.642   5.926  10.806  1.00  0.00    -0.308 OA
HETATM   42  C13 UNL     1       2.842   6.389  10.630  1.00  0.00     0.110 A 
HETATM   43  C15 UNL     1       3.687   5.820  11.556  1.00  0.00     0.077 A 
HETATM   44  C16 UNL     1       2.868   4.969  12.306  1.00  0.00     0.101 A 
BRANCH  42  45
HETATM   45  C14 UNL     1       3.288   7.385   9.596  1.00  0.00     0.312 C 
BRANCH  45  46
HETATM   46  O5  UNL     1       2.494   8.529   9.650  1.00  0.00    -0.365 OA
ATOM     47  H5  UNL     1       2.903   9.190  10.196  1.00  0.00     0.213 HD
ENDBRANCH  45  46
BRANCH  45  48
HETATM   48  O6  UNL     1       4.633   7.655   9.843  1.00  0.00    -0.365 OA
ATOM     49  H6  UNL     1       4.868   8.409   9.316  1.00  0.00     0.213 HD
ENDBRANCH  45  48
ENDBRANCH  42  45
BRANCH  44  50
HETATM   50  O7  UNL     1       3.373   4.213  13.350  1.00  0.00    -0.358 OA
ATOM     51  H7  UNL     1       2.935   3.632  13.960  1.00  0.00     0.217 HD
ENDBRANCH  44  50
ENDBRANCH   1  40
TORSDOF 14
ENDMDL
MODEL 4
REMARK VINA RESULT: -7.096773949      4.147      7.031
REMARK  14 active torsions:
REMARK  status: ('A' for Active; 'I' for Inactive)
REMARK    1  A    between atoms: N1_1  and  C1_4 
REMARK    2  A    between atoms: C4_9  and  N3_10 
REMARK    3  A    between atoms: C5_15  and  O1_16 
REMARK    4  A    between atoms: O1_16  and  C6_17 
REMARK    5  A    between atoms: C6_17  and  C7_18 
REMARK    6  A    between atoms: C6_17  and  C12_36 
REMARK    7  A    between atoms: C8_23  and  C9_24 
REMARK    8  A    between atoms: N9_28  and  C10_29 
REMARK    9  A    between atoms: C10_29  and  C11_30 
REMARK   10  A    between atoms: C11_30  and  O2_31 
REMARK   11  A    between atoms: C13_38  and  C14_39 
REMARK   12  A    between atoms: C14_39  and  O5_40 
REMARK   13  A    between atoms: C14_39  and  O6_42 
REMARK   14  A    between atoms: C16_45  and  O7_46 
ROOT
HETATM    1  C6  UNL     1       0.595   1.540  14.144  1.00  0.00     0.260 C 
ENDROOT
BRANCH   1   2
HETATM    2  O1  UNL     1       1.686   1.783  13.343  1.00  0.00    -0.344 OA
BRANCH   2   3
HETATM    3  C5  UNL     1       2.472   2.774  13.925  1.00  0.00     0.274 C 
HETATM    4  C3  UNL     1       2.543   4.001  13.092  1.00  0.00     0.077 A 
HETATM    5  C2  UNL     1       3.396   3.975  12.009  1.00  0.00     0.147 A 
HETATM    6  C4  UNL     1       1.809   5.141  13.351  1.00  0.00     0.128 A 
HETATM    7  N2  UNL     1       3.494   5.067  11.226  1.00  0.00    -0.175 N 
HETATM    8  N13 UNL     1       4.140   2.789  11.768  1.00  0.00    -0.272 N 
HETATM    9  C1  UNL     1       2.782   6.182  11.470  1.00  0.00     0.679 A 
ATOM     10  H2  UNL     1       4.127   5.048  10.426  1.00  0.00     0.186 HD
HETATM   11  N4  UNL     1       1.942   6.208  12.535  1.00  0.00    -0.177 N 
ATOM     12  H4  UNL     1       1.399   7.051  12.722  1.00  0.00     0.186 HD
HETATM   13  N12 UNL     1       4.297   1.812  12.755  1.00  0.00    -0.027 NA
ATOM     14  H13 UNL     1       4.569   2.648  10.854  1.00  0.00     0.185 HD
HETATM   15  N11 UNL     1       3.829   2.236  13.995  1.00  0.00    -0.089 NA
BRANCH   9  16
HETATM   16  N1  UNL     1       2.941   7.177  10.666  1.00  0.00    -0.234 N 
ATOM     17  H12 UNL     1       3.149   8.125  10.980  1.00  0.00     0.174 HD
ATOM     18  H11 UNL     1       2.850   6.993   9.666  1.00  0.00     0.174 HD
ENDBRANCH   9  16
BRANCH   6  19
HETATM   19  N3  UNL     1       1.000   5.158  14.380  1.00  0.00    -0.384 N 
ATOM     20  H32 UNL     1       1.237   4.693  15.256  1.00  0.00     0.157 HD
ATOM     21  H31 UNL     1       0.111   5.651  14.303  1.00  0.00     0.157 HD
ENDBRANCH   6  19
ENDBRANCH   2   3
ENDBRANCH   1   2
BRANCH   1  22
HETATM   22  C7  UNL     1      -0.708   1.849  13.460  1.00  0.00     0.176 A 
HETATM   23  N5  UNL     1      -1.445   0.986  12.715  1.00  0.00    -0.279 N 
HETATM   24  N6  UNL     1      -2.527   1.629  12.280  1.00  0.00    -0.275 N 
ATOM     25  H5  UNL     1      -1.211   0.013  12.522  1.00  0.00     0.189 HD
HETATM   26  C8  UNL     1      -2.477   2.882  12.742  1.00  0.00     0.211 A 
ATOM     27  H6  UNL     1      -3.265   1.235  11.697  1.00  0.00     0.189 HD
HETATM   28  O3  UNL     1      -1.374   2.976  13.444  1.00  0.00    -0.271 OA
BRANCH  26  29
HETATM   29  C9  UNL     1      -3.468   3.950  12.510  1.00  0.00     0.188 A 
HETATM   30  N7  UNL     1      -4.724   3.754  12.064  1.00  0.00    -0.263 N 
HETATM   31  N8  UNL     1      -5.294   4.965  11.989  1.00  0.00    -0.003 NA
ATOM     32  H7  UNL     1      -5.156   2.860  11.829  1.00  0.00     0.186 HD
HETATM   33  N9  UNL     1      -4.440   5.898  12.373  1.00  0.00    -0.214 N 
HETATM   34  N10 UNL     1      -3.306   5.268  12.696  1.00  0.00    -0.266 N 
ATOM     35  H10 UNL     1      -2.454   5.718  13.031  1.00  0.00     0.190 HD
BRANCH  33  36
HETATM   36  C10 UNL     1      -4.722   7.317  12.418  1.00  0.00     0.193 C 
BRANCH  36  37
HETATM   37  C11 UNL     1      -5.544   7.672  13.647  1.00  0.00     0.187 C 
BRANCH  37  38
HETATM   38  O2  UNL     1      -5.219   6.774  14.657  1.00  0.00    -0.399 OA
ATOM     39  H2  UNL     1      -5.951   6.181  14.770  1.00  0.00     0.209 HD
ENDBRANCH  37  38
ENDBRANCH  36  37
ENDBRANCH  33  36
ENDBRANCH  26  29
ENDBRANCH   1  22
BRANCH   1  40
HETATM   40  C12 UNL     1       0.531   0.139  14.617  1.00  0.00     0.123 A 
HETATM   41  O4  UNL     1      -0.528  -0.470  15.131  1.00  0.00    -0.308 OA
HETATM   42  C13 UNL     1      -0.258  -1.699  15.450  1.00  0.00     0.110 A 
HETATM   43  C15 UNL     1       1.057  -1.967  15.145  1.00  0.00     0.077 A 
HETATM   44  C16 UNL     1       1.547  -0.771  14.610  1.00  0.00     0.101 A 
BRANCH  42  45
HETATM   45  C14 UNL     1      -1.195  -2.707  16.058  1.00  0.00     0.312 C 
BRANCH  45  46
HETATM   46  O5  UNL     1      -0.794  -3.020  17.356  1.00  0.00    -0.365 OA
ATOM     47  H5  UNL     1      -0.230  -2.338  17.701  1.00  0.00     0.213 HD
ENDBRANCH  45  46
BRANCH  45  48
HETATM   48  O6  UNL     1      -2.474  -2.155  16.009  1.00  0.00    -0.365 OA
ATOM     49  H6  UNL     1      -3.060  -2.775  16.427  1.00  0.00     0.213 HD
ENDBRANCH  45  48
ENDBRANCH  42  45
BRANCH  44  50
HETATM   50  O7  UNL     1       2.858  -0.653  14.180  1.00  0.00    -0.358 OA
ATOM     51  H7  UNL     1       3.434   0.102  14.155  1.00  0.00     0.217 HD
ENDBRANCH  44  50
ENDBRANCH   1  40
TORSDOF 14
ENDMDL
MODEL 5
REMARK VINA RESULT: -6.972575747      3.838      8.589
REMARK  14 active torsions:
REMARK  status: ('A' for Active; 'I' for Inactive)
REMARK    1  A    between atoms: N1_1  and  C1_4 
REMARK    2  A    between atoms: C4_9  and  N3_10 
REMARK    3  A    between atoms: C5_15  and  O1_16 
REMARK    4  A    between atoms: O1_16  and  C6_17 
REMARK    5  A    between atoms: C6_17  and  C7_18 
REMARK    6  A    between atoms: C6_17  and  C12_36 
REMARK    7  A    between atoms: C8_23  and  C9_24 
REMARK    8  A    between atoms: N9_28  and  C10_29 
REMARK    9  A    between atoms: C10_29  and  C11_30 
REMARK   10  A    between atoms: C11_30  and  O2_31 
REMARK   11  A    between atoms: C13_38  and  C14_39 
REMARK   12  A    between atoms: C14_39  and  O5_40 
REMARK   13  A    between atoms: C14_39  and  O6_42 
REMARK   14  A    between atoms: C16_45  and  O7_46 
ROOT
HETATM    1  C6  UNL     1       3.237   8.469   6.486  1.00  0.00     0.260 C 
ENDROOT
BRANCH   1   2
HETATM    2  O1  UNL     1       4.036   9.562   6.242  1.00  0.00    -0.344 OA
BRANCH   2   3
HETATM    3  C5  UNL     1       5.126   9.171   5.470  1.00  0.00     0.274 C 
HETATM    4  C3  UNL     1       6.406   9.729   5.974  1.00  0.00     0.077 A 
HETATM    5  C2  UNL     1       6.677  11.047   5.671  1.00  0.00     0.147 A 
HETATM    6  C4  UNL     1       7.316   9.002   6.714  1.00  0.00     0.128 A 
HETATM    7  N2  UNL     1       7.828  11.596   6.106  1.00  0.00    -0.175 N 
HETATM    8  N13 UNL     1       5.724  11.771   4.906  1.00  0.00    -0.272 N 
HETATM    9  C1  UNL     1       8.720  10.895   6.829  1.00  0.00     0.679 A 
ATOM     10  H2  UNL     1       8.029  12.570   5.881  1.00  0.00     0.186 HD
HETATM   11  N4  UNL     1       8.454   9.599   7.129  1.00  0.00    -0.177 N 
ATOM     12  H4  UNL     1       9.127   9.064   7.678  1.00  0.00     0.186 HD
HETATM   13  N12 UNL     1       4.725  11.119   4.177  1.00  0.00    -0.027 NA
ATOM     14  H13 UNL     1       5.770  12.790   4.888  1.00  0.00     0.185 HD
HETATM   15  N11 UNL     1       4.914   9.741   4.141  1.00  0.00    -0.089 NA
BRANCH   9  16
HETATM   16  N1  UNL     1       9.793  11.504   7.203  1.00  0.00    -0.234 N 
ATOM     17  H12 UNL     1      10.609  11.623   6.603  1.00  0.00     0.174 HD
ATOM     18  H11 UNL     1       9.814  11.882   8.151  1.00  0.00     0.174 HD
ENDBRANCH   9  16
BRANCH   6  19
HETATM   19  N3  UNL     1       7.051   7.753   6.999  1.00  0.00    -0.384 N 
ATOM     20  H32 UNL     1       7.613   6.987   6.627  1.00  0.00     0.157 HD
ATOM     21  H31 UNL     1       6.263   7.539   7.611  1.00  0.00     0.157 HD
ENDBRANCH   6  19
ENDBRANCH   2   3
ENDBRANCH   1   2
BRANCH   1  22
HETATM   22  C7  UNL     1       3.366   7.957   7.894  1.00  0.00     0.176 A 
HETATM   23  N5  UNL     1       4.058   8.549   8.900  1.00  0.00    -0.279 N 
HETATM   24  N6  UNL     1       3.935   7.796   9.991  1.00  0.00    -0.275 N 
ATOM     25  H5  UNL     1       4.581   9.422   8.833  1.00  0.00     0.189 HD
HETATM   26  C8  UNL     1       3.177   6.740   9.681  1.00  0.00     0.211 A 
ATOM     27  H6  UNL     1       4.347   7.990  10.904  1.00  0.00     0.189 HD
HETATM   28  O3  UNL     1       2.856   6.871   8.417  1.00  0.00    -0.271 OA
BRANCH  26  29
HETATM   29  C9  UNL     1       2.778   5.642  10.582  1.00  0.00     0.188 A 
HETATM   30  N7  UNL     1       2.628   4.356  10.211  1.00  0.00    -0.263 N 
HETATM   31  N8  UNL     1       2.261   3.684  11.312  1.00  0.00    -0.003 NA
ATOM     32  H7  UNL     1       2.766   3.969   9.278  1.00  0.00     0.186 HD
HETATM   33  N9  UNL     1       2.181   4.504  12.345  1.00  0.00    -0.214 N 
HETATM   34  N10 UNL     1       2.502   5.721  11.891  1.00  0.00    -0.266 N 
ATOM     35  H10 UNL     1       2.531   6.572  12.452  1.00  0.00     0.190 HD
BRANCH  33  36
HETATM   36  C10 UNL     1       1.812   4.117  13.690  1.00  0.00     0.193 C 
BRANCH  36  37
HETATM   37  C11 UNL     1       0.933   5.174  14.341  1.00  0.00     0.187 C 
BRANCH  37  38
HETATM   38  O2  UNL     1       1.762   6.144  14.891  1.00  0.00    -0.399 OA
ATOM     39  H2  UNL     1       2.264   6.536  14.186  1.00  0.00     0.209 HD
ENDBRANCH  37  38
ENDBRANCH  36  37
ENDBRANCH  33  36
ENDBRANCH  26  29
ENDBRANCH   1  22
BRANCH   1  40
HETATM   40  C12 UNL     1       1.803   8.741   6.238  1.00  0.00     0.123 A 
HETATM   41  O4  UNL     1       1.183   8.679   5.067  1.00  0.00    -0.308 OA
HETATM   42  C13 UNL     1      -0.076   8.975   5.184  1.00  0.00     0.110 A 
HETATM   43  C15 UNL     1      -0.353   9.260   6.502  1.00  0.00     0.077 A 
HETATM   44  C16 UNL     1       0.870   9.102   7.163  1.00  0.00     0.101 A 
BRANCH  42  45
HETATM   45  C14 UNL     1      -1.105   9.016   4.088  1.00  0.00     0.312 C 
BRANCH  45  46
HETATM   46  O5  UNL     1      -1.087  10.256   3.452  1.00  0.00    -0.365 OA
ATOM     47  H5  UNL     1      -1.327  10.944   4.062  1.00  0.00     0.213 HD
ENDBRANCH  45  46
BRANCH  45  48
HETATM   48  O6  UNL     1      -0.818   7.964   3.220  1.00  0.00    -0.365 OA
ATOM     49  H6  UNL     1      -1.649   7.606   2.932  1.00  0.00     0.213 HD
ENDBRANCH  45  48
ENDBRANCH  42  45
BRANCH  44  50
HETATM   50  O7  UNL     1       0.987   9.307   8.527  1.00  0.00    -0.358 OA
ATOM     51  H7  UNL     1       1.276  10.069   9.015  1.00  0.00     0.217 HD
ENDBRANCH  44  50
ENDBRANCH   1  40
TORSDOF 14
ENDMDL
