MODEL 1
REMARK VINA RESULT: -9.401529076      0.000      0.000
REMARK  18 active torsions:
REMARK  status: ('A' for Active; 'I' for Inactive)
REMARK    1  A    between atoms: C2_2  and  O1_4 
REMARK    2  A    between atoms: C2_2  and  C4_6 
REMARK    3  A    between atoms: C5_7  and  O2_8 
REMARK    4  A    between atoms: C6_10  and  O3_11 
REMARK    5  A    between atoms: C7_13  and  O4_14 
REMARK    6  A    between atoms: N1_16  and  C8_17 
REMARK    7  A    between atoms: N3_22  and  O5_23 
REMARK    8  A    between atoms: N6_30  and  C12_31 
REMARK    9  A    between atoms: C12_31  and  C13_32 
REMARK   10  A    between atoms: C13_32  and  O6_33 
REMARK   11  A    between atoms: C13_32  and  C14_35 
REMARK   12  A    between atoms: C14_35  and  O7_36 
REMARK   13  A    between atoms: C14_35  and  C15_38 
REMARK   14  A    between atoms: C15_38  and  O8_39 
REMARK   15  A    between atoms: C15_38  and  C16_41 
REMARK   16  A    between atoms: C16_41  and  O9_42 
REMARK   17  A    between atoms: C16_41  and  C17_44 
REMARK   18  A    between atoms: C17_44  and  O10_45 
ROOT
HETATM    1  C8  UNL     1     -24.307 -11.832  -5.322  1.00  0.00     0.721 A 
HETATM    2  N2  UNL     1     -25.256 -11.848  -4.385  1.00  0.00    -0.167 N 
ATOM      3  H2  UNL     1     -25.088 -11.917  -3.381  1.00  0.00     0.186 HD
HETATM    4  C9  UNL     1     -26.453 -11.759  -4.955  1.00  0.00     0.210 A 
HETATM    5  C10 UNL     1     -26.208 -11.685  -6.312  1.00  0.00     0.214 A 
HETATM    6  N3  UNL     1     -24.862 -11.731  -6.539  1.00  0.00    -0.029 N 
HETATM    7  N4  UNL     1     -27.338 -11.581  -7.189  1.00  0.00    -0.266 N 
ATOM      8  H4  UNL     1     -27.211 -11.522  -8.198  1.00  0.00     0.189 HD
HETATM    9  N5  UNL     1     -28.619 -11.562  -6.628  1.00  0.00    -0.127 N 
ATOM     10  H5  UNL     1     -29.420 -11.489  -7.256  1.00  0.00     0.206 HD
HETATM   11  C11 UNL     1     -28.842 -11.631  -5.360  1.00  0.00     0.739 A 
HETATM   12  N6  UNL     1     -30.058 -11.628  -4.565  1.00  0.00    -0.102 N 
HETATM   13  N7  UNL     1     -29.615 -11.729  -3.271  1.00  0.00    -0.210 N 
ATOM     14  H7  UNL     1     -30.243 -11.752  -2.468  1.00  0.00     0.210 HD
HETATM   15  N8  UNL     1     -28.351 -11.789  -3.167  1.00  0.00    -0.204 N 
ATOM     16  H8  UNL     1     -27.836 -11.866  -2.290  1.00  0.00     0.211 HD
HETATM   17  N9  UNL     1     -27.774 -11.735  -4.436  1.00  0.00    -0.047 N 
ENDROOT
BRANCH   1  18
HETATM   18  N1  UNL     1     -22.919 -11.937  -5.087  1.00  0.00    -0.119 N 
HETATM   19  C4  UNL     1     -22.009 -10.971  -5.099  1.00  0.00     0.106 A 
HETATM   20  C5  UNL     1     -20.761 -11.579  -4.812  1.00  0.00     0.130 A 
HETATM   21  C6  UNL     1     -20.959 -12.899  -4.631  1.00  0.00     0.153 A 
HETATM   22  C7  UNL     1     -22.296 -13.140  -4.798  1.00  0.00     0.200 A 
BRANCH  19  23
HETATM   23  C2  UNL     1     -22.095  -9.525  -5.339  1.00  0.00     0.097 C 
HETATM   24  C1  UNL     1     -23.424  -8.888  -5.279  1.00  0.00     0.052 C 
HETATM   25  C3  UNL     1     -21.387  -9.127  -6.628  1.00  0.00     0.052 C 
BRANCH  23  26
HETATM   26  O1  UNL     1     -21.320  -8.900  -4.311  1.00  0.00    -0.384 OA
ATOM     27  H1  UNL     1     -20.475  -9.334  -4.327  1.00  0.00     0.211 HD
ENDBRANCH  23  26
ENDBRANCH  19  23
BRANCH  20  28
HETATM   28  O2  UNL     1     -19.546 -10.892  -4.734  1.00  0.00    -0.356 OA
ATOM     29  H2  UNL     1     -18.696 -11.284  -4.896  1.00  0.00     0.218 HD
ENDBRANCH  20  28
BRANCH  21  30
HETATM   30  O3  UNL     1     -20.007 -13.858  -4.331  1.00  0.00    -0.354 OA
ATOM     31  H3  UNL     1     -20.138 -14.796  -4.252  1.00  0.00     0.218 HD
ENDBRANCH  21  30
BRANCH  22  32
HETATM   32  O4  UNL     1     -22.974 -14.333  -4.712  1.00  0.00    -0.343 OA
ATOM     33  H4  UNL     1     -23.792 -14.585  -5.125  1.00  0.00     0.219 HD
ENDBRANCH  22  32
ENDBRANCH   1  18
BRANCH   6  34
HETATM   34  O5  UNL     1     -24.314 -11.677  -7.783  1.00  0.00    -0.268 OA
ATOM     35  H5  UNL     1     -24.624 -11.295  -8.595  1.00  0.00     0.246 HD
ENDBRANCH   6  34
BRANCH  12  36
HETATM   36  C12 UNL     1     -31.345 -11.478  -5.163  1.00  0.00     0.204 C 
BRANCH  36  37
HETATM   37  C13 UNL     1     -32.100 -10.223  -4.893  1.00  0.00     0.170 C 
BRANCH  37  38
HETATM   38  O6  UNL     1     -31.172  -9.222  -4.445  1.00  0.00    -0.391 OA
ATOM     39  H6  UNL     1     -30.874  -9.457  -3.574  1.00  0.00     0.210 HD
ENDBRANCH  37  38
BRANCH  37  40
HETATM   40  C14 UNL     1     -32.555  -9.637  -6.245  1.00  0.00     0.179 C 
BRANCH  40  41
HETATM   41  O7  UNL     1     -33.426 -10.626  -6.788  1.00  0.00    -0.390 OA
ATOM     42  H7  UNL     1     -34.056 -10.132  -7.300  1.00  0.00     0.210 HD
ENDBRANCH  40  41
BRANCH  40  43
HETATM   43  C15 UNL     1     -33.292  -8.360  -6.115  1.00  0.00     0.180 C 
BRANCH  43  44
HETATM   44  O8  UNL     1     -34.665  -8.526  -5.969  1.00  0.00    -0.390 OA
ATOM     45  H8  UNL     1     -35.138  -7.706  -5.888  1.00  0.00     0.210 HD
ENDBRANCH  43  44
BRANCH  43  46
HETATM   46  C16 UNL     1     -32.804  -7.273  -5.259  1.00  0.00     0.173 C 
BRANCH  46  47
HETATM   47  O9  UNL     1     -31.714  -6.563  -5.726  1.00  0.00    -0.391 OA
ATOM     48  H9  UNL     1     -31.860  -5.647  -5.928  1.00  0.00     0.210 HD
ENDBRANCH  46  47
BRANCH  46  49
HETATM   49  C17 UNL     1     -33.909  -6.330  -4.793  1.00  0.00     0.198 C 
BRANCH  49  50
HETATM   50  O10 UNL     1     -34.562  -6.931  -3.747  1.00  0.00    -0.398 OA
ATOM     51  H10 UNL     1     -34.958  -7.731  -4.072  1.00  0.00     0.209 HD
ENDBRANCH  49  50
ENDBRANCH  46  49
ENDBRANCH  43  46
ENDBRANCH  40  43
ENDBRANCH  37  40
ENDBRANCH  36  37
ENDBRANCH  12  36
TORSDOF 18
ENDMDL
MODEL 2
REMARK VINA RESULT: -9.124732429      0.463      1.237
REMARK  18 active torsions:
REMARK  status: ('A' for Active; 'I' for Inactive)
REMARK    1  A    between atoms: C2_2  and  O1_4 
REMARK    2  A    between atoms: C2_2  and  C4_6 
REMARK    3  A    between atoms: C5_7  and  O2_8 
REMARK    4  A    between atoms: C6_10  and  O3_11 
REMARK    5  A    between atoms: C7_13  and  O4_14 
REMARK    6  A    between atoms: N1_16  and  C8_17 
REMARK    7  A    between atoms: N3_22  and  O5_23 
REMARK    8  A    between atoms: N6_30  and  C12_31 
REMARK    9  A    between atoms: C12_31  and  C13_32 
REMARK   10  A    between atoms: C13_32  and  O6_33 
REMARK   11  A    between atoms: C13_32  and  C14_35 
REMARK   12  A    between atoms: C14_35  and  O7_36 
REMARK   13  A    between atoms: C14_35  and  C15_38 
REMARK   14  A    between atoms: C15_38  and  O8_39 
REMARK   15  A    between atoms: C15_38  and  C16_41 
REMARK   16  A    between atoms: C16_41  and  O9_42 
REMARK   17  A    between atoms: C16_41  and  C17_44 
REMARK   18  A    between atoms: C17_44  and  O10_45 
ROOT
HETATM    1  C8  UNL     1     -24.283 -11.875  -5.289  1.00  0.00     0.721 A 
HETATM    2  N2  UNL     1     -25.225 -11.913  -4.346  1.00  0.00    -0.167 N 
ATOM      3  H2  UNL     1     -25.049 -11.979  -3.344  1.00  0.00     0.186 HD
HETATM    4  C9  UNL     1     -26.427 -11.851  -4.909  1.00  0.00     0.210 A 
HETATM    5  C10 UNL     1     -26.192 -11.770  -6.267  1.00  0.00     0.214 A 
HETATM    6  N3  UNL     1     -24.847 -11.786  -6.502  1.00  0.00    -0.029 N 
HETATM    7  N4  UNL     1     -27.330 -11.690  -7.137  1.00  0.00    -0.266 N 
ATOM      8  H4  UNL     1     -27.210 -11.628  -8.147  1.00  0.00     0.189 HD
HETATM    9  N5  UNL     1     -28.608 -11.700  -6.568  1.00  0.00    -0.127 N 
ATOM     10  H5  UNL     1     -29.414 -11.645  -7.191  1.00  0.00     0.206 HD
HETATM   11  C11 UNL     1     -28.821 -11.775  -5.299  1.00  0.00     0.739 A 
HETATM   12  N6  UNL     1     -30.031 -11.801  -4.496  1.00  0.00    -0.102 N 
HETATM   13  N7  UNL     1     -29.579 -11.892  -3.206  1.00  0.00    -0.210 N 
ATOM     14  H7  UNL     1     -30.201 -11.930  -2.399  1.00  0.00     0.210 HD
HETATM   15  N8  UNL     1     -28.313 -11.925  -3.110  1.00  0.00    -0.204 N 
ATOM     16  H8  UNL     1     -27.792 -11.990  -2.236  1.00  0.00     0.211 HD
HETATM   17  N9  UNL     1     -27.745 -11.856  -4.382  1.00  0.00    -0.047 N 
ENDROOT
BRANCH   1  18
HETATM   18  N1  UNL     1     -22.891 -11.949  -5.062  1.00  0.00    -0.119 N 
HETATM   19  C4  UNL     1     -22.002 -10.964  -5.087  1.00  0.00     0.106 A 
HETATM   20  C5  UNL     1     -20.740 -11.544  -4.804  1.00  0.00     0.130 A 
HETATM   21  C6  UNL     1     -20.908 -12.866  -4.614  1.00  0.00     0.153 A 
HETATM   22  C7  UNL     1     -22.241 -13.137  -4.770  1.00  0.00     0.200 A 
BRANCH  19  23
HETATM   23  C2  UNL     1     -22.120  -9.521  -5.336  1.00  0.00     0.097 C 
HETATM   24  C1  UNL     1     -23.461  -8.912  -5.267  1.00  0.00     0.052 C 
HETATM   25  C3  UNL     1     -21.432  -9.118  -6.633  1.00  0.00     0.052 C 
BRANCH  23  26
HETATM   26  O1  UNL     1     -21.349  -8.874  -4.318  1.00  0.00    -0.384 OA
ATOM     27  H1  UNL     1     -20.705  -9.514  -4.039  1.00  0.00     0.211 HD
ENDBRANCH  23  26
ENDBRANCH  19  23
BRANCH  20  28
HETATM   28  O2  UNL     1     -19.538 -10.830  -4.739  1.00  0.00    -0.356 OA
ATOM     29  H2  UNL     1     -19.141 -10.520  -3.934  1.00  0.00     0.218 HD
ENDBRANCH  20  28
BRANCH  21  30
HETATM   30  O3  UNL     1     -19.934 -13.803  -4.314  1.00  0.00    -0.354 OA
ATOM     31  H3  UNL     1     -19.792 -14.642  -4.736  1.00  0.00     0.218 HD
ENDBRANCH  21  30
BRANCH  22  32
HETATM   32  O4  UNL     1     -22.893 -14.343  -4.672  1.00  0.00    -0.343 OA
ATOM     33  H4  UNL     1     -23.758 -14.527  -4.324  1.00  0.00     0.219 HD
ENDBRANCH  22  32
ENDBRANCH   1  18
BRANCH   6  34
HETATM   34  O5  UNL     1     -24.308 -11.718  -7.750  1.00  0.00    -0.268 OA
ATOM     35  H5  UNL     1     -24.188 -10.992  -8.349  1.00  0.00     0.246 HD
ENDBRANCH   6  34
BRANCH  12  36
HETATM   36  C12 UNL     1     -31.325 -11.679  -5.087  1.00  0.00     0.204 C 
BRANCH  36  37
HETATM   37  C13 UNL     1     -31.636 -10.432  -5.840  1.00  0.00     0.170 C 
BRANCH  37  38
HETATM   38  O6  UNL     1     -32.886 -10.616  -6.526  1.00  0.00    -0.391 OA
ATOM     39  H6  UNL     1     -32.711 -11.032  -7.362  1.00  0.00     0.210 HD
ENDBRANCH  37  38
BRANCH  37  40
HETATM   40  C14 UNL     1     -32.004  -9.336  -4.820  1.00  0.00     0.179 C 
BRANCH  40  41
HETATM   41  O7  UNL     1     -30.869  -9.253  -3.961  1.00  0.00    -0.390 OA
ATOM     42  H7  UNL     1     -30.643  -8.330  -3.955  1.00  0.00     0.210 HD
ENDBRANCH  40  41
BRANCH  40  43
HETATM   43  C15 UNL     1     -32.242  -8.012  -5.439  1.00  0.00     0.180 C 
BRANCH  43  44
HETATM   44  O8  UNL     1     -31.454  -7.776  -6.560  1.00  0.00    -0.390 OA
ATOM     45  H8  UNL     1     -30.971  -8.542  -6.850  1.00  0.00     0.210 HD
ENDBRANCH  43  44
BRANCH  43  46
HETATM   46  C16 UNL     1     -33.596  -7.484  -5.632  1.00  0.00     0.173 C 
BRANCH  46  47
HETATM   47  O9  UNL     1     -34.619  -8.413  -5.674  1.00  0.00    -0.391 OA
ATOM     48  H9  UNL     1     -35.497  -8.071  -5.795  1.00  0.00     0.210 HD
ENDBRANCH  46  47
BRANCH  46  49
HETATM   49  C17 UNL     1     -33.939  -6.340  -4.684  1.00  0.00     0.198 C 
BRANCH  49  50
HETATM   50  O10 UNL     1     -34.633  -6.865  -3.624  1.00  0.00    -0.398 OA
ATOM     51  H10 UNL     1     -34.679  -6.200  -2.947  1.00  0.00     0.209 HD
ENDBRANCH  49  50
ENDBRANCH  46  49
ENDBRANCH  43  46
ENDBRANCH  40  43
ENDBRANCH  37  40
ENDBRANCH  36  37
ENDBRANCH  12  36
TORSDOF 18
ENDMDL
MODEL 3
REMARK VINA RESULT: -8.904568058      0.979      1.385
REMARK  18 active torsions:
REMARK  status: ('A' for Active; 'I' for Inactive)
REMARK    1  A    between atoms: C2_2  and  O1_4 
REMARK    2  A    between atoms: C2_2  and  C4_6 
REMARK    3  A    between atoms: C5_7  and  O2_8 
REMARK    4  A    between atoms: C6_10  and  O3_11 
REMARK    5  A    between atoms: C7_13  and  O4_14 
REMARK    6  A    between atoms: N1_16  and  C8_17 
REMARK    7  A    between atoms: N3_22  and  O5_23 
REMARK    8  A    between atoms: N6_30  and  C12_31 
REMARK    9  A    between atoms: C12_31  and  C13_32 
REMARK   10  A    between atoms: C13_32  and  O6_33 
REMARK   11  A    between atoms: C13_32  and  C14_35 
REMARK   12  A    between atoms: C14_35  and  O7_36 
REMARK   13  A    between atoms: C14_35  and  C15_38 
REMARK   14  A    between atoms: C15_38  and  O8_39 
REMARK   15  A    between atoms: C15_38  and  C16_41 
REMARK   16  A    between atoms: C16_41  and  O9_42 
REMARK   17  A    between atoms: C16_41  and  C17_44 
REMARK   18  A    between atoms: C17_44  and  O10_45 
ROOT
HETATM    1  C8  UNL     1     -24.181 -12.124  -5.283  1.00  0.00     0.721 A 
HETATM    2  N2  UNL     1     -25.108 -12.344  -4.350  1.00  0.00    -0.167 N 
ATOM      3  H2  UNL     1     -24.918 -12.512  -3.362  1.00  0.00     0.186 HD
HETATM    4  C9  UNL     1     -26.317 -12.313  -4.902  1.00  0.00     0.210 A 
HETATM    5  C10 UNL     1     -26.101 -12.058  -6.242  1.00  0.00     0.214 A 
HETATM    6  N3  UNL     1     -24.762 -11.940  -6.477  1.00  0.00    -0.029 N 
HETATM    7  N4  UNL     1     -27.250 -11.969  -7.096  1.00  0.00    -0.266 N 
ATOM      8  H4  UNL     1     -27.145 -11.780  -8.092  1.00  0.00     0.189 HD
HETATM    9  N5  UNL     1     -28.518 -12.145  -6.532  1.00  0.00    -0.127 N 
ATOM     10  H5  UNL     1     -29.332 -12.082  -7.144  1.00  0.00     0.206 HD
HETATM   11  C11 UNL     1     -28.713 -12.383  -5.280  1.00  0.00     0.739 A 
HETATM   12  N6  UNL     1     -29.910 -12.596  -4.485  1.00  0.00    -0.102 N 
HETATM   13  N7  UNL     1     -29.440 -12.800  -3.214  1.00  0.00    -0.210 N 
ATOM     14  H7  UNL     1     -30.049 -12.980  -2.417  1.00  0.00     0.210 HD
HETATM   15  N8  UNL     1     -28.174 -12.743  -3.123  1.00  0.00    -0.204 N 
ATOM     16  H8  UNL     1     -27.641 -12.868  -2.263  1.00  0.00     0.211 HD
HETATM   17  N9  UNL     1     -27.626 -12.484  -4.378  1.00  0.00    -0.047 N 
ENDROOT
BRANCH   1  18
HETATM   18  N1  UNL     1     -22.785 -12.113  -5.066  1.00  0.00    -0.119 N 
HETATM   19  C4  UNL     1     -21.964 -11.070  -5.056  1.00  0.00     0.106 A 
HETATM   20  C5  UNL     1     -20.664 -11.575  -4.803  1.00  0.00     0.130 A 
HETATM   21  C6  UNL     1     -20.742 -12.912  -4.665  1.00  0.00     0.153 A 
HETATM   22  C7  UNL     1     -22.055 -13.265  -4.826  1.00  0.00     0.200 A 
BRANCH  19  23
HETATM   23  C2  UNL     1     -22.180  -9.630  -5.245  1.00  0.00     0.097 C 
HETATM   24  C1  UNL     1     -23.559  -9.115  -5.144  1.00  0.00     0.052 C 
HETATM   25  C3  UNL     1     -21.533  -9.130  -6.530  1.00  0.00     0.052 C 
BRANCH  23  26
HETATM   26  O1  UNL     1     -21.446  -8.973  -4.207  1.00  0.00    -0.384 OA
ATOM     27  H1  UNL     1     -20.571  -8.845  -4.554  1.00  0.00     0.211 HD
ENDBRANCH  23  26
ENDBRANCH  19  23
BRANCH  20  28
HETATM   28  O2  UNL     1     -19.513 -10.785  -4.715  1.00  0.00    -0.356 OA
ATOM     29  H2  UNL     1     -18.842 -10.886  -4.051  1.00  0.00     0.218 HD
ENDBRANCH  20  28
BRANCH  21  30
HETATM   30  O3  UNL     1     -19.706 -13.792  -4.409  1.00  0.00    -0.354 OA
ATOM     31  H3  UNL     1     -19.543 -14.274  -3.606  1.00  0.00     0.218 HD
ENDBRANCH  21  30
BRANCH  22  32
HETATM   32  O4  UNL     1     -22.624 -14.516  -4.774  1.00  0.00    -0.343 OA
ATOM     33  H4  UNL     1     -22.710 -15.101  -4.030  1.00  0.00     0.219 HD
ENDBRANCH  22  32
ENDBRANCH   1  18
BRANCH   6  34
HETATM   34  O5  UNL     1     -24.241 -11.686  -7.709  1.00  0.00    -0.268 OA
ATOM     35  H5  UNL     1     -24.645 -11.398  -8.519  1.00  0.00     0.246 HD
ENDBRANCH   6  34
BRANCH  12  36
HETATM   36  C12 UNL     1     -31.215 -12.510  -5.058  1.00  0.00     0.204 C 
BRANCH  36  37
HETATM   37  C13 UNL     1     -31.955 -11.225  -4.923  1.00  0.00     0.170 C 
BRANCH  37  38
HETATM   38  O6  UNL     1     -31.109 -10.283  -4.241  1.00  0.00    -0.391 OA
ATOM     39  H6  UNL     1     -31.286  -9.416  -4.585  1.00  0.00     0.210 HD
ENDBRANCH  37  38
BRANCH  37  40
HETATM   40  C14 UNL     1     -32.062 -10.584  -6.321  1.00  0.00     0.179 C 
BRANCH  40  41
HETATM   41  O7  UNL     1     -33.436 -10.226  -6.446  1.00  0.00    -0.390 OA
ATOM     42  H7  UNL     1     -33.497  -9.810  -7.298  1.00  0.00     0.210 HD
ENDBRANCH  40  41
BRANCH  40  43
HETATM   43  C15 UNL     1     -31.228  -9.371  -6.478  1.00  0.00     0.180 C 
BRANCH  43  44
HETATM   44  O8  UNL     1     -29.928  -9.642  -6.889  1.00  0.00    -0.390 OA
ATOM     45  H8  UNL     1     -29.353  -8.887  -6.847  1.00  0.00     0.210 HD
ENDBRANCH  43  44
BRANCH  43  46
HETATM   46  C16 UNL     1     -31.742  -8.164  -7.134  1.00  0.00     0.173 C 
BRANCH  46  47
HETATM   47  O9  UNL     1     -32.650  -8.356  -8.157  1.00  0.00    -0.391 OA
ATOM     48  H9  UNL     1     -32.318  -8.264  -9.042  1.00  0.00     0.210 HD
ENDBRANCH  46  47
BRANCH  46  49
HETATM   49  C17 UNL     1     -32.245  -7.111  -6.151  1.00  0.00     0.198 C 
BRANCH  49  50
HETATM   50  O10 UNL     1     -32.201  -7.655  -4.892  1.00  0.00    -0.398 OA
ATOM     51  H10 UNL     1     -32.097  -6.944  -4.271  1.00  0.00     0.209 HD
ENDBRANCH  49  50
ENDBRANCH  46  49
ENDBRANCH  43  46
ENDBRANCH  40  43
ENDBRANCH  37  40
ENDBRANCH  36  37
ENDBRANCH  12  36
TORSDOF 18
ENDMDL
MODEL 4
REMARK VINA RESULT: -8.778482873      1.001      2.642
REMARK  18 active torsions:
REMARK  status: ('A' for Active; 'I' for Inactive)
REMARK    1  A    between atoms: C2_2  and  O1_4 
REMARK    2  A    between atoms: C2_2  and  C4_6 
REMARK    3  A    between atoms: C5_7  and  O2_8 
REMARK    4  A    between atoms: C6_10  and  O3_11 
REMARK    5  A    between atoms: C7_13  and  O4_14 
REMARK    6  A    between atoms: N1_16  and  C8_17 
REMARK    7  A    between atoms: N3_22  and  O5_23 
REMARK    8  A    between atoms: N6_30  and  C12_31 
REMARK    9  A    between atoms: C12_31  and  C13_32 
REMARK   10  A    between atoms: C13_32  and  O6_33 
REMARK   11  A    between atoms: C13_32  and  C14_35 
REMARK   12  A    between atoms: C14_35  and  O7_36 
REMARK   13  A    between atoms: C14_35  and  C15_38 
REMARK   14  A    between atoms: C15_38  and  O8_39 
REMARK   15  A    between atoms: C15_38  and  C16_41 
REMARK   16  A    between atoms: C16_41  and  O9_42 
REMARK   17  A    between atoms: C16_41  and  C17_44 
REMARK   18  A    between atoms: C17_44  and  O10_45 
ROOT
HETATM    1  C8  UNL     1     -24.029 -11.921  -5.292  1.00  0.00     0.721 A 
HETATM    2  N2  UNL     1     -25.008 -11.877  -4.387  1.00  0.00    -0.167 N 
ATOM      3  H2  UNL     1     -24.881 -11.979  -3.381  1.00  0.00     0.186 HD
HETATM    4  C9  UNL     1     -26.174 -11.679  -4.995  1.00  0.00     0.210 A 
HETATM    5  C10 UNL     1     -25.876 -11.599  -6.341  1.00  0.00     0.214 A 
HETATM    6  N3  UNL     1     -24.531 -11.751  -6.524  1.00  0.00    -0.029 N 
HETATM    7  N4  UNL     1     -26.963 -11.385  -7.252  1.00  0.00    -0.266 N 
ATOM      8  H4  UNL     1     -26.796 -11.317  -8.256  1.00  0.00     0.189 HD
HETATM    9  N5  UNL     1     -28.257 -11.271  -6.734  1.00  0.00    -0.127 N 
ATOM     10  H5  UNL     1     -29.027 -11.120  -7.386  1.00  0.00     0.206 HD
HETATM   11  C11 UNL     1     -28.529 -11.346  -5.476  1.00  0.00     0.739 A 
HETATM   12  N6  UNL     1     -29.767 -11.259  -4.722  1.00  0.00    -0.102 N 
HETATM   13  N7  UNL     1     -29.380 -11.420  -3.417  1.00  0.00    -0.210 N 
ATOM     14  H7  UNL     1     -30.035 -11.407  -2.635  1.00  0.00     0.210 HD
HETATM   15  N8  UNL     1     -28.129 -11.587  -3.272  1.00  0.00    -0.204 N 
ATOM     16  H8  UNL     1     -27.653 -11.723  -2.381  1.00  0.00     0.211 HD
HETATM   17  N9  UNL     1     -27.506 -11.556  -4.519  1.00  0.00    -0.047 N 
ENDROOT
BRANCH   1  18
HETATM   18  N1  UNL     1     -22.663 -12.145  -5.013  1.00  0.00    -0.119 N 
HETATM   19  C4  UNL     1     -22.074 -13.278  -4.651  1.00  0.00     0.106 A 
HETATM   20  C5  UNL     1     -20.697 -12.988  -4.483  1.00  0.00     0.130 A 
HETATM   21  C6  UNL     1     -20.497 -11.684  -4.752  1.00  0.00     0.153 A 
HETATM   22  C7  UNL     1     -21.710 -11.142  -5.084  1.00  0.00     0.200 A 
BRANCH  19  23
HETATM   23  C2  UNL     1     -22.582 -14.637  -4.426  1.00  0.00     0.097 C 
HETATM   24  C1  UNL     1     -24.001 -14.908  -4.727  1.00  0.00     0.052 C 
HETATM   25  C3  UNL     1     -22.243 -15.138  -3.028  1.00  0.00     0.052 C 
BRANCH  23  26
HETATM   26  O1  UNL     1     -21.833 -15.495  -5.293  1.00  0.00    -0.384 OA
ATOM     27  H1  UNL     1     -21.921 -16.368  -4.928  1.00  0.00     0.211 HD
ENDBRANCH  23  26
ENDBRANCH  19  23
BRANCH  20  28
HETATM   28  O2  UNL     1     -19.732 -13.926  -4.101  1.00  0.00    -0.356 OA
ATOM     29  H2  UNL     1     -19.327 -14.549  -4.691  1.00  0.00     0.218 HD
ENDBRANCH  20  28
BRANCH  21  30
HETATM   30  O3  UNL     1     -19.300 -10.990  -4.709  1.00  0.00    -0.354 OA
ATOM     31  H3  UNL     1     -19.149 -10.084  -4.953  1.00  0.00     0.218 HD
ENDBRANCH  21  30
BRANCH  22  32
HETATM   32  O4  UNL     1     -22.009  -9.847  -5.436  1.00  0.00    -0.343 OA
ATOM     33  H4  UNL     1     -22.346  -9.516  -6.260  1.00  0.00     0.219 HD
ENDBRANCH  22  32
ENDBRANCH   1  18
BRANCH   6  34
HETATM   34  O5  UNL     1     -23.938 -11.719  -7.748  1.00  0.00    -0.268 OA
ATOM     35  H5  UNL     1     -23.098 -11.382  -8.035  1.00  0.00     0.246 HD
ENDBRANCH   6  34
BRANCH  12  36
HETATM   36  C12 UNL     1     -31.016 -10.991  -5.359  1.00  0.00     0.204 C 
BRANCH  36  37
HETATM   37  C13 UNL     1     -31.928 -10.000  -4.724  1.00  0.00     0.170 C 
BRANCH  37  38
HETATM   38  O6  UNL     1     -31.138  -9.101  -3.928  1.00  0.00    -0.391 OA
ATOM     39  H6  UNL     1     -31.313  -8.213  -4.215  1.00  0.00     0.210 HD
ENDBRANCH  37  38
BRANCH  37  40
HETATM   40  C14 UNL     1     -32.452  -9.056  -5.825  1.00  0.00     0.179 C 
BRANCH  40  41
HETATM   41  O7  UNL     1     -33.813  -9.440  -6.006  1.00  0.00    -0.390 OA
ATOM     42  H7  UNL     1     -34.079  -9.003  -6.806  1.00  0.00     0.210 HD
ENDBRANCH  40  41
BRANCH  40  43
HETATM   43  C15 UNL     1     -32.398  -7.626  -5.449  1.00  0.00     0.180 C 
BRANCH  43  44
HETATM   44  O8  UNL     1     -31.530  -6.879  -6.238  1.00  0.00    -0.390 OA
ATOM     45  H8  UNL     1     -30.970  -6.297  -5.737  1.00  0.00     0.210 HD
ENDBRANCH  43  44
BRANCH  43  46
HETATM   46  C16 UNL     1     -33.612  -6.863  -5.144  1.00  0.00     0.173 C 
BRANCH  46  47
HETATM   47  O9  UNL     1     -34.358  -7.297  -4.064  1.00  0.00    -0.391 OA
ATOM     48  H9  UNL     1     -35.162  -7.761  -4.263  1.00  0.00     0.210 HD
ENDBRANCH  46  47
BRANCH  46  49
HETATM   49  C17 UNL     1     -33.378  -5.358  -5.073  1.00  0.00     0.198 C 
BRANCH  49  50
HETATM   50  O10 UNL     1     -34.602  -4.739  -5.095  1.00  0.00    -0.398 OA
ATOM     51  H10 UNL     1     -35.269  -5.408  -4.990  1.00  0.00     0.209 HD
ENDBRANCH  49  50
ENDBRANCH  46  49
ENDBRANCH  43  46
ENDBRANCH  40  43
ENDBRANCH  37  40
ENDBRANCH  36  37
ENDBRANCH  12  36
TORSDOF 18
ENDMDL
MODEL 5
REMARK VINA RESULT: -8.580168788      0.966      2.624
REMARK  18 active torsions:
REMARK  status: ('A' for Active; 'I' for Inactive)
REMARK    1  A    between atoms: C2_2  and  O1_4 
REMARK    2  A    between atoms: C2_2  and  C4_6 
REMARK    3  A    between atoms: C5_7  and  O2_8 
REMARK    4  A    between atoms: C6_10  and  O3_11 
REMARK    5  A    between atoms: C7_13  and  O4_14 
REMARK    6  A    between atoms: N1_16  and  C8_17 
REMARK    7  A    between atoms: N3_22  and  O5_23 
REMARK    8  A    between atoms: N6_30  and  C12_31 
REMARK    9  A    between atoms: C12_31  and  C13_32 
REMARK   10  A    between atoms: C13_32  and  O6_33 
REMARK   11  A    between atoms: C13_32  and  C14_35 
REMARK   12  A    between atoms: C14_35  and  O7_36 
REMARK   13  A    between atoms: C14_35  and  C15_38 
REMARK   14  A    between atoms: C15_38  and  O8_39 
REMARK   15  A    between atoms: C15_38  and  C16_41 
REMARK   16  A    between atoms: C16_41  and  O9_42 
REMARK   17  A    between atoms: C16_41  and  C17_44 
REMARK   18  A    between atoms: C17_44  and  O10_45 
ROOT
HETATM    1  C8  UNL     1     -24.228 -11.361  -5.321  1.00  0.00     0.721 A 
HETATM    2  N2  UNL     1     -25.130 -11.347  -4.339  1.00  0.00    -0.167 N 
ATOM      3  H2  UNL     1     -24.921 -11.192  -3.353  1.00  0.00     0.186 HD
HETATM    4  C9  UNL     1     -26.342 -11.567  -4.839  1.00  0.00     0.210 A 
HETATM    5  C10 UNL     1     -26.155 -11.720  -6.199  1.00  0.00     0.214 A 
HETATM    6  N3  UNL     1     -24.829 -11.590  -6.497  1.00  0.00    -0.029 N 
HETATM    7  N4  UNL     1     -27.313 -11.973  -7.006  1.00  0.00    -0.266 N 
ATOM      8  H4  UNL     1     -27.229 -12.092  -8.015  1.00  0.00     0.189 HD
HETATM    9  N5  UNL     1     -28.561 -12.053  -6.379  1.00  0.00    -0.127 N 
ATOM     10  H5  UNL     1     -29.381 -12.236  -6.957  1.00  0.00     0.206 HD
HETATM   11  C11 UNL     1     -28.729 -11.910  -5.109  1.00  0.00     0.739 A 
HETATM   12  N6  UNL     1     -29.901 -11.950  -4.253  1.00  0.00    -0.102 N 
HETATM   13  N7  UNL     1     -29.409 -11.724  -2.994  1.00  0.00    -0.210 N 
ATOM     14  H7  UNL     1     -29.998 -11.692  -2.162  1.00  0.00     0.210 HD
HETATM   15  N8  UNL     1     -28.150 -11.557  -2.960  1.00  0.00    -0.204 N 
ATOM     16  H8  UNL     1     -27.603 -11.377  -2.119  1.00  0.00     0.211 HD
HETATM   17  N9  UNL     1     -27.631 -11.657  -4.251  1.00  0.00    -0.047 N 
ENDROOT
BRANCH   1  18
HETATM   18  N1  UNL     1     -22.835 -11.191  -5.158  1.00  0.00    -0.119 N 
HETATM   19  C4  UNL     1     -21.919 -12.117  -4.905  1.00  0.00     0.106 A 
HETATM   20  C5  UNL     1     -20.672 -11.449  -4.825  1.00  0.00     0.130 A 
HETATM   21  C6  UNL     1     -20.875 -10.135  -5.036  1.00  0.00     0.153 A 
HETATM   22  C7  UNL     1     -22.215  -9.955  -5.245  1.00  0.00     0.200 A 
BRANCH  19  23
HETATM   23  C2  UNL     1     -21.998 -13.572  -4.718  1.00  0.00     0.097 C 
HETATM   24  C1  UNL     1     -23.332 -14.202  -4.726  1.00  0.00     0.052 C 
HETATM   25  C3  UNL     1     -21.219 -14.022  -3.490  1.00  0.00     0.052 C 
BRANCH  23  26
HETATM   26  O1  UNL     1     -21.288 -14.157  -5.814  1.00  0.00    -0.384 OA
ATOM     27  H1  UNL     1     -20.418 -13.778  -5.787  1.00  0.00     0.211 HD
ENDBRANCH  23  26
ENDBRANCH  19  23
BRANCH  20  28
HETATM   28  O2  UNL     1     -19.451 -12.082  -4.569  1.00  0.00    -0.356 OA
ATOM     29  H2  UNL     1     -18.603 -11.657  -4.629  1.00  0.00     0.218 HD
ENDBRANCH  20  28
BRANCH  21  30
HETATM   30  O3  UNL     1     -19.925  -9.128  -5.045  1.00  0.00    -0.354 OA
ATOM     31  H3  UNL     1     -19.978  -8.288  -5.486  1.00  0.00     0.218 HD
ENDBRANCH  21  30
BRANCH  22  32
HETATM   32  O4  UNL     1     -22.900  -8.790  -5.501  1.00  0.00    -0.343 OA
ATOM     33  H4  UNL     1     -23.831  -8.665  -5.644  1.00  0.00     0.219 HD
ENDBRANCH  22  32
ENDBRANCH   1  18
BRANCH   6  34
HETATM   34  O5  UNL     1     -24.337 -11.690  -7.762  1.00  0.00    -0.268 OA
ATOM     35  H5  UNL     1     -24.758 -11.883  -8.591  1.00  0.00     0.246 HD
ENDBRANCH   6  34
BRANCH  12  36
HETATM   36  C12 UNL     1     -31.213 -12.131  -4.786  1.00  0.00     0.204 C 
BRANCH  36  37
HETATM   37  C13 UNL     1     -31.706 -11.139  -5.782  1.00  0.00     0.170 C 
BRANCH  37  38
HETATM   38  O6  UNL     1     -32.859 -11.690  -6.440  1.00  0.00    -0.391 OA
ATOM     39  H6  UNL     1     -33.437 -10.977  -6.681  1.00  0.00     0.210 HD
ENDBRANCH  37  38
BRANCH  37  40
HETATM   40  C14 UNL     1     -32.328  -9.956  -5.013  1.00  0.00     0.179 C 
BRANCH  40  41
HETATM   41  O7  UNL     1     -31.239  -9.389  -4.288  1.00  0.00    -0.390 OA
ATOM     42  H7  UNL     1     -31.624  -9.099  -3.469  1.00  0.00     0.210 HD
ENDBRANCH  40  41
BRANCH  40  43
HETATM   43  C15 UNL     1     -32.914  -8.922  -5.896  1.00  0.00     0.180 C 
BRANCH  43  44
HETATM   44  O8  UNL     1     -33.869  -9.422  -6.774  1.00  0.00    -0.390 OA
ATOM     45  H8  UNL     1     -33.797 -10.358  -6.918  1.00  0.00     0.210 HD
ENDBRANCH  43  44
BRANCH  43  46
HETATM   46  C16 UNL     1     -33.312  -7.608  -5.384  1.00  0.00     0.173 C 
BRANCH  46  47
HETATM   47  O9  UNL     1     -33.655  -7.545  -4.046  1.00  0.00    -0.391 OA
ATOM     48  H9  UNL     1     -34.141  -8.283  -3.698  1.00  0.00     0.210 HD
ENDBRANCH  46  47
BRANCH  46  49
HETATM   49  C17 UNL     1     -32.332  -6.496  -5.746  1.00  0.00     0.198 C 
BRANCH  49  50
HETATM   50  O10 UNL     1     -31.231  -7.077  -6.322  1.00  0.00    -0.398 OA
ATOM     51  H10 UNL     1     -30.968  -6.537  -7.058  1.00  0.00     0.209 HD
ENDBRANCH  49  50
ENDBRANCH  46  49
ENDBRANCH  43  46
ENDBRANCH  40  43
ENDBRANCH  37  40
ENDBRANCH  36  37
ENDBRANCH  12  36
TORSDOF 18
ENDMDL
