MODEL 1
REMARK VINA RESULT: -8.186968913      0.000      0.000
REMARK  14 active torsions:
REMARK  status: ('A' for Active; 'I' for Inactive)
REMARK    1  A    between atoms: O1_2  and  C2_3 
REMARK    2  A    between atoms: C2_3  and  C3_5 
REMARK    3  A    between atoms: N2_12  and  C7_13 
REMARK    4  A    between atoms: C9_20  and  C10_21 
REMARK    5  A    between atoms: C10_21  and  O4_22 
REMARK    6  A    between atoms: C10_21  and  N5_24 
REMARK       I    between atoms: N5_24  and  C11_27 
REMARK       I    between atoms: C11_27  and  N6_28 
REMARK       I    between atoms: C11_27  and  N7_32 
REMARK    7  A    between atoms: C12_36  and  C13_37 
REMARK    8  A    between atoms: C13_37  and  O5_38 
REMARK    9  A    between atoms: C13_37  and  O6_40 
REMARK   10  A    between atoms: C15_44  and  N8_45 
REMARK   11  A    between atoms: C15_44  and  C16_49 
REMARK   12  A    between atoms: C16_49  and  O8_50 
REMARK   13  A    between atoms: C17_52  and  O9_53 
REMARK   14  A    between atoms: O9_53  and  O10_54 
ROOT
HETATM    1  C7  UNL     1     -24.273 -11.668  -5.089  1.00  0.00     0.229 A 
HETATM    2  N3  UNL     1     -24.538 -13.007  -4.989  1.00  0.00    -0.308 N 
ATOM      3  H3  UNL     1     -25.504 -13.332  -5.029  1.00  0.00     0.171 HD
HETATM    4  C8  UNL     1     -23.548 -13.896  -4.840  1.00  0.00     0.115 A 
HETATM    5  N4  UNL     1     -23.815 -15.148  -4.747  1.00  0.00    -0.385 N 
ATOM      6  H41 UNL     1     -23.060 -15.825  -4.634  1.00  0.00     0.157 HD
ATOM      7  H42 UNL     1     -24.774 -15.491  -4.786  1.00  0.00     0.157 HD
HETATM    8  C9  UNL     1     -22.249 -13.433  -4.787  1.00  0.00     0.076 A 
HETATM    9  C12 UNL     1     -22.035 -12.100  -4.891  1.00  0.00     0.125 A 
HETATM   10  O7  UNL     1     -23.040 -11.282  -5.035  1.00  0.00    -0.278 OA
ENDROOT
BRANCH   1  11
HETATM   11  N2  UNL     1     -25.298 -10.725  -5.247  1.00  0.00    -0.330 N 
HETATM   12  C6  UNL     1     -25.704  -9.986  -6.418  1.00  0.00     0.189 C 
HETATM   13  C5  UNL     1     -25.421  -8.553  -6.338  1.00  0.00     0.057 A 
HETATM   14  C17 UNL     1     -27.243 -10.094  -6.358  1.00  0.00     0.231 C 
HETATM   15  C3  UNL     1     -24.465  -7.591  -6.228  1.00  0.00     0.186 A 
HETATM   16  C4  UNL     1     -26.628  -7.849  -6.403  1.00  0.00     0.135 A 
HETATM   17  O3  UNL     1     -25.068  -6.431  -6.228  1.00  0.00    -0.229 OA
HETATM   18  N1  UNL     1     -26.323  -6.562  -6.328  1.00  0.00    -0.244 N 
ATOM     19  H1  UNL     1     -26.995  -5.795  -6.348  1.00  0.00     0.196 HD
HETATM   20  N9  UNL     1     -27.720  -8.745  -6.522  1.00  0.00    -0.336 N 
ATOM     21  H9  UNL     1     -28.689  -8.478  -6.697  1.00  0.00     0.164 HD
HETATM   22  C15 UNL     1     -27.547 -10.570  -4.976  1.00  0.00     0.215 C 
HETATM   23  C14 UNL     1     -26.240 -10.311  -4.226  1.00  0.00     0.173 C 
BRANCH  15  24
HETATM   24  C2  UNL     1     -23.014  -7.688  -6.122  1.00  0.00     0.319 C 
HETATM   25  O2  UNL     1     -22.363  -8.733  -6.343  1.00  0.00    -0.257 OA
BRANCH  24  26
HETATM   26  O1  UNL     1     -22.235  -6.577  -5.752  1.00  0.00    -0.321 OA
HETATM   27  C1  UNL     1     -21.081  -6.704  -4.968  1.00  0.00     0.213 C 
ENDBRANCH  24  26
ENDBRANCH  15  24
BRANCH  14  28
HETATM   28  O9  UNL     1     -27.674 -10.942  -7.352  1.00  0.00    -0.204 OA
BRANCH  28  29
HETATM   29  O10 UNL     1     -28.892 -10.631  -7.702  1.00  0.00    -0.248 OA
ATOM     30  H10 UNL     1     -29.320 -11.387  -8.087  1.00  0.00     0.253 HD
ENDBRANCH  28  29
ENDBRANCH  14  28
BRANCH  22  31
HETATM   31  N8  UNL     1     -27.778 -12.002  -5.062  1.00  0.00    -0.062 N 
ATOM     32  H83 UNL     1     -26.908 -12.533  -5.077  1.00  0.00     0.275 HD
ATOM     33  H82 UNL     1     -28.166 -12.384  -4.198  1.00  0.00     0.275 HD
ATOM     34  H81 UNL     1     -28.367 -12.202  -5.871  1.00  0.00     0.275 HD
ENDBRANCH  22  31
BRANCH  22  35
HETATM   35  C16 UNL     1     -28.725  -9.938  -4.317  1.00  0.00     0.210 C 
BRANCH  35  36
HETATM   36  O8  UNL     1     -29.859  -9.887  -5.118  1.00  0.00    -0.398 OA
ATOM     37  H8  UNL     1     -30.642 -10.227  -4.701  1.00  0.00     0.209 HD
ENDBRANCH  35  36
ENDBRANCH  22  35
ENDBRANCH   1  11
BRANCH   9  38
HETATM   38  C13 UNL     1     -20.681 -11.491  -4.850  1.00  0.00     0.313 C 
BRANCH  38  39
HETATM   39  O5  UNL     1     -20.907 -10.130  -4.523  1.00  0.00    -0.365 OA
ATOM     40  H5  UNL     1     -21.194 -10.143  -3.617  1.00  0.00     0.213 HD
ENDBRANCH  38  39
BRANCH  38  41
HETATM   41  O6  UNL     1     -19.946 -12.011  -3.786  1.00  0.00    -0.365 OA
ATOM     42  H6  UNL     1     -19.197 -11.457  -3.599  1.00  0.00     0.213 HD
ENDBRANCH  38  41
ENDBRANCH   9  38
BRANCH   8  43
HETATM   43  C10 UNL     1     -21.187 -14.422  -4.617  1.00  0.00     0.364 C 
BRANCH  43  44
HETATM   44  O4  UNL     1     -21.594 -15.598  -5.260  1.00  0.00    -0.366 OA
ATOM     45  H4  UNL     1     -22.464 -15.813  -4.944  1.00  0.00     0.212 HD
ENDBRANCH  43  44
BRANCH  43  46
HETATM   46  N5  UNL     1     -21.171 -14.760  -3.184  1.00  0.00     0.009 N 
HETATM   47  C11 UNL     1     -20.077 -15.660  -2.959  1.00  0.00     0.578 C 
HETATM   48  N6  UNL     1     -19.988 -16.042  -1.557  1.00  0.00    -0.026 N 
HETATM   49  N7  UNL     1     -18.821 -15.118  -3.416  1.00  0.00    -0.026 N 
ATOM     50  H63 UNL     1     -19.932 -15.225  -0.949  1.00  0.00     0.278 HD
ATOM     51  H62 UNL     1     -20.868 -16.430  -1.217  1.00  0.00     0.278 HD
ATOM     52  H61 UNL     1     -19.209 -16.682  -1.397  1.00  0.00     0.278 HD
ATOM     53  H73 UNL     1     -18.875 -14.840  -4.397  1.00  0.00     0.278 HD
ATOM     54  H72 UNL     1     -18.640 -14.206  -2.999  1.00  0.00     0.278 HD
ATOM     55  H71 UNL     1     -18.043 -15.758  -3.257  1.00  0.00     0.278 HD
ATOM     56  H52 UNL     1     -21.137 -13.936  -2.583  1.00  0.00     0.285 HD
ATOM     57  H51 UNL     1     -22.063 -15.130  -2.854  1.00  0.00     0.285 HD
ENDBRANCH  43  46
ENDBRANCH   8  43
TORSDOF 14
ENDMDL
MODEL 2
REMARK VINA RESULT: -8.028589220      1.628      2.486
REMARK  14 active torsions:
REMARK  status: ('A' for Active; 'I' for Inactive)
REMARK    1  A    between atoms: O1_2  and  C2_3 
REMARK    2  A    between atoms: C2_3  and  C3_5 
REMARK    3  A    between atoms: N2_12  and  C7_13 
REMARK    4  A    between atoms: C9_20  and  C10_21 
REMARK    5  A    between atoms: C10_21  and  O4_22 
REMARK    6  A    between atoms: C10_21  and  N5_24 
REMARK       I    between atoms: N5_24  and  C11_27 
REMARK       I    between atoms: C11_27  and  N6_28 
REMARK       I    between atoms: C11_27  and  N7_32 
REMARK    7  A    between atoms: C12_36  and  C13_37 
REMARK    8  A    between atoms: C13_37  and  O5_38 
REMARK    9  A    between atoms: C13_37  and  O6_40 
REMARK   10  A    between atoms: C15_44  and  N8_45 
REMARK   11  A    between atoms: C15_44  and  C16_49 
REMARK   12  A    between atoms: C16_49  and  O8_50 
REMARK   13  A    between atoms: C17_52  and  O9_53 
REMARK   14  A    between atoms: O9_53  and  O10_54 
ROOT
HETATM    1  C7  UNL     1     -24.066 -11.712  -5.042  1.00  0.00     0.229 A 
HETATM    2  N3  UNL     1     -22.762 -11.310  -5.141  1.00  0.00    -0.308 N 
ATOM      3  H3  UNL     1     -22.550 -10.336  -5.355  1.00  0.00     0.171 HD
HETATM    4  C8  UNL     1     -21.758 -12.180  -4.962  1.00  0.00     0.115 A 
HETATM    5  N4  UNL     1     -20.541 -11.787  -5.059  1.00  0.00    -0.385 N 
ATOM      6  H41 UNL     1     -19.777 -12.449  -4.923  1.00  0.00     0.157 HD
ATOM      7  H42 UNL     1     -20.311 -10.816  -5.272  1.00  0.00     0.157 HD
HETATM    8  C9  UNL     1     -22.068 -13.493  -4.675  1.00  0.00     0.076 A 
HETATM    9  C12 UNL     1     -23.373 -13.843  -4.587  1.00  0.00     0.125 A 
HETATM   10  O7  UNL     1     -24.307 -12.952  -4.771  1.00  0.00    -0.278 OA
ENDROOT
BRANCH   1  11
HETATM   11  N2  UNL     1     -25.127 -10.814  -5.226  1.00  0.00    -0.330 N 
HETATM   12  C6  UNL     1     -25.537 -10.094  -6.408  1.00  0.00     0.189 C 
HETATM   13  C5  UNL     1     -25.319  -8.650  -6.323  1.00  0.00     0.057 A 
HETATM   14  C17 UNL     1     -27.071 -10.269  -6.385  1.00  0.00     0.231 C 
HETATM   15  C3  UNL     1     -24.409  -7.647  -6.191  1.00  0.00     0.186 A 
HETATM   16  C4  UNL     1     -26.554  -8.000  -6.417  1.00  0.00     0.135 A 
HETATM   17  O3  UNL     1     -25.062  -6.514  -6.207  1.00  0.00    -0.229 OA
HETATM   18  N1  UNL     1     -26.307  -6.700  -6.338  1.00  0.00    -0.244 N 
ATOM     19  H1  UNL     1     -27.012  -5.964  -6.375  1.00  0.00     0.196 HD
HETATM   20  N9  UNL     1     -27.602  -8.943  -6.563  1.00  0.00    -0.336 N 
ATOM     21  H9  UNL     1     -28.577  -8.718  -6.761  1.00  0.00     0.164 HD
HETATM   22  C15 UNL     1     -27.387 -10.757  -5.010  1.00  0.00     0.215 C 
HETATM   23  C14 UNL     1     -26.111 -10.441  -4.229  1.00  0.00     0.173 C 
BRANCH  15  24
HETATM   24  C2  UNL     1     -22.958  -7.681  -6.049  1.00  0.00     0.319 C 
HETATM   25  O2  UNL     1     -22.270  -8.722  -6.128  1.00  0.00    -0.257 OA
BRANCH  24  26
HETATM   26  O1  UNL     1     -22.223  -6.506  -5.810  1.00  0.00    -0.321 OA
HETATM   27  C1  UNL     1     -21.066  -6.500  -5.019  1.00  0.00     0.213 C 
ENDBRANCH  24  26
ENDBRANCH  15  24
BRANCH  14  28
HETATM   28  O9  UNL     1     -27.440 -11.136  -7.387  1.00  0.00    -0.204 OA
BRANCH  28  29
HETATM   29  O10 UNL     1     -28.700 -10.963  -7.680  1.00  0.00    -0.248 OA
ATOM     30  H10 UNL     1     -29.114 -10.422  -7.018  1.00  0.00     0.253 HD
ENDBRANCH  28  29
ENDBRANCH  14  28
BRANCH  22  31
HETATM   31  N8  UNL     1     -27.554 -12.199  -5.099  1.00  0.00    -0.062 N 
ATOM     32  H83 UNL     1     -27.686 -12.629  -4.184  1.00  0.00     0.275 HD
ATOM     33  H82 UNL     1     -28.449 -12.459  -5.513  1.00  0.00     0.275 HD
ATOM     34  H81 UNL     1     -26.763 -12.600  -5.605  1.00  0.00     0.275 HD
ENDBRANCH  22  31
BRANCH  22  35
HETATM   35  C16 UNL     1     -28.608 -10.178  -4.381  1.00  0.00     0.210 C 
BRANCH  35  36
HETATM   36  O8  UNL     1     -28.392  -8.962  -3.746  1.00  0.00    -0.398 OA
ATOM     37  H8  UNL     1     -27.476  -8.722  -3.671  1.00  0.00     0.209 HD
ENDBRANCH  35  36
ENDBRANCH  22  35
ENDBRANCH   1  11
BRANCH   9  38
HETATM   38  C13 UNL     1     -23.822 -15.225  -4.282  1.00  0.00     0.313 C 
BRANCH  38  39
HETATM   39  O5  UNL     1     -25.190 -15.092  -3.934  1.00  0.00    -0.365 OA
ATOM     40  H5  UNL     1     -25.405 -14.189  -4.136  1.00  0.00     0.213 HD
ENDBRANCH  38  39
BRANCH  38  41
HETATM   41  O6  UNL     1     -23.806 -16.008  -5.434  1.00  0.00    -0.365 OA
ATOM     42  H6  UNL     1     -23.499 -15.500  -6.176  1.00  0.00     0.213 HD
ENDBRANCH  38  41
ENDBRANCH   9  38
BRANCH   8  43
HETATM   43  C10 UNL     1     -20.957 -14.423  -4.491  1.00  0.00     0.364 C 
BRANCH  43  44
HETATM   44  O4  UNL     1     -19.986 -13.777  -3.715  1.00  0.00    -0.366 OA
ATOM     45  H4  UNL     1     -19.520 -14.443  -3.223  1.00  0.00     0.212 HD
ENDBRANCH  43  44
BRANCH  43  46
HETATM   46  N5  UNL     1     -20.336 -14.585  -5.817  1.00  0.00     0.009 N 
HETATM   47  C11 UNL     1     -19.981 -15.966  -5.968  1.00  0.00     0.578 C 
HETATM   48  N6  UNL     1     -19.361 -16.213  -7.262  1.00  0.00    -0.026 N 
HETATM   49  N7  UNL     1     -21.107 -16.845  -5.770  1.00  0.00    -0.026 N 
ATOM     50  H63 UNL     1     -19.954 -15.893  -8.027  1.00  0.00     0.278 HD
ATOM     51  H62 UNL     1     -18.560 -15.601  -7.417  1.00  0.00     0.278 HD
ATOM     52  H61 UNL     1     -19.108 -17.196  -7.369  1.00  0.00     0.278 HD
ATOM     53  H73 UNL     1     -21.553 -16.676  -4.868  1.00  0.00     0.278 HD
ATOM     54  H72 UNL     1     -21.882 -16.595  -6.384  1.00  0.00     0.278 HD
ATOM     55  H71 UNL     1     -20.854 -17.828  -5.877  1.00  0.00     0.278 HD
ATOM     56  H52 UNL     1     -20.927 -14.242  -6.575  1.00  0.00     0.285 HD
ATOM     57  H51 UNL     1     -19.548 -13.954  -5.965  1.00  0.00     0.285 HD
ENDBRANCH  43  46
ENDBRANCH   8  43
TORSDOF 14
ENDMDL
MODEL 3
REMARK VINA RESULT: -7.966722040      1.426      2.182
REMARK  14 active torsions:
REMARK  status: ('A' for Active; 'I' for Inactive)
REMARK    1  A    between atoms: O1_2  and  C2_3 
REMARK    2  A    between atoms: C2_3  and  C3_5 
REMARK    3  A    between atoms: N2_12  and  C7_13 
REMARK    4  A    between atoms: C9_20  and  C10_21 
REMARK    5  A    between atoms: C10_21  and  O4_22 
REMARK    6  A    between atoms: C10_21  and  N5_24 
REMARK       I    between atoms: N5_24  and  C11_27 
REMARK       I    between atoms: C11_27  and  N6_28 
REMARK       I    between atoms: C11_27  and  N7_32 
REMARK    7  A    between atoms: C12_36  and  C13_37 
REMARK    8  A    between atoms: C13_37  and  O5_38 
REMARK    9  A    between atoms: C13_37  and  O6_40 
REMARK   10  A    between atoms: C15_44  and  N8_45 
REMARK   11  A    between atoms: C15_44  and  C16_49 
REMARK   12  A    between atoms: C16_49  and  O8_50 
REMARK   13  A    between atoms: C17_52  and  O9_53 
REMARK   14  A    between atoms: O9_53  and  O10_54 
ROOT
HETATM    1  C7  UNL     1     -23.274 -11.804  -4.919  1.00  0.00     0.229 A 
HETATM    2  N3  UNL     1     -22.060 -11.173  -4.919  1.00  0.00    -0.308 N 
ATOM      3  H3  UNL     1     -22.020 -10.160  -5.034  1.00  0.00     0.171 HD
HETATM    4  C8  UNL     1     -20.924 -11.866  -4.770  1.00  0.00     0.115 A 
HETATM    5  N4  UNL     1     -19.794 -11.258  -4.773  1.00  0.00    -0.385 N 
ATOM      6  H41 UNL     1     -18.928 -11.786  -4.659  1.00  0.00     0.157 HD
ATOM      7  H42 UNL     1     -19.735 -10.246  -4.886  1.00  0.00     0.157 HD
HETATM    8  C9  UNL     1     -21.002 -13.234  -4.616  1.00  0.00     0.076 A 
HETATM    9  C12 UNL     1     -22.226 -13.815  -4.622  1.00  0.00     0.125 A 
HETATM   10  O7  UNL     1     -23.297 -13.088  -4.771  1.00  0.00    -0.278 OA
ENDROOT
BRANCH   1  11
HETATM   11  N2  UNL     1     -24.473 -11.093  -5.073  1.00  0.00    -0.330 N 
HETATM   12  C6  UNL     1     -25.045 -10.488  -6.252  1.00  0.00     0.189 C 
HETATM   13  C5  UNL     1     -25.058  -9.025  -6.216  1.00  0.00     0.057 A 
HETATM   14  C17 UNL     1     -26.529 -10.903  -6.146  1.00  0.00     0.231 C 
HETATM   15  C3  UNL     1     -24.315  -7.887  -6.156  1.00  0.00     0.186 A 
HETATM   16  C4  UNL     1     -26.384  -8.583  -6.265  1.00  0.00     0.135 A 
HETATM   17  O3  UNL     1     -25.141  -6.874  -6.170  1.00  0.00    -0.229 OA
HETATM   18  N1  UNL     1     -26.345  -7.259  -6.233  1.00  0.00    -0.244 N 
ATOM     19  H1  UNL     1     -27.159  -6.645  -6.254  1.00  0.00     0.196 HD
HETATM   20  N9  UNL     1     -27.273  -9.685  -6.332  1.00  0.00    -0.336 N 
ATOM     21  H9  UNL     1     -28.280  -9.624  -6.488  1.00  0.00     0.164 HD
HETATM   22  C15 UNL     1     -26.701 -11.388  -4.744  1.00  0.00     0.215 C 
HETATM   23  C14 UNL     1     -25.457 -10.847  -4.038  1.00  0.00     0.173 C 
BRANCH  15  24
HETATM   24  C2  UNL     1     -22.872  -7.685  -6.088  1.00  0.00     0.319 C 
HETATM   25  O2  UNL     1     -22.029  -8.592  -6.259  1.00  0.00    -0.257 OA
BRANCH  24  26
HETATM   26  O1  UNL     1     -22.328  -6.418  -5.816  1.00  0.00    -0.321 OA
HETATM   27  C1  UNL     1     -21.220  -6.248  -4.974  1.00  0.00     0.213 C 
ENDBRANCH  24  26
ENDBRANCH  15  24
BRANCH  14  28
HETATM   28  O9  UNL     1     -26.800 -11.851  -7.105  1.00  0.00    -0.204 OA
BRANCH  28  29
HETATM   29  O10 UNL     1     -28.068 -11.820  -7.413  1.00  0.00    -0.248 OA
ATOM     30  H10 UNL     1     -28.378 -12.700  -7.592  1.00  0.00     0.253 HD
ENDBRANCH  28  29
ENDBRANCH  14  28
BRANCH  22  31
HETATM   31  N8  UNL     1     -26.638 -12.840  -4.787  1.00  0.00    -0.062 N 
ATOM     32  H83 UNL     1     -26.689 -13.255  -3.857  1.00  0.00     0.275 HD
ATOM     33  H82 UNL     1     -27.486 -13.252  -5.177  1.00  0.00     0.275 HD
ATOM     34  H81 UNL     1     -25.801 -13.127  -5.294  1.00  0.00     0.275 HD
ENDBRANCH  22  31
BRANCH  22  35
HETATM   35  C16 UNL     1     -27.968 -10.988  -4.071  1.00  0.00     0.210 C 
BRANCH  35  36
HETATM   36  O8  UNL     1     -29.114 -11.318  -4.783  1.00  0.00    -0.398 OA
ATOM     37  H8  UNL     1     -29.849 -11.567  -4.236  1.00  0.00     0.209 HD
ENDBRANCH  35  36
ENDBRANCH  22  35
ENDBRANCH   1  11
BRANCH   9  38
HETATM   38  C13 UNL     1     -22.429 -15.277  -4.463  1.00  0.00     0.313 C 
BRANCH  38  39
HETATM   39  O5  UNL     1     -22.618 -15.466  -3.070  1.00  0.00    -0.365 OA
ATOM     40  H5  UNL     1     -21.896 -16.022  -2.801  1.00  0.00     0.213 HD
ENDBRANCH  38  39
BRANCH  38  41
HETATM   41  O6  UNL     1     -23.627 -15.670  -5.057  1.00  0.00    -0.365 OA
ATOM     42  H6  UNL     1     -23.743 -16.610  -4.981  1.00  0.00     0.213 HD
ENDBRANCH  38  41
ENDBRANCH   9  38
BRANCH   8  43
HETATM   43  C10 UNL     1     -19.749 -13.969  -4.462  1.00  0.00     0.364 C 
BRANCH  43  44
HETATM   44  O4  UNL     1     -19.759 -15.024  -5.383  1.00  0.00    -0.366 OA
ATOM     45  H4  UNL     1     -18.888 -15.404  -5.396  1.00  0.00     0.212 HD
ENDBRANCH  43  44
BRANCH  43  46
HETATM   46  N5  UNL     1     -19.817 -14.618  -3.142  1.00  0.00     0.009 N 
HETATM   47  C11 UNL     1     -19.002 -15.797  -3.192  1.00  0.00     0.578 C 
HETATM   48  N6  UNL     1     -19.011 -16.500  -1.917  1.00  0.00    -0.026 N 
HETATM   49  N7  UNL     1     -17.649 -15.510  -3.602  1.00  0.00    -0.026 N 
ATOM     50  H63 UNL     1     -18.735 -15.887  -1.150  1.00  0.00     0.278 HD
ATOM     51  H62 UNL     1     -19.961 -16.714  -1.613  1.00  0.00     0.278 HD
ATOM     52  H61 UNL     1     -18.431 -17.339  -1.953  1.00  0.00     0.278 HD
ATOM     53  H73 UNL     1     -17.631 -15.011  -4.492  1.00  0.00     0.278 HD
ATOM     54  H72 UNL     1     -17.228 -14.796  -3.008  1.00  0.00     0.278 HD
ATOM     55  H71 UNL     1     -17.070 -16.349  -3.638  1.00  0.00     0.278 HD
ATOM     56  H52 UNL     1     -19.560 -13.991  -2.379  1.00  0.00     0.285 HD
ATOM     57  H51 UNL     1     -20.773 -14.810  -2.843  1.00  0.00     0.285 HD
ENDBRANCH  43  46
ENDBRANCH   8  43
TORSDOF 14
ENDMDL
MODEL 4
REMARK VINA RESULT: -7.924340397      3.029      4.757
REMARK  14 active torsions:
REMARK  status: ('A' for Active; 'I' for Inactive)
REMARK    1  A    between atoms: O1_2  and  C2_3 
REMARK    2  A    between atoms: C2_3  and  C3_5 
REMARK    3  A    between atoms: N2_12  and  C7_13 
REMARK    4  A    between atoms: C9_20  and  C10_21 
REMARK    5  A    between atoms: C10_21  and  O4_22 
REMARK    6  A    between atoms: C10_21  and  N5_24 
REMARK       I    between atoms: N5_24  and  C11_27 
REMARK       I    between atoms: C11_27  and  N6_28 
REMARK       I    between atoms: C11_27  and  N7_32 
REMARK    7  A    between atoms: C12_36  and  C13_37 
REMARK    8  A    between atoms: C13_37  and  O5_38 
REMARK    9  A    between atoms: C13_37  and  O6_40 
REMARK   10  A    between atoms: C15_44  and  N8_45 
REMARK   11  A    between atoms: C15_44  and  C16_49 
REMARK   12  A    between atoms: C16_49  and  O8_50 
REMARK   13  A    between atoms: C17_52  and  O9_53 
REMARK   14  A    between atoms: O9_53  and  O10_54 
ROOT
HETATM    1  C7  UNL     1     -26.878 -13.357  -6.001  1.00  0.00     0.229 A 
HETATM    2  N3  UNL     1     -25.672 -13.799  -5.529  1.00  0.00    -0.308 N 
ATOM      3  H3  UNL     1     -25.032 -13.139  -5.087  1.00  0.00     0.171 HD
HETATM    4  C8  UNL     1     -25.319 -15.087  -5.640  1.00  0.00     0.115 A 
HETATM    5  N4  UNL     1     -24.184 -15.484  -5.193  1.00  0.00    -0.385 N 
ATOM      6  H41 UNL     1     -23.915 -16.464  -5.277  1.00  0.00     0.157 HD
ATOM      7  H42 UNL     1     -23.532 -14.837  -4.747  1.00  0.00     0.157 HD
HETATM    8  C9  UNL     1     -26.199 -15.961  -6.242  1.00  0.00     0.076 A 
HETATM    9  C12 UNL     1     -27.381 -15.479  -6.693  1.00  0.00     0.125 A 
HETATM   10  O7  UNL     1     -27.670 -14.215  -6.557  1.00  0.00    -0.278 OA
ENDROOT
BRANCH   1  11
HETATM   11  N2  UNL     1     -27.262 -12.013  -5.892  1.00  0.00    -0.330 N 
HETATM   12  C6  UNL     1     -27.013 -10.904  -6.781  1.00  0.00     0.189 C 
HETATM   13  C5  UNL     1     -26.095  -9.905  -6.233  1.00  0.00     0.057 A 
HETATM   14  C17 UNL     1     -28.388 -10.203  -6.825  1.00  0.00     0.231 C 
HETATM   15  C3  UNL     1     -24.839  -9.649  -5.779  1.00  0.00     0.186 A 
HETATM   16  C4  UNL     1     -26.770  -8.685  -6.121  1.00  0.00     0.135 A 
HETATM   17  O3  UNL     1     -24.791  -8.389  -5.433  1.00  0.00    -0.229 OA
HETATM   18  N1  UNL     1     -25.902  -7.815  -5.624  1.00  0.00    -0.244 N 
ATOM     19  H1  UNL     1     -26.100  -6.834  -5.426  1.00  0.00     0.196 HD
HETATM   20  N9  UNL     1     -28.108  -8.814  -6.569  1.00  0.00    -0.336 N 
ATOM     21  H9  UNL     1     -28.769  -8.045  -6.690  1.00  0.00     0.164 HD
HETATM   22  C15 UNL     1     -29.157 -10.779  -5.683  1.00  0.00     0.215 C 
HETATM   23  C14 UNL     1     -28.071 -11.441  -4.834  1.00  0.00     0.173 C 
BRANCH  15  24
HETATM   24  C2  UNL     1     -23.671 -10.514  -5.647  1.00  0.00     0.319 C 
HETATM   25  O2  UNL     1     -23.641 -11.548  -4.945  1.00  0.00    -0.257 OA
BRANCH  24  26
HETATM   26  O1  UNL     1     -22.473 -10.226  -6.324  1.00  0.00    -0.321 OA
HETATM   27  C1  UNL     1     -21.435  -9.500  -5.725  1.00  0.00     0.213 C 
ENDBRANCH  24  26
ENDBRANCH  15  24
BRANCH  14  28
HETATM   28  O9  UNL     1     -28.964 -10.417  -8.056  1.00  0.00    -0.204 OA
BRANCH  28  29
HETATM   29  O10 UNL     1     -29.683  -9.383  -8.395  1.00  0.00    -0.248 OA
ATOM     30  H10 UNL     1     -30.597  -9.633  -8.461  1.00  0.00     0.253 HD
ENDBRANCH  28  29
ENDBRANCH  14  28
BRANCH  22  31
HETATM   31  N8  UNL     1     -30.030 -11.804  -6.234  1.00  0.00    -0.062 N 
ATOM     32  H83 UNL     1     -29.646 -12.741  -6.116  1.00  0.00     0.275 HD
ATOM     33  H82 UNL     1     -30.880 -11.925  -5.682  1.00  0.00     0.275 HD
ATOM     34  H81 UNL     1     -30.231 -11.588  -7.210  1.00  0.00     0.275 HD
ENDBRANCH  22  31
BRANCH  22  35
HETATM   35  C16 UNL     1     -29.989  -9.816  -4.908  1.00  0.00     0.210 C 
BRANCH  35  36
HETATM   36  O8  UNL     1     -30.840  -9.048  -5.692  1.00  0.00    -0.398 OA
ATOM     37  H8  UNL     1     -31.497  -9.553  -6.156  1.00  0.00     0.209 HD
ENDBRANCH  35  36
ENDBRANCH  22  35
ENDBRANCH   1  11
BRANCH   9  38
HETATM   38  C13 UNL     1     -28.404 -16.328  -7.354  1.00  0.00     0.313 C 
BRANCH  38  39
HETATM   39  O5  UNL     1     -29.646 -15.762  -6.970  1.00  0.00    -0.365 OA
ATOM     40  H5  UNL     1     -29.925 -16.277  -6.221  1.00  0.00     0.213 HD
ENDBRANCH  38  39
BRANCH  38  41
HETATM   41  O6  UNL     1     -28.341 -16.178  -8.738  1.00  0.00    -0.365 OA
ATOM     42  H6  UNL     1     -27.489 -15.845  -8.997  1.00  0.00     0.213 HD
ENDBRANCH  38  41
ENDBRANCH   9  38
BRANCH   8  43
HETATM   43  C10 UNL     1     -25.789 -17.359  -6.357  1.00  0.00     0.364 C 
BRANCH  43  44
HETATM   44  O4  UNL     1     -25.580 -17.848  -5.062  1.00  0.00    -0.366 OA
ATOM     45  H4  UNL     1     -25.531 -18.796  -5.116  1.00  0.00     0.212 HD
ENDBRANCH  43  44
BRANCH  43  46
HETATM   46  N5  UNL     1     -24.452 -17.341  -6.975  1.00  0.00     0.009 N 
HETATM   47  C11 UNL     1     -24.495 -18.187  -8.133  1.00  0.00     0.578 C 
HETATM   48  N6  UNL     1     -23.206 -18.222  -8.809  1.00  0.00    -0.026 N 
HETATM   49  N7  UNL     1     -25.537 -17.802  -9.053  1.00  0.00    -0.026 N 
ATOM     50  H63 UNL     1     -22.880 -17.284  -9.041  1.00  0.00     0.278 HD
ATOM     51  H62 UNL     1     -22.456 -18.495  -8.173  1.00  0.00     0.278 HD
ATOM     52  H61 UNL     1     -23.236 -18.823  -9.632  1.00  0.00     0.278 HD
ATOM     53  H73 UNL     1     -26.445 -17.768  -8.588  1.00  0.00     0.278 HD
ATOM     54  H72 UNL     1     -25.453 -16.821  -9.316  1.00  0.00     0.278 HD
ATOM     55  H71 UNL     1     -25.568 -18.404  -9.876  1.00  0.00     0.278 HD
ATOM     56  H52 UNL     1     -24.125 -16.398  -7.185  1.00  0.00     0.285 HD
ATOM     57  H51 UNL     1     -23.711 -17.599  -6.323  1.00  0.00     0.285 HD
ENDBRANCH  43  46
ENDBRANCH   8  43
TORSDOF 14
ENDMDL
MODEL 5
REMARK VINA RESULT: -7.861413091      3.116      6.425
REMARK  14 active torsions:
REMARK  status: ('A' for Active; 'I' for Inactive)
REMARK    1  A    between atoms: O1_2  and  C2_3 
REMARK    2  A    between atoms: C2_3  and  C3_5 
REMARK    3  A    between atoms: N2_12  and  C7_13 
REMARK    4  A    between atoms: C9_20  and  C10_21 
REMARK    5  A    between atoms: C10_21  and  O4_22 
REMARK    6  A    between atoms: C10_21  and  N5_24 
REMARK       I    between atoms: N5_24  and  C11_27 
REMARK       I    between atoms: C11_27  and  N6_28 
REMARK       I    between atoms: C11_27  and  N7_32 
REMARK    7  A    between atoms: C12_36  and  C13_37 
REMARK    8  A    between atoms: C13_37  and  O5_38 
REMARK    9  A    between atoms: C13_37  and  O6_40 
REMARK   10  A    between atoms: C15_44  and  N8_45 
REMARK   11  A    between atoms: C15_44  and  C16_49 
REMARK   12  A    between atoms: C16_49  and  O8_50 
REMARK   13  A    between atoms: C17_52  and  O9_53 
REMARK   14  A    between atoms: O9_53  and  O10_54 
ROOT
HETATM    1  C7  UNL     1     -27.994  -9.607  -5.793  1.00  0.00     0.229 A 
HETATM    2  N3  UNL     1     -27.561  -8.348  -5.479  1.00  0.00    -0.308 N 
ATOM      3  H3  UNL     1     -28.241  -7.598  -5.357  1.00  0.00     0.171 HD
HETATM    4  C8  UNL     1     -26.256  -8.085  -5.329  1.00  0.00     0.115 A 
HETATM    5  N4  UNL     1     -25.867  -6.899  -5.035  1.00  0.00    -0.385 N 
ATOM      6  H41 UNL     1     -24.873  -6.699  -4.921  1.00  0.00     0.157 HD
ATOM      7  H42 UNL     1     -26.534  -6.137  -4.909  1.00  0.00     0.157 HD
HETATM    8  C9  UNL     1     -25.353  -9.115  -5.500  1.00  0.00     0.076 A 
HETATM    9  C12 UNL     1     -25.829 -10.345  -5.810  1.00  0.00     0.125 A 
HETATM   10  O7  UNL     1     -27.111 -10.539  -5.942  1.00  0.00    -0.278 OA
ENDROOT
BRANCH   1  11
HETATM   11  N2  UNL     1     -29.356  -9.898  -5.952  1.00  0.00    -0.330 N 
HETATM   12  C6  UNL     1     -30.317 -10.385  -4.991  1.00  0.00     0.189 C 
HETATM   13  C5  UNL     1     -30.766 -11.754  -5.248  1.00  0.00     0.057 A 
HETATM   14  C17 UNL     1     -31.549  -9.500  -5.281  1.00  0.00     0.231 C 
HETATM   15  C3  UNL     1     -30.408 -13.062  -5.353  1.00  0.00     0.186 A 
HETATM   16  C4  UNL     1     -32.143 -11.740  -5.490  1.00  0.00     0.135 A 
HETATM   17  O3  UNL     1     -31.486 -13.747  -5.631  1.00  0.00    -0.229 OA
HETATM   18  N1  UNL     1     -32.502 -12.996  -5.715  1.00  0.00    -0.244 N 
ATOM     19  H1  UNL     1     -33.450 -13.309  -5.924  1.00  0.00     0.196 HD
HETATM   20  N9  UNL     1     -32.650 -10.419  -5.409  1.00  0.00    -0.336 N 
ATOM     21  H9  UNL     1     -33.636 -10.161  -5.436  1.00  0.00     0.164 HD
HETATM   22  C15 UNL     1     -31.270  -8.863  -6.603  1.00  0.00     0.215 C 
HETATM   23  C14 UNL     1     -30.131  -9.715  -7.163  1.00  0.00     0.173 C 
BRANCH  15  24
HETATM   24  C2  UNL     1     -29.113 -13.717  -5.207  1.00  0.00     0.319 C 
HETATM   25  O2  UNL     1     -28.790 -14.770  -5.800  1.00  0.00    -0.257 OA
BRANCH  24  26
HETATM   26  O1  UNL     1     -28.120 -13.187  -4.365  1.00  0.00    -0.321 OA
HETATM   27  C1  UNL     1     -28.418 -12.667  -3.098  1.00  0.00     0.213 C 
ENDBRANCH  24  26
ENDBRANCH  15  24
BRANCH  14  28
HETATM   28  O9  UNL     1     -31.713  -8.604  -4.250  1.00  0.00    -0.204 OA
BRANCH  28  29
HETATM   29  O10 UNL     1     -32.911  -8.090  -4.296  1.00  0.00    -0.248 OA
ATOM     30  H10 UNL     1     -33.077  -7.736  -5.162  1.00  0.00     0.253 HD
ENDBRANCH  28  29
ENDBRANCH  14  28
BRANCH  22  31
HETATM   31  N8  UNL     1     -30.780  -7.521  -6.332  1.00  0.00    -0.062 N 
ATOM     32  H83 UNL     1     -30.432  -7.061  -7.173  1.00  0.00     0.275 HD
ATOM     33  H82 UNL     1     -31.535  -6.871  -6.112  1.00  0.00     0.275 HD
ATOM     34  H81 UNL     1     -30.078  -7.560  -5.593  1.00  0.00     0.275 HD
ENDBRANCH  22  31
BRANCH  22  35
HETATM   35  C16 UNL     1     -32.430  -8.765  -7.533  1.00  0.00     0.210 C 
BRANCH  35  36
HETATM   36  O8  UNL     1     -32.099  -8.304  -8.800  1.00  0.00    -0.398 OA
ATOM     37  H8  UNL     1     -32.208  -8.952  -9.487  1.00  0.00     0.209 HD
ENDBRANCH  35  36
ENDBRANCH  22  35
ENDBRANCH   1  11
BRANCH   9  38
HETATM   38  C13 UNL     1     -24.951 -11.525  -6.014  1.00  0.00     0.313 C 
BRANCH  38  39
HETATM   39  O5  UNL     1     -25.834 -12.635  -6.019  1.00  0.00    -0.365 OA
ATOM     40  H5  UNL     1     -25.408 -13.286  -5.473  1.00  0.00     0.213 HD
ENDBRANCH  38  39
BRANCH  38  41
HETATM   41  O6  UNL     1     -24.384 -11.496  -7.286  1.00  0.00    -0.365 OA
ATOM     42  H6  UNL     1     -23.709 -12.161  -7.364  1.00  0.00     0.213 HD
ENDBRANCH  38  41
ENDBRANCH   9  38
BRANCH   8  43
HETATM   43  C10 UNL     1     -23.936  -8.803  -5.338  1.00  0.00     0.364 C 
BRANCH  43  44
HETATM   44  O4  UNL     1     -23.364  -8.751  -6.616  1.00  0.00    -0.366 OA
ATOM     45  H4  UNL     1     -23.659  -7.949  -7.032  1.00  0.00     0.212 HD
ENDBRANCH  43  44
BRANCH  43  46
HETATM   46  N5  UNL     1     -23.329  -9.983  -4.699  1.00  0.00     0.009 N 
HETATM   47  C11 UNL     1     -21.915  -9.930  -4.936  1.00  0.00     0.578 C 
HETATM   48  N6  UNL     1     -21.236 -11.066  -4.330  1.00  0.00    -0.026 N 
HETATM   49  N7  UNL     1     -21.331  -8.691  -4.485  1.00  0.00    -0.026 N 
ATOM     50  H63 UNL     1     -21.446 -11.140  -3.335  1.00  0.00     0.278 HD
ATOM     51  H62 UNL     1     -21.635 -11.952  -4.641  1.00  0.00     0.278 HD
ATOM     52  H61 UNL     1     -20.230 -11.028  -4.499  1.00  0.00     0.278 HD
ATOM     53  H73 UNL     1     -21.805  -7.888  -4.899  1.00  0.00     0.278 HD
ATOM     54  H72 UNL     1     -21.547  -8.519  -3.503  1.00  0.00     0.278 HD
ATOM     55  H71 UNL     1     -20.326  -8.654  -4.654  1.00  0.00     0.278 HD
ATOM     56  H52 UNL     1     -23.562 -10.061  -3.709  1.00  0.00     0.285 HD
ATOM     57  H51 UNL     1     -23.750 -10.860  -5.006  1.00  0.00     0.285 HD
ENDBRANCH  43  46
ENDBRANCH   8  43
TORSDOF 14
ENDMDL
