MODEL 1
REMARK VINA RESULT: -9.194264471      0.000      0.000
REMARK  15 active torsions:
REMARK  status: ('A' for Active; 'I' for Inactive)
REMARK    1  A    between atoms: N1_1  and  C1_4 
REMARK    2  A    between atoms: C3_9  and  N4_10 
REMARK    3  A    between atoms: C4_15  and  O1_16 
REMARK    4  A    between atoms: C4_15  and  C5_18 
REMARK    5  A    between atoms: C5_18  and  O2_19 
REMARK    6  A    between atoms: C5_18  and  N6_21 
REMARK    7  A    between atoms: N6_21  and  N7_22 
REMARK    8  A    between atoms: N10_30  and  C7_31 
REMARK    9  A    between atoms: C7_31  and  C8_32 
REMARK   10  A    between atoms: C8_32  and  O3_33 
REMARK   11  A    between atoms: C8_32  and  C9_35 
REMARK   12  A    between atoms: C9_35  and  O4_36 
REMARK   13  A    between atoms: O4_36  and  C10_37 
REMARK   14  A    between atoms: C13_40  and  C14_41 
REMARK   15  A    between atoms: C14_41  and  C15_42 
ROOT
HETATM    1  C1  UNL     1     -19.753 -14.226  -5.218  1.00  0.00     0.705 A 
HETATM    2  N2  UNL     1     -21.072 -14.400  -5.379  1.00  0.00    -0.021 N 
ATOM      3  H2  UNL     1     -21.445 -15.324  -5.594  1.00  0.00     0.203 HD
HETATM    4  C2  UNL     1     -21.912 -13.333  -5.252  1.00  0.00     0.718 A 
HETATM    5  N3  UNL     1     -21.429 -12.086  -4.968  1.00  0.00     0.031 N 
HETATM    6  C3  UNL     1     -20.104 -11.919  -4.803  1.00  0.00     0.710 A 
HETATM    7  N5  UNL     1     -19.282 -13.001  -4.933  1.00  0.00    -0.022 N 
ATOM      8  H5  UNL     1     -18.277 -12.875  -4.810  1.00  0.00     0.203 HD
HETATM    9  C4  UNL     1     -22.296 -10.962  -4.923  1.00  0.00     0.264 C 
HETATM   10  C6  UNL     1     -23.756 -11.379  -4.743  1.00  0.00     0.134 A 
HETATM   11  N8  UNL     1     -24.830 -10.639  -4.421  1.00  0.00    -0.282 N 
ATOM     12  H8  UNL     1     -24.822  -9.653  -4.159  1.00  0.00     0.188 HD
HETATM   13  N9  UNL     1     -25.919 -11.426  -4.503  1.00  0.00    -0.238 N 
ATOM     14  H9  UNL     1     -26.871 -11.117  -4.310  1.00  0.00     0.208 HD
HETATM   15  N10 UNL     1     -25.587 -12.646  -4.865  1.00  0.00    -0.257 N 
HETATM   16  C17 UNL     1     -24.226 -12.625  -5.017  1.00  0.00     0.168 A 
HETATM   17  N16 UNL     1     -23.303 -13.639  -5.285  1.00  0.00    -0.172 N 
ATOM     18  H16 UNL     1     -23.620 -14.584  -5.502  1.00  0.00     0.186 HD
ENDROOT
BRANCH  15  19
HETATM   19  C7  UNL     1     -26.399 -13.824  -5.085  1.00  0.00     0.186 C 
BRANCH  19  20
HETATM   20  C8  UNL     1     -27.509 -13.573  -6.077  1.00  0.00     0.162 C 
BRANCH  20  21
HETATM   21  O3  UNL     1     -27.280 -12.487  -6.882  1.00  0.00    -0.392 OA
ATOM     22  H3  UNL     1     -26.613 -12.643  -7.540  1.00  0.00     0.210 HD
ENDBRANCH  20  21
BRANCH  20  23
HETATM   23  C9  UNL     1     -28.822 -13.442  -5.302  1.00  0.00     0.210 C 
BRANCH  23  24
HETATM   24  O4  UNL     1     -28.939 -12.094  -4.819  1.00  0.00    -0.333 OA
BRANCH  24  25
HETATM   25  C10 UNL     1     -29.947 -11.301  -5.345  1.00  0.00     0.141 A 
HETATM   26  C11 UNL     1     -31.223 -11.434  -4.859  1.00  0.00     0.056 A 
HETATM   27  C12 UNL     1     -32.279 -10.671  -5.341  1.00  0.00     0.013 A 
HETATM   28  C13 UNL     1     -32.001  -9.765  -6.330  1.00  0.00    -0.035 A 
HETATM   29  C16 UNL     1     -30.731  -9.627  -6.819  1.00  0.00     0.097 A 
HETATM   30  N15 UNL     1     -29.731 -10.400  -6.312  1.00  0.00    -0.346 N 
ATOM     31  H15 UNL     1     -28.787 -10.289  -6.681  1.00  0.00     0.167 HD
BRANCH  28  32
HETATM   32  C14 UNL     1     -33.094  -8.932  -6.872  1.00  0.00     0.118 C 
BRANCH  32  33
HETATM   33  C15 UNL     1     -33.450  -7.935  -5.835  1.00  0.00     0.111 A 
HETATM   34  N11 UNL     1     -34.478  -8.000  -4.992  1.00  0.00    -0.274 N 
HETATM   35  N12 UNL     1     -34.491  -6.938  -4.205  1.00  0.00    -0.007 NA
ATOM     36  H11 UNL     1     -35.158  -8.760  -4.957  1.00  0.00     0.185 HD
HETATM   37  N13 UNL     1     -33.454  -6.199  -4.563  1.00  0.00    -0.007 NA
HETATM   38  N14 UNL     1     -32.796  -6.793  -5.567  1.00  0.00    -0.274 N 
ATOM     39  H14 UNL     1     -31.960  -6.446  -6.036  1.00  0.00     0.185 HD
ENDBRANCH  32  33
ENDBRANCH  28  32
ENDBRANCH  24  25
ENDBRANCH  23  24
ENDBRANCH  20  23
ENDBRANCH  19  20
ENDBRANCH  15  19
BRANCH   9  40
HETATM   40  O1  UNL     1     -21.951 -10.082  -3.923  1.00  0.00    -0.361 OA
ATOM     41  H1  UNL     1     -22.353 -10.310  -3.092  1.00  0.00     0.213 HD
ENDBRANCH   9  40
BRANCH   9  42
HETATM   42  C5  UNL     1     -22.347 -10.161  -6.238  1.00  0.00     0.294 C 
BRANCH  42  43
HETATM   43  O2  UNL     1     -23.358 -10.805  -6.990  1.00  0.00    -0.373 OA
ATOM     44  H2  UNL     1     -23.094 -10.668  -7.892  1.00  0.00     0.212 HD
ENDBRANCH  42  43
BRANCH  42  45
HETATM   45  N6  UNL     1     -22.694  -8.804  -6.133  1.00  0.00    -0.111 NA
BRANCH  45  46
HETATM   46  N7  UNL     1     -21.586  -7.997  -5.759  1.00  0.00    -0.346 N 
ATOM     47  H72 UNL     1     -20.897  -7.651  -6.428  1.00  0.00     0.172 HD
ATOM     48  H71 UNL     1     -21.568  -7.812  -4.756  1.00  0.00     0.172 HD
ENDBRANCH  45  46
ENDBRANCH  42  45
ENDBRANCH   9  42
BRANCH   6  49
HETATM   49  N4  UNL     1     -19.590 -10.784  -4.471  1.00  0.00    -0.233 N 
ATOM     50  H42 UNL     1     -19.542 -10.536  -3.482  1.00  0.00     0.174 HD
ATOM     51  H41 UNL     1     -19.270 -10.107  -5.164  1.00  0.00     0.174 HD
ENDBRANCH   6  49
BRANCH   1  52
HETATM   52  N1  UNL     1     -18.899 -15.213  -5.330  1.00  0.00    -0.234 N 
ATOM     53  H12 UNL     1     -19.255 -16.168  -5.306  1.00  0.00     0.174 HD
ATOM     54  H11 UNL     1     -17.896 -15.055  -5.438  1.00  0.00     0.174 HD
ENDBRANCH   1  52
TORSDOF 15
ENDMDL
MODEL 2
REMARK VINA RESULT: -9.058438195      1.540      3.785
REMARK  15 active torsions:
REMARK  status: ('A' for Active; 'I' for Inactive)
REMARK    1  A    between atoms: N1_1  and  C1_4 
REMARK    2  A    between atoms: C3_9  and  N4_10 
REMARK    3  A    between atoms: C4_15  and  O1_16 
REMARK    4  A    between atoms: C4_15  and  C5_18 
REMARK    5  A    between atoms: C5_18  and  O2_19 
REMARK    6  A    between atoms: C5_18  and  N6_21 
REMARK    7  A    between atoms: N6_21  and  N7_22 
REMARK    8  A    between atoms: N10_30  and  C7_31 
REMARK    9  A    between atoms: C7_31  and  C8_32 
REMARK   10  A    between atoms: C8_32  and  O3_33 
REMARK   11  A    between atoms: C8_32  and  C9_35 
REMARK   12  A    between atoms: C9_35  and  O4_36 
REMARK   13  A    between atoms: O4_36  and  C10_37 
REMARK   14  A    between atoms: C13_40  and  C14_41 
REMARK   15  A    between atoms: C14_41  and  C15_42 
ROOT
HETATM    1  C1  UNL     1     -25.278  -6.808  -5.836  1.00  0.00     0.705 A 
HETATM    2  N2  UNL     1     -25.784  -7.981  -5.429  1.00  0.00    -0.021 N 
ATOM      3  H2  UNL     1     -26.757  -8.044  -5.132  1.00  0.00     0.203 HD
HETATM    4  C2  UNL     1     -24.988  -9.089  -5.417  1.00  0.00     0.718 A 
HETATM    5  N3  UNL     1     -23.680  -9.021  -5.808  1.00  0.00     0.031 N 
HETATM    6  C3  UNL     1     -23.180  -7.842  -6.220  1.00  0.00     0.710 A 
HETATM    7  N5  UNL     1     -23.994  -6.746  -6.225  1.00  0.00    -0.022 N 
ATOM      8  H5  UNL     1     -23.615  -5.851  -6.536  1.00  0.00     0.203 HD
HETATM    9  C4  UNL     1     -22.832 -10.156  -5.710  1.00  0.00     0.264 C 
HETATM   10  C6  UNL     1     -23.632 -11.455  -5.607  1.00  0.00     0.134 A 
HETATM   11  N8  UNL     1     -23.226 -12.729  -5.737  1.00  0.00    -0.282 N 
ATOM     12  H8  UNL     1     -22.293 -13.036  -6.013  1.00  0.00     0.188 HD
HETATM   13  N9  UNL     1     -24.265 -13.530  -5.440  1.00  0.00    -0.238 N 
ATOM     14  H9  UNL     1     -24.234 -14.549  -5.457  1.00  0.00     0.208 HD
HETATM   15  N10 UNL     1     -25.326 -12.820  -5.124  1.00  0.00    -0.257 N 
HETATM   16  C17 UNL     1     -24.936 -11.512  -5.229  1.00  0.00     0.168 A 
HETATM   17  N16 UNL     1     -25.648 -10.315  -5.119  1.00  0.00    -0.172 N 
ATOM     18  H16 UNL     1     -26.627 -10.320  -4.830  1.00  0.00     0.186 HD
ENDROOT
BRANCH  15  19
HETATM   19  C7  UNL     1     -26.660 -13.229  -4.735  1.00  0.00     0.186 C 
BRANCH  19  20
HETATM   20  C8  UNL     1     -27.543 -13.502  -5.929  1.00  0.00     0.162 C 
BRANCH  20  21
HETATM   21  O3  UNL     1     -27.430 -12.554  -6.912  1.00  0.00    -0.392 OA
ATOM     22  H3  UNL     1     -27.850 -12.807  -7.727  1.00  0.00     0.210 HD
ENDBRANCH  20  21
BRANCH  20  23
HETATM   23  C9  UNL     1     -28.984 -13.645  -5.435  1.00  0.00     0.210 C 
BRANCH  23  24
HETATM   24  O4  UNL     1     -29.329 -12.474  -4.679  1.00  0.00    -0.333 OA
BRANCH  24  25
HETATM   25  C10 UNL     1     -30.206 -11.566  -5.250  1.00  0.00     0.141 A 
HETATM   26  C11 UNL     1     -31.549 -11.679  -4.991  1.00  0.00     0.056 A 
HETATM   27  C12 UNL     1     -32.481 -10.804  -5.530  1.00  0.00     0.013 A 
HETATM   28  C13 UNL     1     -32.011  -9.806  -6.342  1.00  0.00    -0.035 A 
HETATM   29  C16 UNL     1     -30.675  -9.685  -6.605  1.00  0.00     0.097 A 
HETATM   30  N15 UNL     1     -29.801 -10.571  -6.050  1.00  0.00    -0.346 N 
ATOM     31  H15 UNL     1     -28.805 -10.474  -6.251  1.00  0.00     0.167 HD
BRANCH  28  32
HETATM   32  C14 UNL     1     -32.968  -8.851  -6.938  1.00  0.00     0.118 C 
BRANCH  32  33
HETATM   33  C15 UNL     1     -33.380  -7.909  -5.872  1.00  0.00     0.111 A 
HETATM   34  N11 UNL     1     -34.421  -8.043  -5.052  1.00  0.00    -0.274 N 
HETATM   35  N12 UNL     1     -34.487  -7.014  -4.227  1.00  0.00    -0.007 NA
ATOM     36  H11 UNL     1     -35.074  -8.827  -5.061  1.00  0.00     0.185 HD
HETATM   37  N13 UNL     1     -33.472  -6.225  -4.534  1.00  0.00    -0.007 NA
HETATM   38  N14 UNL     1     -32.773  -6.756  -5.546  1.00  0.00    -0.274 N 
ATOM     39  H14 UNL     1     -31.941  -6.361  -5.984  1.00  0.00     0.185 HD
ENDBRANCH  32  33
ENDBRANCH  28  32
ENDBRANCH  24  25
ENDBRANCH  23  24
ENDBRANCH  20  23
ENDBRANCH  19  20
ENDBRANCH  15  19
BRANCH   9  40
HETATM   40  O1  UNL     1     -21.961 -10.244  -6.773  1.00  0.00    -0.361 OA
ATOM     41  H1  UNL     1     -21.415  -9.470  -6.851  1.00  0.00     0.213 HD
ENDBRANCH   9  40
BRANCH   9  42
HETATM   42  C5  UNL     1     -21.986 -10.193  -4.423  1.00  0.00     0.294 C 
BRANCH  42  43
HETATM   43  O2  UNL     1     -22.915 -10.546  -3.415  1.00  0.00    -0.373 OA
ATOM     44  H2  UNL     1     -22.822  -9.856  -2.769  1.00  0.00     0.212 HD
ENDBRANCH  42  43
BRANCH  42  45
HETATM   45  N6  UNL     1     -20.941 -11.131  -4.386  1.00  0.00    -0.111 NA
BRANCH  45  46
HETATM   46  N7  UNL     1     -19.721 -10.591  -4.875  1.00  0.00    -0.346 N 
ATOM     47  H72 UNL     1     -19.491  -9.598  -4.823  1.00  0.00     0.172 HD
ATOM     48  H71 UNL     1     -19.117 -11.309  -5.274  1.00  0.00     0.172 HD
ENDBRANCH  45  46
ENDBRANCH  42  45
ENDBRANCH   9  42
BRANCH   6  49
HETATM   49  N4  UNL     1     -21.975  -7.723  -6.662  1.00  0.00    -0.233 N 
ATOM     50  H42 UNL     1     -21.198  -7.851  -6.013  1.00  0.00     0.174 HD
ATOM     51  H41 UNL     1     -21.772  -7.461  -7.627  1.00  0.00     0.174 HD
ENDBRANCH   6  49
BRANCH   1  52
HETATM   52  N1  UNL     1     -25.993  -5.711  -5.868  1.00  0.00    -0.234 N 
ATOM     53  H12 UNL     1     -26.383  -5.360  -4.993  1.00  0.00     0.174 HD
ATOM     54  H11 UNL     1     -26.170  -5.201  -6.734  1.00  0.00     0.174 HD
ENDBRANCH   1  52
TORSDOF 15
ENDMDL
MODEL 3
REMARK VINA RESULT: -8.822322135      2.072      4.120
REMARK  15 active torsions:
REMARK  status: ('A' for Active; 'I' for Inactive)
REMARK    1  A    between atoms: N1_1  and  C1_4 
REMARK    2  A    between atoms: C3_9  and  N4_10 
REMARK    3  A    between atoms: C4_15  and  O1_16 
REMARK    4  A    between atoms: C4_15  and  C5_18 
REMARK    5  A    between atoms: C5_18  and  O2_19 
REMARK    6  A    between atoms: C5_18  and  N6_21 
REMARK    7  A    between atoms: N6_21  and  N7_22 
REMARK    8  A    between atoms: N10_30  and  C7_31 
REMARK    9  A    between atoms: C7_31  and  C8_32 
REMARK   10  A    between atoms: C8_32  and  O3_33 
REMARK   11  A    between atoms: C8_32  and  C9_35 
REMARK   12  A    between atoms: C9_35  and  O4_36 
REMARK   13  A    between atoms: O4_36  and  C10_37 
REMARK   14  A    between atoms: C13_40  and  C14_41 
REMARK   15  A    between atoms: C14_41  and  C15_42 
ROOT
HETATM    1  C1  UNL     1     -25.396  -6.351  -6.020  1.00  0.00     0.705 A 
HETATM    2  N2  UNL     1     -26.112  -7.477  -5.902  1.00  0.00    -0.021 N 
ATOM      3  H2  UNL     1     -27.127  -7.434  -5.825  1.00  0.00     0.203 HD
HETATM    4  C2  UNL     1     -25.471  -8.682  -5.885  1.00  0.00     0.718 A 
HETATM    5  N3  UNL     1     -24.110  -8.758  -5.982  1.00  0.00     0.031 N 
HETATM    6  C3  UNL     1     -23.398  -7.623  -6.106  1.00  0.00     0.710 A 
HETATM    7  N5  UNL     1     -24.059  -6.428  -6.122  1.00  0.00    -0.022 N 
ATOM      8  H5  UNL     1     -23.520  -5.567  -6.214  1.00  0.00     0.203 HD
HETATM    9  C4  UNL     1     -23.442 -10.006  -5.876  1.00  0.00     0.264 C 
HETATM   10  C6  UNL     1     -24.388 -11.180  -6.131  1.00  0.00     0.134 A 
HETATM   11  N8  UNL     1     -24.113 -12.476  -6.357  1.00  0.00    -0.282 N 
ATOM     12  H8  UNL     1     -23.183 -12.879  -6.475  1.00  0.00     0.188 HD
HETATM   13  N9  UNL     1     -25.277 -13.148  -6.401  1.00  0.00    -0.238 N 
ATOM     14  H9  UNL     1     -25.360 -14.152  -6.559  1.00  0.00     0.208 HD
HETATM   15  N10 UNL     1     -26.293 -12.335  -6.213  1.00  0.00    -0.257 N 
HETATM   16  C17 UNL     1     -25.741 -11.093  -6.044  1.00  0.00     0.168 A 
HETATM   17  N16 UNL     1     -26.318  -9.827  -5.912  1.00  0.00    -0.172 N 
ATOM     18  H16 UNL     1     -27.330  -9.725  -5.836  1.00  0.00     0.186 HD
ENDROOT
BRANCH  15  19
HETATM   19  C7  UNL     1     -27.717 -12.590  -6.173  1.00  0.00     0.186 C 
BRANCH  19  20
HETATM   20  C8  UNL     1     -28.111 -13.437  -4.988  1.00  0.00     0.162 C 
BRANCH  20  21
HETATM   21  O3  UNL     1     -29.188 -14.249  -5.237  1.00  0.00    -0.392 OA
ATOM     22  H3  UNL     1     -29.052 -15.148  -4.960  1.00  0.00     0.210 HD
ENDBRANCH  20  21
BRANCH  20  23
HETATM   23  C9  UNL     1     -28.361 -12.509  -3.797  1.00  0.00     0.210 C 
BRANCH  23  24
HETATM   24  O4  UNL     1     -29.765 -12.514  -3.497  1.00  0.00    -0.333 OA
BRANCH  24  25
HETATM   25  C10 UNL     1     -30.593 -11.690  -4.243  1.00  0.00     0.141 A 
HETATM   26  C11 UNL     1     -30.433 -10.329  -4.158  1.00  0.00     0.056 A 
HETATM   27  C12 UNL     1     -31.228  -9.447  -4.878  1.00  0.00     0.013 A 
HETATM   28  C13 UNL     1     -32.190  -9.986  -5.690  1.00  0.00    -0.035 A 
HETATM   29  C16 UNL     1     -32.355 -11.340  -5.780  1.00  0.00     0.097 A 
HETATM   30  N15 UNL     1     -31.549 -12.163  -5.052  1.00  0.00    -0.346 N 
ATOM     31  H15 UNL     1     -31.678 -13.172  -5.126  1.00  0.00     0.167 HD
BRANCH  28  32
HETATM   32  C14 UNL     1     -33.059  -9.084  -6.474  1.00  0.00     0.118 C 
BRANCH  32  33
HETATM   33  C15 UNL     1     -33.466  -7.973  -5.583  1.00  0.00     0.111 A 
HETATM   34  N11 UNL     1     -34.459  -7.989  -4.695  1.00  0.00    -0.274 N 
HETATM   35  N12 UNL     1     -34.537  -6.824  -4.077  1.00  0.00    -0.007 NA
ATOM     36  H11 UNL     1     -35.070  -8.787  -4.519  1.00  0.00     0.185 HD
HETATM   37  N13 UNL     1     -33.579  -6.069  -4.585  1.00  0.00    -0.007 NA
HETATM   38  N14 UNL     1     -32.903  -6.755  -5.516  1.00  0.00    -0.274 N 
ATOM     39  H14 UNL     1     -32.115  -6.418  -6.068  1.00  0.00     0.185 HD
ENDBRANCH  32  33
ENDBRANCH  28  32
ENDBRANCH  24  25
ENDBRANCH  23  24
ENDBRANCH  20  23
ENDBRANCH  19  20
ENDBRANCH  15  19
BRANCH   9  40
HETATM   40  O1  UNL     1     -22.371 -10.094  -6.736  1.00  0.00    -0.361 OA
ATOM     41  H1  UNL     1     -21.552 -10.234  -6.274  1.00  0.00     0.213 HD
ENDBRANCH   9  40
BRANCH   9  42
HETATM   42  C5  UNL     1     -22.916 -10.314  -4.461  1.00  0.00     0.294 C 
BRANCH  42  43
HETATM   43  O2  UNL     1     -24.014 -10.936  -3.819  1.00  0.00    -0.373 OA
ATOM     44  H2  UNL     1     -23.653 -11.750  -3.490  1.00  0.00     0.212 HD
ENDBRANCH  42  43
BRANCH  42  45
HETATM   45  N6  UNL     1     -21.821 -11.189  -4.375  1.00  0.00    -0.111 NA
BRANCH  45  46
HETATM   46  N7  UNL     1     -20.582 -10.509  -4.515  1.00  0.00    -0.346 N 
ATOM     47  H72 UNL     1     -20.325  -9.697  -3.954  1.00  0.00     0.172 HD
ATOM     48  H71 UNL     1     -19.993 -10.929  -5.235  1.00  0.00     0.172 HD
ENDBRANCH  45  46
ENDBRANCH  42  45
ENDBRANCH   9  42
BRANCH   6  49
HETATM   49  N4  UNL     1     -22.119  -7.627  -6.267  1.00  0.00    -0.233 N 
ATOM     50  H42 UNL     1     -21.531  -8.001  -5.521  1.00  0.00     0.174 HD
ATOM     51  H41 UNL     1     -21.672  -7.229  -7.093  1.00  0.00     0.174 HD
ENDBRANCH   6  49
BRANCH   1  52
HETATM   52  N1  UNL     1     -25.955  -5.166  -6.041  1.00  0.00    -0.234 N 
ATOM     53  H12 UNL     1     -26.030  -4.650  -5.164  1.00  0.00     0.174 HD
ATOM     54  H11 UNL     1     -26.313  -4.747  -6.900  1.00  0.00     0.174 HD
ENDBRANCH   1  52
TORSDOF 15
ENDMDL
MODEL 4
REMARK VINA RESULT: -8.259820380      1.921      3.446
REMARK  15 active torsions:
REMARK  status: ('A' for Active; 'I' for Inactive)
REMARK    1  A    between atoms: N1_1  and  C1_4 
REMARK    2  A    between atoms: C3_9  and  N4_10 
REMARK    3  A    between atoms: C4_15  and  O1_16 
REMARK    4  A    between atoms: C4_15  and  C5_18 
REMARK    5  A    between atoms: C5_18  and  O2_19 
REMARK    6  A    between atoms: C5_18  and  N6_21 
REMARK    7  A    between atoms: N6_21  and  N7_22 
REMARK    8  A    between atoms: N10_30  and  C7_31 
REMARK    9  A    between atoms: C7_31  and  C8_32 
REMARK   10  A    between atoms: C8_32  and  O3_33 
REMARK   11  A    between atoms: C8_32  and  C9_35 
REMARK   12  A    between atoms: C9_35  and  O4_36 
REMARK   13  A    between atoms: O4_36  and  C10_37 
REMARK   14  A    between atoms: C13_40  and  C14_41 
REMARK   15  A    between atoms: C14_41  and  C15_42 
ROOT
HETATM    1  C1  UNL     1     -21.030  -9.678  -4.767  1.00  0.00     0.705 A 
HETATM    2  N2  UNL     1     -22.307 -10.086  -4.756  1.00  0.00    -0.021 N 
ATOM      3  H2  UNL     1     -23.063  -9.402  -4.751  1.00  0.00     0.203 HD
HETATM    4  C2  UNL     1     -22.587 -11.421  -4.751  1.00  0.00     0.718 A 
HETATM    5  N3  UNL     1     -21.584 -12.350  -4.752  1.00  0.00     0.031 N 
HETATM    6  C3  UNL     1     -20.305 -11.934  -4.769  1.00  0.00     0.710 A 
HETATM    7  N5  UNL     1     -20.048 -10.593  -4.775  1.00  0.00    -0.022 N 
ATOM      8  H5  UNL     1     -19.078 -10.277  -4.786  1.00  0.00     0.203 HD
HETATM    9  C4  UNL     1     -21.878 -13.736  -4.658  1.00  0.00     0.264 C 
HETATM   10  C6  UNL     1     -23.329 -14.036  -5.037  1.00  0.00     0.134 A 
HETATM   11  N8  UNL     1     -23.924 -15.211  -5.305  1.00  0.00    -0.282 N 
ATOM     12  H8  UNL     1     -23.460 -16.116  -5.375  1.00  0.00     0.188 HD
HETATM   13  N9  UNL     1     -25.240 -14.984  -5.466  1.00  0.00    -0.238 N 
ATOM     14  H9  UNL     1     -25.930 -15.704  -5.678  1.00  0.00     0.208 HD
HETATM   15  N10 UNL     1     -25.516 -13.707  -5.313  1.00  0.00    -0.257 N 
HETATM   16  C17 UNL     1     -24.317 -13.104  -5.045  1.00  0.00     0.168 A 
HETATM   17  N16 UNL     1     -23.962 -11.760  -4.894  1.00  0.00    -0.172 N 
ATOM     18  H16 UNL     1     -24.679 -11.034  -4.887  1.00  0.00     0.186 HD
ENDROOT
BRANCH  15  19
HETATM   19  C7  UNL     1     -26.773 -12.992  -5.389  1.00  0.00     0.186 C 
BRANCH  19  20
HETATM   20  C8  UNL     1     -27.365 -12.735  -4.025  1.00  0.00     0.162 C 
BRANCH  20  21
HETATM   21  O3  UNL     1     -28.631 -13.240  -3.882  1.00  0.00    -0.392 OA
ATOM     22  H3  UNL     1     -28.702 -13.882  -3.184  1.00  0.00     0.210 HD
ENDBRANCH  20  21
BRANCH  20  23
HETATM   23  C9  UNL     1     -27.319 -11.228  -3.760  1.00  0.00     0.210 C 
BRANCH  23  24
HETATM   24  O4  UNL     1     -27.562 -10.536  -4.994  1.00  0.00    -0.333 OA
BRANCH  24  25
HETATM   25  C10 UNL     1     -28.870 -10.196  -5.302  1.00  0.00     0.141 A 
HETATM   26  C11 UNL     1     -29.162  -9.739  -6.562  1.00  0.00     0.056 A 
HETATM   27  C12 UNL     1     -30.450  -9.381  -6.937  1.00  0.00     0.013 A 
HETATM   28  C13 UNL     1     -31.436  -9.501  -5.994  1.00  0.00    -0.035 A 
HETATM   29  C16 UNL     1     -31.153  -9.956  -4.736  1.00  0.00     0.097 A 
HETATM   30  N15 UNL     1     -29.872 -10.295  -4.419  1.00  0.00    -0.346 N 
ATOM     31  H15 UNL     1     -29.670 -10.634  -3.479  1.00  0.00     0.167 HD
BRANCH  28  32
HETATM   32  C14 UNL     1     -32.821  -9.131  -6.350  1.00  0.00     0.118 C 
BRANCH  32  33
HETATM   33  C15 UNL     1     -33.132  -7.857  -5.662  1.00  0.00     0.111 A 
HETATM   34  N11 UNL     1     -34.230  -7.580  -4.960  1.00  0.00    -0.274 N 
HETATM   35  N12 UNL     1     -34.171  -6.347  -4.488  1.00  0.00    -0.007 NA
ATOM     36  H11 UNL     1     -35.004  -8.227  -4.809  1.00  0.00     0.185 HD
HETATM   37  N13 UNL     1     -33.020  -5.846  -4.901  1.00  0.00    -0.007 NA
HETATM   38  N14 UNL     1     -32.360  -6.758  -5.627  1.00  0.00    -0.274 N 
ATOM     39  H14 UNL     1     -31.448  -6.641  -6.068  1.00  0.00     0.185 HD
ENDBRANCH  32  33
ENDBRANCH  28  32
ENDBRANCH  24  25
ENDBRANCH  23  24
ENDBRANCH  20  23
ENDBRANCH  19  20
ENDBRANCH  15  19
BRANCH   9  40
HETATM   40  O1  UNL     1     -21.039 -14.497  -5.441  1.00  0.00    -0.361 OA
ATOM     41  H1  UNL     1     -21.084 -15.420  -5.220  1.00  0.00     0.213 HD
ENDBRANCH   9  40
BRANCH   9  42
HETATM   42  C5  UNL     1     -21.795 -14.296  -3.225  1.00  0.00     0.294 C 
BRANCH  42  43
HETATM   43  O2  UNL     1     -22.649 -15.424  -3.251  1.00  0.00    -0.373 OA
ATOM     44  H2  UNL     1     -22.924 -15.481  -4.158  1.00  0.00     0.212 HD
ENDBRANCH  42  43
BRANCH  42  45
HETATM   45  N6  UNL     1     -20.530 -14.729  -2.794  1.00  0.00    -0.111 NA
BRANCH  45  46
HETATM   46  N7  UNL     1     -20.622 -15.709  -1.769  1.00  0.00    -0.346 N 
ATOM     47  H72 UNL     1     -21.404 -15.759  -1.115  1.00  0.00     0.172 HD
ATOM     48  H71 UNL     1     -19.823 -16.343  -1.772  1.00  0.00     0.172 HD
ENDBRANCH  45  46
ENDBRANCH  42  45
ENDBRANCH   9  42
BRANCH   6  49
HETATM   49  N4  UNL     1     -19.315 -12.757  -4.836  1.00  0.00    -0.233 N 
ATOM     50  H42 UNL     1     -19.505 -13.759  -4.808  1.00  0.00     0.174 HD
ATOM     51  H41 UNL     1     -18.345 -12.441  -4.871  1.00  0.00     0.174 HD
ENDBRANCH   6  49
BRANCH   1  52
HETATM   52  N1  UNL     1     -20.701  -8.410  -4.771  1.00  0.00    -0.234 N 
ATOM     53  H12 UNL     1     -20.611  -7.935  -5.669  1.00  0.00     0.174 HD
ATOM     54  H11 UNL     1     -20.533  -7.888  -3.910  1.00  0.00     0.174 HD
ENDBRANCH   1  52
TORSDOF 15
ENDMDL
MODEL 5
REMARK VINA RESULT: -8.242693234      3.802      5.621
REMARK  15 active torsions:
REMARK  status: ('A' for Active; 'I' for Inactive)
REMARK    1  A    between atoms: N1_1  and  C1_4 
REMARK    2  A    between atoms: C3_9  and  N4_10 
REMARK    3  A    between atoms: C4_15  and  O1_16 
REMARK    4  A    between atoms: C4_15  and  C5_18 
REMARK    5  A    between atoms: C5_18  and  O2_19 
REMARK    6  A    between atoms: C5_18  and  N6_21 
REMARK    7  A    between atoms: N6_21  and  N7_22 
REMARK    8  A    between atoms: N10_30  and  C7_31 
REMARK    9  A    between atoms: C7_31  and  C8_32 
REMARK   10  A    between atoms: C8_32  and  O3_33 
REMARK   11  A    between atoms: C8_32  and  C9_35 
REMARK   12  A    between atoms: C9_35  and  O4_36 
REMARK   13  A    between atoms: O4_36  and  C10_37 
REMARK   14  A    between atoms: C13_40  and  C14_41 
REMARK   15  A    between atoms: C14_41  and  C15_42 
ROOT
HETATM    1  C1  UNL     1     -25.347  -6.682  -5.780  1.00  0.00     0.705 A 
HETATM    2  N2  UNL     1     -25.906  -7.817  -5.340  1.00  0.00    -0.021 N 
ATOM      3  H2  UNL     1     -26.868  -7.819  -5.005  1.00  0.00     0.203 HD
HETATM    4  C2  UNL     1     -25.177  -8.971  -5.343  1.00  0.00     0.718 A 
HETATM    5  N3  UNL     1     -23.884  -8.985  -5.784  1.00  0.00     0.031 N 
HETATM    6  C3  UNL     1     -23.330  -7.843  -6.231  1.00  0.00     0.710 A 
HETATM    7  N5  UNL     1     -24.078  -6.701  -6.219  1.00  0.00    -0.022 N 
ATOM      8  H5  UNL     1     -23.658  -5.834  -6.556  1.00  0.00     0.203 HD
HETATM    9  C4  UNL     1     -23.102 -10.168  -5.704  1.00  0.00     0.264 C 
HETATM   10  C6  UNL     1     -23.973 -11.416  -5.554  1.00  0.00     0.134 A 
HETATM   11  N8  UNL     1     -23.649 -12.714  -5.682  1.00  0.00    -0.282 N 
ATOM     12  H8  UNL     1     -22.748 -13.079  -5.990  1.00  0.00     0.188 HD
HETATM   13  N9  UNL     1     -24.722 -13.447  -5.335  1.00  0.00    -0.238 N 
ATOM     14  H9  UNL     1     -24.752 -14.467  -5.340  1.00  0.00     0.208 HD
HETATM   15  N10 UNL     1     -25.726 -12.672  -4.989  1.00  0.00    -0.257 N 
HETATM   16  C17 UNL     1     -25.262 -11.391  -5.126  1.00  0.00     0.168 A 
HETATM   17  N16 UNL     1     -25.897 -10.152  -5.004  1.00  0.00    -0.172 N 
ATOM     18  H16 UNL     1     -26.862 -10.095  -4.678  1.00  0.00     0.186 HD
ENDROOT
BRANCH  15  19
HETATM   19  C7  UNL     1     -27.065 -12.995  -4.544  1.00  0.00     0.186 C 
BRANCH  19  20
HETATM   20  C8  UNL     1     -28.035 -13.109  -5.695  1.00  0.00     0.162 C 
BRANCH  20  21
HETATM   21  O3  UNL     1     -27.422 -13.103  -6.921  1.00  0.00    -0.392 OA
ATOM     22  H3  UNL     1     -27.308 -13.973  -7.287  1.00  0.00     0.210 HD
ENDBRANCH  20  21
BRANCH  20  23
HETATM   23  C9  UNL     1     -29.064 -11.983  -5.566  1.00  0.00     0.210 C 
BRANCH  23  24
HETATM   24  O4  UNL     1     -29.464 -11.881  -4.191  1.00  0.00    -0.333 OA
BRANCH  24  25
HETATM   25  C10 UNL     1     -30.440 -12.752  -3.731  1.00  0.00     0.141 A 
HETATM   26  C11 UNL     1     -31.707 -12.670  -4.251  1.00  0.00     0.056 A 
HETATM   27  C12 UNL     1     -32.731 -13.510  -3.836  1.00  0.00     0.013 A 
HETATM   28  C13 UNL     1     -32.431 -14.440  -2.875  1.00  0.00    -0.035 A 
HETATM   29  C16 UNL     1     -31.171 -14.528  -2.352  1.00  0.00     0.097 A 
HETATM   30  N15 UNL     1     -30.202 -13.679  -2.794  1.00  0.00    -0.346 N 
ATOM     31  H15 UNL     1     -29.264 -13.752  -2.399  1.00  0.00     0.167 HD
BRANCH  28  32
HETATM   32  C14 UNL     1     -33.491 -15.355  -2.403  1.00  0.00     0.118 C 
BRANCH  32  33
HETATM   33  C15 UNL     1     -33.673 -15.115  -0.953  1.00  0.00     0.111 A 
HETATM   34  N11 UNL     1     -33.613 -16.026   0.016  1.00  0.00    -0.274 N 
HETATM   35  N12 UNL     1     -33.824 -15.457   1.190  1.00  0.00    -0.007 NA
ATOM     36  H11 UNL     1     -33.430 -17.019  -0.127  1.00  0.00     0.185 HD
HETATM   37  N13 UNL     1     -34.019 -14.172   0.951  1.00  0.00    -0.007 NA
HETATM   38  N14 UNL     1     -33.930 -13.935  -0.364  1.00  0.00    -0.274 N 
ATOM     39  H14 UNL     1     -34.038 -13.034  -0.829  1.00  0.00     0.185 HD
ENDBRANCH  32  33
ENDBRANCH  28  32
ENDBRANCH  24  25
ENDBRANCH  23  24
ENDBRANCH  20  23
ENDBRANCH  19  20
ENDBRANCH  15  19
BRANCH   9  40
HETATM   40  O1  UNL     1     -22.280 -10.320  -6.798  1.00  0.00    -0.361 OA
ATOM     41  H1  UNL     1     -22.748 -10.660  -7.552  1.00  0.00     0.213 HD
ENDBRANCH   9  40
BRANCH   9  42
HETATM   42  C5  UNL     1     -22.210 -10.242  -4.450  1.00  0.00     0.294 C 
BRANCH  42  43
HETATM   43  O2  UNL     1     -23.087 -10.695  -3.435  1.00  0.00    -0.373 OA
ATOM     44  H2  UNL     1     -23.249 -11.603  -3.663  1.00  0.00     0.212 HD
ENDBRANCH  42  43
BRANCH  42  45
HETATM   45  N6  UNL     1     -21.125 -11.133  -4.504  1.00  0.00    -0.111 NA
BRANCH  45  46
HETATM   46  N7  UNL     1     -19.921 -10.485  -4.889  1.00  0.00    -0.346 N 
ATOM     47  H72 UNL     1     -19.486  -9.743  -4.339  1.00  0.00     0.172 HD
ATOM     48  H71 UNL     1     -19.553 -10.850  -5.768  1.00  0.00     0.172 HD
ENDBRANCH  45  46
ENDBRANCH  42  45
ENDBRANCH   9  42
BRANCH   6  49
HETATM   49  N4  UNL     1     -22.138  -7.801  -6.720  1.00  0.00    -0.233 N 
ATOM     50  H42 UNL     1     -21.344  -7.787  -6.080  1.00  0.00     0.174 HD
ATOM     51  H41 UNL     1     -21.963  -7.737  -7.722  1.00  0.00     0.174 HD
ENDBRANCH   6  49
BRANCH   1  52
HETATM   52  N1  UNL     1     -25.996  -5.544  -5.800  1.00  0.00    -0.234 N 
ATOM     53  H12 UNL     1     -25.750  -4.834  -5.110  1.00  0.00     0.174 HD
ATOM     54  H11 UNL     1     -26.733  -5.349  -6.478  1.00  0.00     0.174 HD
ENDBRANCH   1  52
TORSDOF 15
ENDMDL
