MODEL 1
REMARK VINA RESULT: -9.302535902      0.000      0.000
REMARK  13 active torsions:
REMARK  status: ('A' for Active; 'I' for Inactive)
REMARK    1  A    between atoms: O1_2  and  C2_3 
REMARK    2  A    between atoms: C2_3  and  C3_4 
REMARK    3  A    between atoms: C3_4  and  N1_5 
REMARK    4  A    between atoms: C5_9  and  O2_10 
REMARK    5  A    between atoms: O2_10  and  C6_11 
REMARK    6  A    between atoms: C6_11  and  C7_12 
REMARK    7  A    between atoms: C7_12  and  N3_13 
REMARK    8  A    between atoms: N4_17  and  N5_18 
REMARK    9  A    between atoms: C11_25  and  O4_26 
REMARK   10  A    between atoms: O4_26  and  N6_27 
REMARK   11  A    between atoms: C12_32  and  O5_33 
REMARK   12  A    between atoms: C13_35  and  C14_36 
REMARK   13  A    between atoms: C15_39  and  N12_40 
ROOT
HETATM    1  N1  UNL     1     -25.962 -11.739  -5.125  1.00  0.00    -0.310 N 
HETATM    2  C4  UNL     1     -25.789 -10.456  -5.463  1.00  0.00     0.129 A 
HETATM    3  N2  UNL     1     -24.722  -9.616  -5.598  1.00  0.00    -0.305 N 
ATOM      4  H2  UNL     1     -23.791  -9.984  -5.399  1.00  0.00     0.171 HD
HETATM    5  C5  UNL     1     -24.828  -8.332  -5.976  1.00  0.00     0.249 A 
HETATM    6  N4  UNL     1     -26.091  -7.843  -6.243  1.00  0.00    -0.188 N 
HETATM    7  C8  UNL     1     -27.161  -8.626  -6.125  1.00  0.00     0.284 A 
HETATM    8  O3  UNL     1     -28.328  -8.192  -6.364  1.00  0.00    -0.265 OA
HETATM    9  C9  UNL     1     -27.047  -9.942  -5.734  1.00  0.00     0.096 A 
HETATM   10  C10 UNL     1     -27.941 -10.962  -5.542  1.00  0.00     0.074 A 
HETATM   11  C11 UNL     1     -29.312 -11.339  -5.577  1.00  0.00     0.153 A 
HETATM   12  C13 UNL     1     -29.400 -12.644  -5.223  1.00  0.00     0.159 A 
HETATM   13  O6  UNL     1     -28.135 -13.050  -4.986  1.00  0.00    -0.286 OA
HETATM   14  C17 UNL     1     -27.280 -12.098  -5.162  1.00  0.00     0.166 A 
ENDROOT
BRANCH  12  15
HETATM   15  C14 UNL     1     -30.530 -13.569  -5.060  1.00  0.00     0.173 A 
HETATM   16  N11 UNL     1     -31.349 -13.386  -3.958  1.00  0.00    -0.173 N 
HETATM   17  C15 UNL     1     -32.352 -14.222  -3.678  1.00  0.00     0.692 A 
ATOM     18  H11 UNL     1     -31.182 -12.590  -3.343  1.00  0.00     0.186 HD
HETATM   19  N13 UNL     1     -32.570 -15.276  -4.497  1.00  0.00    -0.023 N 
HETATM   20  C16 UNL     1     -31.797 -15.477  -5.571  1.00  0.00     0.692 A 
ATOM     21  H13 UNL     1     -33.331 -15.924  -4.294  1.00  0.00     0.203 HD
HETATM   22  N14 UNL     1     -32.030 -16.475  -6.325  1.00  0.00    -0.234 N 
HETATM   23  N15 UNL     1     -30.773 -14.606  -5.838  1.00  0.00    -0.173 N 
ATOM     24 2H14 UNL     1     -32.791 -17.123  -6.126  1.00  0.00     0.174 HD
ATOM     25 1H14 UNL     1     -31.441 -16.628  -7.143  1.00  0.00     0.174 HD
ATOM     26  H15 UNL     1     -30.186 -14.763  -6.658  1.00  0.00     0.186 HD
BRANCH  17  27
HETATM   27  N12 UNL     1     -33.098 -14.088  -2.630  1.00  0.00    -0.234 N 
ATOM     28 2H12 UNL     1     -32.698 -14.302  -1.717  1.00  0.00     0.174 HD
ATOM     29 1H12 UNL     1     -34.058 -13.748  -2.680  1.00  0.00     0.174 HD
ENDBRANCH  17  27
ENDBRANCH  12  15
BRANCH  11  30
HETATM   30  O4  UNL     1     -30.218 -10.400  -5.933  1.00  0.00    -0.214 OA
BRANCH  30  31
HETATM   31  N6  UNL     1     -31.214  -9.736  -5.435  1.00  0.00    -0.131 N 
HETATM   32  N7  UNL     1     -32.108 -10.589  -4.789  1.00  0.00     0.017 NA
HETATM   33  N8  UNL     1     -33.409 -10.382  -5.227  1.00  0.00     0.003 NA
HETATM   34  N9  UNL     1     -33.435 -10.302  -6.605  1.00  0.00    -0.015 NA
HETATM   35  N10 UNL     1     -32.841  -9.115  -7.072  1.00  0.00    -0.072 NA
HETATM   36  C12 UNL     1     -31.829  -8.670  -6.134  1.00  0.00     0.379 C 
BRANCH  36  37
HETATM   37  O5  UNL     1     -30.964  -7.828  -6.811  1.00  0.00    -0.359 OA
ATOM     38  H5  UNL     1     -31.373  -7.087  -7.244  1.00  0.00     0.213 HD
ENDBRANCH  36  37
ENDBRANCH  30  31
ENDBRANCH  11  30
BRANCH   1  39
HETATM   39  C3  UNL     1     -24.918 -12.659  -4.729  1.00  0.00     0.159 C 
BRANCH  39  40
HETATM   40  C2  UNL     1     -25.116 -14.017  -5.378  1.00  0.00     0.187 C 
BRANCH  40  41
HETATM   41  O1  UNL     1     -25.229 -14.980  -4.384  1.00  0.00    -0.394 OA
HETATM   42  C1  UNL     1     -23.963 -15.571  -4.133  1.00  0.00     0.201 C 
ENDBRANCH  40  41
ENDBRANCH  39  40
ENDBRANCH   1  39
BRANCH   6  43
HETATM   43  N5  UNL     1     -26.206  -6.543  -6.650  1.00  0.00    -0.332 N 
ATOM     44  H52 UNL     1     -25.909  -5.773  -6.050  1.00  0.00     0.177 HD
ATOM     45  H51 UNL     1     -26.612  -6.360  -7.569  1.00  0.00     0.177 HD
ENDBRANCH   6  43
BRANCH   5  46
HETATM   46  O2  UNL     1     -23.823  -7.488  -6.117  1.00  0.00    -0.319 OA
BRANCH  46  47
HETATM   47  C6  UNL     1     -22.496  -7.330  -6.122  1.00  0.00     0.206 C 
BRANCH  47  48
HETATM   48  C7  UNL     1     -21.632  -8.580  -5.966  1.00  0.00     0.256 C 
BRANCH  48  49
HETATM   49  N3  UNL     1     -20.992  -8.608  -4.661  1.00  0.00    -0.077 N 
ATOM     50  H33 UNL     1     -20.423  -7.778  -4.502  1.00  0.00     0.274 HD
ATOM     51  H32 UNL     1     -21.667  -8.479  -3.907  1.00  0.00     0.274 HD
ATOM     52  H31 UNL     1     -20.450  -9.464  -4.540  1.00  0.00     0.274 HD
ENDBRANCH  48  49
ENDBRANCH  47  48
ENDBRANCH  46  47
ENDBRANCH   5  46
TORSDOF 13
ENDMDL
MODEL 2
REMARK VINA RESULT: -9.269737512      2.094      8.989
REMARK  13 active torsions:
REMARK  status: ('A' for Active; 'I' for Inactive)
REMARK    1  A    between atoms: O1_2  and  C2_3 
REMARK    2  A    between atoms: C2_3  and  C3_4 
REMARK    3  A    between atoms: C3_4  and  N1_5 
REMARK    4  A    between atoms: C5_9  and  O2_10 
REMARK    5  A    between atoms: O2_10  and  C6_11 
REMARK    6  A    between atoms: C6_11  and  C7_12 
REMARK    7  A    between atoms: C7_12  and  N3_13 
REMARK    8  A    between atoms: N4_17  and  N5_18 
REMARK    9  A    between atoms: C11_25  and  O4_26 
REMARK   10  A    between atoms: O4_26  and  N6_27 
REMARK   11  A    between atoms: C12_32  and  O5_33 
REMARK   12  A    between atoms: C13_35  and  C14_36 
REMARK   13  A    between atoms: C15_39  and  N12_40 
ROOT
HETATM    1  N1  UNL     1     -31.192 -10.633  -5.393  1.00  0.00    -0.310 N 
HETATM    2  C4  UNL     1     -31.328 -11.726  -4.634  1.00  0.00     0.129 A 
HETATM    3  N2  UNL     1     -32.359 -12.548  -4.278  1.00  0.00    -0.305 N 
ATOM      4  H2  UNL     1     -33.290 -12.334  -4.634  1.00  0.00     0.171 HD
HETATM    5  C5  UNL     1     -32.215 -13.622  -3.486  1.00  0.00     0.249 A 
HETATM    6  N4  UNL     1     -30.951 -13.905  -3.010  1.00  0.00    -0.188 N 
HETATM    7  C8  UNL     1     -29.916 -13.131  -3.329  1.00  0.00     0.284 A 
HETATM    8  O3  UNL     1     -28.749 -13.376  -2.899  1.00  0.00    -0.265 OA
HETATM    9  C9  UNL     1     -30.069 -12.029  -4.141  1.00  0.00     0.096 A 
HETATM   10  C10 UNL     1     -29.212 -11.081  -4.637  1.00  0.00     0.074 A 
HETATM   11  C11 UNL     1     -27.866 -10.625  -4.672  1.00  0.00     0.153 A 
HETATM   12  C13 UNL     1     -27.815  -9.521  -5.456  1.00  0.00     0.159 A 
HETATM   13  O6  UNL     1     -29.077  -9.314  -5.888  1.00  0.00    -0.286 OA
HETATM   14  C17 UNL     1     -29.897 -10.199  -5.426  1.00  0.00     0.166 A 
ENDROOT
BRANCH  12  15
HETATM   15  C14 UNL     1     -26.728  -8.613  -5.848  1.00  0.00     0.173 A 
HETATM   16  N11 UNL     1     -25.439  -9.123  -5.842  1.00  0.00    -0.173 N 
HETATM   17  C15 UNL     1     -24.377  -8.357  -6.102  1.00  0.00     0.692 A 
ATOM     18  H11 UNL     1     -25.298 -10.111  -5.632  1.00  0.00     0.186 HD
HETATM   19  N13 UNL     1     -24.570  -7.048  -6.382  1.00  0.00    -0.023 N 
HETATM   20  C16 UNL     1     -25.803  -6.528  -6.399  1.00  0.00     0.692 A 
ATOM     21  H13 UNL     1     -23.768  -6.451  -6.582  1.00  0.00     0.203 HD
HETATM   22  N14 UNL     1     -25.952  -5.294  -6.669  1.00  0.00    -0.234 N 
HETATM   23  N15 UNL     1     -26.879  -7.333  -6.127  1.00  0.00    -0.173 N 
ATOM     24 2H14 UNL     1     -25.152  -4.695  -6.871  1.00  0.00     0.174 HD
ATOM     25 1H14 UNL     1     -26.892  -4.897  -6.682  1.00  0.00     0.174 HD
ATOM     26  H15 UNL     1     -27.818  -6.933  -6.140  1.00  0.00     0.186 HD
BRANCH  17  27
HETATM   27  N12 UNL     1     -23.167  -8.808  -6.059  1.00  0.00    -0.234 N 
ATOM     28 2H12 UNL     1     -22.910  -9.577  -6.677  1.00  0.00     0.174 HD
ATOM     29 1H12 UNL     1     -22.452  -8.405  -5.454  1.00  0.00     0.174 HD
ENDBRANCH  17  27
ENDBRANCH  12  15
BRANCH  11  30
HETATM   30  O4  UNL     1     -26.942 -11.322  -3.972  1.00  0.00    -0.214 OA
BRANCH  30  31
HETATM   31  N6  UNL     1     -25.946 -12.128  -4.164  1.00  0.00    -0.131 N 
HETATM   32  N7  UNL     1     -24.741 -11.428  -4.210  1.00  0.00     0.017 NA
HETATM   33  N8  UNL     1     -24.007 -11.759  -5.342  1.00  0.00     0.003 NA
HETATM   34  N9  UNL     1     -24.828 -11.754  -6.453  1.00  0.00    -0.015 NA
HETATM   35  N10 UNL     1     -25.733 -12.832  -6.439  1.00  0.00    -0.072 NA
HETATM   36  C12 UNL     1     -26.022 -13.213  -5.070  1.00  0.00     0.379 C 
BRANCH  36  37
HETATM   37  O5  UNL     1     -27.222 -13.904  -5.067  1.00  0.00    -0.359 OA
ATOM     38  H5  UNL     1     -27.169 -14.812  -5.343  1.00  0.00     0.213 HD
ENDBRANCH  36  37
ENDBRANCH  30  31
ENDBRANCH  11  30
BRANCH   1  39
HETATM   39  C3  UNL     1     -32.260  -9.942  -6.083  1.00  0.00     0.159 C 
BRANCH  39  40
HETATM   40  C2  UNL     1     -32.666  -8.685  -5.335  1.00  0.00     0.187 C 
BRANCH  40  41
HETATM   41  O1  UNL     1     -31.907  -7.619  -5.800  1.00  0.00    -0.394 OA
HETATM   42  C1  UNL     1     -32.564  -6.393  -5.517  1.00  0.00     0.201 C 
ENDBRANCH  40  41
ENDBRANCH  39  40
ENDBRANCH   1  39
BRANCH   6  43
HETATM   43  N5  UNL     1     -30.792 -15.010  -2.220  1.00  0.00    -0.332 N 
ATOM     44  H52 UNL     1     -31.576 -15.404  -1.700  1.00  0.00     0.177 HD
ATOM     45  H51 UNL     1     -29.861 -15.423  -2.151  1.00  0.00     0.177 HD
ENDBRANCH   6  43
BRANCH   5  46
HETATM   46  O2  UNL     1     -33.184 -14.440  -3.119  1.00  0.00    -0.319 OA
BRANCH  46  47
HETATM   47  C6  UNL     1     -33.766 -15.628  -3.306  1.00  0.00     0.206 C 
BRANCH  47  48
HETATM   48  C7  UNL     1     -34.142 -16.438  -2.066  1.00  0.00     0.256 C 
BRANCH  48  49
HETATM   49  N3  UNL     1     -34.606 -17.765  -2.435  1.00  0.00    -0.077 N 
ATOM     50  H33 UNL     1     -35.560 -17.744  -2.795  1.00  0.00     0.274 HD
ATOM     51  H32 UNL     1     -34.133 -18.111  -3.270  1.00  0.00     0.274 HD
ATOM     52  H31 UNL     1     -34.513 -18.413  -1.653  1.00  0.00     0.274 HD
ENDBRANCH  48  49
ENDBRANCH  47  48
ENDBRANCH  46  47
ENDBRANCH   5  46
TORSDOF 13
ENDMDL
MODEL 3
REMARK VINA RESULT: -9.218629265      0.875      1.039
REMARK  13 active torsions:
REMARK  status: ('A' for Active; 'I' for Inactive)
REMARK    1  A    between atoms: O1_2  and  C2_3 
REMARK    2  A    between atoms: C2_3  and  C3_4 
REMARK    3  A    between atoms: C3_4  and  N1_5 
REMARK    4  A    between atoms: C5_9  and  O2_10 
REMARK    5  A    between atoms: O2_10  and  C6_11 
REMARK    6  A    between atoms: C6_11  and  C7_12 
REMARK    7  A    between atoms: C7_12  and  N3_13 
REMARK    8  A    between atoms: N4_17  and  N5_18 
REMARK    9  A    between atoms: C11_25  and  O4_26 
REMARK   10  A    between atoms: O4_26  and  N6_27 
REMARK   11  A    between atoms: C12_32  and  O5_33 
REMARK   12  A    between atoms: C13_35  and  C14_36 
REMARK   13  A    between atoms: C15_39  and  N12_40 
ROOT
HETATM    1  N1  UNL     1     -26.299 -12.321  -5.074  1.00  0.00    -0.310 N 
HETATM    2  C4  UNL     1     -26.159 -11.022  -5.360  1.00  0.00     0.129 A 
HETATM    3  N2  UNL     1     -25.114 -10.148  -5.455  1.00  0.00    -0.305 N 
ATOM      4  H2  UNL     1     -24.175 -10.499  -5.268  1.00  0.00     0.171 HD
HETATM    5  C5  UNL     1     -25.254  -8.853  -5.782  1.00  0.00     0.249 A 
HETATM    6  N4  UNL     1     -26.528  -8.388  -6.035  1.00  0.00    -0.188 N 
HETATM    7  C8  UNL     1     -27.577  -9.203  -5.952  1.00  0.00     0.284 A 
HETATM    8  O3  UNL     1     -28.754  -8.791  -6.180  1.00  0.00    -0.265 OA
HETATM    9  C9  UNL     1     -27.429 -10.530  -5.615  1.00  0.00     0.096 A 
HETATM   10  C10 UNL     1     -28.297 -11.581  -5.468  1.00  0.00     0.074 A 
HETATM   11  C11 UNL     1     -29.657 -11.992  -5.524  1.00  0.00     0.153 A 
HETATM   12  C13 UNL     1     -29.711 -13.312  -5.224  1.00  0.00     0.159 A 
HETATM   13  O6  UNL     1     -28.436 -13.694  -4.999  1.00  0.00    -0.286 OA
HETATM   14  C17 UNL     1     -27.606 -12.713  -5.132  1.00  0.00     0.166 A 
ENDROOT
BRANCH  12  15
HETATM   15  C14 UNL     1     -30.816 -14.273  -5.103  1.00  0.00     0.173 A 
HETATM   16  N11 UNL     1     -31.590 -14.213  -3.956  1.00  0.00    -0.173 N 
HETATM   17  C15 UNL     1     -32.565 -15.094  -3.716  1.00  0.00     0.692 A 
ATOM     18  H11 UNL     1     -31.411 -13.475  -3.275  1.00  0.00     0.186 HD
HETATM   19  N13 UNL     1     -32.800 -16.070  -4.622  1.00  0.00    -0.023 N 
HETATM   20  C16 UNL     1     -32.070 -16.151  -5.742  1.00  0.00     0.692 A 
ATOM     21  H13 UNL     1     -33.540 -16.750  -4.451  1.00  0.00     0.203 HD
HETATM   22  N14 UNL     1     -32.318 -17.078  -6.577  1.00  0.00    -0.234 N 
HETATM   23  N15 UNL     1     -31.074 -15.237  -5.967  1.00  0.00    -0.173 N 
ATOM     24 2H14 UNL     1     -33.059 -17.759  -6.410  1.00  0.00     0.174 HD
ATOM     25 1H14 UNL     1     -31.763 -17.140  -7.430  1.00  0.00     0.174 HD
ATOM     26  H15 UNL     1     -30.520 -15.302  -6.821  1.00  0.00     0.186 HD
BRANCH  17  27
HETATM   27  N12 UNL     1     -33.267 -15.076  -2.631  1.00  0.00    -0.234 N 
ATOM     28 2H12 UNL     1     -33.643 -14.184  -2.308  1.00  0.00     0.174 HD
ATOM     29 1H12 UNL     1     -33.486 -15.921  -2.104  1.00  0.00     0.174 HD
ENDBRANCH  17  27
ENDBRANCH  12  15
BRANCH  11  30
HETATM   30  O4  UNL     1     -30.586 -11.064  -5.846  1.00  0.00    -0.214 OA
BRANCH  30  31
HETATM   31  N6  UNL     1     -31.733 -10.619  -5.439  1.00  0.00    -0.131 N 
HETATM   32  N7  UNL     1     -32.735 -10.898  -6.368  1.00  0.00     0.017 NA
HETATM   33  N8  UNL     1     -33.464  -9.759  -6.681  1.00  0.00     0.003 NA
HETATM   34  N9  UNL     1     -32.608  -8.702  -6.916  1.00  0.00    -0.015 NA
HETATM   35  N10 UNL     1     -31.985  -8.260  -5.734  1.00  0.00    -0.072 NA
HETATM   36  C12 UNL     1     -31.867  -9.363  -4.799  1.00  0.00     0.379 C 
BRANCH  36  37
HETATM   37  O5  UNL     1     -30.867  -9.048  -3.896  1.00  0.00    -0.359 OA
ATOM     38  H5  UNL     1     -30.175  -8.490  -4.233  1.00  0.00     0.213 HD
ENDBRANCH  36  37
ENDBRANCH  30  31
ENDBRANCH  11  30
BRANCH   1  39
HETATM   39  C3  UNL     1     -25.232 -13.228  -4.711  1.00  0.00     0.159 C 
BRANCH  39  40
HETATM   40  C2  UNL     1     -25.305 -14.506  -5.528  1.00  0.00     0.187 C 
BRANCH  40  41
HETATM   41  O1  UNL     1     -25.301 -15.594  -4.665  1.00  0.00    -0.394 OA
HETATM   42  C1  UNL     1     -24.029 -15.722  -4.048  1.00  0.00     0.201 C 
ENDBRANCH  40  41
ENDBRANCH  39  40
ENDBRANCH   1  39
BRANCH   6  43
HETATM   43  N5  UNL     1     -26.676  -7.076  -6.389  1.00  0.00    -0.332 N 
ATOM     44  H52 UNL     1     -26.507  -6.764  -7.346  1.00  0.00     0.177 HD
ATOM     45  H51 UNL     1     -26.948  -6.410  -5.665  1.00  0.00     0.177 HD
ENDBRANCH   6  43
BRANCH   5  46
HETATM   46  O2  UNL     1     -24.271  -7.978  -5.884  1.00  0.00    -0.319 OA
BRANCH  46  47
HETATM   47  C6  UNL     1     -22.986  -7.781  -6.193  1.00  0.00     0.206 C 
BRANCH  47  48
HETATM   48  C7  UNL     1     -21.989  -8.877  -5.821  1.00  0.00     0.256 C 
BRANCH  48  49
HETATM   49  N3  UNL     1     -21.063  -8.412  -4.802  1.00  0.00    -0.077 N 
ATOM     50  H33 UNL     1     -21.508  -8.356  -3.886  1.00  0.00     0.274 HD
ATOM     51  H32 UNL     1     -20.355  -9.114  -4.587  1.00  0.00     0.274 HD
ATOM     52  H31 UNL     1     -20.643  -7.522  -5.071  1.00  0.00     0.274 HD
ENDBRANCH  48  49
ENDBRANCH  47  48
ENDBRANCH  46  47
ENDBRANCH   5  46
TORSDOF 13
ENDMDL
MODEL 4
REMARK VINA RESULT: -9.178631541      0.184      1.292
REMARK  13 active torsions:
REMARK  status: ('A' for Active; 'I' for Inactive)
REMARK    1  A    between atoms: O1_2  and  C2_3 
REMARK    2  A    between atoms: C2_3  and  C3_4 
REMARK    3  A    between atoms: C3_4  and  N1_5 
REMARK    4  A    between atoms: C5_9  and  O2_10 
REMARK    5  A    between atoms: O2_10  and  C6_11 
REMARK    6  A    between atoms: C6_11  and  C7_12 
REMARK    7  A    between atoms: C7_12  and  N3_13 
REMARK    8  A    between atoms: N4_17  and  N5_18 
REMARK    9  A    between atoms: C11_25  and  O4_26 
REMARK   10  A    between atoms: O4_26  and  N6_27 
REMARK   11  A    between atoms: C12_32  and  O5_33 
REMARK   12  A    between atoms: C13_35  and  C14_36 
REMARK   13  A    between atoms: C15_39  and  N12_40 
ROOT
HETATM    1  N1  UNL     1     -25.869 -11.709  -5.116  1.00  0.00    -0.310 N 
HETATM    2  C4  UNL     1     -25.713 -10.429  -5.473  1.00  0.00     0.129 A 
HETATM    3  N2  UNL     1     -24.657  -9.579  -5.630  1.00  0.00    -0.305 N 
ATOM      4  H2  UNL     1     -23.720  -9.935  -5.437  1.00  0.00     0.171 HD
HETATM    5  C5  UNL     1     -24.781  -8.302  -6.024  1.00  0.00     0.249 A 
HETATM    6  N4  UNL     1     -26.051  -7.831  -6.285  1.00  0.00    -0.188 N 
HETATM    7  C8  UNL     1     -27.111  -8.622  -6.144  1.00  0.00     0.284 A 
HETATM    8  O3  UNL     1     -28.285  -8.205  -6.377  1.00  0.00    -0.265 OA
HETATM    9  C9  UNL     1     -26.979  -9.932  -5.737  1.00  0.00     0.096 A 
HETATM   10  C10 UNL     1     -27.861 -10.959  -5.522  1.00  0.00     0.074 A 
HETATM   11  C11 UNL     1     -29.228 -11.351  -5.537  1.00  0.00     0.153 A 
HETATM   12  C13 UNL     1     -29.298 -12.652  -5.165  1.00  0.00     0.159 A 
HETATM   13  O6  UNL     1     -28.026 -13.042  -4.937  1.00  0.00    -0.286 OA
HETATM   14  C17 UNL     1     -27.183 -12.082  -5.135  1.00  0.00     0.166 A 
ENDROOT
BRANCH  12  15
HETATM   15  C14 UNL     1     -30.416 -13.587  -4.977  1.00  0.00     0.173 A 
HETATM   16  N11 UNL     1     -30.551 -14.611  -5.900  1.00  0.00    -0.173 N 
HETATM   17  C15 UNL     1     -31.579 -15.462  -5.864  1.00  0.00     0.692 A 
ATOM     18  H11 UNL     1     -29.844 -14.719  -6.628  1.00  0.00     0.186 HD
HETATM   19  N13 UNL     1     -32.513 -15.316  -4.896  1.00  0.00    -0.023 N 
HETATM   20  C16 UNL     1     -32.408 -14.337  -3.989  1.00  0.00     0.692 A 
ATOM     21  H13 UNL     1     -33.304 -15.958  -4.857  1.00  0.00     0.203 HD
HETATM   22  N14 UNL     1     -33.299 -14.228  -3.088  1.00  0.00    -0.234 N 
HETATM   23  N15 UNL     1     -31.343 -13.475  -4.046  1.00  0.00    -0.173 N 
ATOM     24 2H14 UNL     1     -34.091 -14.869  -3.046  1.00  0.00     0.174 HD
ATOM     25 1H14 UNL     1     -33.220 -13.482  -2.397  1.00  0.00     0.174 HD
ATOM     26  H15 UNL     1     -31.267 -12.730  -3.353  1.00  0.00     0.186 HD
BRANCH  17  27
HETATM   27  N12 UNL     1     -31.740 -16.397  -6.742  1.00  0.00    -0.234 N 
ATOM     28 2H12 UNL     1     -32.054 -17.314  -6.426  1.00  0.00     0.174 HD
ATOM     29 1H12 UNL     1     -31.597 -16.243  -7.740  1.00  0.00     0.174 HD
ENDBRANCH  17  27
ENDBRANCH  12  15
BRANCH  11  30
HETATM   30  O4  UNL     1     -30.147 -10.426  -5.896  1.00  0.00    -0.214 OA
BRANCH  30  31
HETATM   31  N6  UNL     1     -31.155  -9.780  -5.401  1.00  0.00    -0.131 N 
HETATM   32  N7  UNL     1     -32.039 -10.648  -4.762  1.00  0.00     0.017 NA
HETATM   33  N8  UNL     1     -33.341 -10.460  -5.206  1.00  0.00     0.003 NA
HETATM   34  N9  UNL     1     -33.362 -10.377  -6.584  1.00  0.00    -0.015 NA
HETATM   35  N10 UNL     1     -32.784  -9.179  -7.045  1.00  0.00    -0.072 NA
HETATM   36  C12 UNL     1     -31.784  -8.721  -6.100  1.00  0.00     0.379 C 
BRANCH  36  37
HETATM   37  O5  UNL     1     -30.929  -7.863  -6.770  1.00  0.00    -0.359 OA
ATOM     38  H5  UNL     1     -30.195  -8.280  -7.208  1.00  0.00     0.213 HD
ENDBRANCH  36  37
ENDBRANCH  30  31
ENDBRANCH  11  30
BRANCH   1  39
HETATM   39  C3  UNL     1     -24.811 -12.613  -4.719  1.00  0.00     0.159 C 
BRANCH  39  40
HETATM   40  C2  UNL     1     -25.027 -13.995  -5.310  1.00  0.00     0.187 C 
BRANCH  40  41
HETATM   41  O1  UNL     1     -25.186 -14.908  -4.276  1.00  0.00    -0.394 OA
HETATM   42  C1  UNL     1     -23.979 -15.627  -4.072  1.00  0.00     0.201 C 
ENDBRANCH  40  41
ENDBRANCH  39  40
ENDBRANCH   1  39
BRANCH   6  43
HETATM   43  N5  UNL     1     -26.184  -6.537  -6.707  1.00  0.00    -0.332 N 
ATOM     44  H52 UNL     1     -25.940  -5.755  -6.100  1.00  0.00     0.177 HD
ATOM     45  H51 UNL     1     -26.550  -6.373  -7.646  1.00  0.00     0.177 HD
ENDBRANCH   6  43
BRANCH   5  46
HETATM   46  O2  UNL     1     -23.786  -7.450  -6.188  1.00  0.00    -0.319 OA
BRANCH  46  47
HETATM   47  C6  UNL     1     -22.463  -7.265  -6.154  1.00  0.00     0.206 C 
BRANCH  47  48
HETATM   48  C7  UNL     1     -21.579  -8.496  -5.961  1.00  0.00     0.256 C 
BRANCH  48  49
HETATM   49  N3  UNL     1     -20.984  -8.503  -4.635  1.00  0.00    -0.077 N 
ATOM     50  H33 UNL     1     -20.185  -9.135  -4.584  1.00  0.00     0.274 HD
ATOM     51  H32 UNL     1     -20.501  -7.628  -4.433  1.00  0.00     0.274 HD
ATOM     52  H31 UNL     1     -21.682  -8.722  -3.924  1.00  0.00     0.274 HD
ENDBRANCH  48  49
ENDBRANCH  47  48
ENDBRANCH  46  47
ENDBRANCH   5  46
TORSDOF 13
ENDMDL
MODEL 5
REMARK VINA RESULT: -9.125710559      2.063      8.978
REMARK  13 active torsions:
REMARK  status: ('A' for Active; 'I' for Inactive)
REMARK    1  A    between atoms: O1_2  and  C2_3 
REMARK    2  A    between atoms: C2_3  and  C3_4 
REMARK    3  A    between atoms: C3_4  and  N1_5 
REMARK    4  A    between atoms: C5_9  and  O2_10 
REMARK    5  A    between atoms: O2_10  and  C6_11 
REMARK    6  A    between atoms: C6_11  and  C7_12 
REMARK    7  A    between atoms: C7_12  and  N3_13 
REMARK    8  A    between atoms: N4_17  and  N5_18 
REMARK    9  A    between atoms: C11_25  and  O4_26 
REMARK   10  A    between atoms: O4_26  and  N6_27 
REMARK   11  A    between atoms: C12_32  and  O5_33 
REMARK   12  A    between atoms: C13_35  and  C14_36 
REMARK   13  A    between atoms: C15_39  and  N12_40 
ROOT
HETATM    1  N1  UNL     1     -30.953 -10.452  -5.412  1.00  0.00    -0.310 N 
HETATM    2  C4  UNL     1     -31.145 -11.570  -4.703  1.00  0.00     0.129 A 
HETATM    3  N2  UNL     1     -32.211 -12.370  -4.409  1.00  0.00    -0.305 N 
ATOM      4  H2  UNL     1     -33.126 -12.111  -4.780  1.00  0.00     0.171 HD
HETATM    5  C5  UNL     1     -32.124 -13.480  -3.658  1.00  0.00     0.249 A 
HETATM    6  N4  UNL     1     -30.884 -13.824  -3.161  1.00  0.00    -0.188 N 
HETATM    7  C8  UNL     1     -29.816 -13.073  -3.421  1.00  0.00     0.284 A 
HETATM    8  O3  UNL     1     -28.670 -13.374  -2.971  1.00  0.00    -0.265 OA
HETATM    9  C9  UNL     1     -29.911 -11.934  -4.190  1.00  0.00     0.096 A 
HETATM   10  C10 UNL     1     -29.010 -10.996  -4.624  1.00  0.00     0.074 A 
HETATM   11  C11 UNL     1     -27.649 -10.584  -4.604  1.00  0.00     0.153 A 
HETATM   12  C13 UNL     1     -27.541  -9.452  -5.340  1.00  0.00     0.159 A 
HETATM   13  O6  UNL     1     -28.784  -9.185  -5.796  1.00  0.00    -0.286 OA
HETATM   14  C17 UNL     1     -29.644 -10.061  -5.393  1.00  0.00     0.166 A 
ENDROOT
BRANCH  12  15
HETATM   15  C14 UNL     1     -26.415  -8.566  -5.666  1.00  0.00     0.173 A 
HETATM   16  N11 UNL     1     -26.714  -7.265  -6.037  1.00  0.00    -0.173 N 
HETATM   17  C15 UNL     1     -25.768  -6.409  -6.430  1.00  0.00     0.692 A 
ATOM     18  H11 UNL     1     -27.685  -6.953  -6.011  1.00  0.00     0.186 HD
HETATM   19  N13 UNL     1     -24.482  -6.827  -6.462  1.00  0.00    -0.023 N 
HETATM   20  C16 UNL     1     -24.162  -8.077  -6.106  1.00  0.00     0.692 A 
ATOM     21  H13 UNL     1     -23.750  -6.184  -6.761  1.00  0.00     0.203 HD
HETATM   22  N14 UNL     1     -22.943  -8.439  -6.143  1.00  0.00    -0.234 N 
HETATM   23  N15 UNL     1     -25.150  -8.939  -5.707  1.00  0.00    -0.173 N 
ATOM     24 2H14 UNL     1     -22.208  -7.798  -6.440  1.00  0.00     0.174 HD
ATOM     25 1H14 UNL     1     -22.699  -9.392  -5.871  1.00  0.00     0.174 HD
ATOM     26  H15 UNL     1     -24.903  -9.891  -5.436  1.00  0.00     0.186 HD
BRANCH  17  27
HETATM   27  N12 UNL     1     -26.037  -5.206  -6.819  1.00  0.00    -0.234 N 
ATOM     28 2H12 UNL     1     -26.992  -4.862  -6.718  1.00  0.00     0.174 HD
ATOM     29 1H12 UNL     1     -25.326  -4.578  -7.194  1.00  0.00     0.174 HD
ENDBRANCH  17  27
ENDBRANCH  12  15
BRANCH  11  30
HETATM   30  O4  UNL     1     -26.769 -11.340  -3.909  1.00  0.00    -0.214 OA
BRANCH  30  31
HETATM   31  N6  UNL     1     -25.731 -12.093  -4.103  1.00  0.00    -0.131 N 
HETATM   32  N7  UNL     1     -24.566 -11.330  -4.163  1.00  0.00     0.017 NA
HETATM   33  N8  UNL     1     -23.824 -11.629  -5.297  1.00  0.00     0.003 NA
HETATM   34  N9  UNL     1     -24.651 -11.677  -6.402  1.00  0.00    -0.015 NA
HETATM   35  N10 UNL     1     -25.497 -12.801  -6.374  1.00  0.00    -0.072 NA
HETATM   36  C12 UNL     1     -25.756 -13.187  -5.000  1.00  0.00     0.379 C 
BRANCH  36  37
HETATM   37  O5  UNL     1     -26.917 -13.941  -4.984  1.00  0.00    -0.359 OA
ATOM     38  H5  UNL     1     -27.633 -13.597  -5.506  1.00  0.00     0.213 HD
ENDBRANCH  36  37
ENDBRANCH  30  31
ENDBRANCH  11  30
BRANCH   1  39
HETATM   39  C3  UNL     1     -31.979  -9.698  -6.100  1.00  0.00     0.159 C 
BRANCH  39  40
HETATM   40  C2  UNL     1     -32.394  -8.482  -5.292  1.00  0.00     0.187 C 
BRANCH  40  41
HETATM   41  O1  UNL     1     -31.801  -7.352  -5.840  1.00  0.00    -0.394 OA
HETATM   42  C1  UNL     1     -32.563  -6.198  -5.521  1.00  0.00     0.201 C 
ENDBRANCH  40  41
ENDBRANCH  39  40
ENDBRANCH   1  39
BRANCH   6  43
HETATM   43  N5  UNL     1     -30.783 -14.964  -2.414  1.00  0.00    -0.332 N 
ATOM     44  H52 UNL     1     -31.612 -15.487  -2.131  1.00  0.00     0.177 HD
ATOM     45  H51 UNL     1     -29.852 -15.274  -2.131  1.00  0.00     0.177 HD
ENDBRANCH   6  43
BRANCH   5  46
HETATM   46  O2  UNL     1     -33.129 -14.279  -3.351  1.00  0.00    -0.319 OA
BRANCH  46  47
HETATM   47  C6  UNL     1     -33.680 -15.485  -3.514  1.00  0.00     0.206 C 
BRANCH  47  48
HETATM   48  C7  UNL     1     -34.106 -16.247  -2.260  1.00  0.00     0.256 C 
BRANCH  48  49
HETATM   49  N3  UNL     1     -34.582 -17.578  -2.599  1.00  0.00    -0.077 N 
ATOM     50  H33 UNL     1     -35.256 -17.923  -1.916  1.00  0.00     0.274 HD
ATOM     51  H32 UNL     1     -35.188 -17.564  -3.420  1.00  0.00     0.274 HD
ATOM     52  H31 UNL     1     -33.802 -18.224  -2.716  1.00  0.00     0.274 HD
ENDBRANCH  48  49
ENDBRANCH  47  48
ENDBRANCH  46  47
ENDBRANCH   5  46
TORSDOF 13
ENDMDL
