MODEL 1
REMARK VINA RESULT: -8.724382806      0.000      0.000
REMARK  12 active torsions:
REMARK  status: ('A' for Active; 'I' for Inactive)
REMARK    1  A    between atoms: O1_2  and  C2_3 
REMARK    2  A    between atoms: C2_3  and  C3_5 
REMARK    3  A    between atoms: C3_5  and  O3_6 
REMARK    4  A    between atoms: C5_9  and  C6_10 
REMARK    5  A    between atoms: C9_13  and  O4_14 
REMARK    6  A    between atoms: O4_14  and  C10_15 
REMARK    7  A    between atoms: C10_15  and  C11_16 
REMARK    8  A    between atoms: C11_16  and  C12_17 
REMARK    9  A    between atoms: C12_17  and  N1_18 
REMARK   10  A    between atoms: N1_18  and  N2_20 
REMARK   11  A    between atoms: N2_20  and  C13_22 
REMARK   12  A    between atoms: C22_47  and  N10_48 
ROOT
HETATM    1  C10 UNL     1       9.457  -6.240  -5.509  1.00  0.00     0.177 C 
ENDROOT
BRANCH   1   2
HETATM    2  O4  UNL     1       8.729  -6.983  -6.393  1.00  0.00    -0.351 OA
BRANCH   2   3
HETATM    3  C9  UNL     1       7.458  -7.481  -6.288  1.00  0.00     0.068 A 
HETATM    4  C8  UNL     1       6.300  -6.798  -6.517  1.00  0.00     0.037 A 
HETATM    5  C7  UNL     1       5.078  -7.448  -6.363  1.00  0.00     0.016 A 
HETATM    6  C6  UNL     1       4.984  -8.765  -5.987  1.00  0.00    -0.012 A 
HETATM    7  C21 UNL     1       6.160  -9.431  -5.764  1.00  0.00     0.016 A 
HETATM    8  C20 UNL     1       7.386  -8.832  -5.902  1.00  0.00     0.037 A 
BRANCH   6   9
HETATM    9  C5  UNL     1       3.700  -9.460  -5.823  1.00  0.00     0.039 C 
HETATM   10  C4  UNL     1       3.204  -9.885  -4.516  1.00  0.00     0.112 C 
HETATM   11  C3  UNL     1       2.501 -11.218  -4.647  1.00  0.00     0.197 C 
HETATM   12  C22 UNL     1       1.418 -11.141  -5.685  1.00  0.00     0.341 C 
HETATM   13  N9  UNL     1       1.771 -10.344  -6.819  1.00  0.00    -0.303 N 
HETATM   14  N8  UNL     1       2.990  -9.698  -6.875  1.00  0.00    -0.306 N 
ATOM     15  H9  UNL     1       1.114 -10.251  -7.594  1.00  0.00     0.182 HD
ATOM     16  H8  UNL     1       3.345  -9.398  -7.783  1.00  0.00     0.186 HD
BRANCH  11  17
HETATM   17  C2  UNL     1       3.471 -12.314  -4.949  1.00  0.00     0.297 C 
HETATM   18  O2  UNL     1       3.967 -13.017  -4.042  1.00  0.00    -0.262 OA
BRANCH  17  19
HETATM   19  O1  UNL     1       3.843 -12.571  -6.259  1.00  0.00    -0.324 OA
HETATM   20  C1  UNL     1       4.267 -13.863  -6.617  1.00  0.00     0.213 C 
ENDBRANCH  17  19
ENDBRANCH  11  17
BRANCH  11  21
HETATM   21  O3  UNL     1       1.839 -11.526  -3.426  1.00  0.00    -0.376 OA
ATOM     22  H3  UNL     1       1.221 -10.830  -3.235  1.00  0.00     0.211 HD
ENDBRANCH  11  21
BRANCH  12  23
HETATM   23  N10 UNL     1       1.051 -12.479  -6.144  1.00  0.00    -0.054 N 
ATOM     24 3H10 UNL     1       0.944 -12.517  -7.157  1.00  0.00     0.277 HD
ATOM     25 2H10 UNL     1       1.824 -13.138  -6.047  1.00  0.00     0.277 HD
ATOM     26 1H10 UNL     1       0.213 -12.805  -5.662  1.00  0.00     0.277 HD
ENDBRANCH  12  23
ENDBRANCH   6   9
ENDBRANCH   2   3
ENDBRANCH   1   2
BRANCH   1  27
HETATM   27  C11 UNL     1      10.513  -6.950  -4.720  1.00  0.00     0.048 C 
BRANCH  27  28
HETATM   28  C12 UNL     1      11.017  -8.187  -5.465  1.00  0.00     0.142 C 
BRANCH  28  29
HETATM   29  N1  UNL     1      10.611  -9.365  -4.716  1.00  0.00    -0.322 N 
ATOM     30  H1  UNL     1       9.722  -9.385  -4.217  1.00  0.00     0.180 HD
BRANCH  29  31
HETATM   31  N2  UNL     1      11.459 -10.460  -4.694  1.00  0.00    -0.136 N 
ATOM     32  H2  UNL     1      12.465 -10.295  -4.738  1.00  0.00     0.205 HD
BRANCH  31  33
HETATM   33  C13 UNL     1      11.045 -11.672  -4.622  1.00  0.00     0.698 A 
HETATM   34  N3  UNL     1      11.837 -12.701  -4.311  1.00  0.00    -0.175 N 
HETATM   35  C14 UNL     1      11.373 -13.972  -4.242  1.00  0.00     0.129 A 
ATOM     36  H3  UNL     1      12.822 -12.525  -4.120  1.00  0.00     0.186 HD
HETATM   37  N4  UNL     1      12.165 -14.943  -3.939  1.00  0.00    -0.384 N 
HETATM   38  C15 UNL     1      10.062 -14.227  -4.494  1.00  0.00     0.065 A 
ATOM     39  H42 UNL     1      13.149 -14.751  -3.750  1.00  0.00     0.157 HD
ATOM     40  H41 UNL     1      11.816 -15.899  -3.886  1.00  0.00     0.157 HD
HETATM   41  C16 UNL     1       9.559 -15.510  -4.432  1.00  0.00     0.038 A 
HETATM   42  C19 UNL     1       9.232 -13.148  -4.821  1.00  0.00     0.134 A 
HETATM   43  C17 UNL     1      10.382 -16.664  -4.095  1.00  0.00     0.071 C 
HETATM   44  N5  UNL     1       8.217 -15.631  -4.709  1.00  0.00    -0.301 N 
HETATM   45  N6  UNL     1       7.450 -14.618  -5.013  1.00  0.00    -0.264 N 
ATOM     46  H5  UNL     1       7.798 -16.560  -4.676  1.00  0.00     0.186 HD
HETATM   47  C18 UNL     1       7.884 -13.356  -5.087  1.00  0.00     0.288 A 
ATOM     48  H6  UNL     1       6.466 -14.800  -5.204  1.00  0.00     0.190 HD
HETATM   49  O5  UNL     1       7.165 -12.391  -5.374  1.00  0.00    -0.264 OA
HETATM   50  N7  UNL     1       9.742 -11.911  -4.876  1.00  0.00    -0.184 N 
ATOM     51  H7  UNL     1       9.130 -11.130  -5.114  1.00  0.00     0.184 HD
ENDBRANCH  31  33
ENDBRANCH  29  31
ENDBRANCH  28  29
ENDBRANCH  27  28
ENDBRANCH   1  27
TORSDOF 12
ENDMDL
MODEL 2
REMARK VINA RESULT: -8.546942061      1.726      2.435
REMARK  12 active torsions:
REMARK  status: ('A' for Active; 'I' for Inactive)
REMARK    1  A    between atoms: O1_2  and  C2_3 
REMARK    2  A    between atoms: C2_3  and  C3_5 
REMARK    3  A    between atoms: C3_5  and  O3_6 
REMARK    4  A    between atoms: C5_9  and  C6_10 
REMARK    5  A    between atoms: C9_13  and  O4_14 
REMARK    6  A    between atoms: O4_14  and  C10_15 
REMARK    7  A    between atoms: C10_15  and  C11_16 
REMARK    8  A    between atoms: C11_16  and  C12_17 
REMARK    9  A    between atoms: C12_17  and  N1_18 
REMARK   10  A    between atoms: N1_18  and  N2_20 
REMARK   11  A    between atoms: N2_20  and  C13_22 
REMARK   12  A    between atoms: C22_47  and  N10_48 
ROOT
HETATM    1  C10 UNL     1       8.750  -6.685  -6.312  1.00  0.00     0.177 C 
ENDROOT
BRANCH   1   2
HETATM    2  O4  UNL     1       7.405  -6.791  -6.106  1.00  0.00    -0.351 OA
BRANCH   2   3
HETATM    3  C9  UNL     1       6.633  -7.899  -5.878  1.00  0.00     0.068 A 
HETATM    4  C8  UNL     1       6.904  -9.172  -6.287  1.00  0.00     0.037 A 
HETATM    5  C7  UNL     1       6.013 -10.196  -5.979  1.00  0.00     0.016 A 
HETATM    6  C6  UNL     1       4.856  -9.981  -5.270  1.00  0.00    -0.012 A 
HETATM    7  C21 UNL     1       4.605  -8.695  -4.869  1.00  0.00     0.016 A 
HETATM    8  C20 UNL     1       5.454  -7.654  -5.150  1.00  0.00     0.037 A 
BRANCH   6   9
HETATM    9  C5  UNL     1       3.910 -11.055  -4.938  1.00  0.00     0.039 C 
HETATM   10  C4  UNL     1       3.077 -11.700  -5.949  1.00  0.00     0.112 C 
HETATM   11  C3  UNL     1       1.713 -12.002  -5.368  1.00  0.00     0.197 C 
HETATM   12  C22 UNL     1       1.847 -12.819  -4.114  1.00  0.00     0.341 C 
HETATM   13  N9  UNL     1       2.961 -12.440  -3.303  1.00  0.00    -0.303 N 
HETATM   14  N8  UNL     1       3.820 -11.437  -3.708  1.00  0.00    -0.306 N 
ATOM     15  H9  UNL     1       3.123 -12.914  -2.414  1.00  0.00     0.182 HD
ATOM     16  H8  UNL     1       4.406 -10.981  -3.009  1.00  0.00     0.186 HD
BRANCH  11  17
HETATM   17  C2  UNL     1       0.939 -10.748  -5.124  1.00  0.00     0.297 C 
HETATM   18  O2  UNL     1       1.087 -10.081  -4.077  1.00  0.00    -0.262 OA
BRANCH  17  19
HETATM   19  O1  UNL     1       0.031 -10.297  -6.069  1.00  0.00    -0.324 OA
HETATM   20  C1  UNL     1       0.381  -9.224  -6.907  1.00  0.00     0.213 C 
ENDBRANCH  17  19
ENDBRANCH  11  17
BRANCH  11  21
HETATM   21  O3  UNL     1       0.981 -12.816  -6.278  1.00  0.00    -0.376 OA
ATOM     22  H3  UNL     1       1.042 -13.719  -5.991  1.00  0.00     0.211 HD
ENDBRANCH  11  21
BRANCH  12  23
HETATM   23  N10 UNL     1       0.626 -12.733  -3.314  1.00  0.00    -0.054 N 
ATOM     24 3H10 UNL     1       0.297 -11.772  -3.229  1.00  0.00     0.277 HD
ATOM     25 2H10 UNL     1      -0.177 -13.126  -3.805  1.00  0.00     0.277 HD
ATOM     26 1H10 UNL     1       0.765 -13.169  -2.403  1.00  0.00     0.277 HD
ENDBRANCH  12  23
ENDBRANCH   6   9
ENDBRANCH   2   3
ENDBRANCH   1   2
BRANCH   1  27
HETATM   27  C11 UNL     1       9.569  -6.087  -5.210  1.00  0.00     0.048 C 
BRANCH  27  28
HETATM   28  C12 UNL     1      10.640  -7.066  -4.728  1.00  0.00     0.142 C 
BRANCH  28  29
HETATM   29  N1  UNL     1      10.319  -8.384  -5.252  1.00  0.00    -0.322 N 
ATOM     30  H1  UNL     1      10.340  -8.565  -6.255  1.00  0.00     0.180 HD
BRANCH  29  31
HETATM   31  N2  UNL     1       9.984  -9.388  -4.358  1.00  0.00    -0.136 N 
ATOM     32  H2  UNL     1       9.506  -9.129  -3.495  1.00  0.00     0.205 HD
BRANCH  31  33
HETATM   33  C13 UNL     1      10.242 -10.628  -4.561  1.00  0.00     0.698 A 
HETATM   34  N3  UNL     1      11.481 -11.108  -4.697  1.00  0.00    -0.175 N 
HETATM   35  C14 UNL     1      11.725 -12.422  -4.910  1.00  0.00     0.129 A 
ATOM     36  H3  UNL     1      12.268 -10.463  -4.638  1.00  0.00     0.186 HD
HETATM   37  N4  UNL     1      12.935 -12.852  -5.036  1.00  0.00    -0.384 N 
HETATM   38  C15 UNL     1      10.689 -13.298  -4.991  1.00  0.00     0.065 A 
ATOM     39  H42 UNL     1      13.712 -12.194  -4.975  1.00  0.00     0.157 HD
ATOM     40  H41 UNL     1      13.119 -13.842  -5.196  1.00  0.00     0.157 HD
HETATM   41  C16 UNL     1      10.905 -14.643  -5.207  1.00  0.00     0.038 A 
HETATM   42  C19 UNL     1       9.390 -12.796  -4.849  1.00  0.00     0.134 A 
HETATM   43  C17 UNL     1      12.237 -15.213  -5.359  1.00  0.00     0.071 C 
HETATM   44  N5  UNL     1       9.771 -15.419  -5.268  1.00  0.00    -0.301 N 
HETATM   45  N6  UNL     1       8.563 -14.942  -5.134  1.00  0.00    -0.264 N 
ATOM     46  H5  UNL     1       9.879 -16.421  -5.426  1.00  0.00     0.186 HD
HETATM   47  C18 UNL     1       8.296 -13.649  -4.923  1.00  0.00     0.288 A 
ATOM     48  H6  UNL     1       7.779 -15.591  -5.194  1.00  0.00     0.190 HD
HETATM   49  O5  UNL     1       7.155 -13.188  -4.796  1.00  0.00    -0.264 OA
HETATM   50  N7  UNL     1       9.204 -11.486  -4.640  1.00  0.00    -0.184 N 
ATOM     51  H7  UNL     1       8.254 -11.128  -4.537  1.00  0.00     0.184 HD
ENDBRANCH  31  33
ENDBRANCH  29  31
ENDBRANCH  28  29
ENDBRANCH  27  28
ENDBRANCH   1  27
TORSDOF 12
ENDMDL
MODEL 3
REMARK VINA RESULT: -8.357650820      1.244      1.925
REMARK  12 active torsions:
REMARK  status: ('A' for Active; 'I' for Inactive)
REMARK    1  A    between atoms: O1_2  and  C2_3 
REMARK    2  A    between atoms: C2_3  and  C3_5 
REMARK    3  A    between atoms: C3_5  and  O3_6 
REMARK    4  A    between atoms: C5_9  and  C6_10 
REMARK    5  A    between atoms: C9_13  and  O4_14 
REMARK    6  A    between atoms: O4_14  and  C10_15 
REMARK    7  A    between atoms: C10_15  and  C11_16 
REMARK    8  A    between atoms: C11_16  and  C12_17 
REMARK    9  A    between atoms: C12_17  and  N1_18 
REMARK   10  A    between atoms: N1_18  and  N2_20 
REMARK   11  A    between atoms: N2_20  and  C13_22 
REMARK   12  A    between atoms: C22_47  and  N10_48 
ROOT
HETATM    1  C10 UNL     1       9.405  -6.223  -5.545  1.00  0.00     0.177 C 
ENDROOT
BRANCH   1   2
HETATM    2  O4  UNL     1       8.711  -7.047  -6.384  1.00  0.00    -0.351 OA
BRANCH   2   3
HETATM    3  C9  UNL     1       7.445  -7.556  -6.271  1.00  0.00     0.068 A 
HETATM    4  C8  UNL     1       6.279  -6.886  -6.499  1.00  0.00     0.037 A 
HETATM    5  C7  UNL     1       5.065  -7.546  -6.337  1.00  0.00     0.016 A 
HETATM    6  C6  UNL     1       4.985  -8.862  -5.953  1.00  0.00    -0.012 A 
HETATM    7  C21 UNL     1       6.168  -9.516  -5.731  1.00  0.00     0.016 A 
HETATM    8  C20 UNL     1       7.388  -8.906  -5.878  1.00  0.00     0.037 A 
BRANCH   6   9
HETATM    9  C5  UNL     1       3.708  -9.568  -5.780  1.00  0.00     0.039 C 
HETATM   10  C4  UNL     1       3.239 -10.024  -4.474  1.00  0.00     0.112 C 
HETATM   11  C3  UNL     1       2.542 -11.358  -4.621  1.00  0.00     0.197 C 
HETATM   12  C22 UNL     1       1.439 -11.265  -5.637  1.00  0.00     0.341 C 
HETATM   13  N9  UNL     1       1.765 -10.442  -6.759  1.00  0.00    -0.303 N 
HETATM   14  N8  UNL     1       2.980  -9.788  -6.824  1.00  0.00    -0.306 N 
ATOM     15  H9  UNL     1       1.094 -10.336  -7.520  1.00  0.00     0.182 HD
ATOM     16  H8  UNL     1       3.315  -9.466  -7.732  1.00  0.00     0.186 HD
BRANCH  11  17
HETATM   17  C2  UNL     1       3.512 -12.441  -4.965  1.00  0.00     0.297 C 
HETATM   18  O2  UNL     1       4.089 -13.108  -4.078  1.00  0.00    -0.262 OA
BRANCH  17  19
HETATM   19  O1  UNL     1       3.792 -12.728  -6.291  1.00  0.00    -0.324 OA
HETATM   20  C1  UNL     1       4.368 -13.966  -6.624  1.00  0.00     0.213 C 
ENDBRANCH  17  19
ENDBRANCH  11  17
BRANCH  11  21
HETATM   21  O3  UNL     1       1.904 -11.696  -3.394  1.00  0.00    -0.376 OA
ATOM     22  H3  UNL     1       1.027 -11.332  -3.400  1.00  0.00     0.211 HD
ENDBRANCH  11  21
BRANCH  12  23
HETATM   23  N10 UNL     1       1.070 -12.596  -6.117  1.00  0.00    -0.054 N 
ATOM     24 3H10 UNL     1       0.835 -12.589  -7.109  1.00  0.00     0.277 HD
ATOM     25 2H10 UNL     1       1.876 -13.221  -6.156  1.00  0.00     0.277 HD
ATOM     26 1H10 UNL     1       0.316 -12.984  -5.551  1.00  0.00     0.277 HD
ENDBRANCH  12  23
ENDBRANCH   6   9
ENDBRANCH   2   3
ENDBRANCH   1   2
BRANCH   1  27
HETATM   27  C11 UNL     1      10.498  -6.838  -4.727  1.00  0.00     0.048 C 
BRANCH  27  28
HETATM   28  C12 UNL     1      11.015  -8.122  -5.377  1.00  0.00     0.142 C 
BRANCH  28  29
HETATM   29  N1  UNL     1      10.535  -9.251  -4.596  1.00  0.00    -0.322 N 
ATOM     30  H1  UNL     1       9.765  -9.139  -3.937  1.00  0.00     0.180 HD
BRANCH  29  31
HETATM   31  N2  UNL     1      11.148 -10.482  -4.767  1.00  0.00    -0.136 N 
ATOM     32  H2  UNL     1      12.152 -10.502  -4.948  1.00  0.00     0.205 HD
BRANCH  31  33
HETATM   33  C13 UNL     1      10.518 -11.598  -4.710  1.00  0.00     0.698 A 
HETATM   34  N3  UNL     1       9.189 -11.695  -4.783  1.00  0.00    -0.175 N 
HETATM   35  C14 UNL     1       8.550 -12.887  -4.720  1.00  0.00     0.129 A 
ATOM     36  H3  UNL     1       8.637 -10.845  -4.890  1.00  0.00     0.186 HD
HETATM   37  N4  UNL     1       7.263 -12.945  -4.794  1.00  0.00    -0.384 N 
HETATM   38  C15 UNL     1       9.267 -14.032  -4.578  1.00  0.00     0.065 A 
ATOM     39  H42 UNL     1       6.725 -12.085  -4.901  1.00  0.00     0.157 HD
ATOM     40  H41 UNL     1       6.782 -13.843  -4.747  1.00  0.00     0.157 HD
HETATM   41  C16 UNL     1       8.645 -15.262  -4.511  1.00  0.00     0.038 A 
HETATM   42  C19 UNL     1      10.662 -13.931  -4.501  1.00  0.00     0.134 A 
HETATM   43  C17 UNL     1       7.200 -15.419  -4.588  1.00  0.00     0.071 C 
HETATM   44  N5  UNL     1       9.487 -16.340  -4.367  1.00  0.00    -0.301 N 
HETATM   45  N6  UNL     1      10.787 -16.235  -4.296  1.00  0.00    -0.264 N 
ATOM     46  H5  UNL     1       9.075 -17.271  -4.312  1.00  0.00     0.186 HD
HETATM   47  C18 UNL     1      11.441 -15.071  -4.356  1.00  0.00     0.288 A 
ATOM     48  H6  UNL     1      11.334 -17.089  -4.188  1.00  0.00     0.190 HD
HETATM   49  O5  UNL     1      12.672 -14.963  -4.289  1.00  0.00    -0.264 OA
HETATM   50  N7  UNL     1      11.244 -12.726  -4.568  1.00  0.00    -0.184 N 
ATOM     51  H7  UNL     1      12.260 -12.660  -4.511  1.00  0.00     0.184 HD
ENDBRANCH  31  33
ENDBRANCH  29  31
ENDBRANCH  28  29
ENDBRANCH  27  28
ENDBRANCH   1  27
TORSDOF 12
ENDMDL
MODEL 4
REMARK VINA RESULT: -8.329912357      2.566      3.745
REMARK  12 active torsions:
REMARK  status: ('A' for Active; 'I' for Inactive)
REMARK    1  A    between atoms: O1_2  and  C2_3 
REMARK    2  A    between atoms: C2_3  and  C3_5 
REMARK    3  A    between atoms: C3_5  and  O3_6 
REMARK    4  A    between atoms: C5_9  and  C6_10 
REMARK    5  A    between atoms: C9_13  and  O4_14 
REMARK    6  A    between atoms: O4_14  and  C10_15 
REMARK    7  A    between atoms: C10_15  and  C11_16 
REMARK    8  A    between atoms: C11_16  and  C12_17 
REMARK    9  A    between atoms: C12_17  and  N1_18 
REMARK   10  A    between atoms: N1_18  and  N2_20 
REMARK   11  A    between atoms: N2_20  and  C13_22 
REMARK   12  A    between atoms: C22_47  and  N10_48 
ROOT
HETATM    1  C10 UNL     1       7.418  -8.983  -6.242  1.00  0.00     0.177 C 
ENDROOT
BRANCH   1   2
HETATM    2  O4  UNL     1       6.532  -9.417  -5.297  1.00  0.00    -0.351 OA
BRANCH   2   3
HETATM    3  C9  UNL     1       5.189  -9.665  -5.396  1.00  0.00     0.068 A 
HETATM    4  C8  UNL     1       4.404 -10.259  -4.452  1.00  0.00     0.037 A 
HETATM    5  C7  UNL     1       3.048 -10.446  -4.706  1.00  0.00     0.016 A 
HETATM    6  C6  UNL     1       2.455 -10.051  -5.880  1.00  0.00    -0.012 A 
HETATM    7  C21 UNL     1       3.262  -9.455  -6.813  1.00  0.00     0.016 A 
HETATM    8  C20 UNL     1       4.604  -9.252  -6.607  1.00  0.00     0.037 A 
BRANCH   6   9
HETATM    9  C5  UNL     1       1.025 -10.241  -6.156  1.00  0.00     0.039 C 
HETATM   10  C4  UNL     1       0.311  -9.451  -7.156  1.00  0.00     0.112 C 
HETATM   11  C3  UNL     1      -1.087  -9.150  -6.665  1.00  0.00     0.197 C 
HETATM   12  C22 UNL     1      -1.803 -10.422  -6.307  1.00  0.00     0.341 C 
HETATM   13  N9  UNL     1      -0.961 -11.393  -5.680  1.00  0.00    -0.303 N 
HETATM   14  N8  UNL     1       0.384 -11.142  -5.488  1.00  0.00    -0.306 N 
ATOM     15  H9  UNL     1      -1.357 -12.281  -5.372  1.00  0.00     0.182 HD
ATOM     16  H8  UNL     1       0.890 -11.688  -4.792  1.00  0.00     0.186 HD
BRANCH  11  17
HETATM   17  C2  UNL     1      -1.063  -8.194  -5.517  1.00  0.00     0.297 C 
HETATM   18  O2  UNL     1      -0.868  -8.584  -4.345  1.00  0.00    -0.262 OA
BRANCH  17  19
HETATM   19  O1  UNL     1      -1.259  -6.840  -5.736  1.00  0.00    -0.324 OA
HETATM   20  C1  UNL     1      -2.309  -6.177  -5.076  1.00  0.00     0.213 C 
ENDBRANCH  17  19
ENDBRANCH  11  17
BRANCH  11  21
HETATM   21  O3  UNL     1      -1.845  -8.570  -7.720  1.00  0.00    -0.376 OA
ATOM     22  H3  UNL     1      -2.725  -8.406  -7.404  1.00  0.00     0.211 HD
ENDBRANCH  11  21
BRANCH  12  23
HETATM   23  N10 UNL     1      -2.937 -10.142  -5.428  1.00  0.00    -0.054 N 
ATOM     24 3H10 UNL     1      -3.687  -9.657  -5.921  1.00  0.00     0.277 HD
ATOM     25 2H10 UNL     1      -3.444 -10.992  -5.181  1.00  0.00     0.277 HD
ATOM     26 1H10 UNL     1      -2.632  -9.628  -4.602  1.00  0.00     0.277 HD
ENDBRANCH  12  23
ENDBRANCH   6   9
ENDBRANCH   2   3
ENDBRANCH   1   2
BRANCH   1  27
HETATM   27  C11 UNL     1       8.314  -7.842  -5.870  1.00  0.00     0.048 C 
BRANCH  27  28
HETATM   28  C12 UNL     1       9.780  -8.187  -6.132  1.00  0.00     0.142 C 
BRANCH  28  29
HETATM   29  N1  UNL     1      10.442  -8.361  -4.849  1.00  0.00    -0.322 N 
ATOM     30  H1  UNL     1      11.198  -7.739  -4.565  1.00  0.00     0.180 HD
BRANCH  29  31
HETATM   31  N2  UNL     1      10.022  -9.390  -4.022  1.00  0.00    -0.136 N 
ATOM     32  H2  UNL     1       9.573  -9.148  -3.138  1.00  0.00     0.205 HD
BRANCH  31  33
HETATM   33  C13 UNL     1      10.170 -10.631  -4.310  1.00  0.00     0.698 A 
HETATM   34  N3  UNL     1      11.361 -11.206  -4.492  1.00  0.00    -0.175 N 
HETATM   35  C14 UNL     1      11.487 -12.520  -4.795  1.00  0.00     0.129 A 
ATOM     36  H3  UNL     1      12.202 -10.638  -4.400  1.00  0.00     0.186 HD
HETATM   37  N4  UNL     1      12.654 -13.044  -4.964  1.00  0.00    -0.384 N 
HETATM   38  C15 UNL     1      10.378 -13.294  -4.922  1.00  0.00     0.065 A 
ATOM     39  H42 UNL     1      13.487 -12.462  -4.868  1.00  0.00     0.157 HD
ATOM     40  H41 UNL     1      12.749 -14.033  -5.192  1.00  0.00     0.157 HD
HETATM   41  C16 UNL     1      10.474 -14.635  -5.230  1.00  0.00     0.038 A 
HETATM   42  C19 UNL     1       9.128 -12.691  -4.732  1.00  0.00     0.134 A 
HETATM   43  C17 UNL     1      11.749 -15.308  -5.436  1.00  0.00     0.071 C 
HETATM   44  N5  UNL     1       9.275 -15.304  -5.330  1.00  0.00    -0.301 N 
HETATM   45  N6  UNL     1       8.115 -14.732  -5.151  1.00  0.00    -0.264 N 
ATOM     46  H5  UNL     1       9.294 -16.298  -5.557  1.00  0.00     0.186 HD
HETATM   47  C18 UNL     1       7.964 -13.439  -4.851  1.00  0.00     0.288 A 
ATOM     48  H6  UNL     1       7.277 -15.305  -5.246  1.00  0.00     0.190 HD
HETATM   49  O5  UNL     1       6.868 -12.889  -4.680  1.00  0.00    -0.264 OA
HETATM   50  N7  UNL     1       9.059 -11.387  -4.434  1.00  0.00    -0.184 N 
ATOM     51  H7  UNL     1       8.146 -10.956  -4.297  1.00  0.00     0.184 HD
ENDBRANCH  31  33
ENDBRANCH  29  31
ENDBRANCH  28  29
ENDBRANCH  27  28
ENDBRANCH   1  27
TORSDOF 12
ENDMDL
MODEL 5
REMARK VINA RESULT: -8.254684936      1.784      2.492
REMARK  12 active torsions:
REMARK  status: ('A' for Active; 'I' for Inactive)
REMARK    1  A    between atoms: O1_2  and  C2_3 
REMARK    2  A    between atoms: C2_3  and  C3_5 
REMARK    3  A    between atoms: C3_5  and  O3_6 
REMARK    4  A    between atoms: C5_9  and  C6_10 
REMARK    5  A    between atoms: C9_13  and  O4_14 
REMARK    6  A    between atoms: O4_14  and  C10_15 
REMARK    7  A    between atoms: C10_15  and  C11_16 
REMARK    8  A    between atoms: C11_16  and  C12_17 
REMARK    9  A    between atoms: C12_17  and  N1_18 
REMARK   10  A    between atoms: N1_18  and  N2_20 
REMARK   11  A    between atoms: N2_20  and  C13_22 
REMARK   12  A    between atoms: C22_47  and  N10_48 
ROOT
HETATM    1  C10 UNL     1      10.191  -8.061  -5.210  1.00  0.00     0.177 C 
ENDROOT
BRANCH   1   2
HETATM    2  O4  UNL     1       9.202  -7.841  -6.127  1.00  0.00    -0.351 OA
BRANCH   2   3
HETATM    3  C9  UNL     1       7.869  -8.147  -6.075  1.00  0.00     0.068 A 
HETATM    4  C8  UNL     1       6.832  -7.287  -6.286  1.00  0.00     0.037 A 
HETATM    5  C7  UNL     1       5.524  -7.752  -6.193  1.00  0.00     0.016 A 
HETATM    6  C6  UNL     1       5.224  -9.059  -5.896  1.00  0.00    -0.012 A 
HETATM    7  C21 UNL     1       6.281  -9.906  -5.689  1.00  0.00     0.016 A 
HETATM    8  C20 UNL     1       7.586  -9.491  -5.769  1.00  0.00     0.037 A 
BRANCH   6   9
HETATM    9  C5  UNL     1       3.846  -9.561  -5.797  1.00  0.00     0.039 C 
HETATM   10  C4  UNL     1       3.227  -9.893  -4.516  1.00  0.00     0.112 C 
HETATM   11  C3  UNL     1       2.348 -11.114  -4.677  1.00  0.00     0.197 C 
HETATM   12  C22 UNL     1       1.343 -10.895  -5.772  1.00  0.00     0.341 C 
HETATM   13  N9  UNL     1       1.865 -10.172  -6.890  1.00  0.00    -0.303 N 
HETATM   14  N8  UNL     1       3.166  -9.708  -6.884  1.00  0.00    -0.306 N 
ATOM     15  H9  UNL     1       1.270  -9.996  -7.700  1.00  0.00     0.182 HD
ATOM     16  H8  UNL     1       3.607  -9.474  -7.774  1.00  0.00     0.186 HD
BRANCH  11  17
HETATM   17  C2  UNL     1       3.165 -12.341  -4.921  1.00  0.00     0.297 C 
HETATM   18  O2  UNL     1       3.503 -13.098  -3.986  1.00  0.00    -0.262 OA
BRANCH  17  19
HETATM   19  O1  UNL     1       3.567 -12.664  -6.207  1.00  0.00    -0.324 OA
HETATM   20  C1  UNL     1       4.834 -13.237  -6.413  1.00  0.00     0.213 C 
ENDBRANCH  17  19
ENDBRANCH  11  17
BRANCH  11  21
HETATM   21  O3  UNL     1       1.585 -11.307  -3.491  1.00  0.00    -0.376 OA
ATOM     22  H3  UNL     1       1.369 -10.456  -3.130  1.00  0.00     0.211 HD
ENDBRANCH  11  21
BRANCH  12  23
HETATM   23  N10 UNL     1       0.812 -12.174  -6.242  1.00  0.00    -0.054 N 
ATOM     24 3H10 UNL     1       1.527 -12.900  -6.256  1.00  0.00     0.277 HD
ATOM     25 2H10 UNL     1       0.181 -12.595  -5.560  1.00  0.00     0.277 HD
ATOM     26 1H10 UNL     1       0.366 -12.063  -7.153  1.00  0.00     0.277 HD
ENDBRANCH  12  23
ENDBRANCH   6   9
ENDBRANCH   2   3
ENDBRANCH   1   2
BRANCH   1  27
HETATM   27  C11 UNL     1      11.148  -9.179  -5.487  1.00  0.00     0.048 C 
BRANCH  27  28
HETATM   28  C12 UNL     1      10.697 -10.470  -4.802  1.00  0.00     0.142 C 
BRANCH  28  29
HETATM   29  N1  UNL     1      11.883 -11.231  -4.443  1.00  0.00    -0.322 N 
ATOM     30  H1  UNL     1      12.620 -10.811  -3.878  1.00  0.00     0.180 HD
BRANCH  29  31
HETATM   31  N2  UNL     1      11.988 -12.540  -4.885  1.00  0.00    -0.136 N 
ATOM     32  H2  UNL     1      12.691 -12.758  -5.591  1.00  0.00     0.205 HD
BRANCH  31  33
HETATM   33  C13 UNL     1      11.247 -13.493  -4.451  1.00  0.00     0.698 A 
HETATM   34  N3  UNL     1      10.009 -13.722  -4.897  1.00  0.00    -0.175 N 
HETATM   35  C14 UNL     1       9.248 -14.736  -4.421  1.00  0.00     0.129 A 
ATOM     36  H3  UNL     1       9.624 -13.113  -5.619  1.00  0.00     0.186 HD
HETATM   37  N4  UNL     1       8.056 -14.929  -4.874  1.00  0.00    -0.384 N 
HETATM   38  C15 UNL     1       9.743 -15.558  -3.459  1.00  0.00     0.065 A 
ATOM     39  H42 UNL     1       7.685 -14.311  -5.597  1.00  0.00     0.157 HD
ATOM     40  H41 UNL     1       7.484 -15.693  -4.516  1.00  0.00     0.157 HD
HETATM   41  C16 UNL     1       8.993 -16.600  -2.954  1.00  0.00     0.038 A 
HETATM   42  C19 UNL     1      11.041 -15.318  -2.991  1.00  0.00     0.134 A 
HETATM   43  C17 UNL     1       7.640 -16.890  -3.409  1.00  0.00     0.071 C 
HETATM   44  N5  UNL     1       9.611 -17.355  -1.985  1.00  0.00    -0.301 N 
HETATM   45  N6  UNL     1      10.822 -17.123  -1.554  1.00  0.00    -0.264 N 
ATOM     46  H5  UNL     1       9.096 -18.137  -1.580  1.00  0.00     0.186 HD
HETATM   47  C18 UNL     1      11.593 -16.130  -2.008  1.00  0.00     0.288 A 
ATOM     48  H6  UNL     1      11.201 -17.735  -0.832  1.00  0.00     0.190 HD
HETATM   49  O5  UNL     1      12.741 -15.903  -1.606  1.00  0.00    -0.264 OA
HETATM   50  N7  UNL     1      11.751 -14.301  -3.495  1.00  0.00    -0.184 N 
ATOM     51  H7  UNL     1      12.695 -14.133  -3.149  1.00  0.00     0.184 HD
ENDBRANCH  31  33
ENDBRANCH  29  31
ENDBRANCH  28  29
ENDBRANCH  27  28
ENDBRANCH   1  27
TORSDOF 12
ENDMDL
