MODEL 1
REMARK VINA RESULT: -7.157075930      0.000      0.000
REMARK  14 active torsions:
REMARK  status: ('A' for Active; 'I' for Inactive)
REMARK    1  A    between atoms: N1_1  and  C1_4 
REMARK    2  A    between atoms: C2_7  and  C3_8 
REMARK    3  A    between atoms: C3_8  and  O1_9 
REMARK    4  A    between atoms: C3_8  and  C4_11 
REMARK    5  A    between atoms: C4_11  and  C5_12 
REMARK    6  A    between atoms: C4_11  and  C11_28 
REMARK    7  A    between atoms: C5_12  and  C8_19 
REMARK    8  A    between atoms: N3_13  and  O2_15 
REMARK    9  A    between atoms: O2_15  and  C6_16 
REMARK   10  A    between atoms: C6_16  and  C7_17 
REMARK   11  A    between atoms: C10_22  and  N4_23 
REMARK   12  A    between atoms: C16_35  and  N7_36 
REMARK   13  A    between atoms: N7_36  and  O4_37 
REMARK   14  A    between atoms: C19_45  and  N10_46 
ROOT
HETATM    1  C4  UNL     1       5.142 -11.159  -5.112  1.00  0.00     0.020 C 
ENDROOT
BRANCH   1   2
HETATM    2  C3  UNL     1       4.021 -11.038  -4.183  1.00  0.00     0.223 C 
BRANCH   2   3
HETATM    3  C2  UNL     1       2.971 -11.998  -3.975  1.00  0.00     0.146 A 
HETATM    4  N2  UNL     1       2.171 -12.455  -4.979  1.00  0.00    -0.177 N 
HETATM    5  C1  UNL     1       1.229 -13.380  -4.798  1.00  0.00     0.691 A 
ATOM      6  H2  UNL     1       2.299 -12.070  -5.915  1.00  0.00     0.185 HD
HETATM    7  N11 UNL     1       1.027 -13.915  -3.583  1.00  0.00    -0.023 N 
HETATM    8  C19 UNL     1       1.793 -13.499  -2.544  1.00  0.00     0.691 A 
ATOM      9  H11 UNL     1       0.307 -14.624  -3.444  1.00  0.00     0.203 HD
HETATM   10  N9  UNL     1       2.739 -12.561  -2.750  1.00  0.00    -0.177 N 
ATOM     11  H9  UNL     1       3.306 -12.258  -1.959  1.00  0.00     0.185 HD
BRANCH   5  12
HETATM   12  N1  UNL     1       0.476 -13.793  -5.796  1.00  0.00    -0.234 N 
ATOM     13  H12 UNL     1      -0.370 -13.266  -6.014  1.00  0.00     0.174 HD
ATOM     14  H11 UNL     1       0.725 -14.617  -6.342  1.00  0.00     0.174 HD
ENDBRANCH   5  12
BRANCH   8  15
HETATM   15  N10 UNL     1       1.571 -14.033  -1.393  1.00  0.00    -0.234 N 
ATOM     16 2H10 UNL     1       2.191 -13.772  -0.627  1.00  0.00     0.174 HD
ATOM     17 1H10 UNL     1       0.814 -14.694  -1.222  1.00  0.00     0.174 HD
ENDBRANCH   8  15
ENDBRANCH   2   3
BRANCH   2  18
HETATM   18  O1  UNL     1       4.651 -10.933  -2.860  1.00  0.00    -0.383 OA
ATOM     19  H1  UNL     1       5.537 -10.656  -3.059  1.00  0.00     0.211 HD
ENDBRANCH   2  18
ENDBRANCH   1   2
BRANCH   1  20
HETATM   20  C5  UNL     1       4.953 -10.237  -6.293  1.00  0.00     0.091 C 
HETATM   21  N3  UNL     1       4.163 -10.595  -7.224  1.00  0.00    -0.264 N 
ATOM     22  H3  UNL     1       3.693 -11.495  -7.124  1.00  0.00     0.194 HD
BRANCH  21  23
HETATM   23  O2  UNL     1       3.899  -9.873  -8.336  1.00  0.00    -0.273 OA
BRANCH  23  24
HETATM   24  C6  UNL     1       2.536  -9.673  -8.704  1.00  0.00     0.270 C 
BRANCH  24  25
HETATM   25  C7  UNL     1       1.665  -9.521  -7.532  1.00  0.00     0.259 C 
HETATM   26  O3  UNL     1       1.907  -8.610  -6.736  1.00  0.00    -0.304 OA
ENDBRANCH  24  25
ENDBRANCH  23  24
ENDBRANCH  21  23
BRANCH  20  27
HETATM   27  C8  UNL     1       5.544  -8.877  -6.387  1.00  0.00     0.070 A 
HETATM   28  C9  UNL     1       6.943  -8.800  -6.279  1.00  0.00     0.085 A 
HETATM   29  S1  UNL     1       7.218  -7.120  -6.250  1.00  0.00    -0.064 SA
HETATM   30  C10 UNL     1       5.616  -6.592  -6.369  1.00  0.00     0.142 A 
HETATM   31  N5  UNL     1       4.922  -7.742  -6.428  1.00  0.00    -0.335 N 
ATOM     32  H5  UNL     1       3.905  -7.721  -6.505  1.00  0.00     0.168 HD
BRANCH  30  33
HETATM   33  N4  UNL     1       5.162  -5.360  -6.402  1.00  0.00    -0.380 N 
ATOM     34  H42 UNL     1       4.638  -4.896  -7.144  1.00  0.00     0.158 HD
ATOM     35  H41 UNL     1       5.250  -4.632  -5.693  1.00  0.00     0.158 HD
ENDBRANCH  30  33
ENDBRANCH  20  27
ENDBRANCH   1  20
BRANCH   1  36
HETATM   36  C11 UNL     1       6.123 -12.011  -5.150  1.00  0.00    -0.008 A 
HETATM   37  C12 UNL     1       5.973 -13.365  -5.245  1.00  0.00     0.101 A 
HETATM   38  N6  UNL     1       6.998 -14.281  -5.200  1.00  0.00    -0.351 N 
HETATM   39  C13 UNL     1       8.269 -13.883  -5.056  1.00  0.00     0.114 A 
ATOM     40  H6  UNL     1       6.788 -15.276  -5.276  1.00  0.00     0.166 HD
HETATM   41  C14 UNL     1       8.497 -12.544  -4.958  1.00  0.00     0.048 A 
HETATM   42  N8  UNL     1       9.231 -14.728  -5.016  1.00  0.00    -0.375 N 
HETATM   43  C15 UNL     1       7.450 -11.607  -5.005  1.00  0.00     0.032 A 
HETATM   44  C16 UNL     1       9.897 -12.091  -4.761  1.00  0.00     0.132 C 
HETATM   45  C17 UNL     1      10.869 -13.117  -4.185  1.00  0.00     0.096 C 
HETATM   46  C18 UNL     1      10.624 -14.455  -4.870  1.00  0.00     0.128 C 
ATOM     47  H8  UNL     1       8.971 -15.711  -5.098  1.00  0.00     0.161 HD
BRANCH  44  48
HETATM   48  N7  UNL     1      10.269 -11.004  -5.016  1.00  0.00    -0.287 NA
BRANCH  48  49
HETATM   49  O4  UNL     1      10.780  -9.862  -4.973  1.00  0.00    -0.218 OA
ATOM     50  H4  UNL     1      10.926  -8.923  -4.969  1.00  0.00     0.261 HD
ENDBRANCH  48  49
ENDBRANCH  44  48
ENDBRANCH   1  36
TORSDOF 14
ENDMDL
MODEL 2
REMARK VINA RESULT: -7.016990656      2.549      6.540
REMARK  14 active torsions:
REMARK  status: ('A' for Active; 'I' for Inactive)
REMARK    1  A    between atoms: N1_1  and  C1_4 
REMARK    2  A    between atoms: C2_7  and  C3_8 
REMARK    3  A    between atoms: C3_8  and  O1_9 
REMARK    4  A    between atoms: C3_8  and  C4_11 
REMARK    5  A    between atoms: C4_11  and  C5_12 
REMARK    6  A    between atoms: C4_11  and  C11_28 
REMARK    7  A    between atoms: C5_12  and  C8_19 
REMARK    8  A    between atoms: N3_13  and  O2_15 
REMARK    9  A    between atoms: O2_15  and  C6_16 
REMARK   10  A    between atoms: C6_16  and  C7_17 
REMARK   11  A    between atoms: C10_22  and  N4_23 
REMARK   12  A    between atoms: C16_35  and  N7_36 
REMARK   13  A    between atoms: N7_36  and  O4_37 
REMARK   14  A    between atoms: C19_45  and  N10_46 
ROOT
HETATM    1  C4  UNL     1       2.964 -11.991  -5.980  1.00  0.00     0.020 C 
ENDROOT
BRANCH   1   2
HETATM    2  C3  UNL     1       4.053 -12.486  -6.818  1.00  0.00     0.223 C 
BRANCH   2   3
HETATM    3  C2  UNL     1       5.438 -12.600  -6.448  1.00  0.00     0.146 A 
HETATM    4  N2  UNL     1       6.350 -11.612  -6.667  1.00  0.00    -0.177 N 
HETATM    5  C1  UNL     1       7.623 -11.696  -6.281  1.00  0.00     0.691 A 
ATOM      6  H2  UNL     1       6.044 -10.767  -7.150  1.00  0.00     0.185 HD
HETATM    7  N11 UNL     1       8.068 -12.788  -5.642  1.00  0.00    -0.023 N 
HETATM    8  C19 UNL     1       7.206 -13.806  -5.395  1.00  0.00     0.691 A 
ATOM      9  H11 UNL     1       9.042 -12.853  -5.345  1.00  0.00     0.203 HD
HETATM   10  N9  UNL     1       5.923 -13.700  -5.796  1.00  0.00    -0.177 N 
ATOM     11  H9  UNL     1       5.287 -14.473  -5.604  1.00  0.00     0.185 HD
BRANCH   5  12
HETATM   12  N1  UNL     1       8.473 -10.717  -6.515  1.00  0.00    -0.234 N 
ATOM     13  H12 UNL     1       8.116  -9.764  -6.554  1.00  0.00     0.174 HD
ATOM     14  H11 UNL     1       9.467 -10.902  -6.654  1.00  0.00     0.174 HD
ENDBRANCH   5  12
BRANCH   8  15
HETATM   15  N10 UNL     1       7.668 -14.839  -4.781  1.00  0.00    -0.234 N 
ATOM     16 2H10 UNL     1       7.161 -15.716  -4.891  1.00  0.00     0.174 HD
ATOM     17 1H10 UNL     1       8.504 -14.813  -4.198  1.00  0.00     0.174 HD
ENDBRANCH   8  15
ENDBRANCH   2   3
BRANCH   2  18
HETATM   18  O1  UNL     1       3.673 -13.869  -7.138  1.00  0.00    -0.383 OA
ATOM     19  H1  UNL     1       3.250 -13.790  -7.985  1.00  0.00     0.211 HD
ENDBRANCH   2  18
ENDBRANCH   1   2
BRANCH   1  20
HETATM   20  C5  UNL     1       2.708 -10.529  -6.251  1.00  0.00     0.091 C 
HETATM   21  N3  UNL     1       1.558 -10.178  -6.666  1.00  0.00    -0.264 N 
ATOM     22  H3  UNL     1       0.860 -10.910  -6.795  1.00  0.00     0.194 HD
BRANCH  21  23
HETATM   23  O2  UNL     1       1.190  -8.908  -6.948  1.00  0.00    -0.273 OA
BRANCH  23  24
HETATM   24  C6  UNL     1      -0.198  -8.582  -6.913  1.00  0.00     0.270 C 
BRANCH  24  25
HETATM   25  C7  UNL     1      -0.902  -9.285  -5.832  1.00  0.00     0.259 C 
HETATM   26  O3  UNL     1      -0.516  -9.112  -4.673  1.00  0.00    -0.304 OA
ENDBRANCH  24  25
ENDBRANCH  23  24
ENDBRANCH  21  23
BRANCH  20  27
HETATM   27  C8  UNL     1       3.684  -9.447  -5.955  1.00  0.00     0.070 A 
HETATM   28  C9  UNL     1       4.263  -9.469  -4.674  1.00  0.00     0.085 A 
HETATM   29  S1  UNL     1       5.154  -8.018  -4.650  1.00  0.00    -0.064 SA
HETATM   30  C10 UNL     1       4.777  -7.454  -6.199  1.00  0.00     0.142 A 
HETATM   31  N5  UNL     1       3.970  -8.415  -6.682  1.00  0.00    -0.335 N 
ATOM     32  H5  UNL     1       3.584  -8.332  -7.622  1.00  0.00     0.168 HD
BRANCH  30  33
HETATM   33  N4  UNL     1       5.178  -6.350  -6.787  1.00  0.00    -0.380 N 
ATOM     34  H42 UNL     1       6.130  -6.010  -6.918  1.00  0.00     0.158 HD
ATOM     35  H41 UNL     1       4.612  -5.621  -7.221  1.00  0.00     0.158 HD
ENDBRANCH  30  33
ENDBRANCH  20  27
ENDBRANCH   1  20
BRANCH   1  36
HETATM   36  C11 UNL     1       2.343 -12.548  -4.982  1.00  0.00    -0.008 A 
HETATM   37  C12 UNL     1       2.833 -12.628  -3.710  1.00  0.00     0.101 A 
HETATM   38  N6  UNL     1       2.224 -13.288  -2.667  1.00  0.00    -0.351 N 
HETATM   39  C13 UNL     1       1.057 -13.921  -2.842  1.00  0.00     0.114 A 
ATOM     40  H6  UNL     1       2.668 -13.295  -1.749  1.00  0.00     0.166 HD
HETATM   41  C14 UNL     1       0.506 -13.882  -4.086  1.00  0.00     0.048 A 
HETATM   42  N8  UNL     1       0.482 -14.536  -1.877  1.00  0.00    -0.375 N 
HETATM   43  C15 UNL     1       1.126 -13.207  -5.153  1.00  0.00     0.032 A 
HETATM   44  C16 UNL     1      -0.769 -14.611  -4.304  1.00  0.00     0.132 C 
HETATM   45  C17 UNL     1      -1.089 -15.731  -3.317  1.00  0.00     0.096 C 
HETATM   46  C18 UNL     1      -0.754 -15.248  -1.912  1.00  0.00     0.128 C 
ATOM     47  H8  UNL     1       0.963 -14.514  -0.978  1.00  0.00     0.161 HD
BRANCH  44  48
HETATM   48  N7  UNL     1      -1.512 -14.372  -5.186  1.00  0.00    -0.287 NA
BRANCH  48  49
HETATM   49  O4  UNL     1      -2.305 -13.816  -5.978  1.00  0.00    -0.218 OA
ATOM     50  H4  UNL     1      -3.080 -13.489  -6.419  1.00  0.00     0.261 HD
ENDBRANCH  48  49
ENDBRANCH  44  48
ENDBRANCH   1  36
TORSDOF 14
ENDMDL
MODEL 3
REMARK VINA RESULT: -7.005596870      2.461      5.605
REMARK  14 active torsions:
REMARK  status: ('A' for Active; 'I' for Inactive)
REMARK    1  A    between atoms: N1_1  and  C1_4 
REMARK    2  A    between atoms: C2_7  and  C3_8 
REMARK    3  A    between atoms: C3_8  and  O1_9 
REMARK    4  A    between atoms: C3_8  and  C4_11 
REMARK    5  A    between atoms: C4_11  and  C5_12 
REMARK    6  A    between atoms: C4_11  and  C11_28 
REMARK    7  A    between atoms: C5_12  and  C8_19 
REMARK    8  A    between atoms: N3_13  and  O2_15 
REMARK    9  A    between atoms: O2_15  and  C6_16 
REMARK   10  A    between atoms: C6_16  and  C7_17 
REMARK   11  A    between atoms: C10_22  and  N4_23 
REMARK   12  A    between atoms: C16_35  and  N7_36 
REMARK   13  A    between atoms: N7_36  and  O4_37 
REMARK   14  A    between atoms: C19_45  and  N10_46 
ROOT
HETATM    1  C4  UNL     1       6.316 -12.035  -5.305  1.00  0.00     0.020 C 
ENDROOT
BRANCH   1   2
HETATM    2  C3  UNL     1       6.639 -10.746  -4.699  1.00  0.00     0.223 C 
BRANCH   2   3
HETATM    3  C2  UNL     1       7.775  -9.917  -4.997  1.00  0.00     0.146 A 
HETATM    4  N2  UNL     1       9.061 -10.305  -4.768  1.00  0.00    -0.177 N 
HETATM    5  C1  UNL     1      10.117  -9.559  -5.089  1.00  0.00     0.691 A 
ATOM      6  H2  UNL     1       9.223 -11.212  -4.329  1.00  0.00     0.185 HD
HETATM    7  N11 UNL     1       9.950  -8.360  -5.669  1.00  0.00    -0.023 N 
HETATM    8  C19 UNL     1       8.693  -7.919  -5.922  1.00  0.00     0.691 A 
ATOM      9  H11 UNL     1      10.758  -7.788  -5.916  1.00  0.00     0.203 HD
HETATM   10  N9  UNL     1       7.639  -8.691  -5.588  1.00  0.00    -0.177 N 
ATOM     11  H9  UNL     1       6.700  -8.345  -5.784  1.00  0.00     0.185 HD
BRANCH   5  12
HETATM   12  N1  UNL     1      11.344  -9.971  -4.848  1.00  0.00    -0.234 N 
ATOM     13  H12 UNL     1      12.098  -9.285  -4.863  1.00  0.00     0.174 HD
ATOM     14  H11 UNL     1      11.544 -10.951  -4.649  1.00  0.00     0.174 HD
ENDBRANCH   5  12
BRANCH   8  15
HETATM   15  N10 UNL     1       8.570  -6.764  -6.479  1.00  0.00    -0.234 N 
ATOM     16 2H10 UNL     1       7.844  -6.144  -6.120  1.00  0.00     0.174 HD
ATOM     17 1H10 UNL     1       9.160  -6.451  -7.250  1.00  0.00     0.174 HD
ENDBRANCH   8  15
ENDBRANCH   2   3
BRANCH   2  18
HETATM   18  O1  UNL     1       5.495  -9.886  -5.032  1.00  0.00    -0.383 OA
ATOM     19  H1  UNL     1       4.745 -10.413  -4.784  1.00  0.00     0.211 HD
ENDBRANCH   2  18
ENDBRANCH   1   2
BRANCH   1  20
HETATM   20  C5  UNL     1       4.994 -11.965  -6.029  1.00  0.00     0.091 C 
HETATM   21  N3  UNL     1       4.977 -11.537  -7.227  1.00  0.00    -0.264 N 
ATOM     22  H3  UNL     1       5.868 -11.261  -7.641  1.00  0.00     0.194 HD
BRANCH  21  23
HETATM   23  O2  UNL     1       3.869 -11.421  -7.993  1.00  0.00    -0.273 OA
BRANCH  23  24
HETATM   24  C6  UNL     1       3.371 -10.114  -8.268  1.00  0.00     0.270 C 
BRANCH  24  25
HETATM   25  C7  UNL     1       2.482  -9.628  -7.205  1.00  0.00     0.259 C 
HETATM   26  O3  UNL     1       2.987  -9.049  -6.239  1.00  0.00    -0.304 OA
ENDBRANCH  24  25
ENDBRANCH  23  24
ENDBRANCH  21  23
BRANCH  20  27
HETATM   27  C8  UNL     1       3.713 -12.473  -5.470  1.00  0.00     0.070 A 
HETATM   28  C9  UNL     1       3.475 -12.194  -4.113  1.00  0.00     0.085 A 
HETATM   29  S1  UNL     1       2.046 -13.067  -3.804  1.00  0.00    -0.064 SA
HETATM   30  C10 UNL     1       1.809 -13.731  -5.341  1.00  0.00     0.142 A 
HETATM   31  N5  UNL     1       2.850 -13.250  -6.042  1.00  0.00    -0.335 N 
ATOM     32  H5  UNL     1       2.960 -13.497  -7.026  1.00  0.00     0.168 HD
BRANCH  30  33
HETATM   33  N4  UNL     1       0.842 -14.520  -5.750  1.00  0.00    -0.380 N 
ATOM     34  H42 UNL     1      -0.062 -14.263  -6.146  1.00  0.00     0.158 HD
ATOM     35  H41 UNL     1       0.809 -15.539  -5.746  1.00  0.00     0.158 HD
ENDBRANCH  30  33
ENDBRANCH  20  27
ENDBRANCH   1  20
BRANCH   1  36
HETATM   36  C11 UNL     1       6.883 -13.198  -5.173  1.00  0.00    -0.008 A 
HETATM   37  C12 UNL     1       6.265 -14.394  -5.408  1.00  0.00     0.101 A 
HETATM   38  N6  UNL     1       6.826 -15.631  -5.191  1.00  0.00    -0.351 N 
HETATM   39  C13 UNL     1       8.073 -15.746  -4.715  1.00  0.00     0.114 A 
ATOM     40  H6  UNL     1       6.285 -16.471  -5.394  1.00  0.00     0.166 HD
HETATM   41  C14 UNL     1       8.753 -14.595  -4.460  1.00  0.00     0.048 A 
HETATM   42  N8  UNL     1       8.604 -16.894  -4.512  1.00  0.00    -0.375 N 
HETATM   43  C15 UNL     1       8.181 -13.330  -4.682  1.00  0.00     0.032 A 
HETATM   44  C16 UNL     1      10.122 -14.707  -3.898  1.00  0.00     0.132 C 
HETATM   45  C17 UNL     1      10.460 -16.016  -3.188  1.00  0.00     0.096 C 
HETATM   46  C18 UNL     1       9.913 -17.172  -4.015  1.00  0.00     0.128 C 
ATOM     47  H8  UNL     1       8.025 -17.704  -4.732  1.00  0.00     0.161 HD
BRANCH  44  48
HETATM   48  N7  UNL     1      10.926 -13.850  -3.969  1.00  0.00    -0.287 NA
BRANCH  48  49
HETATM   49  O4  UNL     1      11.542 -12.764  -3.887  1.00  0.00    -0.218 OA
ATOM     50  H4  UNL     1      11.991 -11.949  -4.077  1.00  0.00     0.261 HD
ENDBRANCH  48  49
ENDBRANCH  44  48
ENDBRANCH   1  36
TORSDOF 14
ENDMDL
MODEL 4
REMARK VINA RESULT: -6.982562411      2.462      5.540
REMARK  14 active torsions:
REMARK  status: ('A' for Active; 'I' for Inactive)
REMARK    1  A    between atoms: N1_1  and  C1_4 
REMARK    2  A    between atoms: C2_7  and  C3_8 
REMARK    3  A    between atoms: C3_8  and  O1_9 
REMARK    4  A    between atoms: C3_8  and  C4_11 
REMARK    5  A    between atoms: C4_11  and  C5_12 
REMARK    6  A    between atoms: C4_11  and  C11_28 
REMARK    7  A    between atoms: C5_12  and  C8_19 
REMARK    8  A    between atoms: N3_13  and  O2_15 
REMARK    9  A    between atoms: O2_15  and  C6_16 
REMARK   10  A    between atoms: C6_16  and  C7_17 
REMARK   11  A    between atoms: C10_22  and  N4_23 
REMARK   12  A    between atoms: C16_35  and  N7_36 
REMARK   13  A    between atoms: N7_36  and  O4_37 
REMARK   14  A    between atoms: C19_45  and  N10_46 
ROOT
HETATM    1  C4  UNL     1       6.342 -12.036  -5.346  1.00  0.00     0.020 C 
ENDROOT
BRANCH   1   2
HETATM    2  C3  UNL     1       6.692 -10.741  -4.769  1.00  0.00     0.223 C 
BRANCH   2   3
HETATM    3  C2  UNL     1       7.831  -9.930  -5.106  1.00  0.00     0.146 A 
HETATM    4  N2  UNL     1       7.724  -8.689  -5.657  1.00  0.00    -0.177 N 
HETATM    5  C1  UNL     1       8.776  -7.916  -5.925  1.00  0.00     0.691 A 
ATOM      6  H2  UNL     1       6.793  -8.333  -5.875  1.00  0.00     0.185 HD
HETATM    7  N11 UNL     1      10.019  -8.344  -5.653  1.00  0.00    -0.023 N 
HETATM    8  C19 UNL     1      10.189  -9.572  -5.104  1.00  0.00     0.691 A 
ATOM      9  H11 UNL     1      10.825  -7.753  -5.856  1.00  0.00     0.203 HD
HETATM   10  N9  UNL     1       9.109 -10.337  -4.843  1.00  0.00    -0.177 N 
ATOM     11  H9  UNL     1       9.253 -11.258  -4.430  1.00  0.00     0.185 HD
BRANCH   5  12
HETATM   12  N1  UNL     1       8.628  -6.722  -6.460  1.00  0.00    -0.234 N 
ATOM     13  H12 UNL     1       9.372  -6.364  -7.059  1.00  0.00     0.174 HD
ATOM     14  H11 UNL     1       7.794  -6.163  -6.285  1.00  0.00     0.174 HD
ENDBRANCH   5  12
BRANCH   8  15
HETATM   15  N10 UNL     1      11.395  -9.950  -4.857  1.00  0.00    -0.234 N 
ATOM     16 2H10 UNL     1      12.064  -9.915  -5.625  1.00  0.00     0.174 HD
ATOM     17 1H10 UNL     1      11.700 -10.276  -3.940  1.00  0.00     0.174 HD
ENDBRANCH   8  15
ENDBRANCH   2   3
BRANCH   2  18
HETATM   18  O1  UNL     1       5.551  -9.874  -5.093  1.00  0.00    -0.383 OA
ATOM     19  H1  UNL     1       4.814 -10.325  -4.697  1.00  0.00     0.211 HD
ENDBRANCH   2  18
ENDBRANCH   1   2
BRANCH   1  20
HETATM   20  C5  UNL     1       5.012 -11.960  -6.055  1.00  0.00     0.091 C 
HETATM   21  N3  UNL     1       4.986 -11.544  -7.257  1.00  0.00    -0.264 N 
ATOM     22  H3  UNL     1       5.874 -11.281  -7.685  1.00  0.00     0.194 HD
BRANCH  21  23
HETATM   23  O2  UNL     1       3.870 -11.424  -8.012  1.00  0.00    -0.273 OA
BRANCH  23  24
HETATM   24  C6  UNL     1       3.395 -10.114  -8.313  1.00  0.00     0.270 C 
BRANCH  24  25
HETATM   25  C7  UNL     1       2.486  -9.606  -7.277  1.00  0.00     0.259 C 
HETATM   26  O3  UNL     1       2.977  -9.092  -6.268  1.00  0.00    -0.304 OA
ENDBRANCH  24  25
ENDBRANCH  23  24
ENDBRANCH  21  23
BRANCH  20  27
HETATM   27  C8  UNL     1       3.733 -12.450  -5.476  1.00  0.00     0.070 A 
HETATM   28  C9  UNL     1       3.526 -12.179  -4.113  1.00  0.00     0.085 A 
HETATM   29  S1  UNL     1       2.087 -13.029  -3.784  1.00  0.00    -0.064 SA
HETATM   30  C10 UNL     1       1.809 -13.674  -5.322  1.00  0.00     0.142 A 
HETATM   31  N5  UNL     1       2.845 -13.205  -6.039  1.00  0.00    -0.335 N 
ATOM     32  H5  UNL     1       2.932 -13.445  -7.027  1.00  0.00     0.168 HD
BRANCH  30  33
HETATM   33  N4  UNL     1       0.819 -14.441  -5.720  1.00  0.00    -0.380 N 
ATOM     34  H42 UNL     1       0.864 -15.319  -6.236  1.00  0.00     0.158 HD
ATOM     35  H41 UNL     1      -0.182 -14.302  -5.591  1.00  0.00     0.158 HD
ENDBRANCH  30  33
ENDBRANCH  20  27
ENDBRANCH   1  20
BRANCH   1  36
HETATM   36  C11 UNL     1       6.892 -13.206  -5.198  1.00  0.00    -0.008 A 
HETATM   37  C12 UNL     1       6.262 -14.395  -5.429  1.00  0.00     0.101 A 
HETATM   38  N6  UNL     1       6.804 -15.637  -5.195  1.00  0.00    -0.351 N 
HETATM   39  C13 UNL     1       8.045 -15.764  -4.705  1.00  0.00     0.114 A 
ATOM     40  H6  UNL     1       6.255 -16.472  -5.396  1.00  0.00     0.166 HD
HETATM   41  C14 UNL     1       8.737 -14.619  -4.453  1.00  0.00     0.048 A 
HETATM   42  N8  UNL     1       8.560 -16.916  -4.486  1.00  0.00    -0.375 N 
HETATM   43  C15 UNL     1       8.184 -13.349  -4.692  1.00  0.00     0.032 A 
HETATM   44  C16 UNL     1      10.098 -14.744  -3.875  1.00  0.00     0.132 C 
HETATM   45  C17 UNL     1      10.413 -16.050  -3.150  1.00  0.00     0.096 C 
HETATM   46  C18 UNL     1       9.860 -17.206  -3.973  1.00  0.00     0.128 C 
ATOM     47  H8  UNL     1       7.973 -17.721  -4.705  1.00  0.00     0.161 HD
BRANCH  44  48
HETATM   48  N7  UNL     1      10.914 -13.897  -3.945  1.00  0.00    -0.287 NA
BRANCH  48  49
HETATM   49  O4  UNL     1      11.545 -12.819  -3.863  1.00  0.00    -0.218 OA
ATOM     50  H4  UNL     1      11.790 -11.907  -3.772  1.00  0.00     0.261 HD
ENDBRANCH  48  49
ENDBRANCH  44  48
ENDBRANCH   1  36
TORSDOF 14
ENDMDL
MODEL 5
REMARK VINA RESULT: -6.964606848      3.004      8.093
REMARK  14 active torsions:
REMARK  status: ('A' for Active; 'I' for Inactive)
REMARK    1  A    between atoms: N1_1  and  C1_4 
REMARK    2  A    between atoms: C2_7  and  C3_8 
REMARK    3  A    between atoms: C3_8  and  O1_9 
REMARK    4  A    between atoms: C3_8  and  C4_11 
REMARK    5  A    between atoms: C4_11  and  C5_12 
REMARK    6  A    between atoms: C4_11  and  C11_28 
REMARK    7  A    between atoms: C5_12  and  C8_19 
REMARK    8  A    between atoms: N3_13  and  O2_15 
REMARK    9  A    between atoms: O2_15  and  C6_16 
REMARK   10  A    between atoms: C6_16  and  C7_17 
REMARK   11  A    between atoms: C10_22  and  N4_23 
REMARK   12  A    between atoms: C16_35  and  N7_36 
REMARK   13  A    between atoms: N7_36  and  O4_37 
REMARK   14  A    between atoms: C19_45  and  N10_46 
ROOT
HETATM    1  C4  UNL     1       5.690 -12.280  -5.628  1.00  0.00     0.020 C 
ENDROOT
BRANCH   1   2
HETATM    2  C3  UNL     1       6.769 -11.708  -6.429  1.00  0.00     0.223 C 
BRANCH   2   3
HETATM    3  C2  UNL     1       7.396 -10.428  -6.238  1.00  0.00     0.146 A 
HETATM    4  N2  UNL     1       8.724 -10.283  -5.969  1.00  0.00    -0.177 N 
HETATM    5  C1  UNL     1       9.316  -9.096  -5.839  1.00  0.00     0.691 A 
ATOM      6  H2  UNL     1       9.292 -11.123  -5.861  1.00  0.00     0.185 HD
HETATM    7  N11 UNL     1       8.606  -7.965  -5.974  1.00  0.00    -0.023 N 
HETATM    8  C19 UNL     1       7.279  -8.046  -6.242  1.00  0.00     0.691 A 
ATOM      9  H11 UNL     1       9.059  -7.056  -5.876  1.00  0.00     0.203 HD
HETATM   10  N9  UNL     1       6.701  -9.258  -6.368  1.00  0.00    -0.177 N 
ATOM     11  H9  UNL     1       5.703  -9.303  -6.569  1.00  0.00     0.185 HD
BRANCH   5  12
HETATM   12  N1  UNL     1      10.603  -9.000  -5.576  1.00  0.00    -0.234 N 
ATOM     13  H12 UNL     1      10.944  -9.364  -4.688  1.00  0.00     0.174 HD
ATOM     14  H11 UNL     1      11.248  -8.573  -6.241  1.00  0.00     0.174 HD
ENDBRANCH   5  12
BRANCH   8  15
HETATM   15  N10 UNL     1       6.630  -6.941  -6.364  1.00  0.00    -0.234 N 
ATOM     16 2H10 UNL     1       5.778  -6.834  -5.815  1.00  0.00     0.174 HD
ATOM     17 1H10 UNL     1       6.930  -6.183  -6.978  1.00  0.00     0.174 HD
ENDBRANCH   8  15
ENDBRANCH   2   3
BRANCH   2  18
HETATM   18  O1  UNL     1       7.881 -12.657  -6.279  1.00  0.00    -0.383 OA
ATOM     19  H1  UNL     1       8.513 -12.357  -6.922  1.00  0.00     0.211 HD
ENDBRANCH   2  18
ENDBRANCH   1   2
BRANCH   1  20
HETATM   20  C5  UNL     1       5.911 -13.759  -5.419  1.00  0.00     0.091 C 
HETATM   21  N3  UNL     1       6.592 -14.136  -4.412  1.00  0.00    -0.264 N 
ATOM     22  H3  UNL     1       6.958 -13.413  -3.792  1.00  0.00     0.194 HD
BRANCH  21  23
HETATM   23  O2  UNL     1       6.868 -15.423  -4.103  1.00  0.00    -0.273 OA
BRANCH  23  24
HETATM   24  C6  UNL     1       8.155 -15.730  -3.572  1.00  0.00     0.270 C 
BRANCH  24  25
HETATM   25  C7  UNL     1       9.237 -15.275  -4.455  1.00  0.00     0.259 C 
HETATM   26  O3  UNL     1       9.553 -14.082  -4.428  1.00  0.00    -0.304 OA
ENDBRANCH  24  25
ENDBRANCH  23  24
ENDBRANCH  21  23
BRANCH  20  27
HETATM   27  C8  UNL     1       5.284 -14.817  -6.253  1.00  0.00     0.070 A 
HETATM   28  C9  UNL     1       3.930 -14.631  -6.577  1.00  0.00     0.085 A 
HETATM   29  S1  UNL     1       3.534 -16.091  -7.359  1.00  0.00    -0.064 SA
HETATM   30  C10 UNL     1       5.037 -16.859  -7.251  1.00  0.00     0.142 A 
HETATM   31  N5  UNL     1       5.795 -15.952  -6.611  1.00  0.00    -0.335 N 
ATOM     32  H5  UNL     1       6.773 -16.157  -6.407  1.00  0.00     0.168 HD
BRANCH  30  33
HETATM   33  N4  UNL     1       5.380 -18.048  -7.690  1.00  0.00    -0.380 N 
ATOM     34  H42 UNL     1       5.116 -18.503  -8.564  1.00  0.00     0.158 HD
ATOM     35  H41 UNL     1       5.972 -18.745  -7.239  1.00  0.00     0.158 HD
ENDBRANCH  30  33
ENDBRANCH  20  27
ENDBRANCH   1  20
BRANCH   1  36
HETATM   36  C11 UNL     1       4.559 -11.768  -5.242  1.00  0.00    -0.008 A 
HETATM   37  C12 UNL     1       4.070 -11.835  -3.969  1.00  0.00     0.101 A 
HETATM   38  N6  UNL     1       2.838 -11.373  -3.568  1.00  0.00    -0.351 N 
HETATM   39  C13 UNL     1       2.002 -10.798  -4.442  1.00  0.00     0.114 A 
ATOM     40  H6  UNL     1       2.558 -11.469  -2.592  1.00  0.00     0.166 HD
HETATM   41  C14 UNL     1       2.423 -10.693  -5.733  1.00  0.00     0.048 A 
HETATM   42  N8  UNL     1       0.854 -10.362  -4.078  1.00  0.00    -0.375 N 
HETATM   43  C15 UNL     1       3.682 -11.164  -6.144  1.00  0.00     0.032 A 
HETATM   44  C16 UNL     1       1.492 -10.092  -6.720  1.00  0.00     0.132 C 
HETATM   45  C17 UNL     1       0.009 -10.113  -6.357  1.00  0.00     0.096 C 
HETATM   46  C18 UNL     1      -0.136  -9.731  -4.890  1.00  0.00     0.128 C 
ATOM     47  H8  UNL     1       0.619 -10.480  -3.093  1.00  0.00     0.161 HD
BRANCH  44  48
HETATM   48  N7  UNL     1       1.842  -9.625  -7.743  1.00  0.00    -0.287 NA
BRANCH  48  49
HETATM   49  O4  UNL     1       1.999  -9.351  -8.954  1.00  0.00    -0.218 OA
ATOM     50  H4  UNL     1       2.306  -9.001  -9.781  1.00  0.00     0.261 HD
ENDBRANCH  48  49
ENDBRANCH  44  48
ENDBRANCH   1  36
TORSDOF 14
ENDMDL
