MODEL 1
REMARK VINA RESULT: -9.116503032      0.000      0.000
REMARK  13 active torsions:
REMARK  status: ('A' for Active; 'I' for Inactive)
REMARK    1  A    between atoms: N1_2  and  C2_4 
REMARK    2  A    between atoms: C5_10  and  C6_11 
REMARK    3  A    between atoms: C6_11  and  N3_12 
REMARK    4  A    between atoms: C8_14  and  C9_15 
REMARK    5  A    between atoms: C9_15  and  N4_16 
REMARK    6  A    between atoms: C11_18  and  C12_19 
REMARK    7  A    between atoms: C12_19  and  N5_20 
REMARK       I    between atoms: N5_20  and  C13_22 
REMARK    8  A    between atoms: C16_40  and  O2_41 
REMARK    9  A    between atoms: C17_43  and  N13_44 
REMARK   10  A    between atoms: N13_44  and  C18_45 
REMARK   11  A    between atoms: C18_45  and  O3_46 
REMARK   12  A    between atoms: C18_45  and  C19_48 
REMARK   13  A    between atoms: C19_48  and  N14_50 
ROOT
HETATM    1  C2  UNL     1       2.457 -11.227  -6.242  1.00  0.00     0.147 A 
HETATM    2  N2  UNL     1       3.598 -11.848  -5.962  1.00  0.00    -0.319 N 
ATOM      3  H2  UNL     1       3.580 -12.856  -5.808  1.00  0.00     0.169 HD
HETATM    4  C3  UNL     1       4.756 -11.212  -5.876  1.00  0.00     0.164 A 
HETATM    5  O1  UNL     1       5.857 -11.833  -5.605  1.00  0.00    -0.304 OA
HETATM    6  C4  UNL     1       7.034 -11.354  -5.495  1.00  0.00     0.155 A 
HETATM    7  C5  UNL     1       7.133  -9.980  -5.691  1.00  0.00     0.011 A 
HETATM    8  C14 UNL     1       6.042  -9.199  -5.987  1.00  0.00     0.053 A 
HETATM    9  N12 UNL     1       6.138  -7.951  -6.152  1.00  0.00    -0.398 N 
ATOM     10 1H12 UNL     1       5.328  -7.371  -6.371  1.00  0.00     0.156 HD
ATOM     11 2H12 UNL     1       7.039  -7.479  -6.082  1.00  0.00     0.156 HD
HETATM   12  C15 UNL     1       4.804  -9.847  -6.082  1.00  0.00     0.079 A 
HETATM   13  C16 UNL     1       3.651  -9.133  -6.379  1.00  0.00     0.127 A 
HETATM   14  C17 UNL     1       2.437  -9.856  -6.461  1.00  0.00     0.187 A 
ENDROOT
BRANCH   7  15
HETATM   15  C6  UNL     1       8.445  -9.290  -5.546  1.00  0.00     0.192 C 
BRANCH  15  16
HETATM   16  N3  UNL     1       9.463 -10.259  -5.208  1.00  0.00    -0.282 N 
HETATM   17  C7  UNL     1       9.465 -11.554  -5.494  1.00  0.00     0.144 A 
HETATM   18  C8  UNL     1      10.572 -12.173  -4.972  1.00  0.00     0.084 A 
HETATM   19  N10 UNL     1      11.265 -11.183  -4.341  1.00  0.00    -0.283 N 
HETATM   20  N11 UNL     1      10.539 -10.048  -4.522  1.00  0.00    -0.240 N 
ATOM     21  H10 UNL     1      12.147 -11.275  -3.837  1.00  0.00     0.188 HD
ATOM     22  H11 UNL     1      10.811  -9.135  -4.158  1.00  0.00     0.208 HD
BRANCH  18  23
HETATM   23  C9  UNL     1      10.865 -13.566  -5.153  1.00  0.00     0.149 C 
BRANCH  23  24
HETATM   24  N4  UNL     1      10.852 -14.444  -4.029  1.00  0.00    -0.260 N 
HETATM   25  C10 UNL     1       9.835 -15.183  -3.578  1.00  0.00     0.145 A 
HETATM   26  C11 UNL     1      10.247 -15.863  -2.428  1.00  0.00     0.062 A 
HETATM   27  N8  UNL     1      11.507 -15.494  -2.249  1.00  0.00    -0.287 N 
HETATM   28  N9  UNL     1      11.874 -14.669  -3.172  1.00  0.00    -0.237 N 
ATOM     29  H8  UNL     1      12.105 -15.817  -1.488  1.00  0.00     0.188 HD
ATOM     30  H9  UNL     1      12.801 -14.249  -3.244  1.00  0.00     0.209 HD
BRANCH  26  31
HETATM   31  C12 UNL     1       9.367 -16.738  -1.646  1.00  0.00     0.182 C 
BRANCH  31  32
HETATM   32  N5  UNL     1      10.101 -17.777  -0.943  1.00  0.00    -0.359 N 
HETATM   33  C13 UNL     1      10.704 -17.298   0.287  1.00  0.00     0.182 C 
HETATM   34  N6  UNL     1      10.072 -16.867   1.281  1.00  0.00    -0.374 N 
HETATM   35  N7  UNL     1      12.143 -17.288   0.436  1.00  0.00    -0.064 NA
ATOM     36  H62 UNL     1       9.058 -16.875   1.176  1.00  0.00     0.158 HD
ATOM     37  H61 UNL     1      10.496 -16.531   2.145  1.00  0.00     0.158 HD
ATOM     38  H5  UNL     1      10.184 -18.737  -1.278  1.00  0.00     0.162 HD
ENDBRANCH  31  32
ENDBRANCH  26  31
ENDBRANCH  23  24
ENDBRANCH  18  23
ENDBRANCH  15  16
ENDBRANCH   7  15
BRANCH  13  39
HETATM   39  O2  UNL     1       3.636  -7.800  -6.594  1.00  0.00    -0.356 OA
ATOM     40  H2  UNL     1       3.742  -7.158  -5.902  1.00  0.00     0.218 HD
ENDBRANCH  13  39
BRANCH  14  41
HETATM   41  N13 UNL     1       1.257  -9.212  -6.907  1.00  0.00    -0.376 NA
BRANCH  41  42
HETATM   42  C18 UNL     1       0.162  -8.638  -7.303  1.00  0.00     0.212 C 
BRANCH  42  43
HETATM   43  O3  UNL     1      -0.016  -8.272  -8.567  1.00  0.00    -0.337 OA
ATOM     44  H3  UNL     1      -0.745  -8.596  -9.083  1.00  0.00     0.220 HD
ENDBRANCH  42  43
BRANCH  42  45
HETATM   45  C19 UNL     1      -1.074  -8.273  -6.529  1.00  0.00     0.160 C 
HETATM   46  C20 UNL     1      -0.832  -6.855  -5.984  1.00  0.00     0.041 C 
BRANCH  45  47
HETATM   47  N14 UNL     1      -1.454  -9.081  -5.481  1.00  0.00    -0.419 N 
ATOM     48 2H14 UNL     1      -1.423 -10.051  -5.795  1.00  0.00     0.150 HD
ATOM     49 1H14 UNL     1      -2.379  -8.946  -5.073  1.00  0.00     0.150 HD
ENDBRANCH  45  47
ENDBRANCH  42  45
ENDBRANCH  41  42
ENDBRANCH  14  41
BRANCH   1  50
HETATM   50  N1  UNL     1       1.339 -11.845  -6.284  1.00  0.00    -0.378 N 
HETATM   51  C1  UNL     1       0.645 -12.280  -5.086  1.00  0.00     0.147 C 
ATOM     52  H1  UNL     1       0.919 -12.039  -7.193  1.00  0.00     0.160 HD
ENDBRANCH   1  50
TORSDOF 13
ENDMDL
MODEL 2
REMARK VINA RESULT: -8.893050529      2.651      5.196
REMARK  13 active torsions:
REMARK  status: ('A' for Active; 'I' for Inactive)
REMARK    1  A    between atoms: N1_2  and  C2_4 
REMARK    2  A    between atoms: C5_10  and  C6_11 
REMARK    3  A    between atoms: C6_11  and  N3_12 
REMARK    4  A    between atoms: C8_14  and  C9_15 
REMARK    5  A    between atoms: C9_15  and  N4_16 
REMARK    6  A    between atoms: C11_18  and  C12_19 
REMARK    7  A    between atoms: C12_19  and  N5_20 
REMARK       I    between atoms: N5_20  and  C13_22 
REMARK    8  A    between atoms: C16_40  and  O2_41 
REMARK    9  A    between atoms: C17_43  and  N13_44 
REMARK   10  A    between atoms: N13_44  and  C18_45 
REMARK   11  A    between atoms: C18_45  and  O3_46 
REMARK   12  A    between atoms: C18_45  and  C19_48 
REMARK   13  A    between atoms: C19_48  and  N14_50 
ROOT
HETATM    1  C2  UNL     1      -1.727  -8.929  -6.183  1.00  0.00     0.147 A 
HETATM    2  N2  UNL     1      -0.537  -8.485  -6.572  1.00  0.00    -0.319 N 
ATOM      3  H2  UNL     1      -0.442  -7.503  -6.830  1.00  0.00     0.169 HD
HETATM    4  C3  UNL     1       0.531  -9.266  -6.637  1.00  0.00     0.164 A 
HETATM    5  O1  UNL     1       1.683  -8.817  -7.016  1.00  0.00    -0.304 OA
HETATM    6  C4  UNL     1       2.786  -9.447  -7.123  1.00  0.00     0.155 A 
HETATM    7  C5  UNL     1       2.730 -10.797  -6.787  1.00  0.00     0.011 A 
HETATM    8  C14 UNL     1       1.570 -11.403  -6.368  1.00  0.00     0.053 A 
HETATM    9  N12 UNL     1       1.525 -12.631  -6.077  1.00  0.00    -0.398 N 
ATOM     10 1H12 UNL     1       0.664 -13.080  -5.766  1.00  0.00     0.156 HD
ATOM     11 2H12 UNL     1       2.358 -13.215  -6.134  1.00  0.00     0.156 HD
HETATM   12  C15 UNL     1       0.426 -10.600  -6.291  1.00  0.00     0.079 A 
HETATM   13  C16 UNL     1      -0.788 -11.131  -5.875  1.00  0.00     0.127 A 
HETATM   14  C17 UNL     1      -1.900 -10.258  -5.821  1.00  0.00     0.187 A 
ENDROOT
BRANCH   7  15
HETATM   15  C6  UNL     1       3.940 -11.656  -6.912  1.00  0.00     0.192 C 
BRANCH  15  16
HETATM   16  N3  UNL     1       5.003 -11.111  -6.099  1.00  0.00    -0.282 N 
HETATM   17  C7  UNL     1       6.144 -10.581  -6.519  1.00  0.00     0.144 A 
HETATM   18  C8  UNL     1       6.936 -10.213  -5.462  1.00  0.00     0.084 A 
HETATM   19  N10 UNL     1       6.219 -10.543  -4.351  1.00  0.00    -0.283 N 
HETATM   20  N11 UNL     1       5.057 -11.083  -4.806  1.00  0.00    -0.240 N 
ATOM     21  H10 UNL     1       6.496 -10.413  -3.378  1.00  0.00     0.188 HD
ATOM     22  H11 UNL     1       4.314 -11.427  -4.199  1.00  0.00     0.208 HD
BRANCH  18  23
HETATM   23  C9  UNL     1       8.214  -9.576  -5.608  1.00  0.00     0.149 C 
BRANCH  23  24
HETATM   24  N4  UNL     1       9.404 -10.294  -5.289  1.00  0.00    -0.260 N 
HETATM   25  C10 UNL     1       9.571 -11.619  -5.236  1.00  0.00     0.145 A 
HETATM   26  C11 UNL     1      10.886 -11.891  -4.844  1.00  0.00     0.062 A 
HETATM   27  N8  UNL     1      11.445 -10.701  -4.684  1.00  0.00    -0.287 N 
HETATM   28  N9  UNL     1      10.597  -9.762  -4.939  1.00  0.00    -0.237 N 
ATOM     29  H8  UNL     1      12.413 -10.547  -4.398  1.00  0.00     0.188 HD
ATOM     30  H9  UNL     1      10.798  -8.763  -4.885  1.00  0.00     0.209 HD
BRANCH  26  31
HETATM   31  C12 UNL     1      11.406 -13.248  -4.644  1.00  0.00     0.182 C 
BRANCH  31  32
HETATM   32  N5  UNL     1      10.417 -14.140  -4.062  1.00  0.00    -0.359 N 
HETATM   33  C13 UNL     1      11.019 -15.263  -3.368  1.00  0.00     0.182 C 
HETATM   34  N6  UNL     1      11.751 -15.177  -2.354  1.00  0.00    -0.374 N 
HETATM   35  N7  UNL     1      10.796 -16.613  -3.838  1.00  0.00    -0.064 NA
ATOM     36  H62 UNL     1      11.908 -14.226  -2.023  1.00  0.00     0.158 HD
ATOM     37  H61 UNL     1      12.174 -15.966  -1.866  1.00  0.00     0.158 HD
ATOM     38  H5  UNL     1       9.409 -13.992  -4.134  1.00  0.00     0.162 HD
ENDBRANCH  31  32
ENDBRANCH  26  31
ENDBRANCH  23  24
ENDBRANCH  18  23
ENDBRANCH  15  16
ENDBRANCH   7  15
BRANCH  13  39
HETATM   39  O2  UNL     1      -0.951 -12.424  -5.522  1.00  0.00    -0.356 OA
ATOM     40  H2  UNL     1      -1.302 -12.696  -4.683  1.00  0.00     0.218 HD
ENDBRANCH  13  39
BRANCH  14  41
HETATM   41  N13 UNL     1      -3.123 -10.703  -5.263  1.00  0.00    -0.376 NA
BRANCH  41  42
HETATM   42  C18 UNL     1      -4.231 -11.126  -4.734  1.00  0.00     0.212 C 
BRANCH  42  43
HETATM   43  O3  UNL     1      -5.252 -10.309  -4.508  1.00  0.00    -0.337 OA
ATOM     44  H3  UNL     1      -5.531 -10.091  -3.626  1.00  0.00     0.220 HD
ENDBRANCH  42  43
BRANCH  42  45
HETATM   45  C19 UNL     1      -4.623 -12.506  -4.284  1.00  0.00     0.160 C 
HETATM   46  C20 UNL     1      -5.418 -12.319  -2.980  1.00  0.00     0.041 C 
BRANCH  45  47
HETATM   47  N14 UNL     1      -3.627 -13.429  -4.056  1.00  0.00    -0.419 N 
ATOM     48 2H14 UNL     1      -2.733 -12.939  -4.037  1.00  0.00     0.150 HD
ATOM     49 1H14 UNL     1      -3.515 -14.197  -4.718  1.00  0.00     0.150 HD
ENDBRANCH  45  47
ENDBRANCH  42  45
ENDBRANCH  41  42
ENDBRANCH  14  41
BRANCH   1  50
HETATM   50  N1  UNL     1      -2.760  -8.175  -6.161  1.00  0.00    -0.378 N 
HETATM   51  C1  UNL     1      -2.946  -7.141  -5.160  1.00  0.00     0.147 C 
ATOM     52  H1  UNL     1      -3.478  -8.305  -6.873  1.00  0.00     0.160 HD
ENDBRANCH   1  50
TORSDOF 13
ENDMDL
MODEL 3
REMARK VINA RESULT: -8.880626454      1.236      1.504
REMARK  13 active torsions:
REMARK  status: ('A' for Active; 'I' for Inactive)
REMARK    1  A    between atoms: N1_2  and  C2_4 
REMARK    2  A    between atoms: C5_10  and  C6_11 
REMARK    3  A    between atoms: C6_11  and  N3_12 
REMARK    4  A    between atoms: C8_14  and  C9_15 
REMARK    5  A    between atoms: C9_15  and  N4_16 
REMARK    6  A    between atoms: C11_18  and  C12_19 
REMARK    7  A    between atoms: C12_19  and  N5_20 
REMARK       I    between atoms: N5_20  and  C13_22 
REMARK    8  A    between atoms: C16_40  and  O2_41 
REMARK    9  A    between atoms: C17_43  and  N13_44 
REMARK   10  A    between atoms: N13_44  and  C18_45 
REMARK   11  A    between atoms: C18_45  and  O3_46 
REMARK   12  A    between atoms: C18_45  and  C19_48 
REMARK   13  A    between atoms: C19_48  and  N14_50 
ROOT
HETATM    1  C2  UNL     1       2.908 -11.201  -4.820  1.00  0.00     0.147 A 
HETATM    2  N2  UNL     1       4.090 -11.618  -4.380  1.00  0.00    -0.319 N 
ATOM      3  H2  UNL     1       4.129 -12.461  -3.808  1.00  0.00     0.169 HD
HETATM    4  C3  UNL     1       5.220 -10.984  -4.655  1.00  0.00     0.164 A 
HETATM    5  O1  UNL     1       6.362 -11.406  -4.220  1.00  0.00    -0.304 OA
HETATM    6  C4  UNL     1       7.519 -10.902  -4.407  1.00  0.00     0.155 A 
HETATM    7  C5  UNL     1       7.541  -9.745  -5.180  1.00  0.00     0.011 A 
HETATM    8  C14 UNL     1       6.400  -9.190  -5.706  1.00  0.00     0.053 A 
HETATM    9  N12 UNL     1       6.428  -8.133  -6.396  1.00  0.00    -0.398 N 
ATOM     10 1H12 UNL     1       5.581  -7.720  -6.787  1.00  0.00     0.156 HD
ATOM     11 2H12 UNL     1       7.309  -7.659  -6.597  1.00  0.00     0.156 HD
HETATM   12  C15 UNL     1       5.192  -9.840  -5.429  1.00  0.00     0.079 A 
HETATM   13  C16 UNL     1       3.991  -9.347  -5.923  1.00  0.00     0.127 A 
HETATM   14  C17 UNL     1       2.811 -10.059  -5.603  1.00  0.00     0.187 A 
ENDROOT
BRANCH   7  15
HETATM   15  C6  UNL     1       8.825  -9.034  -5.435  1.00  0.00     0.192 C 
BRANCH  15  16
HETATM   16  N3  UNL     1       9.929  -9.943  -5.223  1.00  0.00    -0.282 N 
HETATM   17  C7  UNL     1       9.946 -11.250  -5.447  1.00  0.00     0.144 A 
HETATM   18  C8  UNL     1      11.151 -11.797  -5.083  1.00  0.00     0.084 A 
HETATM   19  N10 UNL     1      11.888 -10.749  -4.620  1.00  0.00    -0.283 N 
HETATM   20  N11 UNL     1      11.090  -9.654  -4.731  1.00  0.00    -0.240 N 
ATOM     21  H10 UNL     1      12.843 -10.779  -4.262  1.00  0.00     0.188 HD
ATOM     22  H11 UNL     1      11.374  -8.713  -4.459  1.00  0.00     0.208 HD
BRANCH  18  23
HETATM   23  C9  UNL     1      11.477 -13.185  -5.246  1.00  0.00     0.149 C 
BRANCH  23  24
HETATM   24  N4  UNL     1      10.541 -14.183  -4.845  1.00  0.00    -0.260 N 
HETATM   25  C10 UNL     1      10.176 -14.513  -3.603  1.00  0.00     0.145 A 
HETATM   26  C11 UNL     1       9.265 -15.572  -3.667  1.00  0.00     0.062 A 
HETATM   27  N8  UNL     1       9.128 -15.823  -4.961  1.00  0.00    -0.287 N 
HETATM   28  N9  UNL     1       9.862 -15.024  -5.660  1.00  0.00    -0.237 N 
ATOM     29  H8  UNL     1       8.524 -16.547  -5.351  1.00  0.00     0.188 HD
ATOM     30  H9  UNL     1       9.922 -15.026  -6.678  1.00  0.00     0.209 HD
BRANCH  26  31
HETATM   31  C12 UNL     1       8.687 -16.214  -2.482  1.00  0.00     0.182 C 
BRANCH  31  32
HETATM   32  N5  UNL     1       9.345 -15.804  -1.253  1.00  0.00    -0.359 N 
HETATM   33  C13 UNL     1       9.596 -16.917  -0.357  1.00  0.00     0.182 C 
HETATM   34  N6  UNL     1      10.347 -17.890  -0.607  1.00  0.00    -0.374 N 
HETATM   35  N7  UNL     1       8.956 -16.967   0.939  1.00  0.00    -0.064 NA
ATOM     36  H62 UNL     1      10.798 -17.856  -1.520  1.00  0.00     0.158 HD
ATOM     37  H61 UNL     1      10.523 -18.672   0.023  1.00  0.00     0.158 HD
ATOM     38  H5  UNL     1       9.602 -14.839  -1.044  1.00  0.00     0.162 HD
ENDBRANCH  31  32
ENDBRANCH  26  31
ENDBRANCH  23  24
ENDBRANCH  18  23
ENDBRANCH  15  16
ENDBRANCH   7  15
BRANCH  13  39
HETATM   39  O2  UNL     1       3.901  -8.237  -6.687  1.00  0.00    -0.356 OA
ATOM     40  H2  UNL     1       4.637  -7.663  -6.864  1.00  0.00     0.218 HD
ENDBRANCH  13  39
BRANCH  14  41
HETATM   41  N13 UNL     1       1.579  -9.693  -6.201  1.00  0.00    -0.376 NA
BRANCH  41  42
HETATM   42  C18 UNL     1       0.461  -9.334  -6.754  1.00  0.00     0.212 C 
BRANCH  42  43
HETATM   43  O3  UNL     1       0.431  -8.699  -7.919  1.00  0.00    -0.337 OA
ATOM     44  H3  UNL     1       0.297  -9.163  -8.737  1.00  0.00     0.220 HD
ENDBRANCH  42  43
BRANCH  42  45
HETATM   45  C19 UNL     1      -0.954  -9.519  -6.282  1.00  0.00     0.160 C 
HETATM   46  C20 UNL     1      -1.261  -8.319  -5.369  1.00  0.00     0.041 C 
BRANCH  45  47
HETATM   47  N14 UNL     1      -1.274 -10.673  -5.602  1.00  0.00    -0.419 N 
ATOM     48 2H14 UNL     1      -0.647 -10.759  -4.802  1.00  0.00     0.150 HD
ATOM     49 1H14 UNL     1      -1.220 -11.562  -6.099  1.00  0.00     0.150 HD
ENDBRANCH  45  47
ENDBRANCH  42  45
ENDBRANCH  41  42
ENDBRANCH  14  41
BRANCH   1  50
HETATM   50  N1  UNL     1       1.819 -11.799  -4.517  1.00  0.00    -0.378 N 
HETATM   51  C1  UNL     1       1.799 -13.051  -3.783  1.00  0.00     0.147 C 
ATOM     52  H1  UNL     1       0.933 -11.381  -4.800  1.00  0.00     0.160 HD
ENDBRANCH   1  50
TORSDOF 13
ENDMDL
MODEL 4
REMARK VINA RESULT: -8.808135142      0.814      1.018
REMARK  13 active torsions:
REMARK  status: ('A' for Active; 'I' for Inactive)
REMARK    1  A    between atoms: N1_2  and  C2_4 
REMARK    2  A    between atoms: C5_10  and  C6_11 
REMARK    3  A    between atoms: C6_11  and  N3_12 
REMARK    4  A    between atoms: C8_14  and  C9_15 
REMARK    5  A    between atoms: C9_15  and  N4_16 
REMARK    6  A    between atoms: C11_18  and  C12_19 
REMARK    7  A    between atoms: C12_19  and  N5_20 
REMARK       I    between atoms: N5_20  and  C13_22 
REMARK    8  A    between atoms: C16_40  and  O2_41 
REMARK    9  A    between atoms: C17_43  and  N13_44 
REMARK   10  A    between atoms: N13_44  and  C18_45 
REMARK   11  A    between atoms: C18_45  and  O3_46 
REMARK   12  A    between atoms: C18_45  and  C19_48 
REMARK   13  A    between atoms: C19_48  and  N14_50 
ROOT
HETATM    1  C2  UNL     1       2.503 -11.373  -6.296  1.00  0.00     0.147 A 
HETATM    2  N2  UNL     1       3.663 -12.007  -6.161  1.00  0.00    -0.319 N 
ATOM      3  H2  UNL     1       3.660 -13.025  -6.098  1.00  0.00     0.169 HD
HETATM    4  C3  UNL     1       4.824 -11.370  -6.107  1.00  0.00     0.164 A 
HETATM    5  O1  UNL     1       5.944 -12.003  -5.978  1.00  0.00    -0.304 OA
HETATM    6  C4  UNL     1       7.124 -11.525  -5.915  1.00  0.00     0.155 A 
HETATM    7  C5  UNL     1       7.204 -10.138  -5.993  1.00  0.00     0.011 A 
HETATM    8  C14 UNL     1       6.092  -9.344  -6.132  1.00  0.00     0.053 A 
HETATM    9  N12 UNL     1       6.172  -8.085  -6.190  1.00  0.00    -0.398 N 
ATOM     10 1H12 UNL     1       5.347  -7.495  -6.293  1.00  0.00     0.156 HD
ATOM     11 2H12 UNL     1       7.075  -7.613  -6.147  1.00  0.00     0.156 HD
HETATM   12  C15 UNL     1       4.852  -9.991  -6.191  1.00  0.00     0.079 A 
HETATM   13  C16 UNL     1       3.678  -9.265  -6.333  1.00  0.00     0.127 A 
HETATM   14  C17 UNL     1       2.463  -9.989  -6.387  1.00  0.00     0.187 A 
ENDROOT
BRANCH   7  15
HETATM   15  C6  UNL     1       8.522  -9.452  -5.886  1.00  0.00     0.192 C 
BRANCH  15  16
HETATM   16  N3  UNL     1       9.491 -10.358  -5.313  1.00  0.00    -0.282 N 
HETATM   17  C7  UNL     1       9.640 -11.648  -5.581  1.00  0.00     0.144 A 
HETATM   18  C8  UNL     1      10.631 -12.201  -4.810  1.00  0.00     0.084 A 
HETATM   19  N10 UNL     1      11.094 -11.175  -4.042  1.00  0.00    -0.283 N 
HETATM   20  N11 UNL     1      10.362 -10.086  -4.396  1.00  0.00    -0.240 N 
ATOM     21  H10 UNL     1      11.838 -11.216  -3.345  1.00  0.00     0.188 HD
ATOM     22  H11 UNL     1      10.485  -9.160  -3.985  1.00  0.00     0.208 HD
BRANCH  18  23
HETATM   23  C9  UNL     1      11.044 -13.572  -4.907  1.00  0.00     0.149 C 
BRANCH  23  24
HETATM   24  N4  UNL     1      10.585 -14.520  -3.946  1.00  0.00    -0.260 N 
HETATM   25  C10 UNL     1      11.316 -15.371  -3.220  1.00  0.00     0.145 A 
HETATM   26  C11 UNL     1      10.457 -16.145  -2.434  1.00  0.00     0.062 A 
HETATM   27  N8  UNL     1       9.241 -15.710  -2.731  1.00  0.00    -0.287 N 
HETATM   28  N9  UNL     1       9.298 -14.765  -3.608  1.00  0.00    -0.237 N 
ATOM     29  H8  UNL     1       8.379 -16.072  -2.323  1.00  0.00     0.188 HD
ATOM     30  H9  UNL     1       8.490 -14.274  -3.991  1.00  0.00     0.209 HD
BRANCH  26  31
HETATM   31  C12 UNL     1      10.920 -17.212  -1.540  1.00  0.00     0.182 C 
BRANCH  31  32
HETATM   32  N5  UNL     1      10.894 -16.814  -0.143  1.00  0.00    -0.359 N 
HETATM   33  C13 UNL     1      12.186 -16.960   0.502  1.00  0.00     0.182 C 
HETATM   34  N6  UNL     1      13.224 -16.329   0.190  1.00  0.00    -0.374 N 
HETATM   35  N7  UNL     1      12.353 -17.893   1.595  1.00  0.00    -0.064 NA
ATOM     36  H62 UNL     1      13.107 -15.671  -0.579  1.00  0.00     0.158 HD
ATOM     37  H61 UNL     1      14.132 -16.431   0.644  1.00  0.00     0.158 HD
ATOM     38  H5  UNL     1      10.059 -16.471   0.333  1.00  0.00     0.162 HD
ENDBRANCH  31  32
ENDBRANCH  26  31
ENDBRANCH  23  24
ENDBRANCH  18  23
ENDBRANCH  15  16
ENDBRANCH   7  15
BRANCH  13  39
HETATM   39  O2  UNL     1       3.643  -7.918  -6.423  1.00  0.00    -0.356 OA
ATOM     40  H2  UNL     1       3.204  -7.452  -7.125  1.00  0.00     0.218 HD
ENDBRANCH  13  39
BRANCH  14  41
HETATM   41  N13 UNL     1       1.251  -9.318  -6.681  1.00  0.00    -0.376 NA
BRANCH  41  42
HETATM   42  C18 UNL     1       0.153  -8.686  -6.967  1.00  0.00     0.212 C 
BRANCH  42  43
HETATM   43  O3  UNL     1      -0.174  -8.387  -8.218  1.00  0.00    -0.337 OA
ATOM     44  H3  UNL     1      -1.000  -8.663  -8.598  1.00  0.00     0.220 HD
ENDBRANCH  42  43
BRANCH  42  45
HETATM   45  C19 UNL     1      -0.934  -8.177  -6.061  1.00  0.00     0.160 C 
HETATM   46  C20 UNL     1      -0.827  -6.643  -6.087  1.00  0.00     0.041 C 
BRANCH  45  47
HETATM   47  N14 UNL     1      -0.940  -8.590  -4.748  1.00  0.00    -0.419 N 
ATOM     48 2H14 UNL     1      -0.454  -9.484  -4.690  1.00  0.00     0.150 HD
ATOM     49 1H14 UNL     1      -1.839  -8.727  -4.285  1.00  0.00     0.150 HD
ENDBRANCH  45  47
ENDBRANCH  42  45
ENDBRANCH  41  42
ENDBRANCH  14  41
BRANCH   1  50
HETATM   50  N1  UNL     1       1.386 -11.996  -6.308  1.00  0.00    -0.378 N 
HETATM   51  C1  UNL     1       0.780 -12.529  -5.102  1.00  0.00     0.147 C 
ATOM     52  H1  UNL     1       0.904 -12.121  -7.198  1.00  0.00     0.160 HD
ENDBRANCH   1  50
TORSDOF 13
ENDMDL
MODEL 5
REMARK VINA RESULT: -8.670453009      3.180      5.059
REMARK  13 active torsions:
REMARK  status: ('A' for Active; 'I' for Inactive)
REMARK    1  A    between atoms: N1_2  and  C2_4 
REMARK    2  A    between atoms: C5_10  and  C6_11 
REMARK    3  A    between atoms: C6_11  and  N3_12 
REMARK    4  A    between atoms: C8_14  and  C9_15 
REMARK    5  A    between atoms: C9_15  and  N4_16 
REMARK    6  A    between atoms: C11_18  and  C12_19 
REMARK    7  A    between atoms: C12_19  and  N5_20 
REMARK       I    between atoms: N5_20  and  C13_22 
REMARK    8  A    between atoms: C16_40  and  O2_41 
REMARK    9  A    between atoms: C17_43  and  N13_44 
REMARK   10  A    between atoms: N13_44  and  C18_45 
REMARK   11  A    between atoms: C18_45  and  O3_46 
REMARK   12  A    between atoms: C18_45  and  C19_48 
REMARK   13  A    between atoms: C19_48  and  N14_50 
ROOT
HETATM    1  C2  UNL     1      -1.529 -11.929  -6.110  1.00  0.00     0.147 A 
HETATM    2  N2  UNL     1      -0.604 -12.875  -6.227  1.00  0.00    -0.319 N 
ATOM      3  H2  UNL     1      -0.842 -13.734  -6.722  1.00  0.00     0.169 HD
HETATM    4  C3  UNL     1       0.616 -12.749  -5.725  1.00  0.00     0.164 A 
HETATM    5  O1  UNL     1       1.504 -13.680  -5.850  1.00  0.00    -0.304 OA
HETATM    6  C4  UNL     1       2.706 -13.693  -5.425  1.00  0.00     0.155 A 
HETATM    7  C5  UNL     1       3.102 -12.551  -4.735  1.00  0.00     0.011 A 
HETATM    8  C14 UNL     1       2.258 -11.486  -4.531  1.00  0.00     0.053 A 
HETATM    9  N12 UNL     1       2.620 -10.458  -3.893  1.00  0.00    -0.398 N 
ATOM     10 1H12 UNL     1       1.994  -9.668  -3.743  1.00  0.00     0.156 HD
ATOM     11 2H12 UNL     1       3.564 -10.380  -3.515  1.00  0.00     0.156 HD
HETATM   12  C15 UNL     1       0.962 -11.594  -5.050  1.00  0.00     0.079 A 
HETATM   13  C16 UNL     1       0.046 -10.563  -4.891  1.00  0.00     0.127 A 
HETATM   14  C17 UNL     1      -1.245 -10.744  -5.444  1.00  0.00     0.187 A 
ENDROOT
BRANCH   7  15
HETATM   15  C6  UNL     1       4.467 -12.459  -4.148  1.00  0.00     0.192 C 
BRANCH  15  16
HETATM   16  N3  UNL     1       5.332 -11.734  -5.051  1.00  0.00    -0.282 N 
HETATM   17  C7  UNL     1       6.086 -10.680  -4.767  1.00  0.00     0.144 A 
HETATM   18  C8  UNL     1       6.736 -10.223  -5.885  1.00  0.00     0.084 A 
HETATM   19  N10 UNL     1       6.343 -11.058  -6.887  1.00  0.00    -0.283 N 
HETATM   20  N11 UNL     1       5.493 -11.951  -6.316  1.00  0.00    -0.240 N 
ATOM     21  H10 UNL     1       6.629 -11.021  -7.866  1.00  0.00     0.188 HD
ATOM     22  H11 UNL     1       5.034 -12.706  -6.826  1.00  0.00     0.208 HD
BRANCH  18  23
HETATM   23  C9  UNL     1       7.654  -9.119  -5.877  1.00  0.00     0.149 C 
BRANCH  23  24
HETATM   24  N4  UNL     1       9.027  -9.342  -5.566  1.00  0.00    -0.260 N 
HETATM   25  C10 UNL     1       9.653 -10.513  -5.413  1.00  0.00     0.145 A 
HETATM   26  C11 UNL     1      10.987 -10.269  -5.073  1.00  0.00     0.062 A 
HETATM   27  N8  UNL     1      11.093  -8.949  -5.042  1.00  0.00    -0.287 N 
HETATM   28  N9  UNL     1       9.963  -8.395  -5.327  1.00  0.00    -0.237 N 
ATOM     29  H8  UNL     1      11.950  -8.440  -4.824  1.00  0.00     0.188 HD
ATOM     30  H9  UNL     1       9.798  -7.389  -5.366  1.00  0.00     0.209 HD
BRANCH  26  31
HETATM   31  C12 UNL     1      11.957 -11.333  -4.791  1.00  0.00     0.182 C 
BRANCH  31  32
HETATM   32  N5  UNL     1      11.326 -12.534  -4.270  1.00  0.00    -0.359 N 
HETATM   33  C13 UNL     1      11.790 -13.739  -4.932  1.00  0.00     0.182 C 
HETATM   34  N6  UNL     1      12.968 -14.170  -4.905  1.00  0.00    -0.374 N 
HETATM   35  N7  UNL     1      10.870 -14.547  -5.701  1.00  0.00    -0.064 NA
ATOM     36  H62 UNL     1      13.617 -13.600  -4.363  1.00  0.00     0.158 HD
ATOM     37  H61 UNL     1      13.294 -15.017  -5.370  1.00  0.00     0.158 HD
ATOM     38  H5  UNL     1      10.633 -12.530  -3.521  1.00  0.00     0.162 HD
ENDBRANCH  31  32
ENDBRANCH  26  31
ENDBRANCH  23  24
ENDBRANCH  18  23
ENDBRANCH  15  16
ENDBRANCH   7  15
BRANCH  13  39
HETATM   39  O2  UNL     1       0.327  -9.412  -4.244  1.00  0.00    -0.356 OA
ATOM     40  H2  UNL     1       0.177  -9.284  -3.315  1.00  0.00     0.218 HD
ENDBRANCH  13  39
BRANCH  14  41
HETATM   41  N13 UNL     1      -2.171  -9.672  -5.446  1.00  0.00    -0.376 NA
BRANCH  41  42
HETATM   42  C18 UNL     1      -3.015  -8.686  -5.423  1.00  0.00     0.212 C 
BRANCH  42  43
HETATM   43  O3  UNL     1      -4.306  -8.879  -5.184  1.00  0.00    -0.337 OA
ATOM     44  H3  UNL     1      -4.973  -8.312  -5.554  1.00  0.00     0.220 HD
ENDBRANCH  42  43
BRANCH  42  45
HETATM   45  C19 UNL     1      -2.790  -7.215  -5.635  1.00  0.00     0.160 C 
HETATM   46  C20 UNL     1      -1.275  -7.040  -5.840  1.00  0.00     0.041 C 
BRANCH  45  47
HETATM   47  N14 UNL     1      -3.199  -6.341  -4.653  1.00  0.00    -0.419 N 
ATOM     48 2H14 UNL     1      -2.841  -5.413  -4.880  1.00  0.00     0.150 HD
ATOM     49 1H14 UNL     1      -2.917  -6.524  -3.690  1.00  0.00     0.150 HD
ENDBRANCH  45  47
ENDBRANCH  42  45
ENDBRANCH  41  42
ENDBRANCH  14  41
BRANCH   1  50
HETATM   50  N1  UNL     1      -2.715 -12.077  -6.564  1.00  0.00    -0.378 N 
HETATM   51  C1  UNL     1      -3.108 -13.235  -7.345  1.00  0.00     0.147 C 
ATOM     52  H1  UNL     1      -3.409 -11.356  -6.370  1.00  0.00     0.160 HD
ENDBRANCH   1  50
TORSDOF 13
ENDMDL
