MODEL 1
REMARK VINA RESULT: -8.072792942      0.000      0.000
REMARK  14 active torsions:
REMARK  status: ('A' for Active; 'I' for Inactive)
REMARK    1  A    between atoms: N1_1  and  C1_4 
REMARK    2  A    between atoms: C2_7  and  N3_8 
REMARK    3  A    between atoms: N4_11  and  C5_12 
REMARK    4  A    between atoms: C10_17  and  O1_18 
REMARK    5  A    between atoms: C14_23  and  N5_24 
REMARK    6  A    between atoms: N5_24  and  C15_26 
REMARK    7  A    between atoms: N8_31  and  C17_32 
REMARK    8  A    between atoms: C17_32  and  O2_33 
REMARK    9  A    between atoms: O2_33  and  C18_34 
REMARK   10  A    between atoms: C18_34  and  C19_35 
REMARK   11  A    between atoms: C18_34  and  C20_38 
REMARK   12  A    between atoms: C19_35  and  O3_36 
REMARK   13  A    between atoms: C20_38  and  O4_39 
REMARK   14  A    between atoms: C21_41  and  N9_42 
ROOT
HETATM    1  C1  UNL     1      10.163  -8.572  -5.091  1.00  0.00     0.679 A 
HETATM    2  N2  UNL     1       8.838  -8.555  -5.316  1.00  0.00    -0.177 N 
ATOM      3  H2  UNL     1       8.353  -7.659  -5.267  1.00  0.00     0.185 HD
HETATM    4  C2  UNL     1       8.115  -9.654  -5.604  1.00  0.00     0.122 A 
HETATM    5  C13 UNL     1       8.835 -10.839  -5.658  1.00  0.00     0.098 A 
HETATM    6  C14 UNL     1      10.215 -10.844  -5.422  1.00  0.00     0.140 A 
HETATM    7  N11 UNL     1      10.878  -9.709  -5.139  1.00  0.00    -0.176 N 
ATOM      8  H11 UNL     1      11.883  -9.711  -4.967  1.00  0.00     0.186 HD
ENDROOT
BRANCH   6   9
HETATM    9  N5  UNL     1      10.954 -12.051  -5.475  1.00  0.00    -0.175 N 
ATOM     10  H5  UNL     1      11.801 -12.069  -6.043  1.00  0.00     0.186 HD
BRANCH   9  11
HETATM   11  C15 UNL     1      10.625 -13.127  -4.852  1.00  0.00     0.700 A 
HETATM   12  N6  UNL     1       9.490 -13.813  -5.075  1.00  0.00    -0.162 N 
HETATM   13  C16 UNL     1       9.194 -14.941  -4.387  1.00  0.00     0.226 A 
ATOM     14  H6  UNL     1       8.835 -13.475  -5.781  1.00  0.00     0.187 HD
HETATM   15  N7  UNL     1       7.996 -15.673  -4.616  1.00  0.00    -0.062 NA
HETATM   16  N8  UNL     1      10.029 -15.417  -3.450  1.00  0.00    -0.132 N 
HETATM   17  C21 UNL     1      11.169 -14.740  -3.217  1.00  0.00     0.696 A 
HETATM   18  N10 UNL     1      11.453 -13.609  -3.915  1.00  0.00    -0.022 N 
ATOM     19  H10 UNL     1      12.323 -13.113  -3.721  1.00  0.00     0.203 HD
BRANCH  16  20
HETATM   20  C17 UNL     1       9.714 -16.630  -2.712  1.00  0.00     0.320 C 
BRANCH  20  21
HETATM   21  O2  UNL     1       9.035 -16.379  -1.547  1.00  0.00    -0.361 OA
BRANCH  21  22
HETATM   22  C18 UNL     1       9.413 -17.278  -0.581  1.00  0.00     0.170 C 
BRANCH  22  23
HETATM   23  C19 UNL     1       9.018 -16.755   0.784  1.00  0.00     0.198 C 
BRANCH  23  24
HETATM   24  O3  UNL     1       8.708 -15.412   0.785  1.00  0.00    -0.398 OA
ATOM     25  H3  UNL     1       8.043 -15.180   1.422  1.00  0.00     0.209 HD
ENDBRANCH  23  24
ENDBRANCH  22  23
BRANCH  22  26
HETATM   26  C20 UNL     1      10.891 -17.593  -0.614  1.00  0.00     0.198 C 
BRANCH  26  27
HETATM   27  O4  UNL     1      11.608 -16.786   0.267  1.00  0.00    -0.398 OA
ATOM     28  H4  UNL     1      11.145 -15.980   0.459  1.00  0.00     0.209 HD
ENDBRANCH  26  27
ENDBRANCH  22  26
ENDBRANCH  21  22
ENDBRANCH  20  21
ENDBRANCH  16  20
BRANCH  17  29
HETATM   29  N9  UNL     1      11.977 -15.192  -2.319  1.00  0.00    -0.234 N 
ATOM     30  H92 UNL     1      12.922 -15.491  -2.562  1.00  0.00     0.174 HD
ATOM     31  H91 UNL     1      11.648 -15.244  -1.355  1.00  0.00     0.174 HD
ENDBRANCH  17  29
ENDBRANCH   9  11
ENDBRANCH   6   9
BRANCH   4  32
HETATM   32  N3  UNL     1       6.712  -9.596  -5.836  1.00  0.00    -0.364 N 
HETATM   33  C3  UNL     1       6.069 -10.799  -6.343  1.00  0.00     0.144 C 
HETATM   34  C4  UNL     1       5.053 -11.202  -5.266  1.00  0.00     0.143 C 
HETATM   35  N4  UNL     1       4.147 -10.077  -5.144  1.00  0.00    -0.376 N 
HETATM   36  C11 UNL     1       4.724  -8.826  -4.687  1.00  0.00     0.143 C 
HETATM   37  C12 UNL     1       5.885  -8.456  -5.613  1.00  0.00     0.144 C 
BRANCH  35  38
HETATM   38  C5  UNL     1       2.773 -10.191  -5.454  1.00  0.00     0.063 A 
HETATM   39  C6  UNL     1       1.943 -10.741  -4.470  1.00  0.00     0.032 A 
HETATM   40  C7  UNL     1       0.585 -10.863  -4.732  1.00  0.00     0.002 A 
HETATM   41  C8  UNL     1       0.051 -10.447  -5.947  1.00  0.00     0.003 A 
HETATM   42  C9  UNL     1       0.893  -9.913  -6.889  1.00  0.00     0.039 A 
HETATM   43  C10 UNL     1       2.244  -9.783  -6.649  1.00  0.00     0.092 A 
BRANCH  43  44
HETATM   44  O1  UNL     1       3.074  -9.244  -7.610  1.00  0.00    -0.358 OA
ATOM     45  H1  UNL     1       3.754  -8.632  -7.351  1.00  0.00     0.217 HD
ENDBRANCH  43  44
ENDBRANCH  35  38
ENDBRANCH   4  32
BRANCH   1  46
HETATM   46  N1  UNL     1      10.756  -7.465  -4.824  1.00  0.00    -0.234 N 
ATOM     47  H12 UNL     1      10.688  -6.689  -5.483  1.00  0.00     0.174 HD
ATOM     48  H11 UNL     1      11.282  -7.389  -3.953  1.00  0.00     0.174 HD
ENDBRANCH   1  46
TORSDOF 14
ENDMDL
MODEL 2
REMARK VINA RESULT: -8.057693012      2.748     10.411
REMARK  14 active torsions:
REMARK  status: ('A' for Active; 'I' for Inactive)
REMARK    1  A    between atoms: N1_1  and  C1_4 
REMARK    2  A    between atoms: C2_7  and  N3_8 
REMARK    3  A    between atoms: N4_11  and  C5_12 
REMARK    4  A    between atoms: C10_17  and  O1_18 
REMARK    5  A    between atoms: C14_23  and  N5_24 
REMARK    6  A    between atoms: N5_24  and  C15_26 
REMARK    7  A    between atoms: N8_31  and  C17_32 
REMARK    8  A    between atoms: C17_32  and  O2_33 
REMARK    9  A    between atoms: O2_33  and  C18_34 
REMARK   10  A    between atoms: C18_34  and  C19_35 
REMARK   11  A    between atoms: C18_34  and  C20_38 
REMARK   12  A    between atoms: C19_35  and  O3_36 
REMARK   13  A    between atoms: C20_38  and  O4_39 
REMARK   14  A    between atoms: C21_41  and  N9_42 
ROOT
HETATM    1  C1  UNL     1       7.714  -9.619  -5.988  1.00  0.00     0.679 A 
HETATM    2  N2  UNL     1       8.681 -10.400  -5.477  1.00  0.00    -0.177 N 
ATOM      3  H2  UNL     1       9.524  -9.950  -5.119  1.00  0.00     0.185 HD
HETATM    4  C2  UNL     1       8.600 -11.742  -5.409  1.00  0.00     0.122 A 
HETATM    5  C13 UNL     1       7.428 -12.290  -5.910  1.00  0.00     0.098 A 
HETATM    6  C14 UNL     1       6.428 -11.468  -6.440  1.00  0.00     0.140 A 
HETATM    7  N11 UNL     1       6.572 -10.132  -6.478  1.00  0.00    -0.176 N 
ATOM      8  H11 UNL     1       5.843  -9.531  -6.863  1.00  0.00     0.186 HD
ENDROOT
BRANCH   6   9
HETATM    9  N5  UNL     1       5.229 -12.023  -6.953  1.00  0.00    -0.175 N 
ATOM     10  H5  UNL     1       5.240 -13.001  -7.243  1.00  0.00     0.186 HD
BRANCH   9  11
HETATM   11  C15 UNL     1       4.128 -11.371  -7.077  1.00  0.00     0.700 A 
HETATM   12  N6  UNL     1       3.772 -10.689  -8.180  1.00  0.00    -0.162 N 
HETATM   13  C16 UNL     1       2.597 -10.018  -8.252  1.00  0.00     0.226 A 
ATOM     14  H6  UNL     1       4.402 -10.677  -8.982  1.00  0.00     0.187 HD
HETATM   15  N7  UNL     1       2.213  -9.295  -9.415  1.00  0.00    -0.062 NA
HETATM   16  N8  UNL     1       1.742 -10.009  -7.219  1.00  0.00    -0.132 N 
HETATM   17  C21 UNL     1       2.087 -10.687  -6.108  1.00  0.00     0.696 A 
HETATM   18  N10 UNL     1       3.268 -11.356  -6.048  1.00  0.00    -0.022 N 
ATOM     19  H10 UNL     1       3.507 -11.863  -5.196  1.00  0.00     0.203 HD
BRANCH  16  20
HETATM   20  C17 UNL     1       0.481  -9.291  -7.296  1.00  0.00     0.320 C 
BRANCH  20  21
HETATM   21  O2  UNL     1       0.526  -8.070  -6.672  1.00  0.00    -0.361 OA
BRANCH  21  22
HETATM   22  C18 UNL     1      -0.747  -7.632  -6.405  1.00  0.00     0.170 C 
BRANCH  22  23
HETATM   23  C19 UNL     1      -0.707  -6.180  -5.978  1.00  0.00     0.198 C 
BRANCH  23  24
HETATM   24  O3  UNL     1      -1.617  -5.877  -4.987  1.00  0.00    -0.398 OA
ATOM     25  H3  UNL     1      -2.501  -5.759  -5.312  1.00  0.00     0.209 HD
ENDBRANCH  23  24
ENDBRANCH  22  23
BRANCH  22  26
HETATM   26  C20 UNL     1      -1.450  -8.467  -5.357  1.00  0.00     0.198 C 
BRANCH  26  27
HETATM   27  O4  UNL     1      -0.721  -8.522  -4.170  1.00  0.00    -0.398 OA
ATOM     28  H4  UNL     1      -1.275  -8.381  -3.412  1.00  0.00     0.209 HD
ENDBRANCH  26  27
ENDBRANCH  22  26
ENDBRANCH  21  22
ENDBRANCH  20  21
ENDBRANCH  16  20
BRANCH  17  29
HETATM   29  N9  UNL     1       1.270 -10.684  -5.110  1.00  0.00    -0.234 N 
ATOM     30  H92 UNL     1       0.419 -11.246  -5.123  1.00  0.00     0.174 HD
ATOM     31  H91 UNL     1       1.495 -10.103  -4.302  1.00  0.00     0.174 HD
ENDBRANCH  17  29
ENDBRANCH   9  11
ENDBRANCH   6   9
BRANCH   4  32
HETATM   32  N3  UNL     1       9.647 -12.535  -4.861  1.00  0.00    -0.364 N 
HETATM   33  C3  UNL     1       9.377 -13.952  -4.661  1.00  0.00     0.144 C 
HETATM   34  C4  UNL     1      10.386 -14.688  -5.552  1.00  0.00     0.143 C 
HETATM   35  N4  UNL     1      11.694 -14.282  -5.077  1.00  0.00    -0.376 N 
HETATM   36  C11 UNL     1      12.021 -12.873  -5.200  1.00  0.00     0.143 C 
HETATM   37  C12 UNL     1      10.938 -12.057  -4.491  1.00  0.00     0.144 C 
BRANCH  35  38
HETATM   38  C5  UNL     1      12.605 -15.210  -4.522  1.00  0.00     0.063 A 
HETATM   39  C6  UNL     1      13.525 -15.798  -5.397  1.00  0.00     0.032 A 
HETATM   40  C7  UNL     1      14.443 -16.709  -4.891  1.00  0.00     0.002 A 
HETATM   41  C8  UNL     1      14.454 -17.034  -3.538  1.00  0.00     0.003 A 
HETATM   42  C9  UNL     1      13.539 -16.440  -2.709  1.00  0.00     0.039 A 
HETATM   43  C10 UNL     1      12.620 -15.533  -3.192  1.00  0.00     0.092 A 
BRANCH  43  44
HETATM   44  O1  UNL     1      11.706 -14.946  -2.341  1.00  0.00    -0.358 OA
ATOM     45  H1  UNL     1      12.008 -14.549  -1.532  1.00  0.00     0.217 HD
ENDBRANCH  43  44
ENDBRANCH  35  38
ENDBRANCH   4  32
BRANCH   1  46
HETATM   46  N1  UNL     1       7.893  -8.348  -6.004  1.00  0.00    -0.234 N 
ATOM     47  H12 UNL     1       7.752  -7.834  -6.874  1.00  0.00     0.174 HD
ATOM     48  H11 UNL     1       8.171  -7.882  -5.140  1.00  0.00     0.174 HD
ENDBRANCH   1  46
TORSDOF 14
ENDMDL
MODEL 3
REMARK VINA RESULT: -8.027907847      0.800      1.128
REMARK  14 active torsions:
REMARK  status: ('A' for Active; 'I' for Inactive)
REMARK    1  A    between atoms: N1_1  and  C1_4 
REMARK    2  A    between atoms: C2_7  and  N3_8 
REMARK    3  A    between atoms: N4_11  and  C5_12 
REMARK    4  A    between atoms: C10_17  and  O1_18 
REMARK    5  A    between atoms: C14_23  and  N5_24 
REMARK    6  A    between atoms: N5_24  and  C15_26 
REMARK    7  A    between atoms: N8_31  and  C17_32 
REMARK    8  A    between atoms: C17_32  and  O2_33 
REMARK    9  A    between atoms: O2_33  and  C18_34 
REMARK   10  A    between atoms: C18_34  and  C19_35 
REMARK   11  A    between atoms: C18_34  and  C20_38 
REMARK   12  A    between atoms: C19_35  and  O3_36 
REMARK   13  A    between atoms: C20_38  and  O4_39 
REMARK   14  A    between atoms: C21_41  and  N9_42 
ROOT
HETATM    1  C1  UNL     1      10.191  -8.538  -5.126  1.00  0.00     0.679 A 
HETATM    2  N2  UNL     1       8.864  -8.530  -5.342  1.00  0.00    -0.177 N 
ATOM      3  H2  UNL     1       8.376  -7.635  -5.308  1.00  0.00     0.185 HD
HETATM    4  C2  UNL     1       8.143  -9.637  -5.600  1.00  0.00     0.122 A 
HETATM    5  C13 UNL     1       8.867 -10.820  -5.634  1.00  0.00     0.098 A 
HETATM    6  C14 UNL     1      10.248 -10.817  -5.409  1.00  0.00     0.140 A 
HETATM    7  N11 UNL     1      10.909  -9.673  -5.155  1.00  0.00    -0.176 N 
ATOM      8  H11 UNL     1      11.915  -9.668  -4.992  1.00  0.00     0.186 HD
ENDROOT
BRANCH   6   9
HETATM    9  N5  UNL     1      10.991 -12.022  -5.442  1.00  0.00    -0.175 N 
ATOM     10  H5  UNL     1      11.852 -12.038  -5.989  1.00  0.00     0.186 HD
BRANCH   9  11
HETATM   11  C15 UNL     1      10.648 -13.097  -4.826  1.00  0.00     0.700 A 
HETATM   12  N6  UNL     1       9.489 -13.748  -5.027  1.00  0.00    -0.162 N 
HETATM   13  C16 UNL     1       9.181 -14.878  -4.347  1.00  0.00     0.226 A 
ATOM     14  H6  UNL     1       8.825 -13.382  -5.710  1.00  0.00     0.187 HD
HETATM   15  N7  UNL     1       7.957 -15.573  -4.554  1.00  0.00    -0.062 NA
HETATM   16  N8  UNL     1      10.027 -15.392  -3.442  1.00  0.00    -0.132 N 
HETATM   17  C21 UNL     1      11.192 -14.750  -3.230  1.00  0.00     0.696 A 
HETATM   18  N10 UNL     1      11.489 -13.617  -3.919  1.00  0.00    -0.022 N 
ATOM     19  H10 UNL     1      12.377 -13.148  -3.742  1.00  0.00     0.203 HD
BRANCH  16  20
HETATM   20  C17 UNL     1       9.698 -16.606  -2.713  1.00  0.00     0.320 C 
BRANCH  20  21
HETATM   21  O2  UNL     1       9.035 -16.356  -1.538  1.00  0.00    -0.361 OA
BRANCH  21  22
HETATM   22  C18 UNL     1       9.415 -17.265  -0.582  1.00  0.00     0.170 C 
BRANCH  22  23
HETATM   23  C19 UNL     1       9.021 -16.757   0.789  1.00  0.00     0.198 C 
BRANCH  23  24
HETATM   24  O3  UNL     1       8.696 -15.417   0.802  1.00  0.00    -0.398 OA
ATOM     25  H3  UNL     1       8.449 -15.082  -0.051  1.00  0.00     0.209 HD
ENDBRANCH  23  24
ENDBRANCH  22  23
BRANCH  22  26
HETATM   26  C20 UNL     1      10.895 -17.577  -0.620  1.00  0.00     0.198 C 
BRANCH  26  27
HETATM   27  O4  UNL     1      11.606 -16.806   0.299  1.00  0.00    -0.398 OA
ATOM     28  H4  UNL     1      12.408 -17.236   0.570  1.00  0.00     0.209 HD
ENDBRANCH  26  27
ENDBRANCH  22  26
ENDBRANCH  21  22
ENDBRANCH  20  21
ENDBRANCH  16  20
BRANCH  17  29
HETATM   29  N9  UNL     1      12.011 -15.237  -2.362  1.00  0.00    -0.234 N 
ATOM     30  H92 UNL     1      12.697 -15.946  -2.623  1.00  0.00     0.174 HD
ATOM     31  H91 UNL     1      11.957 -14.897  -1.402  1.00  0.00     0.174 HD
ENDBRANCH  17  29
ENDBRANCH   9  11
ENDBRANCH   6   9
BRANCH   4  32
HETATM   32  N3  UNL     1       6.738  -9.589  -5.823  1.00  0.00    -0.364 N 
HETATM   33  C3  UNL     1       6.105 -10.785  -6.358  1.00  0.00     0.144 C 
HETATM   34  C4  UNL     1       5.100 -11.228  -5.286  1.00  0.00     0.143 C 
HETATM   35  N4  UNL     1       4.183 -10.117  -5.129  1.00  0.00    -0.376 N 
HETATM   36  C11 UNL     1       4.748  -8.872  -4.642  1.00  0.00     0.143 C 
HETATM   37  C12 UNL     1       5.899  -8.465  -5.565  1.00  0.00     0.144 C 
BRANCH  35  38
HETATM   38  C5  UNL     1       2.808 -10.238  -5.433  1.00  0.00     0.063 A 
HETATM   39  C6  UNL     1       2.391  -9.774  -6.687  1.00  0.00     0.032 A 
HETATM   40  C7  UNL     1       1.050  -9.882  -7.028  1.00  0.00     0.002 A 
HETATM   41  C8  UNL     1       0.131 -10.441  -6.146  1.00  0.00     0.003 A 
HETATM   42  C9  UNL     1       0.572 -10.884  -4.927  1.00  0.00     0.039 A 
HETATM   43  C10 UNL     1       1.900 -10.786  -4.568  1.00  0.00     0.092 A 
BRANCH  43  44
HETATM   44  O1  UNL     1       2.325 -11.238  -3.335  1.00  0.00    -0.358 OA
ATOM     45  H1  UNL     1       1.803 -11.880  -2.867  1.00  0.00     0.217 HD
ENDBRANCH  43  44
ENDBRANCH  35  38
ENDBRANCH   4  32
BRANCH   1  46
HETATM   46  N1  UNL     1      10.782  -7.423  -4.888  1.00  0.00    -0.234 N 
ATOM     47  H12 UNL     1      11.268  -6.942  -5.645  1.00  0.00     0.174 HD
ATOM     48  H11 UNL     1      10.749  -7.045  -3.941  1.00  0.00     0.174 HD
ENDBRANCH   1  46
TORSDOF 14
ENDMDL
MODEL 4
REMARK VINA RESULT: -8.026843421      0.995      1.825
REMARK  14 active torsions:
REMARK  status: ('A' for Active; 'I' for Inactive)
REMARK    1  A    between atoms: N1_1  and  C1_4 
REMARK    2  A    between atoms: C2_7  and  N3_8 
REMARK    3  A    between atoms: N4_11  and  C5_12 
REMARK    4  A    between atoms: C10_17  and  O1_18 
REMARK    5  A    between atoms: C14_23  and  N5_24 
REMARK    6  A    between atoms: N5_24  and  C15_26 
REMARK    7  A    between atoms: N8_31  and  C17_32 
REMARK    8  A    between atoms: C17_32  and  O2_33 
REMARK    9  A    between atoms: O2_33  and  C18_34 
REMARK   10  A    between atoms: C18_34  and  C19_35 
REMARK   11  A    between atoms: C18_34  and  C20_38 
REMARK   12  A    between atoms: C19_35  and  O3_36 
REMARK   13  A    between atoms: C20_38  and  O4_39 
REMARK   14  A    between atoms: C21_41  and  N9_42 
ROOT
HETATM    1  C1  UNL     1      10.388  -8.432  -5.160  1.00  0.00     0.679 A 
HETATM    2  N2  UNL     1       9.067  -8.452  -5.402  1.00  0.00    -0.177 N 
ATOM      3  H2  UNL     1       8.576  -7.560  -5.468  1.00  0.00     0.185 HD
HETATM    4  C2  UNL     1       8.353  -9.583  -5.561  1.00  0.00     0.122 A 
HETATM    5  C13 UNL     1       9.081 -10.760  -5.462  1.00  0.00     0.098 A 
HETATM    6  C14 UNL     1      10.457 -10.727  -5.210  1.00  0.00     0.140 A 
HETATM    7  N11 UNL     1      11.110  -9.561  -5.060  1.00  0.00    -0.176 N 
ATOM      8  H11 UNL     1      12.113  -9.535  -4.879  1.00  0.00     0.186 HD
ENDROOT
BRANCH   6   9
HETATM    9  N5  UNL     1      11.204 -11.927  -5.108  1.00  0.00    -0.175 N 
ATOM     10  H5  UNL     1      12.159 -11.928  -5.466  1.00  0.00     0.186 HD
BRANCH   9  11
HETATM   11  C15 UNL     1      10.753 -13.014  -4.591  1.00  0.00     0.700 A 
HETATM   12  N6  UNL     1      11.438 -13.784  -3.728  1.00  0.00    -0.162 N 
HETATM   13  C16 UNL     1      10.911 -14.921  -3.215  1.00  0.00     0.226 A 
ATOM     14  H6  UNL     1      12.380 -13.503  -3.451  1.00  0.00     0.187 HD
HETATM   15  N7  UNL     1      11.630 -15.741  -2.301  1.00  0.00    -0.062 NA
HETATM   16  N8  UNL     1       9.677 -15.324  -3.555  1.00  0.00    -0.132 N 
HETATM   17  C21 UNL     1       8.979 -14.563  -4.419  1.00  0.00     0.696 A 
HETATM   18  N10 UNL     1       9.520 -13.424  -4.925  1.00  0.00    -0.022 N 
ATOM     19  H10 UNL     1       8.972 -12.863  -5.578  1.00  0.00     0.203 HD
BRANCH  16  20
HETATM   20  C17 UNL     1       9.110 -16.544  -3.003  1.00  0.00     0.320 C 
BRANCH  20  21
HETATM   21  O2  UNL     1       8.352 -16.317  -1.882  1.00  0.00    -0.361 OA
BRANCH  21  22
HETATM   22  C18 UNL     1       8.579 -17.303  -0.955  1.00  0.00     0.170 C 
BRANCH  22  23
HETATM   23  C19 UNL     1       9.108 -16.689   0.324  1.00  0.00     0.198 C 
BRANCH  23  24
HETATM   24  O3  UNL     1       8.486 -15.505   0.658  1.00  0.00    -0.398 OA
ATOM     25  H3  UNL     1       7.969 -15.563   1.453  1.00  0.00     0.209 HD
ENDBRANCH  23  24
ENDBRANCH  22  23
BRANCH  22  26
HETATM   26  C20 UNL     1       9.524 -18.374  -1.452  1.00  0.00     0.198 C 
BRANCH  26  27
HETATM   27  O4  UNL     1      10.710 -18.393  -0.719  1.00  0.00    -0.398 OA
ATOM     28  H4  UNL     1      10.995 -19.280  -0.538  1.00  0.00     0.209 HD
ENDBRANCH  26  27
ENDBRANCH  22  26
ENDBRANCH  21  22
ENDBRANCH  20  21
ENDBRANCH  16  20
BRANCH  17  29
HETATM   29  N9  UNL     1       7.793 -14.943  -4.749  1.00  0.00    -0.234 N 
ATOM     30  H92 UNL     1       7.327 -15.707  -4.258  1.00  0.00     0.174 HD
ATOM     31  H91 UNL     1       7.326 -14.460  -5.516  1.00  0.00     0.174 HD
ENDBRANCH  17  29
ENDBRANCH   9  11
ENDBRANCH   6   9
BRANCH   4  32
HETATM   32  N3  UNL     1       6.953  -9.563  -5.815  1.00  0.00    -0.364 N 
HETATM   33  C3  UNL     1       6.333 -10.811  -6.236  1.00  0.00     0.144 C 
HETATM   34  C4  UNL     1       5.308 -11.145  -5.144  1.00  0.00     0.143 C 
HETATM   35  N4  UNL     1       4.385 -10.027  -5.121  1.00  0.00    -0.376 N 
HETATM   36  C11 UNL     1       4.939  -8.736  -4.754  1.00  0.00     0.143 C 
HETATM   37  C12 UNL     1       6.107  -8.422  -5.692  1.00  0.00     0.144 C 
BRANCH  35  38
HETATM   38  C5  UNL     1       3.017 -10.184  -5.438  1.00  0.00     0.063 A 
HETATM   39  C6  UNL     1       2.605  -9.754  -6.704  1.00  0.00     0.032 A 
HETATM   40  C7  UNL     1       1.271  -9.898  -7.058  1.00  0.00     0.002 A 
HETATM   41  C8  UNL     1       0.353 -10.461  -6.176  1.00  0.00     0.003 A 
HETATM   42  C9  UNL     1       0.791 -10.871  -4.944  1.00  0.00     0.039 A 
HETATM   43  C10 UNL     1       2.112 -10.737  -4.572  1.00  0.00     0.092 A 
BRANCH  43  44
HETATM   44  O1  UNL     1       2.532 -11.156  -3.327  1.00  0.00    -0.358 OA
ATOM     45  H1  UNL     1       1.892 -11.461  -2.695  1.00  0.00     0.217 HD
ENDBRANCH  43  44
ENDBRANCH  35  38
ENDBRANCH   4  32
BRANCH   1  46
HETATM   46  N1  UNL     1      10.972  -7.296  -5.024  1.00  0.00    -0.234 N 
ATOM     47  H12 UNL     1      10.511  -6.556  -4.495  1.00  0.00     0.174 HD
ATOM     48  H11 UNL     1      11.890  -7.164  -5.450  1.00  0.00     0.174 HD
ENDBRANCH   1  46
TORSDOF 14
ENDMDL
MODEL 5
REMARK VINA RESULT: -7.924902407      1.311      1.748
REMARK  14 active torsions:
REMARK  status: ('A' for Active; 'I' for Inactive)
REMARK    1  A    between atoms: N1_1  and  C1_4 
REMARK    2  A    between atoms: C2_7  and  N3_8 
REMARK    3  A    between atoms: N4_11  and  C5_12 
REMARK    4  A    between atoms: C10_17  and  O1_18 
REMARK    5  A    between atoms: C14_23  and  N5_24 
REMARK    6  A    between atoms: N5_24  and  C15_26 
REMARK    7  A    between atoms: N8_31  and  C17_32 
REMARK    8  A    between atoms: C17_32  and  O2_33 
REMARK    9  A    between atoms: O2_33  and  C18_34 
REMARK   10  A    between atoms: C18_34  and  C19_35 
REMARK   11  A    between atoms: C18_34  and  C20_38 
REMARK   12  A    between atoms: C19_35  and  O3_36 
REMARK   13  A    between atoms: C20_38  and  O4_39 
REMARK   14  A    between atoms: C21_41  and  N9_42 
ROOT
HETATM    1  C1  UNL     1       8.280  -8.263  -5.949  1.00  0.00     0.679 A 
HETATM    2  N2  UNL     1       6.941  -8.333  -5.870  1.00  0.00    -0.177 N 
ATOM      3  H2  UNL     1       6.418  -7.463  -5.774  1.00  0.00     0.185 HD
HETATM    4  C2  UNL     1       6.250  -9.489  -5.909  1.00  0.00     0.122 A 
HETATM    5  C13 UNL     1       7.021 -10.635  -6.042  1.00  0.00     0.098 A 
HETATM    6  C14 UNL     1       8.415 -10.549  -6.124  1.00  0.00     0.140 A 
HETATM    7  N11 UNL     1       9.044  -9.361  -6.078  1.00  0.00    -0.176 N 
ATOM      8  H11 UNL     1      10.060  -9.297  -6.139  1.00  0.00     0.186 HD
ENDROOT
BRANCH   6   9
HETATM    9  N5  UNL     1       9.206 -11.717  -6.260  1.00  0.00    -0.175 N 
ATOM     10  H5  UNL     1       9.883 -11.750  -7.022  1.00  0.00     0.186 HD
BRANCH   9  11
HETATM   11  C15 UNL     1       9.124 -12.737  -5.482  1.00  0.00     0.700 A 
HETATM   12  N6  UNL     1       8.003 -13.457  -5.294  1.00  0.00    -0.162 N 
HETATM   13  C16 UNL     1       7.976 -14.524  -4.460  1.00  0.00     0.226 A 
ATOM     14  H6  UNL     1       7.153 -13.193  -5.792  1.00  0.00     0.187 HD
HETATM   15  N7  UNL     1       6.795 -15.291  -4.256  1.00  0.00    -0.062 NA
HETATM   16  N8  UNL     1       9.072 -14.903  -3.786  1.00  0.00    -0.132 N 
HETATM   17  C21 UNL     1      10.201 -14.191  -3.965  1.00  0.00     0.696 A 
HETATM   18  N10 UNL     1      10.215 -13.122  -4.805  1.00  0.00    -0.022 N 
ATOM     19  H10 UNL     1      11.082 -12.598  -4.925  1.00  0.00     0.203 HD
BRANCH  16  20
HETATM   20  C17 UNL     1       9.044 -16.049  -2.893  1.00  0.00     0.320 C 
BRANCH  20  21
HETATM   21  O2  UNL     1       9.264 -15.706  -1.583  1.00  0.00    -0.361 OA
BRANCH  21  22
HETATM   22  C18 UNL     1       9.516 -16.832  -0.839  1.00  0.00     0.170 C 
BRANCH  22  23
HETATM   23  C19 UNL     1       8.904 -16.679   0.538  1.00  0.00     0.198 C 
BRANCH  23  24
HETATM   24  O3  UNL     1       8.722 -15.365   0.912  1.00  0.00    -0.398 OA
ATOM     25  H3  UNL     1       9.381 -15.052   1.520  1.00  0.00     0.209 HD
ENDBRANCH  23  24
ENDBRANCH  22  23
BRANCH  22  26
HETATM   26  C20 UNL     1      10.991 -17.146  -0.725  1.00  0.00     0.198 C 
BRANCH  26  27
HETATM   27  O4  UNL     1      11.502 -16.767   0.515  1.00  0.00    -0.398 OA
ATOM     28  H4  UNL     1      12.112 -17.411   0.854  1.00  0.00     0.209 HD
ENDBRANCH  26  27
ENDBRANCH  22  26
ENDBRANCH  21  22
ENDBRANCH  20  21
ENDBRANCH  16  20
BRANCH  17  29
HETATM   29  N9  UNL     1      11.259 -14.549  -3.322  1.00  0.00    -0.234 N 
ATOM     30  H92 UNL     1      11.238 -15.326  -2.661  1.00  0.00     0.174 HD
ATOM     31  H91 UNL     1      12.125 -14.035  -3.490  1.00  0.00     0.174 HD
ENDBRANCH  17  29
ENDBRANCH   9  11
ENDBRANCH   6   9
BRANCH   4  32
HETATM   32  N3  UNL     1       4.830  -9.523  -5.821  1.00  0.00    -0.364 N 
HETATM   33  C3  UNL     1       4.088  -9.701  -7.061  1.00  0.00     0.144 C 
HETATM   34  C4  UNL     1       3.320 -11.018  -6.891  1.00  0.00     0.143 C 
HETATM   35  N4  UNL     1       2.465 -10.824  -5.736  1.00  0.00    -0.376 N 
HETATM   36  C11 UNL     1       3.132 -10.595  -4.466  1.00  0.00     0.143 C 
HETATM   37  C12 UNL     1       4.074  -9.398  -4.619  1.00  0.00     0.144 C 
BRANCH  35  38
HETATM   38  C5  UNL     1       1.056 -10.856  -5.838  1.00  0.00     0.063 A 
HETATM   39  C6  UNL     1       0.416 -12.033  -5.435  1.00  0.00     0.032 A 
HETATM   40  C7  UNL     1      -0.968 -12.103  -5.513  1.00  0.00     0.002 A 
HETATM   41  C8  UNL     1      -1.713 -11.025  -5.981  1.00  0.00     0.003 A 
HETATM   42  C9  UNL     1      -1.054  -9.887  -6.368  1.00  0.00     0.039 A 
HETATM   43  C10 UNL     1       0.320  -9.797  -6.299  1.00  0.00     0.092 A 
BRANCH  43  44
HETATM   44  O1  UNL     1       0.964  -8.643  -6.694  1.00  0.00    -0.358 OA
ATOM     45  H1  UNL     1       0.498  -8.004  -7.219  1.00  0.00     0.217 HD
ENDBRANCH  43  44
ENDBRANCH  35  38
ENDBRANCH   4  32
BRANCH   1  46
HETATM   46  N1  UNL     1       8.840  -7.108  -5.901  1.00  0.00    -0.234 N 
ATOM     47  H12 UNL     1       8.411  -6.323  -6.391  1.00  0.00     0.174 HD
ATOM     48  H11 UNL     1       9.705  -7.005  -5.369  1.00  0.00     0.174 HD
ENDBRANCH   1  46
TORSDOF 14
ENDMDL
