MODEL 1
REMARK VINA RESULT: -7.158807883      0.000      0.000
REMARK  4 active torsions:
REMARK  status: ('A' for Active; 'I' for Inactive)
REMARK    1  A    between atoms: C2_2  and  O2_4 
REMARK    2  A    between atoms: O2_4  and  C3_5 
REMARK    3  A    between atoms: C10_14  and  C11_15 
REMARK    4  A    between atoms: C11_15  and  C12_16 
ROOT
HETATM    1  C3  UNL     1       6.333  -0.305 -27.072  1.00  0.00     0.143 C 
HETATM    2  C4  UNL     1       7.398   0.719 -27.469  1.00  0.00     0.041 C 
HETATM    3  C5  UNL     1       8.547   0.403 -26.501  1.00  0.00     0.025 C 
HETATM    4  C6  UNL     1       9.275   1.592 -26.036  1.00  0.00     0.013 C 
HETATM    5  C7  UNL     1       9.226  -0.762 -27.058  1.00  0.00     0.136 C 
HETATM    6  O3  UNL     1      10.431  -0.995 -26.332  1.00  0.00    -0.225 OA
HETATM    7  O4  UNL     1      11.054  -1.975 -26.927  1.00  0.00    -0.223 OA
HETATM    8  C8  UNL     1      10.599  -2.140 -28.203  1.00  0.00     0.161 C 
HETATM    9  C9  UNL     1      11.576  -2.413 -29.266  1.00  0.00     0.056 C 
HETATM   10  C10 UNL     1       9.768  -0.853 -28.393  1.00  0.00     0.092 C 
HETATM   11  C16 UNL     1       9.620  -3.297 -28.156  1.00  0.00     0.229 C 
HETATM   12  C17 UNL     1      10.291  -4.403 -27.339  1.00  0.00     0.085 C 
HETATM   13  O5  UNL     1       9.373  -3.844 -29.439  1.00  0.00    -0.196 OA
HETATM   14  O6  UNL     1       8.351  -3.353 -30.034  1.00  0.00    -0.217 OA
HETATM   15  C18 UNL     1       7.105  -3.765 -29.649  1.00  0.00     0.256 C 
HETATM   16 CL1  UNL     1       6.337  -4.462 -31.125  1.00  0.00    -0.092 Cl
HETATM   17  C19 UNL     1       6.242  -2.608 -29.120  1.00  0.00     0.052 C 
HETATM   18  C20 UNL     1       6.008  -2.633 -27.690  1.00  0.00     0.018 C 
HETATM   19  C21 UNL     1       6.819  -1.657 -26.808  1.00  0.00     0.012 C 
HETATM   20  C22 UNL     1       6.254  -2.097 -25.436  1.00  0.00     0.020 C 
HETATM   21  C23 UNL     1       8.276  -1.944 -26.810  1.00  0.00     0.174 C 
HETATM   22  O7  UNL     1       8.443  -3.010 -27.617  1.00  0.00    -0.341 OA
ENDROOT
BRANCH  10  23
HETATM   23  C11 UNL     1      10.547   0.144 -29.090  1.00  0.00    -0.015 C 
BRANCH  23  24
HETATM   24  C12 UNL     1       9.946   1.296 -29.748  1.00  0.00    -0.002 C 
HETATM   25  C13 UNL     1      10.411   2.503 -29.476  1.00  0.00    -0.088 C 
HETATM   26  C14 UNL     1       9.822   3.693 -30.136  1.00  0.00     0.043 C 
HETATM   27  C15 UNL     1      11.483   2.704 -28.497  1.00  0.00     0.043 C 
ENDBRANCH  23  24
ENDBRANCH  10  23
BRANCH   1  28
HETATM   28  O2  UNL     1       5.248  -0.258 -28.011  1.00  0.00    -0.315 OA
BRANCH  28  29
HETATM   29  C2  UNL     1       4.169   0.603 -27.882  1.00  0.00     0.255 C 
HETATM   30  C1  UNL     1       3.718   1.188 -26.606  1.00  0.00     0.126 C 
HETATM   31  O1  UNL     1       3.534   0.903 -28.926  1.00  0.00    -0.266 OA
ENDBRANCH  28  29
ENDBRANCH   1  28
TORSDOF 4
ENDMDL
MODEL 2
REMARK VINA RESULT: -7.012924878      0.867      1.243
REMARK  4 active torsions:
REMARK  status: ('A' for Active; 'I' for Inactive)
REMARK    1  A    between atoms: C2_2  and  O2_4 
REMARK    2  A    between atoms: O2_4  and  C3_5 
REMARK    3  A    between atoms: C10_14  and  C11_15 
REMARK    4  A    between atoms: C11_15  and  C12_16 
ROOT
HETATM    1  C3  UNL     1       6.573  -0.553 -27.816  1.00  0.00     0.143 C 
HETATM    2  C4  UNL     1       7.695   0.457 -28.064  1.00  0.00     0.041 C 
HETATM    3  C5  UNL     1       8.652   0.191 -26.892  1.00  0.00     0.025 C 
HETATM    4  C6  UNL     1       9.290   1.405 -26.360  1.00  0.00     0.013 C 
HETATM    5  C7  UNL     1       9.416  -0.994 -27.265  1.00  0.00     0.136 C 
HETATM    6  O3  UNL     1      10.472  -1.187 -26.326  1.00  0.00    -0.225 OA
HETATM    7  O4  UNL     1      11.187  -2.191 -26.755  1.00  0.00    -0.223 OA
HETATM    8  C8  UNL     1      10.967  -2.416 -28.083  1.00  0.00     0.161 C 
HETATM    9  C9  UNL     1      12.117  -2.732 -28.941  1.00  0.00     0.056 C 
HETATM   10  C10 UNL     1      10.187  -1.143 -28.477  1.00  0.00     0.092 C 
HETATM   11  C16 UNL     1       9.991  -3.574 -28.158  1.00  0.00     0.229 C 
HETATM   12  C17 UNL     1      10.503  -4.638 -27.185  1.00  0.00     0.085 C 
HETATM   13  O5  UNL     1       9.976  -4.181 -29.438  1.00  0.00    -0.196 OA
HETATM   14  O6  UNL     1       9.078  -3.722 -30.228  1.00  0.00    -0.217 OA
HETATM   15  C18 UNL     1       7.782  -4.123 -30.052  1.00  0.00     0.256 C 
HETATM   16 CL1  UNL     1       7.287  -4.890 -31.608  1.00  0.00    -0.092 Cl
HETATM   17  C19 UNL     1       6.842  -2.947 -29.739  1.00  0.00     0.052 C 
HETATM   18  C20 UNL     1       6.357  -2.908 -28.375  1.00  0.00     0.018 C 
HETATM   19  C21 UNL     1       7.000  -1.889 -27.408  1.00  0.00     0.012 C 
HETATM   20  C22 UNL     1       6.198  -2.269 -26.140  1.00  0.00     0.020 C 
HETATM   21  C23 UNL     1       8.434  -2.168 -27.136  1.00  0.00     0.174 C 
HETATM   22  O7  UNL     1       8.738  -3.269 -27.851  1.00  0.00    -0.341 OA
ENDROOT
BRANCH  10  23
HETATM   23  C11 UNL     1      11.081  -0.175 -29.069  1.00  0.00    -0.015 C 
BRANCH  23  24
HETATM   24  C12 UNL     1      12.120   0.508 -28.310  1.00  0.00    -0.002 C 
HETATM   25  C13 UNL     1      12.131   1.829 -28.286  1.00  0.00    -0.088 C 
HETATM   26  C14 UNL     1      13.174   2.549 -27.518  1.00  0.00     0.043 C 
HETATM   27  C15 UNL     1      11.150   2.614 -29.042  1.00  0.00     0.043 C 
ENDBRANCH  23  24
ENDBRANCH  10  23
BRANCH   1  28
HETATM   28  O2  UNL     1       5.673  -0.554 -28.935  1.00  0.00    -0.315 OA
BRANCH  28  29
HETATM   29  C2  UNL     1       4.408   0.012 -28.893  1.00  0.00     0.255 C 
HETATM   30  C1  UNL     1       3.893   0.816 -27.770  1.00  0.00     0.126 C 
HETATM   31  O1  UNL     1       3.652  -0.175 -29.880  1.00  0.00    -0.266 OA
ENDBRANCH  28  29
ENDBRANCH   1  28
TORSDOF 4
ENDMDL
MODEL 3
REMARK VINA RESULT: -6.720334258      1.189      1.313
REMARK  4 active torsions:
REMARK  status: ('A' for Active; 'I' for Inactive)
REMARK    1  A    between atoms: C2_2  and  O2_4 
REMARK    2  A    between atoms: O2_4  and  C3_5 
REMARK    3  A    between atoms: C10_14  and  C11_15 
REMARK    4  A    between atoms: C11_15  and  C12_16 
ROOT
HETATM    1  C3  UNL     1       6.807   0.559 -26.030  1.00  0.00     0.143 C 
HETATM    2  C4  UNL     1       7.976   1.361 -26.605  1.00  0.00     0.041 C 
HETATM    3  C5  UNL     1       9.198   0.669 -25.982  1.00  0.00     0.025 C 
HETATM    4  C6  UNL     1      10.286   1.592 -25.628  1.00  0.00     0.013 C 
HETATM    5  C7  UNL     1       9.420  -0.533 -26.777  1.00  0.00     0.136 C 
HETATM    6  O3  UNL     1      10.660  -1.125 -26.396  1.00  0.00    -0.225 OA
HETATM    7  O4  UNL     1      10.867  -2.132 -27.200  1.00  0.00    -0.223 OA
HETATM    8  C8  UNL     1      10.110  -2.019 -28.330  1.00  0.00     0.161 C 
HETATM    9  C9  UNL     1      10.722  -2.360 -29.621  1.00  0.00     0.056 C 
HETATM   10  C10 UNL     1       9.606  -0.565 -28.209  1.00  0.00     0.092 C 
HETATM   11  C16 UNL     1       8.909  -2.922 -28.125  1.00  0.00     0.229 C 
HETATM   12  C17 UNL     1       9.449  -4.250 -27.588  1.00  0.00     0.085 C 
HETATM   13  O5  UNL     1       8.251  -3.225 -29.342  1.00  0.00    -0.196 OA
HETATM   14  O6  UNL     1       7.277  -2.442 -29.624  1.00  0.00    -0.217 OA
HETATM   15  C18 UNL     1       6.088  -2.612 -28.969  1.00  0.00     0.256 C 
HETATM   16 CL1  UNL     1       4.857  -2.915 -30.253  1.00  0.00    -0.092 Cl
HETATM   17  C19 UNL     1       5.684  -1.371 -28.156  1.00  0.00     0.052 C 
HETATM   18  C20 UNL     1       5.780  -1.533 -26.719  1.00  0.00     0.018 C 
HETATM   19  C21 UNL     1       6.986  -0.890 -25.999  1.00  0.00     0.012 C 
HETATM   20  C22 UNL     1       6.654  -1.371 -24.565  1.00  0.00     0.020 C 
HETATM   21  C23 UNL     1       8.286  -1.494 -26.387  1.00  0.00     0.174 C 
HETATM   22  O7  UNL     1       7.995  -2.453 -27.288  1.00  0.00    -0.341 OA
ENDROOT
BRANCH  10  23
HETATM   23  C11 UNL     1      10.432   0.316 -29.002  1.00  0.00    -0.015 C 
BRANCH  23  24
HETATM   24  C12 UNL     1       9.911   1.508 -29.658  1.00  0.00    -0.002 C 
HETATM   25  C13 UNL     1      10.490   2.672 -29.423  1.00  0.00    -0.088 C 
HETATM   26  C14 UNL     1       9.984   3.900 -30.081  1.00  0.00     0.043 C 
HETATM   27  C15 UNL     1      11.612   2.791 -28.486  1.00  0.00     0.043 C 
ENDBRANCH  23  24
ENDBRANCH  10  23
BRANCH   1  28
HETATM   28  O2  UNL     1       5.585   0.973 -26.661  1.00  0.00    -0.315 OA
BRANCH  28  29
HETATM   29  C2  UNL     1       4.607   1.711 -26.011  1.00  0.00     0.255 C 
HETATM   30  C1  UNL     1       3.491   1.124 -25.248  1.00  0.00     0.126 C 
HETATM   31  O1  UNL     1       4.680   2.965 -26.080  1.00  0.00    -0.266 OA
ENDBRANCH  28  29
ENDBRANCH   1  28
TORSDOF 4
ENDMDL
MODEL 4
REMARK VINA RESULT: -6.641491492      3.265      5.518
REMARK  4 active torsions:
REMARK  status: ('A' for Active; 'I' for Inactive)
REMARK    1  A    between atoms: C2_2  and  O2_4 
REMARK    2  A    between atoms: O2_4  and  C3_5 
REMARK    3  A    between atoms: C10_14  and  C11_15 
REMARK    4  A    between atoms: C11_15  and  C12_16 
ROOT
HETATM    1  C3  UNL     1       7.150  -0.494 -26.014  1.00  0.00     0.143 C 
HETATM    2  C4  UNL     1       8.034  -1.553 -26.675  1.00  0.00     0.041 C 
HETATM    3  C5  UNL     1       8.167  -1.031 -28.113  1.00  0.00     0.025 C 
HETATM    4  C6  UNL     1       8.181  -2.092 -29.131  1.00  0.00     0.013 C 
HETATM    5  C7  UNL     1       9.180   0.017 -28.062  1.00  0.00     0.136 C 
HETATM    6  O3  UNL     1       9.514   0.412 -29.391  1.00  0.00    -0.225 OA
HETATM    7  O4  UNL     1      10.493   1.270 -29.301  1.00  0.00    -0.223 OA
HETATM    8  C8  UNL     1      11.118   1.175 -28.091  1.00  0.00     0.161 C 
HETATM    9  C9  UNL     1      12.584   1.255 -28.052  1.00  0.00     0.056 C 
HETATM   10  C10 UNL     1      10.521  -0.142 -27.550  1.00  0.00     0.092 C 
HETATM   11  C16 UNL     1      10.561   2.297 -27.239  1.00  0.00     0.229 C 
HETATM   12  C17 UNL     1      10.576   3.555 -28.110  1.00  0.00     0.085 C 
HETATM   13  O5  UNL     1      11.382   2.580 -26.120  1.00  0.00    -0.196 OA
HETATM   14  O6  UNL     1      11.046   1.961 -25.049  1.00  0.00    -0.217 OA
HETATM   15  C18 UNL     1       9.969   2.414 -24.339  1.00  0.00     0.256 C 
HETATM   16 CL1  UNL     1      10.590   2.794 -22.689  1.00  0.00    -0.092 Cl
HETATM   17  C19 UNL     1       8.851   1.363 -24.236  1.00  0.00     0.052 C 
HETATM   18  C20 UNL     1       7.668   1.661 -25.019  1.00  0.00     0.018 C 
HETATM   19  C21 UNL     1       7.466   0.893 -26.344  1.00  0.00     0.012 C 
HETATM   20  C22 UNL     1       6.151   1.579 -26.785  1.00  0.00     0.020 C 
HETATM   21  C23 UNL     1       8.502   1.204 -27.362  1.00  0.00     0.174 C 
HETATM   22  O7  UNL     1       9.332   2.097 -26.785  1.00  0.00    -0.341 OA
ENDROOT
BRANCH  10  23
HETATM   23  C11 UNL     1      11.427  -1.239 -27.798  1.00  0.00    -0.015 C 
BRANCH  23  24
HETATM   24  C12 UNL     1      11.243  -2.562 -27.217  1.00  0.00    -0.002 C 
HETATM   25  C13 UNL     1      11.368  -3.625 -27.992  1.00  0.00    -0.088 C 
HETATM   26  C14 UNL     1      11.191  -4.983 -27.424  1.00  0.00     0.043 C 
HETATM   27  C15 UNL     1      11.642  -3.495 -29.426  1.00  0.00     0.043 C 
ENDBRANCH  23  24
ENDBRANCH  10  23
BRANCH   1  28
HETATM   28  O2  UNL     1       7.075  -0.746 -24.602  1.00  0.00    -0.315 OA
BRANCH  28  29
HETATM   29  C2  UNL     1       5.923  -1.189 -23.970  1.00  0.00     0.255 C 
HETATM   30  C1  UNL     1       5.204  -0.437 -22.925  1.00  0.00     0.126 C 
HETATM   31  O1  UNL     1       5.462  -2.308 -24.313  1.00  0.00    -0.266 OA
ENDBRANCH  28  29
ENDBRANCH   1  28
TORSDOF 4
ENDMDL
MODEL 5
REMARK VINA RESULT: -6.484204301      2.252      5.580
REMARK  4 active torsions:
REMARK  status: ('A' for Active; 'I' for Inactive)
REMARK    1  A    between atoms: C2_2  and  O2_4 
REMARK    2  A    between atoms: O2_4  and  C3_5 
REMARK    3  A    between atoms: C10_14  and  C11_15 
REMARK    4  A    between atoms: C11_15  and  C12_16 
ROOT
HETATM    1  C3  UNL     1      10.412   1.967 -28.152  1.00  0.00     0.143 C 
HETATM    2  C4  UNL     1       9.883   2.359 -26.770  1.00  0.00     0.041 C 
HETATM    3  C5  UNL     1       8.392   2.608 -27.038  1.00  0.00     0.025 C 
HETATM    4  C6  UNL     1       7.827   3.720 -26.260  1.00  0.00     0.013 C 
HETATM    5  C7  UNL     1       7.771   1.288 -27.082  1.00  0.00     0.136 C 
HETATM    6  O3  UNL     1       6.353   1.437 -27.119  1.00  0.00    -0.225 OA
HETATM    7  O4  UNL     1       5.840   0.239 -27.051  1.00  0.00    -0.223 OA
HETATM    8  C8  UNL     1       6.747  -0.654 -26.556  1.00  0.00     0.161 C 
HETATM    9  C9  UNL     1       6.284  -1.660 -25.591  1.00  0.00     0.056 C 
HETATM   10  C10 UNL     1       7.848   0.295 -26.036  1.00  0.00     0.092 C 
HETATM   11  C16 UNL     1       7.320  -1.381 -27.756  1.00  0.00     0.229 C 
HETATM   12  C17 UNL     1       6.131  -1.771 -28.638  1.00  0.00     0.085 C 
HETATM   13  O5  UNL     1       7.959  -2.592 -27.396  1.00  0.00    -0.196 OA
HETATM   14  O6  UNL     1       9.221  -2.483 -27.196  1.00  0.00    -0.217 OA
HETATM   15  C18 UNL     1      10.052  -2.398 -28.279  1.00  0.00     0.256 C 
HETATM   16 CL1  UNL     1      11.197  -3.784 -28.132  1.00  0.00    -0.092 Cl
HETATM   17  C19 UNL     1      10.843  -1.081 -28.309  1.00  0.00     0.052 C 
HETATM   18  C20 UNL     1      10.431  -0.151 -29.341  1.00  0.00     0.018 C 
HETATM   19  C21 UNL     1       9.566   1.058 -28.921  1.00  0.00     0.012 C 
HETATM   20  C22 UNL     1       9.373   1.676 -30.327  1.00  0.00     0.020 C 
HETATM   21  C23 UNL     1       8.227   0.668 -28.411  1.00  0.00     0.174 C 
HETATM   22  O7  UNL     1       8.184  -0.678 -28.475  1.00  0.00    -0.341 OA
ENDROOT
BRANCH  10  23
HETATM   23  C11 UNL     1       7.692   0.508 -24.616  1.00  0.00    -0.015 C 
BRANCH  23  24
HETATM   24  C12 UNL     1       8.794   0.908 -23.752  1.00  0.00    -0.002 C 
HETATM   25  C13 UNL     1       8.641   1.958 -22.964  1.00  0.00    -0.088 C 
HETATM   26  C14 UNL     1       9.745   2.384 -22.071  1.00  0.00     0.043 C 
HETATM   27  C15 UNL     1       7.406   2.748 -22.978  1.00  0.00     0.043 C 
ENDBRANCH  23  24
ENDBRANCH  10  23
BRANCH   1  28
HETATM   28  O2  UNL     1      11.774   1.526 -28.036  1.00  0.00    -0.315 OA
BRANCH  28  29
HETATM   29  C2  UNL     1      12.832   2.387 -27.789  1.00  0.00     0.255 C 
HETATM   30  C1  UNL     1      12.986   3.717 -28.407  1.00  0.00     0.126 C 
HETATM   31  O1  UNL     1      13.719   2.006 -26.982  1.00  0.00    -0.266 OA
ENDBRANCH  28  29
ENDBRANCH   1  28
TORSDOF 4
ENDMDL
