MODEL 1
REMARK VINA RESULT: -8.190998318      0.000      0.000
REMARK  3 active torsions:
REMARK  status: ('A' for Active; 'I' for Inactive)
REMARK    1  A    between atoms: C4_6  and  N1_7 
REMARK    2  A    between atoms: N2_11  and  C8_12 
REMARK    3  A    between atoms: C19_28  and  N5_29 
ROOT
HETATM    1  F1  UNL     1       2.223  -7.194 -33.792  1.00  0.00    -0.202 F 
HETATM    2  C1  UNL     1       2.939  -6.505 -32.890  1.00  0.00     0.161 A 
HETATM    3  C2  UNL     1       4.273  -6.203 -33.089  1.00  0.00     0.069 A 
HETATM    4  C3  UNL     1       4.972  -5.475 -32.112  1.00  0.00     0.055 A 
HETATM    5  S1  UNL     1       6.571  -4.871 -31.929  1.00  0.00    -0.050 SA
HETATM    6  C4  UNL     1       6.393  -4.115 -30.406  1.00  0.00     0.149 A 
HETATM    7  N3  UNL     1       5.129  -4.365 -30.125  1.00  0.00    -0.322 N 
ATOM      8  H3  UNL     1       4.727  -4.025 -29.251  1.00  0.00     0.169 HD
HETATM    9  C18 UNL     1       4.394  -5.039 -30.950  1.00  0.00     0.126 A 
HETATM   10  N4  UNL     1       3.059  -5.354 -30.775  1.00  0.00    -0.325 N 
ATOM     11  H4  UNL     1       2.574  -5.056 -29.929  1.00  0.00     0.169 HD
HETATM   12  C19 UNL     1       2.405  -6.043 -31.708  1.00  0.00     0.144 A 
ENDROOT
BRANCH   6  13
HETATM   13  N1  UNL     1       7.358  -3.359 -29.644  1.00  0.00    -0.360 N 
HETATM   14  C5  UNL     1       8.554  -4.100 -29.245  1.00  0.00     0.126 C 
HETATM   15  C6  UNL     1       9.626  -3.056 -28.996  1.00  0.00     0.040 C 
HETATM   16  C7  UNL     1       9.549  -2.483 -27.625  1.00  0.00     0.125 C 
HETATM   17  N2  UNL     1       8.331  -1.750 -27.335  1.00  0.00    -0.374 N 
HETATM   18  C16 UNL     1       7.015  -1.754 -27.868  1.00  0.00     0.143 C 
HETATM   19  C17 UNL     1       7.017  -2.003 -29.383  1.00  0.00     0.145 C 
BRANCH  17  20
HETATM   20  C8  UNL     1       8.555  -0.829 -26.239  1.00  0.00     0.073 A 
HETATM   21  C9  UNL     1       9.649  -0.096 -25.909  1.00  0.00     0.050 A 
HETATM   22  C10 UNL     1       9.579   0.696 -24.819  1.00  0.00    -0.016 A 
HETATM   23  C11 UNL     1      10.592   1.530 -24.306  1.00  0.00     0.013 A 
HETATM   24  C15 UNL     1       8.405   0.701 -24.125  1.00  0.00     0.017 A 
HETATM   25  C12 UNL     1      10.417   2.291 -23.189  1.00  0.00     0.001 A 
HETATM   26  C13 UNL     1       9.230   2.294 -22.491  1.00  0.00     0.001 A 
HETATM   27  C14 UNL     1       8.227   1.488 -22.973  1.00  0.00     0.020 A 
HETATM   28  S2  UNL     1       7.431  -0.392 -25.000  1.00  0.00    -0.072 SA
ENDBRANCH  17  20
ENDBRANCH   6  13
BRANCH  12  29
HETATM   29  N5  UNL     1       1.014  -6.350 -31.514  1.00  0.00    -0.365 N 
HETATM   30  C20 UNL     1       0.407  -7.617 -31.154  1.00  0.00     0.124 C 
HETATM   31  C21 UNL     1      -0.772  -7.214 -30.286  1.00  0.00     0.021 C 
HETATM   32  C22 UNL     1      -0.818  -5.703 -30.321  1.00  0.00     0.021 C 
HETATM   33  C23 UNL     1      -0.093  -5.425 -31.643  1.00  0.00     0.124 C 
ENDBRANCH  12  29
TORSDOF 3
ENDMDL
MODEL 2
REMARK VINA RESULT: -8.089301806      6.672     11.940
REMARK  3 active torsions:
REMARK  status: ('A' for Active; 'I' for Inactive)
REMARK    1  A    between atoms: C4_6  and  N1_7 
REMARK    2  A    between atoms: N2_11  and  C8_12 
REMARK    3  A    between atoms: C19_28  and  N5_29 
ROOT
HETATM    1  F1  UNL     1      11.407   5.726 -22.953  1.00  0.00    -0.202 F 
HETATM    2  C1  UNL     1      10.972   4.561 -23.458  1.00  0.00     0.161 A 
HETATM    3  C2  UNL     1      11.433   4.068 -24.664  1.00  0.00     0.069 A 
HETATM    4  C3  UNL     1      10.945   2.841 -25.143  1.00  0.00     0.055 A 
HETATM    5  S1  UNL     1      11.222   1.854 -26.523  1.00  0.00    -0.050 SA
HETATM    6  C4  UNL     1      10.153   0.573 -26.148  1.00  0.00     0.149 A 
HETATM    7  N3  UNL     1       9.648   0.969 -24.996  1.00  0.00    -0.322 N 
ATOM      8  H3  UNL     1       8.960   0.387 -24.517  1.00  0.00     0.169 HD
HETATM    9  C18 UNL     1      10.019   2.092 -24.468  1.00  0.00     0.126 A 
HETATM   10  N4  UNL     1       9.574   2.607 -23.265  1.00  0.00    -0.325 N 
ATOM     11  H4  UNL     1       8.883   2.094 -22.717  1.00  0.00     0.169 HD
HETATM   12  C19 UNL     1      10.044   3.770 -22.819  1.00  0.00     0.144 A 
ENDROOT
BRANCH   6  13
HETATM   13  N1  UNL     1       9.901  -0.648 -26.876  1.00  0.00    -0.360 N 
HETATM   14  C5  UNL     1       8.522  -1.132 -26.821  1.00  0.00     0.126 C 
HETATM   15  C6  UNL     1       8.343  -2.018 -28.038  1.00  0.00     0.040 C 
HETATM   16  C7  UNL     1       8.818  -3.408 -27.800  1.00  0.00     0.125 C 
HETATM   17  N2  UNL     1      10.238  -3.533 -27.532  1.00  0.00    -0.374 N 
HETATM   18  C16 UNL     1      11.243  -2.652 -27.050  1.00  0.00     0.143 C 
HETATM   19  C17 UNL     1      11.021  -1.215 -27.543  1.00  0.00     0.145 C 
BRANCH  17  20
HETATM   20  C8  UNL     1      10.683  -4.880 -27.827  1.00  0.00     0.073 A 
HETATM   21  C9  UNL     1      10.054  -5.898 -28.468  1.00  0.00     0.050 A 
HETATM   22  C10 UNL     1      10.716  -7.066 -28.608  1.00  0.00    -0.016 A 
HETATM   23  C11 UNL     1      10.249  -8.238 -29.235  1.00  0.00     0.013 A 
HETATM   24  C15 UNL     1      11.976  -7.136 -28.092  1.00  0.00     0.017 A 
HETATM   25  C12 UNL     1      11.002  -9.372 -29.320  1.00  0.00     0.001 A 
HETATM   26  C13 UNL     1      12.274  -9.439 -28.797  1.00  0.00     0.001 A 
HETATM   27  C14 UNL     1      12.750  -8.307 -28.181  1.00  0.00     0.020 A 
HETATM   28  S2  UNL     1      12.210  -5.584 -27.425  1.00  0.00    -0.072 SA
ENDBRANCH  17  20
ENDBRANCH   6  13
BRANCH  12  29
HETATM   29  N5  UNL     1       9.577   4.285 -21.560  1.00  0.00    -0.365 N 
HETATM   30  C20 UNL     1      10.118   4.062 -20.234  1.00  0.00     0.124 C 
HETATM   31  C21 UNL     1       9.878   5.384 -19.524  1.00  0.00     0.021 C 
HETATM   32  C22 UNL     1       9.086   6.237 -20.489  1.00  0.00     0.021 C 
HETATM   33  C23 UNL     1       8.437   5.155 -21.361  1.00  0.00     0.124 C 
ENDBRANCH  12  29
TORSDOF 3
ENDMDL
MODEL 3
REMARK VINA RESULT: -8.060518773      6.252     11.764
REMARK  3 active torsions:
REMARK  status: ('A' for Active; 'I' for Inactive)
REMARK    1  A    between atoms: C4_6  and  N1_7 
REMARK    2  A    between atoms: N2_11  and  C8_12 
REMARK    3  A    between atoms: C19_28  and  N5_29 
ROOT
HETATM    1  F1  UNL     1       9.314   6.093 -23.716  1.00  0.00    -0.202 F 
HETATM    2  C1  UNL     1       9.412   4.829 -24.154  1.00  0.00     0.161 A 
HETATM    3  C2  UNL     1       8.786   4.402 -25.310  1.00  0.00     0.069 A 
HETATM    4  C3  UNL     1       8.927   3.067 -25.723  1.00  0.00     0.055 A 
HETATM    5  S1  UNL     1       8.374   2.116 -27.044  1.00  0.00    -0.050 SA
HETATM    6  C4  UNL     1       9.114   0.632 -26.626  1.00  0.00     0.149 A 
HETATM    7  N3  UNL     1       9.738   0.945 -25.507  1.00  0.00    -0.322 N 
ATOM      8  H3  UNL     1      10.282   0.236 -25.015  1.00  0.00     0.169 HD
HETATM    9  C18 UNL     1       9.665   2.146 -25.029  1.00  0.00     0.126 A 
HETATM   10  N4  UNL     1      10.282   2.598 -23.877  1.00  0.00    -0.325 N 
ATOM     11  H4  UNL     1      10.845   1.957 -23.318  1.00  0.00     0.169 HD
HETATM   12  C19 UNL     1      10.143   3.866 -23.496  1.00  0.00     0.144 A 
ENDROOT
BRANCH   6  13
HETATM   13  N1  UNL     1       9.101  -0.625 -27.335  1.00  0.00    -0.360 N 
HETATM   14  C5  UNL     1       7.781  -1.235 -27.496  1.00  0.00     0.126 C 
HETATM   15  C6  UNL     1       7.895  -2.165 -28.689  1.00  0.00     0.040 C 
HETATM   16  C7  UNL     1       8.442  -3.498 -28.315  1.00  0.00     0.125 C 
HETATM   17  N2  UNL     1       9.800  -3.482 -27.805  1.00  0.00    -0.374 N 
HETATM   18  C16 UNL     1      10.624  -2.498 -27.195  1.00  0.00     0.143 C 
HETATM   19  C17 UNL     1      10.365  -1.101 -27.778  1.00  0.00     0.145 C 
BRANCH  17  20
HETATM   20  C8  UNL     1      10.405  -4.787 -27.964  1.00  0.00     0.073 A 
HETATM   21  C9  UNL     1       9.951  -5.903 -28.591  1.00  0.00     0.050 A 
HETATM   22  C10 UNL     1      10.739  -6.999 -28.588  1.00  0.00    -0.016 A 
HETATM   23  C11 UNL     1      10.459  -8.249 -29.174  1.00  0.00     0.013 A 
HETATM   24  C15 UNL     1      11.941  -6.904 -27.951  1.00  0.00     0.017 A 
HETATM   25  C12 UNL     1      11.327  -9.298 -29.110  1.00  0.00     0.001 A 
HETATM   26  C13 UNL     1      12.540  -9.198 -28.466  1.00  0.00     0.001 A 
HETATM   27  C14 UNL     1      12.834  -7.988 -27.887  1.00  0.00     0.020 A 
HETATM   28  S2  UNL     1      11.948  -5.300 -27.372  1.00  0.00    -0.072 SA
ENDBRANCH  17  20
ENDBRANCH   6  13
BRANCH  12  29
HETATM   29  N5  UNL     1      10.802   4.320 -22.301  1.00  0.00    -0.365 N 
HETATM   30  C20 UNL     1      12.000   5.126 -22.177  1.00  0.00     0.124 C 
HETATM   31  C21 UNL     1      11.736   5.970 -20.942  1.00  0.00     0.021 C 
HETATM   32  C22 UNL     1      10.425   5.476 -20.372  1.00  0.00     0.021 C 
HETATM   33  C23 UNL     1      10.385   4.052 -20.940  1.00  0.00     0.124 C 
ENDBRANCH  12  29
TORSDOF 3
ENDMDL
MODEL 4
REMARK VINA RESULT: -8.010906937      0.686      1.091
REMARK  3 active torsions:
REMARK  status: ('A' for Active; 'I' for Inactive)
REMARK    1  A    between atoms: C4_6  and  N1_7 
REMARK    2  A    between atoms: N2_11  and  C8_12 
REMARK    3  A    between atoms: C19_28  and  N5_29 
ROOT
HETATM    1  F1  UNL     1       1.966  -7.188 -33.807  1.00  0.00    -0.202 F 
HETATM    2  C1  UNL     1       2.740  -6.537 -32.925  1.00  0.00     0.161 A 
HETATM    3  C2  UNL     1       4.067  -6.253 -33.184  1.00  0.00     0.069 A 
HETATM    4  C3  UNL     1       4.828  -5.564 -32.225  1.00  0.00     0.055 A 
HETATM    5  S1  UNL     1       6.446  -4.994 -32.108  1.00  0.00    -0.050 SA
HETATM    6  C4  UNL     1       6.359  -4.278 -30.557  1.00  0.00     0.149 A 
HETATM    7  N3  UNL     1       5.107  -4.514 -30.218  1.00  0.00    -0.322 N 
ATOM      8  H3  UNL     1       4.757  -4.192 -29.316  1.00  0.00     0.169 HD
HETATM    9  C18 UNL     1       4.319  -5.152 -31.023  1.00  0.00     0.126 A 
HETATM   10  N4  UNL     1       2.989  -5.448 -30.789  1.00  0.00    -0.325 N 
ATOM     11  H4  UNL     1       2.553  -5.167 -29.911  1.00  0.00     0.169 HD
HETATM   12  C19 UNL     1       2.275  -6.099 -31.705  1.00  0.00     0.144 A 
ENDROOT
BRANCH   6  13
HETATM   13  N1  UNL     1       7.376  -3.560 -29.826  1.00  0.00    -0.360 N 
HETATM   14  C5  UNL     1       8.521  -4.365 -29.400  1.00  0.00     0.126 C 
HETATM   15  C6  UNL     1       9.662  -3.388 -29.192  1.00  0.00     0.040 C 
HETATM   16  C7  UNL     1       9.628  -2.758 -27.844  1.00  0.00     0.125 C 
HETATM   17  N2  UNL     1       8.464  -1.935 -27.581  1.00  0.00    -0.374 N 
HETATM   18  C16 UNL     1       7.148  -1.869 -28.112  1.00  0.00     0.143 C 
HETATM   19  C17 UNL     1       7.129  -2.176 -29.617  1.00  0.00     0.145 C 
BRANCH  17  20
HETATM   20  C8  UNL     1       8.753  -0.990 -26.522  1.00  0.00     0.073 A 
HETATM   21  C9  UNL     1       7.970  -0.522 -25.516  1.00  0.00     0.050 A 
HETATM   22  C10 UNL     1       8.508   0.366 -24.653  1.00  0.00    -0.016 A 
HETATM   23  C11 UNL     1       7.873   0.971 -23.550  1.00  0.00     0.013 A 
HETATM   24  C15 UNL     1       9.806   0.730 -24.857  1.00  0.00     0.017 A 
HETATM   25  C12 UNL     1       8.509   1.862 -22.738  1.00  0.00     0.001 A 
HETATM   26  C13 UNL     1       9.821   2.227 -22.948  1.00  0.00     0.001 A 
HETATM   27  C14 UNL     1      10.459   1.650 -24.018  1.00  0.00     0.020 A 
HETATM   28  S2  UNL     1      10.247  -0.166 -26.239  1.00  0.00    -0.072 SA
ENDBRANCH  17  20
ENDBRANCH   6  13
BRANCH  12  29
HETATM   29  N5  UNL     1       0.890  -6.388 -31.447  1.00  0.00    -0.365 N 
HETATM   30  C20 UNL     1       0.276  -7.658 -31.113  1.00  0.00     0.124 C 
HETATM   31  C21 UNL     1      -0.845  -7.273 -30.162  1.00  0.00     0.021 C 
HETATM   32  C22 UNL     1      -0.859  -5.761 -30.127  1.00  0.00     0.021 C 
HETATM   33  C23 UNL     1      -0.202  -5.437 -31.474  1.00  0.00     0.124 C 
ENDBRANCH  12  29
TORSDOF 3
ENDMDL
MODEL 5
REMARK VINA RESULT: -7.971745676      7.079     13.051
REMARK  3 active torsions:
REMARK  status: ('A' for Active; 'I' for Inactive)
REMARK    1  A    between atoms: C4_6  and  N1_7 
REMARK    2  A    between atoms: N2_11  and  C8_12 
REMARK    3  A    between atoms: C19_28  and  N5_29 
ROOT
HETATM    1  F1  UNL     1      14.255   6.390 -25.516  1.00  0.00    -0.202 F 
HETATM    2  C1  UNL     1      13.896   5.171 -25.948  1.00  0.00     0.161 A 
HETATM    3  C2  UNL     1      12.630   4.661 -25.732  1.00  0.00     0.069 A 
HETATM    4  C3  UNL     1      12.309   3.380 -26.210  1.00  0.00     0.055 A 
HETATM    5  S1  UNL     1      10.918   2.369 -26.200  1.00  0.00    -0.050 SA
HETATM    6  C4  UNL     1      11.558   1.034 -27.055  1.00  0.00     0.149 A 
HETATM    7  N3  UNL     1      12.792   1.433 -27.298  1.00  0.00    -0.322 N 
ATOM      8  H3  UNL     1      13.430   0.824 -27.810  1.00  0.00     0.169 HD
HETATM    9  C18 UNL     1      13.198   2.593 -26.892  1.00  0.00     0.126 A 
HETATM   10  N4  UNL     1      14.457   3.127 -27.095  1.00  0.00    -0.325 N 
ATOM     11  H4  UNL     1      15.162   2.587 -27.596  1.00  0.00     0.169 HD
HETATM   12  C19 UNL     1      14.751   4.343 -26.639  1.00  0.00     0.144 A 
ENDROOT
BRANCH   6  13
HETATM   13  N1  UNL     1      10.908  -0.193 -27.450  1.00  0.00    -0.360 N 
HETATM   14  C5  UNL     1       9.626  -0.456 -26.798  1.00  0.00     0.126 C 
HETATM   15  C6  UNL     1       8.880  -1.407 -27.715  1.00  0.00     0.040 C 
HETATM   16  C7  UNL     1       9.263  -2.827 -27.488  1.00  0.00     0.125 C 
HETATM   17  N2  UNL     1      10.649  -3.142 -27.778  1.00  0.00    -0.374 N 
HETATM   18  C16 UNL     1      11.849  -2.385 -27.851  1.00  0.00     0.143 C 
HETATM   19  C17 UNL     1      11.599  -0.978 -28.414  1.00  0.00     0.145 C 
BRANCH  17  20
HETATM   20  C8  UNL     1      10.793  -4.560 -28.032  1.00  0.00     0.073 A 
HETATM   21  C9  UNL     1      11.753  -5.436 -27.638  1.00  0.00     0.050 A 
HETATM   22  C10 UNL     1      11.634  -6.725 -28.022  1.00  0.00    -0.016 A 
HETATM   23  C11 UNL     1      12.513  -7.785 -27.726  1.00  0.00     0.013 A 
HETATM   24  C15 UNL     1      10.551  -7.053 -28.782  1.00  0.00     0.017 A 
HETATM   25  C12 UNL     1      12.301  -9.057 -28.168  1.00  0.00     0.001 A 
HETATM   26  C13 UNL     1      11.205  -9.385 -28.935  1.00  0.00     0.001 A 
HETATM   27  C14 UNL     1      10.334  -8.366 -29.237  1.00  0.00     0.020 A 
HETATM   28  S2  UNL     1       9.727  -5.569 -28.946  1.00  0.00    -0.072 SA
ENDBRANCH  17  20
ENDBRANCH   6  13
BRANCH  12  29
HETATM   29  N5  UNL     1      16.062   4.886 -26.871  1.00  0.00    -0.365 N 
HETATM   30  C20 UNL     1      16.489   5.817 -27.896  1.00  0.00     0.124 C 
HETATM   31  C21 UNL     1      17.552   6.650 -27.201  1.00  0.00     0.021 C 
HETATM   32  C22 UNL     1      17.739   6.031 -25.834  1.00  0.00     0.021 C 
HETATM   33  C23 UNL     1      17.254   4.600 -26.100  1.00  0.00     0.124 C 
ENDBRANCH  12  29
TORSDOF 3
ENDMDL
