MODEL 1
REMARK VINA RESULT: -6.907873946      0.000      0.000
REMARK  7 active torsions:
REMARK  status: ('A' for Active; 'I' for Inactive)
REMARK    1  A    between atoms: C5_5  and  C7_7 
REMARK    2  A    between atoms: N1_13  and  C10_14 
REMARK    3  A    between atoms: C10_14  and  O1_15 
REMARK    4  A    between atoms: C10_14  and  C11_17 
REMARK    5  A    between atoms: C11_17  and  C12_18 
REMARK    6  A    between atoms: C12_18  and  C13_19 
REMARK    7  A    between atoms: C16_22  and  N2_23 
ROOT
HETATM    1  C7  UNL     1       8.408   0.723 -27.583  1.00  0.00     0.105 C 
HETATM    2  C8  UNL     1       8.318   0.418 -29.090  1.00  0.00     0.053 C 
HETATM    3  S1  UNL     1       7.663   2.410 -27.510  1.00  0.00    -0.057 SA
HETATM    4  S2  UNL     1       6.283   1.957 -25.904  1.00  0.00    -0.025 SA
HETATM    5  C9  UNL     1       7.018   0.315 -25.697  1.00  0.00     0.154 C 
HETATM    6  S3  UNL     1       7.129  -0.395 -24.209  1.00  0.00    -0.051 SA
HETATM    7  N1  UNL     1       7.493  -0.185 -26.937  1.00  0.00    -0.292 N 
ENDROOT
BRANCH   7   8
HETATM    8  C10 UNL     1       7.177  -1.485 -27.404  1.00  0.00     0.145 C 
BRANCH   8   9
HETATM    9  O1  UNL     1       5.941  -1.668 -27.838  1.00  0.00    -0.346 OA
ATOM     10  H1  UNL     1       5.846  -1.885 -28.758  1.00  0.00     0.219 HD
ENDBRANCH   8   9
BRANCH   8  11
HETATM   11  C11 UNL     1       7.930  -2.685 -27.507  1.00  0.00     0.059 C 
BRANCH  11  12
HETATM   12  C12 UNL     1       8.369  -3.296 -28.563  1.00  0.00     0.041 C 
BRANCH  12  13
HETATM   13  C13 UNL     1       9.821  -3.499 -28.782  1.00  0.00     0.078 A 
HETATM   14  C14 UNL     1      10.633  -2.696 -29.535  1.00  0.00     0.042 A 
HETATM   15  C15 UNL     1      11.891  -3.258 -29.460  1.00  0.00     0.065 A 
HETATM   16  C16 UNL     1      11.718  -4.381 -28.646  1.00  0.00     0.215 A 
HETATM   17  O4  UNL     1      10.483  -4.493 -28.263  1.00  0.00    -0.289 OA
BRANCH  16  18
HETATM   18  N2  UNL     1      12.780  -5.252 -28.310  1.00  0.00    -0.090 N 
HETATM   19  O2  UNL     1      12.704  -6.446 -28.630  1.00  0.00    -0.530 OA
HETATM   20  O3  UNL     1      13.903  -4.835 -27.638  1.00  0.00    -0.530 OA
ENDBRANCH  16  18
ENDBRANCH  12  13
ENDBRANCH  11  12
ENDBRANCH   8  11
ENDBRANCH   7   8
BRANCH   1  21
HETATM   21  C5  UNL     1       9.817   0.760 -27.185  1.00  0.00     0.009 C 
HETATM   22  C4  UNL     1      10.611   0.823 -28.521  1.00  0.00     0.014 C 
HETATM   23  C3  UNL     1      12.104   0.709 -28.235  1.00  0.00     0.005 C 
HETATM   24  C2  UNL     1      12.519   1.839 -27.318  1.00  0.00    -0.017 C 
HETATM   25  C1  UNL     1      13.631   2.676 -27.940  1.00  0.00     0.010 C 
HETATM   26  C18 UNL     1      11.383   2.755 -27.015  1.00  0.00     0.025 C 
HETATM   27  C17 UNL     1      10.265   1.944 -26.360  1.00  0.00     0.094 C 
HETATM   28 CL1  UNL     1      10.946   1.397 -24.807  1.00  0.00    -0.124 Cl
HETATM   29  C6  UNL     1      10.272  -0.477 -26.473  1.00  0.00     0.020 C 
ENDBRANCH   1  21
TORSDOF 7
ENDMDL
MODEL 2
REMARK VINA RESULT: -6.864472930      2.603      4.725
REMARK  7 active torsions:
REMARK  status: ('A' for Active; 'I' for Inactive)
REMARK    1  A    between atoms: C5_5  and  C7_7 
REMARK    2  A    between atoms: N1_13  and  C10_14 
REMARK    3  A    between atoms: C10_14  and  O1_15 
REMARK    4  A    between atoms: C10_14  and  C11_17 
REMARK    5  A    between atoms: C11_17  and  C12_18 
REMARK    6  A    between atoms: C12_18  and  C13_19 
REMARK    7  A    between atoms: C16_22  and  N2_23 
ROOT
HETATM    1  C7  UNL     1       8.632   1.087 -25.541  1.00  0.00     0.105 C 
HETATM    2  C8  UNL     1       9.546   0.939 -24.311  1.00  0.00     0.053 C 
HETATM    3  S1  UNL     1       8.197   2.880 -25.456  1.00  0.00    -0.057 SA
HETATM    4  S2  UNL     1       8.687   3.310 -27.520  1.00  0.00    -0.025 SA
HETATM    5  C9  UNL     1       8.977   1.553 -27.848  1.00  0.00     0.154 C 
HETATM    6  S3  UNL     1       8.614   0.881 -29.314  1.00  0.00    -0.051 SA
HETATM    7  N1  UNL     1       9.480   0.901 -26.693  1.00  0.00    -0.292 N 
ENDROOT
BRANCH   7   8
HETATM    8  C10 UNL     1      10.627   0.069 -26.727  1.00  0.00     0.145 C 
BRANCH   8   9
HETATM    9  O1  UNL     1      11.797   0.680 -26.647  1.00  0.00    -0.346 OA
ATOM     10  H1  UNL     1      12.447   0.431 -27.293  1.00  0.00     0.219 HD
ENDBRANCH   8   9
BRANCH   8  11
HETATM   11  C11 UNL     1      10.799  -1.336 -26.840  1.00  0.00     0.059 C 
BRANCH  11  12
HETATM   12  C12 UNL     1      11.373  -2.026 -27.775  1.00  0.00     0.041 C 
BRANCH  12  13
HETATM   13  C13 UNL     1      11.323  -3.507 -27.776  1.00  0.00     0.078 A 
HETATM   14  C14 UNL     1      10.185  -4.266 -27.805  1.00  0.00     0.042 A 
HETATM   15  C15 UNL     1      10.609  -5.579 -27.793  1.00  0.00     0.065 A 
HETATM   16  C16 UNL     1      12.003  -5.491 -27.757  1.00  0.00     0.215 A 
HETATM   17  O4  UNL     1      12.391  -4.252 -27.747  1.00  0.00    -0.289 OA
BRANCH  16  18
HETATM   18  N2  UNL     1      12.841  -6.630 -27.734  1.00  0.00    -0.090 N 
HETATM   19  O2  UNL     1      14.032  -6.507 -28.048  1.00  0.00    -0.530 OA
HETATM   20  O3  UNL     1      12.394  -7.878 -27.376  1.00  0.00    -0.530 OA
ENDBRANCH  16  18
ENDBRANCH  12  13
ENDBRANCH  11  12
ENDBRANCH   8  11
ENDBRANCH   7   8
BRANCH   1  21
HETATM   21  C5  UNL     1       7.442   0.255 -25.357  1.00  0.00     0.009 C 
HETATM   22  C4  UNL     1       7.414  -0.078 -23.838  1.00  0.00     0.014 C 
HETATM   23  C3  UNL     1       6.296  -1.074 -23.553  1.00  0.00     0.005 C 
HETATM   24  C2  UNL     1       4.977  -0.475 -23.987  1.00  0.00    -0.017 C 
HETATM   25  C1  UNL     1       3.985  -0.422 -22.831  1.00  0.00     0.010 C 
HETATM   26  C18 UNL     1       5.141   0.915 -24.502  1.00  0.00     0.025 C 
HETATM   27  C17 UNL     1       6.107   0.885 -25.686  1.00  0.00     0.094 C 
HETATM   28 CL1  UNL     1       5.267  -0.061 -26.940  1.00  0.00    -0.124 Cl
HETATM   29  C6  UNL     1       7.507  -1.054 -26.083  1.00  0.00     0.020 C 
ENDBRANCH   1  21
TORSDOF 7
ENDMDL
MODEL 3
REMARK VINA RESULT: -6.852624384      2.516      4.585
REMARK  7 active torsions:
REMARK  status: ('A' for Active; 'I' for Inactive)
REMARK    1  A    between atoms: C5_5  and  C7_7 
REMARK    2  A    between atoms: N1_13  and  C10_14 
REMARK    3  A    between atoms: C10_14  and  O1_15 
REMARK    4  A    between atoms: C10_14  and  C11_17 
REMARK    5  A    between atoms: C11_17  and  C12_18 
REMARK    6  A    between atoms: C12_18  and  C13_19 
REMARK    7  A    between atoms: C16_22  and  N2_23 
ROOT
HETATM    1  C7  UNL     1       7.925  -1.090 -27.070  1.00  0.00     0.105 C 
HETATM    2  C8  UNL     1       7.817  -2.626 -27.046  1.00  0.00     0.053 C 
HETATM    3  S1  UNL     1       7.191  -0.649 -25.435  1.00  0.00    -0.057 SA
HETATM    4  S2  UNL     1       8.811   0.650 -24.824  1.00  0.00    -0.025 SA
HETATM    5  C9  UNL     1       9.592   0.489 -26.451  1.00  0.00     0.154 C 
HETATM    6  S3  UNL     1      10.421   1.746 -27.133  1.00  0.00    -0.051 SA
HETATM    7  N1  UNL     1       9.334  -0.789 -27.010  1.00  0.00    -0.292 N 
ENDROOT
BRANCH   7   8
HETATM    8  C10 UNL     1      10.360  -1.605 -27.547  1.00  0.00     0.145 C 
BRANCH   8   9
HETATM    9  O1  UNL     1      11.247  -2.076 -26.685  1.00  0.00    -0.346 OA
ATOM     10  H1  UNL     1      10.897  -2.509 -25.916  1.00  0.00     0.219 HD
ENDBRANCH   8   9
BRANCH   8  11
HETATM   11  C11 UNL     1      10.658  -2.041 -28.865  1.00  0.00     0.059 C 
BRANCH  11  12
HETATM   12  C12 UNL     1      10.355  -3.156 -29.454  1.00  0.00     0.041 C 
BRANCH  12  13
HETATM   13  C13 UNL     1      10.697  -4.462 -28.843  1.00  0.00     0.078 A 
HETATM   14  C14 UNL     1       9.804  -5.354 -28.315  1.00  0.00     0.042 A 
HETATM   15  C15 UNL     1      10.558  -6.418 -27.864  1.00  0.00     0.065 A 
HETATM   16  C16 UNL     1      11.874  -6.062 -28.169  1.00  0.00     0.215 A 
HETATM   17  O4  UNL     1      11.920  -4.900 -28.746  1.00  0.00    -0.289 OA
BRANCH  16  18
HETATM   18  N2  UNL     1      12.980  -6.891 -27.868  1.00  0.00    -0.090 N 
HETATM   19  O2  UNL     1      14.125  -6.457 -28.051  1.00  0.00    -0.530 OA
HETATM   20  O3  UNL     1      12.845  -8.166 -27.379  1.00  0.00    -0.530 OA
ENDBRANCH  16  18
ENDBRANCH  12  13
ENDBRANCH  11  12
ENDBRANCH   8  11
ENDBRANCH   7   8
BRANCH   1  21
HETATM   21  C5  UNL     1       7.105  -0.569 -28.165  1.00  0.00     0.009 C 
HETATM   22  C4  UNL     1       6.359  -1.809 -28.735  1.00  0.00     0.014 C 
HETATM   23  C3  UNL     1       5.587  -1.411 -29.988  1.00  0.00     0.005 C 
HETATM   24  C2  UNL     1       4.603  -0.318 -29.636  1.00  0.00    -0.017 C 
HETATM   25  C1  UNL     1       3.177  -0.721 -29.992  1.00  0.00     0.010 C 
HETATM   26  C18 UNL     1       4.629   0.005 -28.180  1.00  0.00     0.025 C 
HETATM   27  C17 UNL     1       6.043   0.445 -27.804  1.00  0.00     0.094 C 
HETATM   28 CL1  UNL     1       6.304   1.963 -28.699  1.00  0.00    -0.124 Cl
HETATM   29  C6  UNL     1       7.905   0.007 -29.293  1.00  0.00     0.020 C 
ENDBRANCH   1  21
TORSDOF 7
ENDMDL
MODEL 4
REMARK VINA RESULT: -6.796275581      2.610      4.483
REMARK  7 active torsions:
REMARK  status: ('A' for Active; 'I' for Inactive)
REMARK    1  A    between atoms: C5_5  and  C7_7 
REMARK    2  A    between atoms: N1_13  and  C10_14 
REMARK    3  A    between atoms: C10_14  and  O1_15 
REMARK    4  A    between atoms: C10_14  and  C11_17 
REMARK    5  A    between atoms: C11_17  and  C12_18 
REMARK    6  A    between atoms: C12_18  and  C13_19 
REMARK    7  A    between atoms: C16_22  and  N2_23 
ROOT
HETATM    1  C7  UNL     1       9.068   0.826 -26.497  1.00  0.00     0.105 C 
HETATM    2  C8  UNL     1       9.769   0.318 -25.224  1.00  0.00     0.053 C 
HETATM    3  S1  UNL     1       8.740   2.588 -26.052  1.00  0.00    -0.057 SA
HETATM    4  S2  UNL     1       9.569   3.418 -27.871  1.00  0.00    -0.025 SA
HETATM    5  C9  UNL     1       9.793   1.759 -28.560  1.00  0.00     0.154 C 
HETATM    6  S3  UNL     1       9.619   1.470 -30.179  1.00  0.00    -0.051 SA
HETATM    7  N1  UNL     1      10.069   0.819 -27.534  1.00  0.00    -0.292 N 
ENDROOT
BRANCH   7   8
HETATM    8  C10 UNL     1      11.152  -0.092 -27.607  1.00  0.00     0.145 C 
BRANCH   8   9
HETATM    9  O1  UNL     1      12.361   0.420 -27.445  1.00  0.00    -0.346 OA
ATOM     10  H1  UNL     1      12.688   0.453 -26.554  1.00  0.00     0.219 HD
ENDBRANCH   8   9
BRANCH   8  11
HETATM   11  C11 UNL     1      11.224  -1.492 -27.832  1.00  0.00     0.059 C 
BRANCH  11  12
HETATM   12  C12 UNL     1      10.871  -2.471 -27.058  1.00  0.00     0.041 C 
BRANCH  12  13
HETATM   13  C13 UNL     1      11.103  -3.881 -27.453  1.00  0.00     0.078 A 
HETATM   14  C14 UNL     1      10.174  -4.717 -28.010  1.00  0.00     0.042 A 
HETATM   15  C15 UNL     1      10.821  -5.918 -28.210  1.00  0.00     0.065 A 
HETATM   16  C16 UNL     1      12.119  -5.693 -27.743  1.00  0.00     0.215 A 
HETATM   17  O4  UNL     1      12.250  -4.479 -27.302  1.00  0.00    -0.289 OA
BRANCH  16  18
HETATM   18  N2  UNL     1      13.123  -6.688 -27.766  1.00  0.00    -0.090 N 
HETATM   19  O2  UNL     1      14.268  -6.379 -28.122  1.00  0.00    -0.530 OA
HETATM   20  O3  UNL     1      12.889  -7.993 -27.411  1.00  0.00    -0.530 OA
ENDBRANCH  16  18
ENDBRANCH  12  13
ENDBRANCH  11  12
ENDBRANCH   8  11
ENDBRANCH   7   8
BRANCH   1  21
HETATM   21  C5  UNL     1       7.812   0.094 -26.677  1.00  0.00     0.009 C 
HETATM   22  C4  UNL     1       6.717   1.193 -26.781  1.00  0.00     0.014 C 
HETATM   23  C3  UNL     1       5.339   0.541 -26.816  1.00  0.00     0.005 C 
HETATM   24  C2  UNL     1       5.265  -0.395 -28.002  1.00  0.00    -0.017 C 
HETATM   25  C1  UNL     1       4.108  -0.029 -28.924  1.00  0.00     0.010 C 
HETATM   26  C18 UNL     1       6.515  -0.363 -28.814  1.00  0.00     0.025 C 
HETATM   27  C17 UNL     1       7.688  -0.759 -27.918  1.00  0.00     0.094 C 
HETATM   28 CL1  UNL     1       7.375  -2.456 -27.477  1.00  0.00    -0.124 Cl
HETATM   29  C6  UNL     1       7.447  -0.767 -25.507  1.00  0.00     0.020 C 
ENDBRANCH   1  21
TORSDOF 7
ENDMDL
MODEL 5
REMARK VINA RESULT: -6.741312920      2.492      4.402
REMARK  7 active torsions:
REMARK  status: ('A' for Active; 'I' for Inactive)
REMARK    1  A    between atoms: C5_5  and  C7_7 
REMARK    2  A    between atoms: N1_13  and  C10_14 
REMARK    3  A    between atoms: C10_14  and  O1_15 
REMARK    4  A    between atoms: C10_14  and  C11_17 
REMARK    5  A    between atoms: C11_17  and  C12_18 
REMARK    6  A    between atoms: C12_18  and  C13_19 
REMARK    7  A    between atoms: C16_22  and  N2_23 
ROOT
HETATM    1  C7  UNL     1       8.830   0.862 -26.617  1.00  0.00     0.105 C 
HETATM    2  C8  UNL     1       9.474   0.310 -25.332  1.00  0.00     0.053 C 
HETATM    3  S1  UNL     1       8.426   2.590 -26.108  1.00  0.00    -0.057 SA
HETATM    4  S2  UNL     1       9.331   3.532 -27.834  1.00  0.00    -0.025 SA
HETATM    5  C9  UNL     1       9.643   1.915 -28.589  1.00  0.00     0.154 C 
HETATM    6  S3  UNL     1       9.568   1.702 -30.226  1.00  0.00    -0.051 SA
HETATM    7  N1  UNL     1       9.888   0.933 -27.594  1.00  0.00    -0.292 N 
ENDROOT
BRANCH   7   8
HETATM    8  C10 UNL     1      11.000   0.056 -27.649  1.00  0.00     0.145 C 
BRANCH   8   9
HETATM    9  O1  UNL     1      12.186   0.599 -27.436  1.00  0.00    -0.346 OA
ATOM     10  H1  UNL     1      12.905  -0.003 -27.286  1.00  0.00     0.219 HD
ENDBRANCH   8   9
BRANCH   8  11
HETATM   11  C11 UNL     1      11.121  -1.337 -27.898  1.00  0.00     0.059 C 
BRANCH  11  12
HETATM   12  C12 UNL     1      11.076  -2.331 -27.067  1.00  0.00     0.041 C 
BRANCH  12  13
HETATM   13  C13 UNL     1      11.184  -3.731 -27.542  1.00  0.00     0.078 A 
HETATM   14  C14 UNL     1      10.261  -4.386 -28.310  1.00  0.00     0.042 A 
HETATM   15  C15 UNL     1      10.768  -5.654 -28.509  1.00  0.00     0.065 A 
HETATM   16  C16 UNL     1      11.986  -5.648 -27.824  1.00  0.00     0.215 A 
HETATM   17  O4  UNL     1      12.200  -4.497 -27.263  1.00  0.00    -0.289 OA
BRANCH  16  18
HETATM   18  N2  UNL     1      12.840  -6.774 -27.774  1.00  0.00    -0.090 N 
HETATM   19  O2  UNL     1      14.027  -6.645 -28.104  1.00  0.00    -0.530 OA
HETATM   20  O3  UNL     1      12.415  -8.017 -27.375  1.00  0.00    -0.530 OA
ENDBRANCH  16  18
ENDBRANCH  12  13
ENDBRANCH  11  12
ENDBRANCH   8  11
ENDBRANCH   7   8
BRANCH   1  21
HETATM   21  C5  UNL     1       7.609   0.106 -26.904  1.00  0.00     0.009 C 
HETATM   22  C4  UNL     1       7.612  -0.094 -28.446  1.00  0.00     0.014 C 
HETATM   23  C3  UNL     1       6.301  -0.738 -28.881  1.00  0.00     0.005 C 
HETATM   24  C2  UNL     1       6.145  -2.067 -28.176  1.00  0.00    -0.017 C 
HETATM   25  C1  UNL     1       5.979  -3.207 -29.174  1.00  0.00     0.010 C 
HETATM   26  C18 UNL     1       7.326  -2.385 -27.323  1.00  0.00     0.025 C 
HETATM   27  C17 UNL     1       7.494  -1.270 -26.290  1.00  0.00     0.094 C 
HETATM   28 CL1  UNL     1       6.042  -1.374 -25.263  1.00  0.00    -0.124 Cl
HETATM   29  C6  UNL     1       6.351   0.848 -26.569  1.00  0.00     0.020 C 
ENDBRANCH   1  21
TORSDOF 7
ENDMDL
