MODEL 1
REMARK VINA RESULT: -7.697102739      0.000      0.000
REMARK  5 active torsions:
REMARK  status: ('A' for Active; 'I' for Inactive)
REMARK    1  A    between atoms: C2_2  and  C3_4 
REMARK    2  A    between atoms: C6_7  and  N1_8 
REMARK       I    between atoms: N1_8  and  C7_10 
REMARK    3  A    between atoms: C7_10  and  C8_12 
REMARK    4  A    between atoms: N2_15  and  S1_16 
REMARK    5  A    between atoms: S1_16  and  N3_19 
ROOT
HETATM    1  C8  UNL     1      19.263  35.825  42.022  1.00  0.00     0.080 C 
HETATM    2  C9  UNL     1      19.258  34.382  42.410  1.00  0.00     0.029 C 
HETATM    3  C10 UNL     1      18.744  34.245  43.809  1.00  0.00     0.110 C 
HETATM    4  N2  UNL     1      17.589  35.062  44.028  1.00  0.00    -0.193 NA
HETATM    5  C16 UNL     1      17.894  36.472  44.011  1.00  0.00     0.110 C 
HETATM    6  C17 UNL     1      19.114  36.768  43.181  1.00  0.00     0.029 C 
ENDROOT
BRANCH   1   7
HETATM    7  C7  UNL     1      20.540  36.118  41.305  1.00  0.00     0.222 C 
HETATM    8  N1  UNL     1      21.614  36.661  42.048  1.00  0.00    -0.356 N 
ATOM      9  H1  UNL     1      21.517  36.849  43.046  1.00  0.00     0.162 HD
HETATM   10  O1  UNL     1      20.649  35.881  40.058  1.00  0.00    -0.273 OA
BRANCH   8  11
HETATM   11  C6  UNL     1      22.856  36.946  41.356  1.00  0.00     0.084 C 
HETATM   12  C5  UNL     1      23.465  38.174  41.993  1.00  0.00     0.025 C 
HETATM   13  C4  UNL     1      23.915  37.798  43.384  1.00  0.00     0.008 C 
HETATM   14  C3  UNL     1      24.919  36.681  43.407  1.00  0.00    -0.000 C 
HETATM   15  C19 UNL     1      25.047  35.960  42.111  1.00  0.00     0.008 C 
HETATM   16  C18 UNL     1      23.724  35.730  41.421  1.00  0.00     0.025 C 
BRANCH  14  17
HETATM   17  C2  UNL     1      26.263  37.271  43.797  1.00  0.00     0.058 C 
HETATM   18  C1  UNL     1      27.061  37.681  42.580  1.00  0.00     0.022 C 
HETATM   19 BR1  UNL     1      26.037  38.852  44.889  1.00  0.00    -0.091 Br
ENDBRANCH  14  17
ENDBRANCH   8  11
ENDBRANCH   1   7
BRANCH   4  20
HETATM   20  S1  UNL     1      16.551  34.588  45.270  1.00  0.00     0.304 S 
HETATM   21  O2  UNL     1      15.216  35.284  45.040  1.00  0.00    -0.188 OA
HETATM   22  O3  UNL     1      16.263  33.117  45.116  1.00  0.00    -0.188 OA
BRANCH  20  23
HETATM   23  N3  UNL     1      17.107  35.001  46.806  1.00  0.00    -0.278 N 
HETATM   24  C11 UNL     1      16.727  36.240  47.348  1.00  0.00     0.077 C 
HETATM   25  C12 UNL     1      17.756  36.878  48.248  1.00  0.00     0.046 C 
HETATM   26  C13 UNL     1      19.141  36.828  47.650  1.00  0.00     0.007 C 
HETATM   27  C14 UNL     1      19.504  35.479  47.129  1.00  0.00     0.021 C 
HETATM   28  C15 UNL     1      18.375  34.487  47.169  1.00  0.00     0.141 C 
ENDBRANCH  20  23
ENDBRANCH   4  20
TORSDOF 5
ENDMDL
MODEL 2
REMARK VINA RESULT: -7.693499666      1.234      1.387
REMARK  5 active torsions:
REMARK  status: ('A' for Active; 'I' for Inactive)
REMARK    1  A    between atoms: C2_2  and  C3_4 
REMARK    2  A    between atoms: C6_7  and  N1_8 
REMARK       I    between atoms: N1_8  and  C7_10 
REMARK    3  A    between atoms: C7_10  and  C8_12 
REMARK    4  A    between atoms: N2_15  and  S1_16 
REMARK    5  A    between atoms: S1_16  and  N3_19 
ROOT
HETATM    1  C8  UNL     1      19.812  36.052  42.149  1.00  0.00     0.080 C 
HETATM    2  C9  UNL     1      20.524  34.855  42.692  1.00  0.00     0.029 C 
HETATM    3  C10 UNL     1      20.034  34.572  44.078  1.00  0.00     0.110 C 
HETATM    4  N2  UNL     1      18.608  34.671  44.163  1.00  0.00    -0.193 NA
HETATM    5  C16 UNL     1      18.134  36.025  44.002  1.00  0.00     0.110 C 
HETATM    6  C17 UNL     1      19.091  36.857  43.191  1.00  0.00     0.029 C 
ENDROOT
BRANCH   1   7
HETATM    7  C7  UNL     1      20.807  36.919  41.452  1.00  0.00     0.222 C 
HETATM    8  N1  UNL     1      22.139  36.454  41.343  1.00  0.00    -0.356 N 
ATOM      9  H1  UNL     1      22.410  35.551  41.733  1.00  0.00     0.162 HD
HETATM   10  O1  UNL     1      20.458  38.047  40.972  1.00  0.00    -0.273 OA
BRANCH   8  11
HETATM   11  C6  UNL     1      23.108  37.292  40.666  1.00  0.00     0.084 C 
HETATM   12  C5  UNL     1      23.844  38.086  41.721  1.00  0.00     0.025 C 
HETATM   13  C4  UNL     1      24.700  37.126  42.510  1.00  0.00     0.008 C 
HETATM   14  C3  UNL     1      25.697  36.381  41.668  1.00  0.00    -0.000 C 
HETATM   15  C19 UNL     1      25.452  36.496  40.203  1.00  0.00     0.008 C 
HETATM   16  C18 UNL     1      23.990  36.418  39.834  1.00  0.00     0.025 C 
BRANCH  14  17
HETATM   17  C2  UNL     1      27.078  36.920  41.997  1.00  0.00     0.058 C 
HETATM   18  C1  UNL     1      27.524  37.954  40.989  1.00  0.00     0.022 C 
HETATM   19 BR1  UNL     1      27.095  37.772  43.734  1.00  0.00    -0.091 Br
ENDBRANCH  14  17
ENDBRANCH   8  11
ENDBRANCH   1   7
BRANCH   4  20
HETATM   20  S1  UNL     1      17.863  33.814  45.410  1.00  0.00     0.304 S 
HETATM   21  O2  UNL     1      16.396  33.652  45.038  1.00  0.00    -0.188 OA
HETATM   22  O3  UNL     1      18.424  32.416  45.430  1.00  0.00    -0.188 OA
BRANCH  20  23
HETATM   23  N3  UNL     1      17.949  34.589  46.903  1.00  0.00    -0.278 N 
HETATM   24  C11 UNL     1      16.958  35.528  47.233  1.00  0.00     0.077 C 
HETATM   25  C12 UNL     1      17.431  36.670  48.099  1.00  0.00     0.046 C 
HETATM   26  C13 UNL     1      18.737  37.248  47.610  1.00  0.00     0.007 C 
HETATM   27  C14 UNL     1      19.763  36.207  47.316  1.00  0.00     0.021 C 
HETATM   28  C15 UNL     1      19.250  34.798  47.423  1.00  0.00     0.141 C 
ENDBRANCH  20  23
ENDBRANCH   4  20
TORSDOF 5
ENDMDL
MODEL 3
REMARK VINA RESULT: -7.523981848      3.177      4.661
REMARK  5 active torsions:
REMARK  status: ('A' for Active; 'I' for Inactive)
REMARK    1  A    between atoms: C2_2  and  C3_4 
REMARK    2  A    between atoms: C6_7  and  N1_8 
REMARK       I    between atoms: N1_8  and  C7_10 
REMARK    3  A    between atoms: C7_10  and  C8_12 
REMARK    4  A    between atoms: N2_15  and  S1_16 
REMARK    5  A    between atoms: S1_16  and  N3_19 
ROOT
HETATM    1  C8  UNL     1      23.022  37.780  43.182  1.00  0.00     0.080 C 
HETATM    2  C9  UNL     1      22.456  37.720  41.800  1.00  0.00     0.029 C 
HETATM    3  C10 UNL     1      21.430  36.631  41.730  1.00  0.00     0.110 C 
HETATM    4  N2  UNL     1      20.565  36.649  42.871  1.00  0.00    -0.193 NA
HETATM    5  C16 UNL     1      21.244  36.275  44.089  1.00  0.00     0.110 C 
HETATM    6  C17 UNL     1      22.718  36.571  44.018  1.00  0.00     0.029 C 
ENDROOT
BRANCH   1   7
HETATM    7  C7  UNL     1      24.501  37.955  43.080  1.00  0.00     0.222 C 
HETATM    8  N1  UNL     1      25.192  37.232  42.079  1.00  0.00    -0.356 N 
ATOM      9  H1  UNL     1      24.691  36.608  41.446  1.00  0.00     0.162 HD
HETATM   10  O1  UNL     1      25.116  38.735  43.877  1.00  0.00    -0.273 OA
BRANCH   8  11
HETATM   11  C6  UNL     1      26.628  37.399  41.975  1.00  0.00     0.084 C 
HETATM   12  C5  UNL     1      27.277  36.335  42.831  1.00  0.00     0.025 C 
HETATM   13  C4  UNL     1      27.030  34.999  42.174  1.00  0.00     0.008 C 
HETATM   14  C3  UNL     1      27.575  34.909  40.777  1.00  0.00    -0.000 C 
HETATM   15  C19 UNL     1      27.973  36.223  40.200  1.00  0.00     0.008 C 
HETATM   16  C18 UNL     1      27.009  37.337  40.531  1.00  0.00     0.025 C 
BRANCH  14  17
HETATM   17  C2  UNL     1      28.777  33.981  40.806  1.00  0.00     0.058 C 
HETATM   18  C1  UNL     1      28.788  33.129  42.054  1.00  0.00     0.022 C 
HETATM   19 BR1  UNL     1      28.760  32.776  39.293  1.00  0.00    -0.091 Br
ENDBRANCH  14  17
ENDBRANCH   8  11
ENDBRANCH   1   7
BRANCH   4  20
HETATM   20  S1  UNL     1      19.043  35.949  42.678  1.00  0.00     0.304 S 
HETATM   21  O2  UNL     1      18.018  37.074  42.696  1.00  0.00    -0.188 OA
HETATM   22  O3  UNL     1      18.962  35.359  41.294  1.00  0.00    -0.188 OA
BRANCH  20  23
HETATM   23  N3  UNL     1      18.648  34.852  43.895  1.00  0.00    -0.278 N 
HETATM   24  C11 UNL     1      18.957  33.496  43.704  1.00  0.00     0.077 C 
HETATM   25  C12 UNL     1      17.990  32.531  44.344  1.00  0.00     0.046 C 
HETATM   26  C13 UNL     1      16.553  32.913  44.083  1.00  0.00     0.007 C 
HETATM   27  C14 UNL     1      16.276  34.354  44.342  1.00  0.00     0.021 C 
HETATM   28  C15 UNL     1      17.501  35.162  44.665  1.00  0.00     0.141 C 
ENDBRANCH  20  23
ENDBRANCH   4  20
TORSDOF 5
ENDMDL
MODEL 4
REMARK VINA RESULT: -7.405442634      2.176      2.667
REMARK  5 active torsions:
REMARK  status: ('A' for Active; 'I' for Inactive)
REMARK    1  A    between atoms: C2_2  and  C3_4 
REMARK    2  A    between atoms: C6_7  and  N1_8 
REMARK       I    between atoms: N1_8  and  C7_10 
REMARK    3  A    between atoms: C7_10  and  C8_12 
REMARK    4  A    between atoms: N2_15  and  S1_16 
REMARK    5  A    between atoms: S1_16  and  N3_19 
ROOT
HETATM    1  C8  UNL     1      20.099  35.736  42.362  1.00  0.00     0.080 C 
HETATM    2  C9  UNL     1      20.232  34.248  42.402  1.00  0.00     0.029 C 
HETATM    3  C10 UNL     1      20.269  33.790  43.827  1.00  0.00     0.110 C 
HETATM    4  N2  UNL     1      19.277  34.455  44.618  1.00  0.00    -0.193 NA
HETATM    5  C16 UNL     1      19.559  35.859  44.799  1.00  0.00     0.110 C 
HETATM    6  C17 UNL     1      20.390  36.409  43.671  1.00  0.00     0.029 C 
ENDROOT
BRANCH   1   7
HETATM    7  C7  UNL     1      21.024  36.265  41.315  1.00  0.00     0.222 C 
HETATM    8  N1  UNL     1      22.247  36.840  41.732  1.00  0.00    -0.356 N 
ATOM      9  H1  UNL     1      22.488  36.892  42.722  1.00  0.00     0.162 HD
HETATM   10  O1  UNL     1      20.710  36.196  40.081  1.00  0.00    -0.273 OA
BRANCH   8  11
HETATM   11  C6  UNL     1      23.148  37.353  40.720  1.00  0.00     0.084 C 
HETATM   12  C5  UNL     1      23.910  38.509  41.328  1.00  0.00     0.025 C 
HETATM   13  C4  UNL     1      24.840  37.949  42.376  1.00  0.00     0.008 C 
HETATM   14  C3  UNL     1      25.817  36.945  41.834  1.00  0.00    -0.000 C 
HETATM   15  C19 UNL     1      25.491  36.468  40.462  1.00  0.00     0.008 C 
HETATM   16  C18 UNL     1      24.016  36.233  40.245  1.00  0.00     0.025 C 
BRANCH  14  17
HETATM   17  C2  UNL     1      27.193  37.586  41.837  1.00  0.00     0.058 C 
HETATM   18  C1  UNL     1      27.671  37.867  43.244  1.00  0.00     0.022 C 
HETATM   19 BR1  UNL     1      28.503  36.426  41.012  1.00  0.00    -0.091 Br
ENDBRANCH  14  17
ENDBRANCH   8  11
ENDBRANCH   1   7
BRANCH   4  20
HETATM   20  S1  UNL     1      18.767  33.661  46.016  1.00  0.00     0.304 S 
HETATM   21  O2  UNL     1      17.412  34.237  46.400  1.00  0.00    -0.188 OA
HETATM   22  O3  UNL     1      18.501  32.217  45.674  1.00  0.00    -0.188 OA
BRANCH  20  23
HETATM   23  N3  UNL     1      19.815  33.855  47.321  1.00  0.00    -0.278 N 
HETATM   24  C11 UNL     1      21.103  33.302  47.237  1.00  0.00     0.077 C 
HETATM   25  C12 UNL     1      21.674  32.826  48.550  1.00  0.00     0.046 C 
HETATM   26  C13 UNL     1      20.672  32.022  49.344  1.00  0.00     0.007 C 
HETATM   27  C14 UNL     1      19.336  32.678  49.433  1.00  0.00     0.021 C 
HETATM   28  C15 UNL     1      19.212  33.923  48.600  1.00  0.00     0.141 C 
ENDBRANCH  20  23
ENDBRANCH   4  20
TORSDOF 5
ENDMDL
MODEL 5
REMARK VINA RESULT: -7.355039818      3.369      4.722
REMARK  5 active torsions:
REMARK  status: ('A' for Active; 'I' for Inactive)
REMARK    1  A    between atoms: C2_2  and  C3_4 
REMARK    2  A    between atoms: C6_7  and  N1_8 
REMARK       I    between atoms: N1_8  and  C7_10 
REMARK    3  A    between atoms: C7_10  and  C8_12 
REMARK    4  A    between atoms: N2_15  and  S1_16 
REMARK    5  A    between atoms: S1_16  and  N3_19 
ROOT
HETATM    1  C8  UNL     1      23.077  36.959  44.660  1.00  0.00     0.080 C 
HETATM    2  C9  UNL     1      22.369  36.140  43.630  1.00  0.00     0.029 C 
HETATM    3  C10 UNL     1      21.843  34.891  44.264  1.00  0.00     0.110 C 
HETATM    4  N2  UNL     1      21.226  35.161  45.528  1.00  0.00    -0.193 NA
HETATM    5  C16 UNL     1      22.178  35.570  46.534  1.00  0.00     0.110 C 
HETATM    6  C17 UNL     1      23.395  36.210  45.922  1.00  0.00     0.029 C 
ENDROOT
BRANCH   1   7
HETATM    7  C7  UNL     1      24.342  37.483  44.062  1.00  0.00     0.222 C 
HETATM    8  N1  UNL     1      24.799  36.905  42.855  1.00  0.00    -0.356 N 
ATOM      9  H1  UNL     1      24.278  36.150  42.407  1.00  0.00     0.162 HD
HETATM   10  O1  UNL     1      24.984  38.425  44.631  1.00  0.00    -0.273 OA
BRANCH   8  11
HETATM   11  C6  UNL     1      26.024  37.411  42.270  1.00  0.00     0.084 C 
HETATM   12  C5  UNL     1      27.168  36.588  42.817  1.00  0.00     0.025 C 
HETATM   13  C4  UNL     1      27.053  35.197  42.243  1.00  0.00     0.008 C 
HETATM   14  C3  UNL     1      27.095  35.163  40.742  1.00  0.00    -0.000 C 
HETATM   15  C19 UNL     1      26.933  36.499  40.105  1.00  0.00     0.008 C 
HETATM   16  C18 UNL     1      25.895  37.362  40.781  1.00  0.00     0.025 C 
BRANCH  14  17
HETATM   17  C2  UNL     1      28.425  34.559  40.327  1.00  0.00     0.058 C 
HETATM   18  C1  UNL     1      28.635  33.200  40.954  1.00  0.00     0.022 C 
HETATM   19 BR1  UNL     1      28.513  34.321  38.409  1.00  0.00    -0.091 Br
ENDBRANCH  14  17
ENDBRANCH   8  11
ENDBRANCH   1   7
BRANCH   4  20
HETATM   20  S1  UNL     1      20.079  34.049  46.065  1.00  0.00     0.304 S 
HETATM   21  O2  UNL     1      20.804  32.737  46.331  1.00  0.00    -0.188 OA
HETATM   22  O3  UNL     1      19.570  34.500  47.409  1.00  0.00    -0.188 OA
BRANCH  20  23
HETATM   23  N3  UNL     1      18.850  33.758  44.950  1.00  0.00    -0.278 N 
HETATM   24  C11 UNL     1      19.049  32.773  43.969  1.00  0.00     0.077 C 
HETATM   25  C12 UNL     1      18.379  33.051  42.647  1.00  0.00     0.046 C 
HETATM   26  C13 UNL     1      18.594  34.474  42.191  1.00  0.00     0.007 C 
HETATM   27  C14 UNL     1      18.327  35.477  43.261  1.00  0.00     0.021 C 
HETATM   28  C15 UNL     1      18.044  34.871  44.607  1.00  0.00     0.141 C 
ENDBRANCH  20  23
ENDBRANCH   4  20
TORSDOF 5
ENDMDL
