MODEL 1
REMARK VINA RESULT: -8.268380277      0.000      0.000
REMARK  6 active torsions:
REMARK  status: ('A' for Active; 'I' for Inactive)
REMARK    1  A    between atoms: C1_2  and  C2_3 
REMARK       I    between atoms: C1_2  and  N1_15 
REMARK    2  A    between atoms: C2_3  and  C3_4 
REMARK    3  A    between atoms: N1_15  and  C13_17 
REMARK    4  A    between atoms: C14_18  and  O2_19 
REMARK    5  A    between atoms: C14_18  and  N2_21 
REMARK       I    between atoms: N3_24  and  C17_25 
REMARK    6  A    between atoms: C17_25  and  C18_27 
ROOT
HETATM    1  O1  UNL     1      22.286  38.243  40.917  1.00  0.00    -0.273 OA
HETATM    2  C1  UNL     1      23.117  37.352  40.867  1.00  0.00     0.222 C 
HETATM    3  N1  UNL     1      22.611  36.005  40.573  1.00  0.00    -0.333 N 
ATOM      4  H1  UNL     1      23.221  35.190  40.509  1.00  0.00     0.168 HD
ENDROOT
BRANCH   3   5
HETATM    5  C13 UNL     1      21.219  35.925  40.386  1.00  0.00     0.146 C 
HETATM    6  C14 UNL     1      20.342  35.419  41.411  1.00  0.00     0.153 C 
BRANCH   6   7
HETATM    7  O2  UNL     1      19.045  35.397  41.001  1.00  0.00    -0.345 OA
ATOM      8  H2  UNL     1      18.443  35.389  41.736  1.00  0.00     0.219 HD
ENDBRANCH   6   7
BRANCH   6   9
HETATM    9  N2  UNL     1      20.565  34.971  42.684  1.00  0.00    -0.358 N 
HETATM   10  C15 UNL     1      20.285  33.512  42.940  1.00  0.00     0.145 C 
HETATM   11  C16 UNL     1      21.488  32.986  43.714  1.00  0.00     0.145 C 
HETATM   12  N3  UNL     1      21.432  33.637  45.032  1.00  0.00    -0.349 N 
HETATM   13  C17 UNL     1      21.965  32.961  46.168  1.00  0.00     0.224 C 
HETATM   14  C21 UNL     1      20.839  34.934  45.120  1.00  0.00     0.145 C 
HETATM   15  O3  UNL     1      22.488  31.827  46.036  1.00  0.00    -0.273 OA
HETATM   16  C22 UNL     1      21.015  35.710  43.813  1.00  0.00     0.145 C 
BRANCH  13  17
HETATM   17  C18 UNL     1      21.909  33.577  47.503  1.00  0.00     0.078 A 
HETATM   18  C19 UNL     1      22.021  32.582  48.636  1.00  0.00     0.015 A 
HETATM   19  C20 UNL     1      20.712  33.276  48.335  1.00  0.00     0.015 A 
ENDBRANCH  13  17
ENDBRANCH   6   9
ENDBRANCH   3   5
BRANCH   2  20
HETATM   20  C2  UNL     1      24.562  37.431  41.061  1.00  0.00     0.112 C 
BRANCH  20  21
HETATM   21  C3  UNL     1      25.062  37.415  42.443  1.00  0.00    -0.030 C 
HETATM   22  C4  UNL     1      24.360  38.329  43.402  1.00  0.00     0.014 C 
HETATM   23  C5  UNL     1      24.847  38.074  44.809  1.00  0.00    -0.012 C 
HETATM   24  C6  UNL     1      26.303  38.437  44.914  1.00  0.00     0.009 C 
HETATM   25  C10 UNL     1      24.657  36.640  45.231  1.00  0.00     0.025 C 
HETATM   26  C7  UNL     1      27.065  37.584  43.933  1.00  0.00    -0.012 C 
HETATM   27  C8  UNL     1      26.945  36.148  44.331  1.00  0.00     0.025 C 
HETATM   28  C12 UNL     1      26.539  37.750  42.519  1.00  0.00     0.014 C 
HETATM   29  C9  UNL     1      25.480  35.780  44.310  1.00  0.00     0.019 C 
HETATM   30 BR1  UNL     1      25.266  33.917  44.784  1.00  0.00    -0.085 Br
HETATM   31  C11 UNL     1      24.962  35.955  42.923  1.00  0.00     0.031 C 
ENDBRANCH  20  21
ENDBRANCH   2  20
TORSDOF 6
ENDMDL
MODEL 2
REMARK VINA RESULT: -8.232271310      2.629      3.193
REMARK  6 active torsions:
REMARK  status: ('A' for Active; 'I' for Inactive)
REMARK    1  A    between atoms: C1_2  and  C2_3 
REMARK       I    between atoms: C1_2  and  N1_15 
REMARK    2  A    between atoms: C2_3  and  C3_4 
REMARK    3  A    between atoms: N1_15  and  C13_17 
REMARK    4  A    between atoms: C14_18  and  O2_19 
REMARK    5  A    between atoms: C14_18  and  N2_21 
REMARK       I    between atoms: N3_24  and  C17_25 
REMARK    6  A    between atoms: C17_25  and  C18_27 
ROOT
HETATM    1  O1  UNL     1      23.183  35.754  40.049  1.00  0.00    -0.273 OA
HETATM    2  C1  UNL     1      23.037  36.747  40.740  1.00  0.00     0.222 C 
HETATM    3  N1  UNL     1      21.661  37.059  41.150  1.00  0.00    -0.333 N 
ATOM      4  H1  UNL     1      21.429  37.867  41.727  1.00  0.00     0.168 HD
ENDROOT
BRANCH   3   5
HETATM    5  C13 UNL     1      20.688  36.157  40.683  1.00  0.00     0.146 C 
HETATM    6  C14 UNL     1      19.622  35.684  41.528  1.00  0.00     0.153 C 
BRANCH   6   7
HETATM    7  O2  UNL     1      18.823  34.792  40.884  1.00  0.00    -0.345 OA
ATOM      8  H2  UNL     1      18.678  34.008  41.402  1.00  0.00     0.219 HD
ENDBRANCH   6   7
BRANCH   6   9
HETATM    9  N2  UNL     1      19.275  35.957  42.823  1.00  0.00    -0.358 N 
HETATM   10  C15 UNL     1      19.817  35.023  43.875  1.00  0.00     0.145 C 
HETATM   11  C16 UNL     1      20.362  35.915  44.984  1.00  0.00     0.145 C 
HETATM   12  N3  UNL     1      19.188  36.559  45.593  1.00  0.00    -0.349 N 
HETATM   13  C17 UNL     1      19.229  36.926  46.970  1.00  0.00     0.224 C 
HETATM   14  C21 UNL     1      18.043  36.792  44.772  1.00  0.00     0.145 C 
HETATM   15  O3  UNL     1      20.264  36.712  47.647  1.00  0.00    -0.273 OA
HETATM   16  C22 UNL     1      18.447  37.006  43.310  1.00  0.00     0.145 C 
BRANCH  13  17
HETATM   17  C18 UNL     1      18.066  37.556  47.615  1.00  0.00     0.078 A 
HETATM   18  C19 UNL     1      18.092  39.067  47.574  1.00  0.00     0.015 A 
HETATM   19  C20 UNL     1      18.320  38.318  48.868  1.00  0.00     0.015 A 
ENDBRANCH  13  17
ENDBRANCH   6   9
ENDBRANCH   3   5
BRANCH   2  20
HETATM   20  C2  UNL     1      24.045  37.686  41.225  1.00  0.00     0.112 C 
BRANCH  20  21
HETATM   21  C3  UNL     1      24.606  37.447  42.563  1.00  0.00    -0.030 C 
HETATM   22  C4  UNL     1      23.928  36.384  43.373  1.00  0.00     0.014 C 
HETATM   23  C5  UNL     1      24.716  36.116  44.635  1.00  0.00    -0.012 C 
HETATM   24  C6  UNL     1      24.707  37.342  45.506  1.00  0.00     0.009 C 
HETATM   25  C10 UNL     1      26.141  35.717  44.348  1.00  0.00     0.025 C 
HETATM   26  C7  UNL     1      25.332  38.470  44.728  1.00  0.00    -0.012 C 
HETATM   27  C8  UNL     1      26.765  38.144  44.452  1.00  0.00     0.025 C 
HETATM   28  C12 UNL     1      24.617  38.705  43.409  1.00  0.00     0.014 C 
HETATM   29  C9  UNL     1      26.805  36.869  43.642  1.00  0.00     0.019 C 
HETATM   30 BR1  UNL     1      28.638  36.415  43.224  1.00  0.00    -0.085 Br
HETATM   31  C11 UNL     1      26.091  37.098  42.353  1.00  0.00     0.031 C 
ENDBRANCH  20  21
ENDBRANCH   2  20
TORSDOF 6
ENDMDL
MODEL 3
REMARK VINA RESULT: -8.193708260      0.984      1.230
REMARK  6 active torsions:
REMARK  status: ('A' for Active; 'I' for Inactive)
REMARK    1  A    between atoms: C1_2  and  C2_3 
REMARK       I    between atoms: C1_2  and  N1_15 
REMARK    2  A    between atoms: C2_3  and  C3_4 
REMARK    3  A    between atoms: N1_15  and  C13_17 
REMARK    4  A    between atoms: C14_18  and  O2_19 
REMARK    5  A    between atoms: C14_18  and  N2_21 
REMARK       I    between atoms: N3_24  and  C17_25 
REMARK    6  A    between atoms: C17_25  and  C18_27 
ROOT
HETATM    1  O1  UNL     1      21.058  38.342  41.263  1.00  0.00    -0.273 OA
HETATM    2  C1  UNL     1      22.059  37.646  41.248  1.00  0.00     0.222 C 
HETATM    3  N1  UNL     1      21.874  36.245  40.849  1.00  0.00    -0.333 N 
ATOM      4  H1  UNL     1      22.646  35.580  40.804  1.00  0.00     0.168 HD
ENDROOT
BRANCH   3   5
HETATM    5  C13 UNL     1      20.549  35.891  40.535  1.00  0.00     0.146 C 
HETATM    6  C14 UNL     1      19.708  35.189  41.470  1.00  0.00     0.153 C 
BRANCH   6   7
HETATM    7  O2  UNL     1      18.484  34.916  40.943  1.00  0.00    -0.345 OA
ATOM      8  H2  UNL     1      18.462  35.066  40.005  1.00  0.00     0.219 HD
ENDBRANCH   6   7
BRANCH   6   9
HETATM    9  N2  UNL     1      19.906  34.757  42.753  1.00  0.00    -0.358 N 
HETATM   10  C15 UNL     1      20.146  33.280  42.934  1.00  0.00     0.145 C 
HETATM   11  C16 UNL     1      21.342  33.165  43.872  1.00  0.00     0.145 C 
HETATM   12  N3  UNL     1      20.875  33.653  45.179  1.00  0.00    -0.349 N 
HETATM   13  C17 UNL     1      21.459  33.131  46.369  1.00  0.00     0.224 C 
HETATM   14  C21 UNL     1      19.843  34.641  45.201  1.00  0.00     0.145 C 
HETATM   15  O3  UNL     1      22.373  32.273  46.297  1.00  0.00    -0.273 OA
HETATM   16  C22 UNL     1      19.898  35.523  43.951  1.00  0.00     0.145 C 
BRANCH  13  17
HETATM   17  C18 UNL     1      21.004  33.586  47.692  1.00  0.00     0.078 A 
HETATM   18  C19 UNL     1      21.426  32.678  48.825  1.00  0.00     0.015 A 
HETATM   19  C20 UNL     1      19.982  32.748  48.378  1.00  0.00     0.015 A 
ENDBRANCH  13  17
ENDBRANCH   6   9
ENDBRANCH   3   5
BRANCH   2  20
HETATM   20  C2  UNL     1      23.435  38.011  41.575  1.00  0.00     0.112 C 
BRANCH  20  21
HETATM   21  C3  UNL     1      23.979  37.530  42.853  1.00  0.00    -0.030 C 
HETATM   22  C4  UNL     1      22.967  37.079  43.864  1.00  0.00     0.014 C 
HETATM   23  C5  UNL     1      23.664  36.441  45.043  1.00  0.00    -0.012 C 
HETATM   24  C6  UNL     1      24.500  37.470  45.753  1.00  0.00     0.009 C 
HETATM   25  C10 UNL     1      24.537  35.282  44.635  1.00  0.00     0.025 C 
HETATM   26  C7  UNL     1      25.512  38.004  44.773  1.00  0.00    -0.012 C 
HETATM   27  C8  UNL     1      26.434  36.901  44.366  1.00  0.00     0.025 C 
HETATM   28  C12 UNL     1      24.845  38.572  43.533  1.00  0.00     0.014 C 
HETATM   29  C9  UNL     1      25.606  35.816  43.719  1.00  0.00     0.019 C 
HETATM   30 BR1  UNL     1      26.755  34.372  43.138  1.00  0.00    -0.085 Br
HETATM   31  C11 UNL     1      24.942  36.379  42.508  1.00  0.00     0.031 C 
ENDBRANCH  20  21
ENDBRANCH   2  20
TORSDOF 6
ENDMDL
MODEL 4
REMARK VINA RESULT: -8.176384343      0.945      1.046
REMARK  6 active torsions:
REMARK  status: ('A' for Active; 'I' for Inactive)
REMARK    1  A    between atoms: C1_2  and  C2_3 
REMARK       I    between atoms: C1_2  and  N1_15 
REMARK    2  A    between atoms: C2_3  and  C3_4 
REMARK    3  A    between atoms: N1_15  and  C13_17 
REMARK    4  A    between atoms: C14_18  and  O2_19 
REMARK    5  A    between atoms: C14_18  and  N2_21 
REMARK       I    between atoms: N3_24  and  C17_25 
REMARK    6  A    between atoms: C17_25  and  C18_27 
ROOT
HETATM    1  O1  UNL     1      22.459  38.212  40.751  1.00  0.00    -0.273 OA
HETATM    2  C1  UNL     1      23.283  37.315  40.783  1.00  0.00     0.222 C 
HETATM    3  N1  UNL     1      22.773  35.953  40.572  1.00  0.00    -0.333 N 
ATOM      4  H1  UNL     1      23.378  35.132  40.580  1.00  0.00     0.168 HD
ENDROOT
BRANCH   3   5
HETATM    5  C13 UNL     1      21.385  35.870  40.360  1.00  0.00     0.146 C 
HETATM    6  C14 UNL     1      20.479  35.469  41.405  1.00  0.00     0.153 C 
BRANCH   6   7
HETATM    7  O2  UNL     1      19.191  35.420  40.968  1.00  0.00    -0.345 OA
ATOM      8  H2  UNL     1      18.703  36.195  41.221  1.00  0.00     0.219 HD
ENDBRANCH   6   7
BRANCH   6   9
HETATM    9  N2  UNL     1      20.667  35.137  42.718  1.00  0.00    -0.358 N 
HETATM   10  C15 UNL     1      19.478  35.306  43.630  1.00  0.00     0.145 C 
HETATM   11  C16 UNL     1      19.398  34.026  44.453  1.00  0.00     0.145 C 
HETATM   12  N3  UNL     1      20.577  34.039  45.332  1.00  0.00    -0.349 N 
HETATM   13  C17 UNL     1      20.509  33.393  46.601  1.00  0.00     0.224 C 
HETATM   14  C21 UNL     1      21.754  34.707  44.874  1.00  0.00     0.145 C 
HETATM   15  O3  UNL     1      19.456  32.807  46.952  1.00  0.00    -0.273 OA
HETATM   16  C22 UNL     1      21.853  34.665  43.347  1.00  0.00     0.145 C 
BRANCH  13  17
HETATM   17  C18 UNL     1      21.665  33.403  47.512  1.00  0.00     0.078 A 
HETATM   18  C19 UNL     1      22.479  32.130  47.475  1.00  0.00     0.015 A 
HETATM   19  C20 UNL     1      21.617  32.470  48.671  1.00  0.00     0.015 A 
ENDBRANCH  13  17
ENDBRANCH   6   9
ENDBRANCH   3   5
BRANCH   2  20
HETATM   20  C2  UNL     1      24.724  37.398  41.004  1.00  0.00     0.112 C 
BRANCH  20  21
HETATM   21  C3  UNL     1      25.196  37.430  42.396  1.00  0.00    -0.030 C 
HETATM   22  C4  UNL     1      24.439  38.336  43.320  1.00  0.00     0.014 C 
HETATM   23  C5  UNL     1      24.906  38.129  44.742  1.00  0.00    -0.012 C 
HETATM   24  C6  UNL     1      26.344  38.551  44.868  1.00  0.00     0.009 C 
HETATM   25  C10 UNL     1      24.762  36.697  45.191  1.00  0.00     0.025 C 
HETATM   26  C7  UNL     1      27.159  37.709  43.922  1.00  0.00    -0.012 C 
HETATM   27  C8  UNL     1      27.087  36.278  44.347  1.00  0.00     0.025 C 
HETATM   28  C12 UNL     1      26.656  37.824  42.494  1.00  0.00     0.014 C 
HETATM   29  C9  UNL     1      25.638  35.852  44.305  1.00  0.00     0.019 C 
HETATM   30 BR1  UNL     1      25.486  33.992  44.815  1.00  0.00    -0.085 Br
HETATM   31  C11 UNL     1      25.142  35.978  42.904  1.00  0.00     0.031 C 
ENDBRANCH  20  21
ENDBRANCH   2  20
TORSDOF 6
ENDMDL
MODEL 5
REMARK VINA RESULT: -8.149887677      1.459      1.845
REMARK  6 active torsions:
REMARK  status: ('A' for Active; 'I' for Inactive)
REMARK    1  A    between atoms: C1_2  and  C2_3 
REMARK       I    between atoms: C1_2  and  N1_15 
REMARK    2  A    between atoms: C2_3  and  C3_4 
REMARK    3  A    between atoms: N1_15  and  C13_17 
REMARK    4  A    between atoms: C14_18  and  O2_19 
REMARK    5  A    between atoms: C14_18  and  N2_21 
REMARK       I    between atoms: N3_24  and  C17_25 
REMARK    6  A    between atoms: C17_25  and  C18_27 
ROOT
HETATM    1  O1  UNL     1      21.022  38.537  41.141  1.00  0.00    -0.273 OA
HETATM    2  C1  UNL     1      22.070  37.913  41.152  1.00  0.00     0.222 C 
HETATM    3  N1  UNL     1      21.991  36.498  40.770  1.00  0.00    -0.333 N 
ATOM      4  H1  UNL     1      22.808  35.888  40.747  1.00  0.00     0.168 HD
ENDROOT
BRANCH   3   5
HETATM    5  C13 UNL     1      20.700  36.048  40.438  1.00  0.00     0.146 C 
HETATM    6  C14 UNL     1      19.898  35.289  41.362  1.00  0.00     0.153 C 
BRANCH   6   7
HETATM    7  O2  UNL     1      18.705  34.927  40.819  1.00  0.00    -0.345 OA
ATOM      8  H2  UNL     1      17.974  35.345  41.260  1.00  0.00     0.219 HD
ENDBRANCH   6   7
BRANCH   6   9
HETATM    9  N2  UNL     1      20.108  34.877  42.650  1.00  0.00    -0.358 N 
HETATM   10  C15 UNL     1      19.444  35.692  43.731  1.00  0.00     0.145 C 
HETATM   11  C16 UNL     1      18.794  34.684  44.672  1.00  0.00     0.145 C 
HETATM   12  N3  UNL     1      19.903  33.978  45.333  1.00  0.00    -0.349 N 
HETATM   13  C17 UNL     1      19.719  33.465  46.649  1.00  0.00     0.224 C 
HETATM   14  C21 UNL     1      21.133  33.836  44.619  1.00  0.00     0.145 C 
HETATM   15  O3  UNL     1      18.614  33.604  47.229  1.00  0.00    -0.273 OA
HETATM   16  C22 UNL     1      20.891  33.781  43.108  1.00  0.00     0.145 C 
BRANCH  13  17
HETATM   17  C18 UNL     1      20.813  32.769  47.344  1.00  0.00     0.078 A 
HETATM   18  C19 UNL     1      20.685  32.789  48.851  1.00  0.00     0.015 A 
HETATM   19  C20 UNL     1      21.744  33.609  48.147  1.00  0.00     0.015 A 
ENDBRANCH  13  17
ENDBRANCH   6   9
ENDBRANCH   3   5
BRANCH   2  20
HETATM   20  C2  UNL     1      23.411  38.378  41.498  1.00  0.00     0.112 C 
BRANCH  20  21
HETATM   21  C3  UNL     1      24.030  37.821  42.709  1.00  0.00    -0.030 C 
HETATM   22  C4  UNL     1      23.092  37.170  43.681  1.00  0.00     0.014 C 
HETATM   23  C5  UNL     1      23.877  36.484  44.774  1.00  0.00    -0.012 C 
HETATM   24  C6  UNL     1      24.627  37.510  45.579  1.00  0.00     0.009 C 
HETATM   25  C10 UNL     1      24.847  35.465  44.233  1.00  0.00     0.025 C 
HETATM   26  C7  UNL     1      25.557  38.241  44.646  1.00  0.00    -0.012 C 
HETATM   27  C8  UNL     1      26.572  37.282  44.110  1.00  0.00     0.025 C 
HETATM   28  C12 UNL     1      24.808  38.867  43.483  1.00  0.00     0.014 C 
HETATM   29  C9  UNL     1      25.835  36.195  43.363  1.00  0.00     0.019 C 
HETATM   30 BR1  UNL     1      27.104  34.940  42.615  1.00  0.00    -0.085 Br
HETATM   31  C11 UNL     1      25.091  36.813  42.229  1.00  0.00     0.031 C 
ENDBRANCH  20  21
ENDBRANCH   2  20
TORSDOF 6
ENDMDL
