MODEL 1
REMARK VINA RESULT: -7.871315620      0.000      0.000
REMARK  5 active torsions:
REMARK  status: ('A' for Active; 'I' for Inactive)
REMARK       I    between atoms: C1_2  and  N1_3 
REMARK    1  A    between atoms: C1_2  and  C13_21 
REMARK    2  A    between atoms: N1_3  and  C2_5 
REMARK    3  A    between atoms: C2_5  and  C3_6 
REMARK    4  A    between atoms: N2_9  and  S1_10 
REMARK    5  A    between atoms: S1_10  and  N3_13 
ROOT
HETATM    1  C3  UNL     1      23.118  34.250  43.234  1.00  0.00     0.006 C 
HETATM    2  C4  UNL     1      24.605  34.087  43.497  1.00  0.00     0.022 C 
HETATM    3  C5  UNL     1      24.945  34.740  44.792  1.00  0.00     0.109 C 
HETATM    4  N2  UNL     1      24.508  36.088  44.925  1.00  0.00    -0.198 NA
HETATM    5  C11 UNL     1      23.177  36.350  44.473  1.00  0.00     0.109 C 
HETATM    6  C12 UNL     1      22.862  35.737  43.136  1.00  0.00     0.022 C 
ENDROOT
BRANCH   1   7
HETATM    7  C2  UNL     1      22.285  33.577  44.273  1.00  0.00     0.127 C 
BRANCH   7   8
HETATM    8  N1  UNL     1      20.899  33.637  43.943  1.00  0.00    -0.360 N 
HETATM    9  C1  UNL     1      20.148  32.540  43.441  1.00  0.00     0.221 C 
HETATM   10  O1  UNL     1      20.793  31.446  43.289  1.00  0.00    -0.273 OA
ATOM     11  H1  UNL     1      20.416  34.525  44.076  1.00  0.00     0.162 HD
BRANCH   9  12
HETATM   12  C13 UNL     1      18.713  32.649  43.114  1.00  0.00     0.078 C 
HETATM   13  C14 UNL     1      17.888  32.414  44.359  1.00  0.00     0.015 C 
HETATM   14  C15 UNL     1      16.438  32.704  43.977  1.00  0.00     0.016 C 
HETATM   15  C16 UNL     1      16.320  34.192  43.814  1.00  0.00     0.058 C 
HETATM   16 BR1  UNL     1      16.294  34.955  45.612  1.00  0.00    -0.091 Br
HETATM   17  C17 UNL     1      17.449  34.820  43.081  1.00  0.00     0.016 C 
HETATM   18  C18 UNL     1      18.357  33.885  42.375  1.00  0.00     0.015 C 
ENDBRANCH   9  12
ENDBRANCH   7   8
ENDBRANCH   1   7
BRANCH   4  19
HETATM   19  S1  UNL     1      25.654  37.248  44.403  1.00  0.00     0.282 S 
HETATM   20  O2  UNL     1      26.894  37.120  45.232  1.00  0.00    -0.194 OA
HETATM   21  O3  UNL     1      25.087  38.652  44.460  1.00  0.00    -0.194 OA
BRANCH  19  22
HETATM   22  N3  UNL     1      26.098  36.881  42.767  1.00  0.00    -0.198 NA
HETATM   23  C6  UNL     1      27.531  37.068  42.662  1.00  0.00     0.108 C 
HETATM   24  C7  UNL     1      28.004  37.021  41.224  1.00  0.00     0.015 C 
HETATM   25  C8  UNL     1      27.279  38.015  40.359  1.00  0.00     0.002 C 
HETATM   26  C9  UNL     1      25.790  37.707  40.470  1.00  0.00     0.015 C 
HETATM   27  C10 UNL     1      25.405  37.827  41.920  1.00  0.00     0.108 C 
ENDBRANCH  19  22
ENDBRANCH   4  19
TORSDOF 5
ENDMDL
MODEL 2
REMARK VINA RESULT: -7.739556977      3.938      8.575
REMARK  5 active torsions:
REMARK  status: ('A' for Active; 'I' for Inactive)
REMARK       I    between atoms: C1_2  and  N1_3 
REMARK    1  A    between atoms: C1_2  and  C13_21 
REMARK    2  A    between atoms: N1_3  and  C2_5 
REMARK    3  A    between atoms: C2_5  and  C3_6 
REMARK    4  A    between atoms: N2_9  and  S1_10 
REMARK    5  A    between atoms: S1_10  and  N3_13 
ROOT
HETATM    1  C3  UNL     1      19.360  36.148  42.404  1.00  0.00     0.006 C 
HETATM    2  C4  UNL     1      19.812  36.083  43.852  1.00  0.00     0.022 C 
HETATM    3  C5  UNL     1      20.238  34.691  44.167  1.00  0.00     0.109 C 
HETATM    4  N2  UNL     1      19.293  33.677  43.840  1.00  0.00    -0.198 NA
HETATM    5  C11 UNL     1      18.659  33.818  42.566  1.00  0.00     0.109 C 
HETATM    6  C12 UNL     1      18.176  35.214  42.282  1.00  0.00     0.022 C 
ENDROOT
BRANCH   1   7
HETATM    7  C2  UNL     1      20.464  35.824  41.453  1.00  0.00     0.127 C 
BRANCH   7   8
HETATM    8  N1  UNL     1      21.683  36.451  41.844  1.00  0.00    -0.360 N 
HETATM    9  C1  UNL     1      22.024  37.797  41.538  1.00  0.00     0.221 C 
HETATM   10  O1  UNL     1      21.156  38.453  40.868  1.00  0.00    -0.273 OA
ATOM     11  H1  UNL     1      22.354  35.898  42.377  1.00  0.00     0.162 HD
BRANCH   9  12
HETATM   12  C13 UNL     1      23.300  38.405  41.964  1.00  0.00     0.078 C 
HETATM   13  C14 UNL     1      23.669  37.900  43.341  1.00  0.00     0.015 C 
HETATM   14  C15 UNL     1      25.066  38.440  43.639  1.00  0.00     0.016 C 
HETATM   15  C16 UNL     1      26.023  37.675  42.771  1.00  0.00     0.058 C 
HETATM   16 BR1  UNL     1      26.227  35.910  43.581  1.00  0.00    -0.091 Br
HETATM   17  C17 UNL     1      25.558  37.473  41.376  1.00  0.00     0.016 C 
HETATM   18  C18 UNL     1      24.388  38.285  40.963  1.00  0.00     0.015 C 
ENDBRANCH   9  12
ENDBRANCH   7   8
ENDBRANCH   1   7
BRANCH   4  19
HETATM   19  S1  UNL     1      18.211  33.295  45.111  1.00  0.00     0.282 S 
HETATM   20  O2  UNL     1      18.959  32.579  46.193  1.00  0.00    -0.194 OA
HETATM   21  O3  UNL     1      17.036  32.480  44.611  1.00  0.00    -0.194 OA
BRANCH  19  22
HETATM   22  N3  UNL     1      17.626  34.777  45.795  1.00  0.00    -0.198 NA
HETATM   23  C6  UNL     1      17.970  34.763  47.203  1.00  0.00     0.108 C 
HETATM   24  C7  UNL     1      17.294  35.885  47.962  1.00  0.00     0.015 C 
HETATM   25  C8  UNL     1      15.801  35.868  47.785  1.00  0.00     0.002 C 
HETATM   26  C9  UNL     1      15.523  35.957  46.289  1.00  0.00     0.015 C 
HETATM   27  C10 UNL     1      16.188  34.778  45.629  1.00  0.00     0.108 C 
ENDBRANCH  19  22
ENDBRANCH   4  19
TORSDOF 5
ENDMDL
MODEL 3
REMARK VINA RESULT: -7.643483620      1.308      1.998
REMARK  5 active torsions:
REMARK  status: ('A' for Active; 'I' for Inactive)
REMARK       I    between atoms: C1_2  and  N1_3 
REMARK    1  A    between atoms: C1_2  and  C13_21 
REMARK    2  A    between atoms: N1_3  and  C2_5 
REMARK    3  A    between atoms: C2_5  and  C3_6 
REMARK    4  A    between atoms: N2_9  and  S1_10 
REMARK    5  A    between atoms: S1_10  and  N3_13 
ROOT
HETATM    1  C3  UNL     1      22.401  35.935  45.191  1.00  0.00     0.006 C 
HETATM    2  C4  UNL     1      22.015  36.644  43.904  1.00  0.00     0.022 C 
HETATM    3  C5  UNL     1      22.898  36.170  42.803  1.00  0.00     0.109 C 
HETATM    4  N2  UNL     1      24.294  36.238  43.071  1.00  0.00    -0.198 NA
HETATM    5  C11 UNL     1      24.693  35.792  44.370  1.00  0.00     0.109 C 
HETATM    6  C12 UNL     1      23.832  36.326  45.482  1.00  0.00     0.022 C 
ENDROOT
BRANCH   1   7
HETATM    7  C2  UNL     1      22.201  34.458  45.102  1.00  0.00     0.127 C 
BRANCH   7   8
HETATM    8  N1  UNL     1      20.870  34.139  44.705  1.00  0.00    -0.360 N 
HETATM    9  C1  UNL     1      20.542  33.301  43.605  1.00  0.00     0.221 C 
HETATM   10  O1  UNL     1      21.533  32.823  42.955  1.00  0.00    -0.273 OA
ATOM     11  H1  UNL     1      20.102  34.539  45.247  1.00  0.00     0.162 HD
BRANCH   9  12
HETATM   12  C13 UNL     1      19.146  32.998  43.231  1.00  0.00     0.078 C 
HETATM   13  C14 UNL     1      18.339  32.706  44.475  1.00  0.00     0.015 C 
HETATM   14  C15 UNL     1      16.886  32.567  44.024  1.00  0.00     0.016 C 
HETATM   15  C16 UNL     1      16.405  33.944  43.669  1.00  0.00     0.058 C 
HETATM   16 BR1  UNL     1      16.086  34.879  45.354  1.00  0.00    -0.091 Br
HETATM   17  C17 UNL     1      17.379  34.751  42.891  1.00  0.00     0.016 C 
HETATM   18  C18 UNL     1      18.532  34.006  42.332  1.00  0.00     0.015 C 
ENDBRANCH   9  12
ENDBRANCH   7   8
ENDBRANCH   1   7
BRANCH   4  19
HETATM   19  S1  UNL     1      25.024  37.712  42.593  1.00  0.00     0.282 S 
HETATM   20  O2  UNL     1      25.696  38.334  43.779  1.00  0.00    -0.194 OA
HETATM   21  O3  UNL     1      24.014  38.652  41.967  1.00  0.00    -0.194 OA
BRANCH  19  22
HETATM   22  N3  UNL     1      26.265  37.358  41.436  1.00  0.00    -0.198 NA
HETATM   23  C6  UNL     1      25.860  36.160  40.728  1.00  0.00     0.108 C 
HETATM   24  C7  UNL     1      26.975  35.608  39.866  1.00  0.00     0.015 C 
HETATM   25  C8  UNL     1      28.228  35.352  40.658  1.00  0.00     0.002 C 
HETATM   26  C9  UNL     1      28.625  36.671  41.311  1.00  0.00     0.015 C 
HETATM   27  C10 UNL     1      27.481  37.113  42.183  1.00  0.00     0.108 C 
ENDBRANCH  19  22
ENDBRANCH   4  19
TORSDOF 5
ENDMDL
MODEL 4
REMARK VINA RESULT: -7.581850426      3.204      8.255
REMARK  5 active torsions:
REMARK  status: ('A' for Active; 'I' for Inactive)
REMARK       I    between atoms: C1_2  and  N1_3 
REMARK    1  A    between atoms: C1_2  and  C13_21 
REMARK    2  A    between atoms: N1_3  and  C2_5 
REMARK    3  A    between atoms: C2_5  and  C3_6 
REMARK    4  A    between atoms: N2_9  and  S1_10 
REMARK    5  A    between atoms: S1_10  and  N3_13 
ROOT
HETATM    1  C3  UNL     1      23.756  35.609  45.513  1.00  0.00     0.006 C 
HETATM    2  C4  UNL     1      23.677  34.589  44.390  1.00  0.00     0.022 C 
HETATM    3  C5  UNL     1      22.397  34.775  43.653  1.00  0.00     0.109 C 
HETATM    4  N2  UNL     1      21.226  34.793  44.463  1.00  0.00    -0.198 NA
HETATM    5  C11 UNL     1      21.322  35.561  45.664  1.00  0.00     0.109 C 
HETATM    6  C12 UNL     1      22.592  35.321  46.435  1.00  0.00     0.022 C 
ENDROOT
BRANCH   1   7
HETATM    7  C2  UNL     1      23.769  37.011  45.002  1.00  0.00     0.127 C 
BRANCH   7   8
HETATM    8  N1  UNL     1      24.689  37.160  43.924  1.00  0.00    -0.360 N 
HETATM    9  C1  UNL     1      24.389  37.820  42.701  1.00  0.00     0.221 C 
HETATM   10  O1  UNL     1      23.207  38.296  42.601  1.00  0.00    -0.273 OA
ATOM     11  H1  UNL     1      25.624  36.767  44.037  1.00  0.00     0.162 HD
BRANCH   9  12
HETATM   12  C13 UNL     1      25.376  37.951  41.611  1.00  0.00     0.078 C 
HETATM   13  C14 UNL     1      26.768  37.724  42.156  1.00  0.00     0.015 C 
HETATM   14  C15 UNL     1      27.706  37.712  40.950  1.00  0.00     0.016 C 
HETATM   15  C16 UNL     1      27.457  36.426  40.216  1.00  0.00     0.058 C 
HETATM   16 BR1  UNL     1      28.316  35.011  41.254  1.00  0.00    -0.091 Br
HETATM   17  C17 UNL     1      26.022  36.067  40.079  1.00  0.00     0.016 C 
HETATM   18  C18 UNL     1      25.056  37.141  40.410  1.00  0.00     0.015 C 
ENDBRANCH   9  12
ENDBRANCH   7   8
ENDBRANCH   1   7
BRANCH   4  19
HETATM   19  S1  UNL     1      20.508  33.254  44.683  1.00  0.00     0.282 S 
HETATM   20  O2  UNL     1      20.074  33.115  46.110  1.00  0.00    -0.194 OA
HETATM   21  O3  UNL     1      21.449  32.140  44.275  1.00  0.00    -0.194 OA
BRANCH  19  22
HETATM   22  N3  UNL     1      19.075  33.174  43.709  1.00  0.00    -0.198 NA
HETATM   23  C6  UNL     1      18.726  34.534  43.351  1.00  0.00     0.108 C 
HETATM   24  C7  UNL     1      17.356  34.617  42.712  1.00  0.00     0.015 C 
HETATM   25  C8  UNL     1      16.289  34.011  43.582  1.00  0.00     0.002 C 
HETATM   26  C9  UNL     1      16.695  32.567  43.853  1.00  0.00     0.015 C 
HETATM   27  C10 UNL     1      18.039  32.589  44.532  1.00  0.00     0.108 C 
ENDBRANCH  19  22
ENDBRANCH   4  19
TORSDOF 5
ENDMDL
MODEL 5
REMARK VINA RESULT: -7.570973280      3.484      8.451
REMARK  5 active torsions:
REMARK  status: ('A' for Active; 'I' for Inactive)
REMARK       I    between atoms: C1_2  and  N1_3 
REMARK    1  A    between atoms: C1_2  and  C13_21 
REMARK    2  A    between atoms: N1_3  and  C2_5 
REMARK    3  A    between atoms: C2_5  and  C3_6 
REMARK    4  A    between atoms: N2_9  and  S1_10 
REMARK    5  A    between atoms: S1_10  and  N3_13 
ROOT
HETATM    1  C3  UNL     1      23.247  35.719  45.217  1.00  0.00     0.006 C 
HETATM    2  C4  UNL     1      22.617  34.502  44.563  1.00  0.00     0.022 C 
HETATM    3  C5  UNL     1      21.163  34.756  44.360  1.00  0.00     0.109 C 
HETATM    4  N2  UNL     1      20.455  35.187  45.518  1.00  0.00    -0.198 NA
HETATM    5  C11 UNL     1      21.115  36.179  46.307  1.00  0.00     0.109 C 
HETATM    6  C12 UNL     1      22.568  35.884  46.558  1.00  0.00     0.022 C 
ENDROOT
BRANCH   1   7
HETATM    7  C2  UNL     1      23.152  36.935  44.357  1.00  0.00     0.127 C 
BRANCH   7   8
HETATM    8  N1  UNL     1      24.210  36.979  43.404  1.00  0.00    -0.360 N 
HETATM    9  C1  UNL     1      24.220  37.818  42.256  1.00  0.00     0.221 C 
HETATM   10  O1  UNL     1      23.195  38.566  42.105  1.00  0.00    -0.273 OA
ATOM     11  H1  UNL     1      25.013  36.368  43.555  1.00  0.00     0.162 HD
BRANCH   9  12
HETATM   12  C13 UNL     1      25.341  37.830  41.295  1.00  0.00     0.078 C 
HETATM   13  C14 UNL     1      26.652  37.747  42.043  1.00  0.00     0.015 C 
HETATM   14  C15 UNL     1      27.744  37.598  40.985  1.00  0.00     0.016 C 
HETATM   15  C16 UNL     1      27.626  36.209  40.429  1.00  0.00     0.058 C 
HETATM   16 BR1  UNL     1      28.372  35.001  41.771  1.00  0.00    -0.091 Br
HETATM   17  C17 UNL     1      26.232  35.771  40.163  1.00  0.00     0.016 C 
HETATM   18  C18 UNL     1      25.204  36.839  40.200  1.00  0.00     0.015 C 
ENDBRANCH   9  12
ENDBRANCH   7   8
ENDBRANCH   1   7
BRANCH   4  19
HETATM   19  S1  UNL     1      19.780  33.910  46.437  1.00  0.00     0.282 S 
HETATM   20  O2  UNL     1      19.631  34.355  47.859  1.00  0.00    -0.194 OA
HETATM   21  O3  UNL     1      20.614  32.650  46.331  1.00  0.00    -0.194 OA
BRANCH  19  22
HETATM   22  N3  UNL     1      18.185  33.588  45.838  1.00  0.00    -0.198 NA
HETATM   23  C6  UNL     1      18.332  32.784  44.642  1.00  0.00     0.108 C 
HETATM   24  C7  UNL     1      17.027  32.647  43.887  1.00  0.00     0.015 C 
HETATM   25  C8  UNL     1      16.427  33.985  43.550  1.00  0.00     0.002 C 
HETATM   26  C9  UNL     1      16.239  34.738  44.863  1.00  0.00     0.015 C 
HETATM   27  C10 UNL     1      17.591  34.867  45.513  1.00  0.00     0.108 C 
ENDBRANCH  19  22
ENDBRANCH   4  19
TORSDOF 5
ENDMDL
