MODEL 1
REMARK VINA RESULT: -7.167113885      0.000      0.000
REMARK  14 active torsions:
REMARK  status: ('A' for Active; 'I' for Inactive)
REMARK    1  A    between atoms: O1_2  and  C2_3 
REMARK    2  A    between atoms: C2_3  and  C3_4 
REMARK    3  A    between atoms: C3_4  and  N1_5 
REMARK    4  A    between atoms: N1_5  and  C5_7 
REMARK    5  A    between atoms: C6_10  and  N3_11 
REMARK    6  A    between atoms: C7_16  and  N5_17 
REMARK    7  A    between atoms: C8_20  and  O2_21 
REMARK    8  A    between atoms: O2_21  and  C9_22 
REMARK    9  A    between atoms: C9_22  and  C11_24 
REMARK   10  A    between atoms: C11_24  and  O3_25 
REMARK   11  A    between atoms: C11_24  and  C12_27 
REMARK   12  A    between atoms: C12_27  and  O4_28 
REMARK   13  A    between atoms: C12_27  and  C13_30 
REMARK   14  A    between atoms: C16_35  and  N7_36 
ROOT
HETATM    1  C5  UNL     1      -2.787  25.236  16.358  1.00  0.00     0.156 A 
HETATM    2  N2  UNL     1      -2.902  24.064  15.671  1.00  0.00    -0.174 N 
ATOM      3  H2  UNL     1      -3.719  23.481  15.853  1.00  0.00     0.186 HD
HETATM    4  C6  UNL     1      -2.007  23.629  14.773  1.00  0.00     0.679 A 
HETATM    5  N4  UNL     1      -0.937  24.419  14.553  1.00  0.00    -0.174 N 
ATOM      6  H4  UNL     1      -0.243  24.108  13.872  1.00  0.00     0.186 HD
HETATM    7  C7  UNL     1      -0.728  25.581  15.169  1.00  0.00     0.152 A 
HETATM    8  C8  UNL     1      -1.663  26.024  16.104  1.00  0.00     0.158 A 
ENDROOT
BRANCH   8   9
HETATM    9  O2  UNL     1      -1.505  27.206  16.787  1.00  0.00    -0.337 OA
BRANCH   9  10
HETATM   10  C9  UNL     1      -1.975  28.487  16.380  1.00  0.00     0.157 C 
HETATM   11  C10 UNL     1      -1.033  29.208  15.441  1.00  0.00     0.042 C 
BRANCH  10  12
HETATM   12  C11 UNL     1      -2.272  29.319  17.571  1.00  0.00     0.181 C 
BRANCH  12  13
HETATM   13  O3  UNL     1      -2.738  28.616  18.684  1.00  0.00    -0.390 OA
ATOM     14  H3  UNL     1      -2.971  29.154  19.431  1.00  0.00     0.210 HD
ENDBRANCH  12  13
BRANCH  12  15
HETATM   15  C12 UNL     1      -1.205  30.287  17.936  1.00  0.00     0.200 C 
BRANCH  15  16
HETATM   16  O4  UNL     1      -0.490  29.910  19.056  1.00  0.00    -0.387 OA
ATOM     17  H4  UNL     1       0.436  30.113  18.993  1.00  0.00     0.210 HD
ENDBRANCH  15  16
BRANCH  15  18
HETATM   18  C13 UNL     1      -1.822  31.624  18.281  1.00  0.00     0.058 A 
HETATM   19  C14 UNL     1      -1.060  32.759  18.231  1.00  0.00     0.115 A 
HETATM   20  N6  UNL     1      -1.585  33.967  18.531  1.00  0.00    -0.370 N 
HETATM   21  C15 UNL     1      -2.864  34.041  18.880  1.00  0.00     0.142 A 
ATOM     22  H6  UNL     1      -1.008  34.808  18.491  1.00  0.00     0.164 HD
HETATM   23  C16 UNL     1      -3.654  32.914  18.938  1.00  0.00     0.189 A 
HETATM   24  N8  UNL     1      -3.114  31.714  18.634  1.00  0.00    -0.336 N 
ATOM     25  H8  UNL     1      -3.690  30.873  18.672  1.00  0.00     0.167 HD
BRANCH  23  26
HETATM   26  N7  UNL     1      -5.013  33.021  19.312  1.00  0.00    -0.096 N 
HETATM   27  O5  UNL     1      -5.448  32.592  20.404  1.00  0.00    -0.530 OA
HETATM   28  O6  UNL     1      -5.918  33.614  18.455  1.00  0.00    -0.530 OA
ENDBRANCH  23  26
ENDBRANCH  15  18
ENDBRANCH  12  15
ENDBRANCH  10  12
ENDBRANCH   9  10
ENDBRANCH   8   9
BRANCH   1  29
HETATM   29  N1  UNL     1      -3.836  25.629  17.232  1.00  0.00    -0.367 N 
HETATM   30  C4  UNL     1      -4.925  26.416  16.710  1.00  0.00     0.151 C 
BRANCH  29  31
HETATM   31  C3  UNL     1      -3.869  25.251  18.622  1.00  0.00     0.150 C 
BRANCH  31  32
HETATM   32  C2  UNL     1      -5.018  25.943  19.331  1.00  0.00     0.186 C 
BRANCH  32  33
HETATM   33  O1  UNL     1      -5.962  25.085  19.845  1.00  0.00    -0.394 OA
HETATM   34  C1  UNL     1      -6.166  25.149  21.197  1.00  0.00     0.201 C 
ENDBRANCH  32  33
ENDBRANCH  31  32
ENDBRANCH  29  31
ENDBRANCH   1  29
BRANCH   7  35
HETATM   35  N5  UNL     1       0.300  26.311  14.927  1.00  0.00    -0.383 N 
ATOM     36  H52 UNL     1       1.059  25.923  14.365  1.00  0.00     0.157 HD
ATOM     37  H51 UNL     1       0.388  27.263  15.282  1.00  0.00     0.157 HD
ENDBRANCH   7  35
BRANCH   4  38
HETATM   38  N3  UNL     1      -2.129  22.513  14.129  1.00  0.00    -0.234 N 
ATOM     39  H32 UNL     1      -2.770  21.797  14.469  1.00  0.00     0.174 HD
ATOM     40  H31 UNL     1      -1.610  22.297  13.278  1.00  0.00     0.174 HD
ENDBRANCH   4  38
TORSDOF 14
ENDMDL
MODEL 2
REMARK VINA RESULT: -7.016733865      2.330      7.396
REMARK  14 active torsions:
REMARK  status: ('A' for Active; 'I' for Inactive)
REMARK    1  A    between atoms: O1_2  and  C2_3 
REMARK    2  A    between atoms: C2_3  and  C3_4 
REMARK    3  A    between atoms: C3_4  and  N1_5 
REMARK    4  A    between atoms: N1_5  and  C5_7 
REMARK    5  A    between atoms: C6_10  and  N3_11 
REMARK    6  A    between atoms: C7_16  and  N5_17 
REMARK    7  A    between atoms: C8_20  and  O2_21 
REMARK    8  A    between atoms: O2_21  and  C9_22 
REMARK    9  A    between atoms: C9_22  and  C11_24 
REMARK   10  A    between atoms: C11_24  and  O3_25 
REMARK   11  A    between atoms: C11_24  and  C12_27 
REMARK   12  A    between atoms: C12_27  and  O4_28 
REMARK   13  A    between atoms: C12_27  and  C13_30 
REMARK   14  A    between atoms: C16_35  and  N7_36 
ROOT
HETATM    1  C5  UNL     1      -1.490  32.313  18.396  1.00  0.00     0.156 A 
HETATM    2  N2  UNL     1      -0.196  32.728  18.505  1.00  0.00    -0.174 N 
ATOM      3  H2  UNL     1      -0.025  33.707  18.735  1.00  0.00     0.186 HD
HETATM    4  C6  UNL     1       0.866  31.929  18.328  1.00  0.00     0.679 A 
HETATM    5  N4  UNL     1       0.611  30.640  18.024  1.00  0.00    -0.174 N 
ATOM      6  H4  UNL     1       1.405  30.015  17.886  1.00  0.00     0.186 HD
HETATM    7  C7  UNL     1      -0.613  30.133  17.893  1.00  0.00     0.152 A 
HETATM    8  C8  UNL     1      -1.712  30.973  18.077  1.00  0.00     0.158 A 
ENDROOT
BRANCH   8   9
HETATM    9  O2  UNL     1      -3.003  30.520  17.944  1.00  0.00    -0.337 OA
BRANCH   9  10
HETATM   10  C9  UNL     1      -3.958  30.957  16.983  1.00  0.00     0.157 C 
HETATM   11  C10 UNL     1      -5.151  31.662  17.591  1.00  0.00     0.042 C 
BRANCH  10  12
HETATM   12  C11 UNL     1      -4.392  29.813  16.145  1.00  0.00     0.181 C 
BRANCH  12  13
HETATM   13  O3  UNL     1      -5.356  30.116  15.181  1.00  0.00    -0.390 OA
ATOM     14  H3  UNL     1      -5.438  29.480  14.480  1.00  0.00     0.210 HD
ENDBRANCH  12  13
BRANCH  12  15
HETATM   15  C12 UNL     1      -3.285  28.998  15.582  1.00  0.00     0.200 C 
BRANCH  15  16
HETATM   16  O4  UNL     1      -3.408  28.778  14.224  1.00  0.00    -0.387 OA
ATOM     17  H4  UNL     1      -2.577  28.606  13.797  1.00  0.00     0.210 HD
ENDBRANCH  15  16
BRANCH  15  18
HETATM   18  C13 UNL     1      -3.285  27.624  16.215  1.00  0.00     0.058 A 
HETATM   19  C14 UNL     1      -2.585  26.605  15.632  1.00  0.00     0.115 A 
HETATM   20  N6  UNL     1      -2.565  25.369  16.177  1.00  0.00    -0.370 N 
HETATM   21  C15 UNL     1      -3.243  25.152  17.298  1.00  0.00     0.142 A 
ATOM     22  H6  UNL     1      -2.039  24.615  15.734  1.00  0.00     0.164 HD
HETATM   23  C16 UNL     1      -3.957  26.161  17.907  1.00  0.00     0.189 A 
HETATM   24  N8  UNL     1      -3.965  27.391  17.349  1.00  0.00    -0.336 N 
ATOM     25  H8  UNL     1      -4.490  28.146  17.792  1.00  0.00     0.167 HD
BRANCH  23  26
HETATM   26  N7  UNL     1      -4.669  25.903  19.100  1.00  0.00    -0.096 N 
HETATM   27  O5  UNL     1      -4.787  26.752  20.012  1.00  0.00    -0.530 OA
HETATM   28  O6  UNL     1      -5.265  24.673  19.294  1.00  0.00    -0.530 OA
ENDBRANCH  23  26
ENDBRANCH  15  18
ENDBRANCH  12  15
ENDBRANCH  10  12
ENDBRANCH   9  10
ENDBRANCH   8   9
BRANCH   1  29
HETATM   29  N1  UNL     1      -2.536  33.234  18.678  1.00  0.00    -0.367 N 
HETATM   30  C4  UNL     1      -3.200  33.168  19.955  1.00  0.00     0.151 C 
BRANCH  29  31
HETATM   31  C3  UNL     1      -2.945  34.251  17.744  1.00  0.00     0.150 C 
BRANCH  31  32
HETATM   32  C2  UNL     1      -4.091  35.063  18.317  1.00  0.00     0.186 C 
BRANCH  32  33
HETATM   33  O1  UNL     1      -5.034  35.442  17.389  1.00  0.00    -0.394 OA
HETATM   34  C1  UNL     1      -5.033  36.762  17.028  1.00  0.00     0.201 C 
ENDBRANCH  32  33
ENDBRANCH  31  32
ENDBRANCH  29  31
ENDBRANCH   1  29
BRANCH   7  35
HETATM   35  N5  UNL     1      -0.818  28.898  17.611  1.00  0.00    -0.383 N 
ATOM     36  H52 UNL     1      -0.185  28.429  16.962  1.00  0.00     0.157 HD
ATOM     37  H51 UNL     1      -1.595  28.369  18.008  1.00  0.00     0.157 HD
ENDBRANCH   7  35
BRANCH   4  38
HETATM   38  N3  UNL     1       2.089  32.337  18.435  1.00  0.00    -0.234 N 
ATOM     39  H32 UNL     1       2.282  33.298  18.716  1.00  0.00     0.174 HD
ATOM     40  H31 UNL     1       2.897  31.743  18.249  1.00  0.00     0.174 HD
ENDBRANCH   4  38
TORSDOF 14
ENDMDL
MODEL 3
REMARK VINA RESULT: -7.009928720      1.806      3.404
REMARK  14 active torsions:
REMARK  status: ('A' for Active; 'I' for Inactive)
REMARK    1  A    between atoms: O1_2  and  C2_3 
REMARK    2  A    between atoms: C2_3  and  C3_4 
REMARK    3  A    between atoms: C3_4  and  N1_5 
REMARK    4  A    between atoms: N1_5  and  C5_7 
REMARK    5  A    between atoms: C6_10  and  N3_11 
REMARK    6  A    between atoms: C7_16  and  N5_17 
REMARK    7  A    between atoms: C8_20  and  O2_21 
REMARK    8  A    between atoms: O2_21  and  C9_22 
REMARK    9  A    between atoms: C9_22  and  C11_24 
REMARK   10  A    between atoms: C11_24  and  O3_25 
REMARK   11  A    between atoms: C11_24  and  C12_27 
REMARK   12  A    between atoms: C12_27  and  O4_28 
REMARK   13  A    between atoms: C12_27  and  C13_30 
REMARK   14  A    between atoms: C16_35  and  N7_36 
ROOT
HETATM    1  C5  UNL     1      -2.650  26.868  16.859  1.00  0.00     0.156 A 
HETATM    2  N2  UNL     1      -1.866  25.963  16.206  1.00  0.00    -0.174 N 
ATOM      3  H2  UNL     1      -2.148  24.983  16.227  1.00  0.00     0.186 HD
HETATM    4  C6  UNL     1      -0.747  26.282  15.540  1.00  0.00     0.679 A 
HETATM    5  N4  UNL     1      -0.398  27.585  15.530  1.00  0.00    -0.174 N 
ATOM      6  H4  UNL     1       0.450  27.849  15.028  1.00  0.00     0.186 HD
HETATM    7  C7  UNL     1      -1.091  28.547  16.135  1.00  0.00     0.152 A 
HETATM    8  C8  UNL     1      -2.252  28.205  16.828  1.00  0.00     0.158 A 
ENDROOT
BRANCH   8   9
HETATM    9  O2  UNL     1      -3.010  29.145  17.486  1.00  0.00    -0.337 OA
BRANCH   9  10
HETATM   10  C9  UNL     1      -4.197  29.764  17.002  1.00  0.00     0.157 C 
HETATM   11  C10 UNL     1      -4.280  29.817  15.492  1.00  0.00     0.042 C 
BRANCH  10  12
HETATM   12  C11 UNL     1      -4.333  31.121  17.585  1.00  0.00     0.181 C 
BRANCH  12  13
HETATM   13  O3  UNL     1      -5.628  31.642  17.577  1.00  0.00    -0.390 OA
ATOM     14  H3  UNL     1      -6.320  31.000  17.471  1.00  0.00     0.210 HD
ENDBRANCH  12  13
BRANCH  12  15
HETATM   15  C12 UNL     1      -3.673  31.301  18.905  1.00  0.00     0.200 C 
BRANCH  15  16
HETATM   16  O4  UNL     1      -4.457  31.984  19.815  1.00  0.00    -0.387 OA
ATOM     17  H4  UNL     1      -4.242  31.781  20.717  1.00  0.00     0.210 HD
ENDBRANCH  15  16
BRANCH  15  18
HETATM   18  C13 UNL     1      -2.422  32.134  18.743  1.00  0.00     0.058 A 
HETATM   19  C14 UNL     1      -2.515  33.497  18.671  1.00  0.00     0.115 A 
HETATM   20  N6  UNL     1      -1.414  34.266  18.529  1.00  0.00    -0.370 N 
HETATM   21  C15 UNL     1      -0.225  33.678  18.459  1.00  0.00     0.142 A 
ATOM     22  H6  UNL     1      -1.494  35.282  18.478  1.00  0.00     0.164 HD
HETATM   23  C16 UNL     1      -0.103  32.307  18.528  1.00  0.00     0.189 A 
HETATM   24  N8  UNL     1      -1.214  31.552  18.670  1.00  0.00    -0.336 N 
ATOM     25  H8  UNL     1      -1.135  30.537  18.724  1.00  0.00     0.167 HD
BRANCH  23  26
HETATM   26  N7  UNL     1       1.174  31.706  18.450  1.00  0.00    -0.096 N 
HETATM   27  O5  UNL     1       1.333  30.491  18.192  1.00  0.00    -0.530 OA
HETATM   28  O6  UNL     1       2.306  32.465  18.666  1.00  0.00    -0.530 OA
ENDBRANCH  23  26
ENDBRANCH  15  18
ENDBRANCH  12  15
ENDBRANCH  10  12
ENDBRANCH   9  10
ENDBRANCH   8   9
BRANCH   1  29
HETATM   29  N1  UNL     1      -3.854  26.423  17.470  1.00  0.00    -0.367 N 
HETATM   30  C4  UNL     1      -4.974  26.073  16.634  1.00  0.00     0.151 C 
BRANCH  29  31
HETATM   31  C3  UNL     1      -3.993  26.285  18.897  1.00  0.00     0.150 C 
BRANCH  31  32
HETATM   32  C2  UNL     1      -4.505  24.900  19.245  1.00  0.00     0.186 C 
BRANCH  32  33
HETATM   33  O1  UNL     1      -5.772  24.885  19.781  1.00  0.00    -0.394 OA
HETATM   34  C1  UNL     1      -5.883  25.279  21.087  1.00  0.00     0.201 C 
ENDBRANCH  32  33
ENDBRANCH  31  32
ENDBRANCH  29  31
ENDBRANCH   1  29
BRANCH   7  35
HETATM   35  N5  UNL     1      -0.732  29.779  16.096  1.00  0.00    -0.383 N 
ATOM     36  H52 UNL     1      -1.204  30.410  15.448  1.00  0.00     0.157 HD
ATOM     37  H51 UNL     1       0.013  30.149  16.687  1.00  0.00     0.157 HD
ENDBRANCH   7  35
BRANCH   4  38
HETATM   38  N3  UNL     1      -0.013  25.412  14.925  1.00  0.00    -0.234 N 
ATOM     39  H32 UNL     1       0.596  24.792  15.459  1.00  0.00     0.174 HD
ATOM     40  H31 UNL     1      -0.002  25.302  13.911  1.00  0.00     0.174 HD
ENDBRANCH   4  38
TORSDOF 14
ENDMDL
MODEL 4
REMARK VINA RESULT: -6.851836624      2.564      7.866
REMARK  14 active torsions:
REMARK  status: ('A' for Active; 'I' for Inactive)
REMARK    1  A    between atoms: O1_2  and  C2_3 
REMARK    2  A    between atoms: C2_3  and  C3_4 
REMARK    3  A    between atoms: C3_4  and  N1_5 
REMARK    4  A    between atoms: N1_5  and  C5_7 
REMARK    5  A    between atoms: C6_10  and  N3_11 
REMARK    6  A    between atoms: C7_16  and  N5_17 
REMARK    7  A    between atoms: C8_20  and  O2_21 
REMARK    8  A    between atoms: O2_21  and  C9_22 
REMARK    9  A    between atoms: C9_22  and  C11_24 
REMARK   10  A    between atoms: C11_24  and  O3_25 
REMARK   11  A    between atoms: C11_24  and  C12_27 
REMARK   12  A    between atoms: C12_27  and  O4_28 
REMARK   13  A    between atoms: C12_27  and  C13_30 
REMARK   14  A    between atoms: C16_35  and  N7_36 
ROOT
HETATM    1  C5  UNL     1      -1.462  32.212  18.376  1.00  0.00     0.156 A 
HETATM    2  N2  UNL     1      -0.166  32.615  18.503  1.00  0.00    -0.174 N 
ATOM      3  H2  UNL     1       0.011  33.588  18.753  1.00  0.00     0.186 HD
HETATM    4  C6  UNL     1       0.891  31.812  18.318  1.00  0.00     0.679 A 
HETATM    5  N4  UNL     1       0.629  30.531  17.988  1.00  0.00    -0.174 N 
ATOM      6  H4  UNL     1       1.420  29.902  17.843  1.00  0.00     0.186 HD
HETATM    7  C7  UNL     1      -0.597  30.036  17.838  1.00  0.00     0.152 A 
HETATM    8  C8  UNL     1      -1.691  30.879  18.030  1.00  0.00     0.158 A 
ENDROOT
BRANCH   8   9
HETATM    9  O2  UNL     1      -2.985  30.438  17.880  1.00  0.00    -0.337 OA
BRANCH   9  10
HETATM   10  C9  UNL     1      -3.923  30.887  16.908  1.00  0.00     0.157 C 
HETATM   11  C10 UNL     1      -5.109  31.615  17.501  1.00  0.00     0.042 C 
BRANCH  10  12
HETATM   12  C11 UNL     1      -4.369  29.746  16.071  1.00  0.00     0.181 C 
BRANCH  12  13
HETATM   13  O3  UNL     1      -5.383  30.041  15.158  1.00  0.00    -0.390 OA
ATOM     14  H3  UNL     1      -5.179  30.729  14.537  1.00  0.00     0.210 HD
ENDBRANCH  12  13
BRANCH  12  15
HETATM   15  C12 UNL     1      -3.270  28.967  15.444  1.00  0.00     0.200 C 
BRANCH  15  16
HETATM   16  O4  UNL     1      -3.337  28.949  14.064  1.00  0.00    -0.387 OA
ATOM     17  H4  UNL     1      -2.527  29.219  13.648  1.00  0.00     0.210 HD
ENDBRANCH  15  16
BRANCH  15  18
HETATM   18  C13 UNL     1      -3.358  27.520  15.872  1.00  0.00     0.058 A 
HETATM   19  C14 UNL     1      -4.026  27.188  17.018  1.00  0.00     0.115 A 
HETATM   20  N6  UNL     1      -4.123  25.903  17.424  1.00  0.00    -0.370 N 
HETATM   21  C15 UNL     1      -3.554  24.954  16.689  1.00  0.00     0.142 A 
ATOM     22  H6  UNL     1      -4.624  25.665  18.280  1.00  0.00     0.164 HD
HETATM   23  C16 UNL     1      -2.875  25.260  15.530  1.00  0.00     0.189 A 
HETATM   24  N8  UNL     1      -2.788  26.550  15.138  1.00  0.00    -0.336 N 
ATOM     25  H8  UNL     1      -2.289  26.789  14.281  1.00  0.00     0.167 HD
BRANCH  23  26
HETATM   26  N7  UNL     1      -2.279  24.231  14.766  1.00  0.00    -0.096 N 
HETATM   27  O5  UNL     1      -1.097  24.291  14.358  1.00  0.00    -0.530 OA
HETATM   28  O6  UNL     1      -3.009  23.106  14.438  1.00  0.00    -0.530 OA
ENDBRANCH  23  26
ENDBRANCH  15  18
ENDBRANCH  12  15
ENDBRANCH  10  12
ENDBRANCH   9  10
ENDBRANCH   8   9
BRANCH   1  29
HETATM   29  N1  UNL     1      -2.503  33.134  18.669  1.00  0.00    -0.367 N 
HETATM   30  C4  UNL     1      -3.189  33.037  19.933  1.00  0.00     0.151 C 
BRANCH  29  31
HETATM   31  C3  UNL     1      -2.887  34.183  17.759  1.00  0.00     0.150 C 
BRANCH  31  32
HETATM   32  C2  UNL     1      -4.086  34.938  18.300  1.00  0.00     0.186 C 
BRANCH  32  33
HETATM   33  O1  UNL     1      -4.946  35.399  17.331  1.00  0.00    -0.394 OA
HETATM   34  C1  UNL     1      -4.979  36.755  17.145  1.00  0.00     0.201 C 
ENDBRANCH  32  33
ENDBRANCH  31  32
ENDBRANCH  29  31
ENDBRANCH   1  29
BRANCH   7  35
HETATM   35  N5  UNL     1      -0.808  28.807  17.531  1.00  0.00    -0.383 N 
ATOM     36  H52 UNL     1      -0.063  28.126  17.680  1.00  0.00     0.157 HD
ATOM     37  H51 UNL     1      -1.694  28.488  17.137  1.00  0.00     0.157 HD
ENDBRANCH   7  35
BRANCH   4  38
HETATM   38  N3  UNL     1       2.117  32.209  18.441  1.00  0.00    -0.234 N 
ATOM     39  H32 UNL     1       2.375  32.836  19.202  1.00  0.00     0.174 HD
ATOM     40  H31 UNL     1       2.865  31.927  17.807  1.00  0.00     0.174 HD
ENDBRANCH   4  38
TORSDOF 14
ENDMDL
MODEL 5
REMARK VINA RESULT: -6.829328840      2.223      4.084
REMARK  14 active torsions:
REMARK  status: ('A' for Active; 'I' for Inactive)
REMARK    1  A    between atoms: O1_2  and  C2_3 
REMARK    2  A    between atoms: C2_3  and  C3_4 
REMARK    3  A    between atoms: C3_4  and  N1_5 
REMARK    4  A    between atoms: N1_5  and  C5_7 
REMARK    5  A    between atoms: C6_10  and  N3_11 
REMARK    6  A    between atoms: C7_16  and  N5_17 
REMARK    7  A    between atoms: C8_20  and  O2_21 
REMARK    8  A    between atoms: O2_21  and  C9_22 
REMARK    9  A    between atoms: C9_22  and  C11_24 
REMARK   10  A    between atoms: C11_24  and  O3_25 
REMARK   11  A    between atoms: C11_24  and  C12_27 
REMARK   12  A    between atoms: C12_27  and  O4_28 
REMARK   13  A    between atoms: C12_27  and  C13_30 
REMARK   14  A    between atoms: C16_35  and  N7_36 
ROOT
HETATM    1  C5  UNL     1      -1.700  27.403  15.929  1.00  0.00     0.156 A 
HETATM    2  N2  UNL     1      -1.098  26.261  15.490  1.00  0.00    -0.174 N 
ATOM      3  H2  UNL     1      -0.103  26.299  15.268  1.00  0.00     0.186 HD
HETATM    4  C6  UNL     1      -1.732  25.091  15.332  1.00  0.00     0.679 A 
HETATM    5  N4  UNL     1      -3.047  25.068  15.633  1.00  0.00    -0.174 N 
ATOM      6  H4  UNL     1      -3.549  24.188  15.520  1.00  0.00     0.186 HD
HETATM    7  C7  UNL     1      -3.730  26.125  16.066  1.00  0.00     0.152 A 
HETATM    8  C8  UNL     1      -3.062  27.339  16.226  1.00  0.00     0.158 A 
ENDROOT
BRANCH   8   9
HETATM    9  O2  UNL     1      -3.708  28.474  16.657  1.00  0.00    -0.337 OA
BRANCH   9  10
HETATM   10  C9  UNL     1      -4.510  29.343  15.865  1.00  0.00     0.157 C 
HETATM   11  C10 UNL     1      -4.030  29.476  14.437  1.00  0.00     0.042 C 
BRANCH  10  12
HETATM   12  C11 UNL     1      -4.607  30.673  16.515  1.00  0.00     0.181 C 
BRANCH  12  13
HETATM   13  O3  UNL     1      -5.893  31.050  16.905  1.00  0.00    -0.390 OA
ATOM     14  H3  UNL     1      -5.931  31.671  17.623  1.00  0.00     0.210 HD
ENDBRANCH  12  13
BRANCH  12  15
HETATM   15  C12 UNL     1      -3.610  30.915  17.591  1.00  0.00     0.200 C 
BRANCH  15  16
HETATM   16  O4  UNL     1      -3.686  29.994  18.618  1.00  0.00    -0.387 OA
ATOM     17  H4  UNL     1      -3.138  29.231  18.475  1.00  0.00     0.210 HD
ENDBRANCH  15  16
BRANCH  15  18
HETATM   18  C13 UNL     1      -3.865  32.259  18.234  1.00  0.00     0.058 A 
HETATM   19  C14 UNL     1      -3.128  33.347  17.854  1.00  0.00     0.115 A 
HETATM   20  N6  UNL     1      -3.336  34.561  18.410  1.00  0.00    -0.370 N 
HETATM   21  C15 UNL     1      -4.275  34.688  19.340  1.00  0.00     0.142 A 
ATOM     22  H6  UNL     1      -2.781  35.366  18.119  1.00  0.00     0.164 HD
HETATM   23  C16 UNL     1      -5.032  33.609  19.741  1.00  0.00     0.189 A 
HETATM   24  N8  UNL     1      -4.812  32.402  19.176  1.00  0.00    -0.336 N 
ATOM     25  H8  UNL     1      -5.367  31.596  19.464  1.00  0.00     0.167 HD
BRANCH  23  26
HETATM   26  N7  UNL     1      -6.025  33.771  20.734  1.00  0.00    -0.096 N 
HETATM   27  O5  UNL     1      -6.722  32.819  21.153  1.00  0.00    -0.530 OA
HETATM   28  O6  UNL     1      -6.259  35.018  21.276  1.00  0.00    -0.530 OA
ENDBRANCH  23  26
ENDBRANCH  15  18
ENDBRANCH  12  15
ENDBRANCH  10  12
ENDBRANCH   9  10
ENDBRANCH   8   9
BRANCH   1  29
HETATM   29  N1  UNL     1      -0.909  28.567  16.128  1.00  0.00    -0.367 N 
HETATM   30  C4  UNL     1      -0.497  29.338  14.982  1.00  0.00     0.151 C 
BRANCH  29  31
HETATM   31  C3  UNL     1      -0.521  29.024  17.438  1.00  0.00     0.150 C 
BRANCH  31  32
HETATM   32  C2  UNL     1      -0.016  30.453  17.370  1.00  0.00     0.186 C 
BRANCH  32  33
HETATM   33  O1  UNL     1       1.077  30.703  18.166  1.00  0.00    -0.394 OA
HETATM   34  C1  UNL     1       1.485  32.008  18.243  1.00  0.00     0.201 C 
ENDBRANCH  32  33
ENDBRANCH  31  32
ENDBRANCH  29  31
ENDBRANCH   1  29
BRANCH   7  35
HETATM   35  N5  UNL     1      -4.981  26.064  16.351  1.00  0.00    -0.383 N 
ATOM     36  H52 UNL     1      -5.541  25.310  15.952  1.00  0.00     0.157 HD
ATOM     37  H51 UNL     1      -5.437  26.747  16.957  1.00  0.00     0.157 HD
ENDBRANCH   7  35
BRANCH   4  38
HETATM   38  N3  UNL     1      -1.148  24.014  14.914  1.00  0.00    -0.234 N 
ATOM     39  H32 UNL     1      -0.147  24.023  14.717  1.00  0.00     0.174 HD
ATOM     40  H31 UNL     1      -1.637  23.132  14.765  1.00  0.00     0.174 HD
ENDBRANCH   4  38
TORSDOF 14
ENDMDL
