MODEL 1
REMARK VINA RESULT: -8.905926699      0.000      0.000
REMARK  13 active torsions:
REMARK  status: ('A' for Active; 'I' for Inactive)
REMARK    1  A    between atoms: O1_2  and  C2_3 
REMARK    2  A    between atoms: C2_3  and  C3_4 
REMARK    3  A    between atoms: C5_6  and  C6_7 
REMARK    4  A    between atoms: C6_7  and  O2_8 
REMARK    5  A    between atoms: C6_7  and  O3_10 
REMARK    6  A    between atoms: C8_13  and  C9_14 
REMARK    7  A    between atoms: C9_14  and  O4_15 
REMARK    8  A    between atoms: C9_14  and  N1_17 
REMARK    9  A    between atoms: N1_17  and  N2_19 
REMARK   10  A    between atoms: N2_19  and  C10_21 
REMARK   11  A    between atoms: C11_22  and  N3_23 
REMARK   12  A    between atoms: N3_23  and  N4_25 
REMARK       I    between atoms: N4_25  and  C12_27 
REMARK   13  A    between atoms: C16_34  and  O8_35 
ROOT
HETATM    1  C9  UNL     1      -1.498  29.237  16.554  1.00  0.00     0.170 C 
ENDROOT
BRANCH   1   2
HETATM    2  C8  UNL     1      -2.132  30.389  17.144  1.00  0.00     0.075 C 
HETATM    3  C7  UNL     1      -1.236  31.376  17.810  1.00  0.00     0.033 C 
HETATM    4  C5  UNL     1      -1.484  32.377  18.628  1.00  0.00    -0.001 C 
HETATM    5  C4  UNL     1      -2.803  32.784  19.110  1.00  0.00     0.047 C 
HETATM    6  C3  UNL     1      -4.011  32.431  18.647  1.00  0.00     0.080 C 
HETATM    7  O9  UNL     1      -4.230  31.579  17.583  1.00  0.00    -0.289 OA
HETATM    8  C16 UNL     1      -3.432  30.515  17.067  1.00  0.00     0.200 C 
BRANCH   4   9
HETATM    9  C6  UNL     1      -0.311  33.175  19.112  1.00  0.00     0.288 C 
BRANCH   9  10
HETATM   10  O2  UNL     1       0.850  32.565  18.640  1.00  0.00    -0.367 OA
ATOM     11  H2  UNL     1       1.574  33.165  18.778  1.00  0.00     0.213 HD
ENDBRANCH   9  10
BRANCH   9  12
HETATM   12  O3  UNL     1      -0.461  34.473  18.695  1.00  0.00    -0.367 OA
ATOM     13  H3  UNL     1      -1.200  34.857  19.152  1.00  0.00     0.213 HD
ENDBRANCH   9  12
ENDBRANCH   4   9
BRANCH   6  14
HETATM   14  C2  UNL     1      -5.205  32.993  19.323  1.00  0.00     0.232 C 
BRANCH  14  15
HETATM   15  O1  UNL     1      -5.865  33.812  18.408  1.00  0.00    -0.390 OA
HETATM   16  C1  UNL     1      -5.639  35.163  18.704  1.00  0.00     0.201 C 
ENDBRANCH  14  15
ENDBRANCH   6  14
BRANCH   8  17
HETATM   17  O8  UNL     1      -4.160  29.535  16.424  1.00  0.00    -0.335 OA
HETATM   18  C17 UNL     1      -4.879  29.808  15.243  1.00  0.00     0.212 C 
ENDBRANCH   8  17
ENDBRANCH   1   2
BRANCH   1  19
HETATM   19  O4  UNL     1      -1.464  29.284  15.243  1.00  0.00    -0.344 OA
ATOM     20  H4  UNL     1      -2.041  28.650  14.832  1.00  0.00     0.219 HD
ENDBRANCH   1  19
BRANCH   1  21
HETATM   21  N1  UNL     1      -0.925  28.104  17.088  1.00  0.00    -0.279 N 
ATOM     22  H1  UNL     1      -0.191  28.172  17.793  1.00  0.00     0.189 HD
BRANCH  21  23
HETATM   23  N2  UNL     1      -1.384  26.827  16.627  1.00  0.00    -0.293 N 
ATOM     24  H2  UNL     1      -0.823  26.274  15.979  1.00  0.00     0.187 HD
BRANCH  23  25
HETATM   25  C10 UNL     1      -2.630  26.351  17.091  1.00  0.00     0.135 A 
HETATM   26  C11 UNL     1      -3.473  25.325  16.738  1.00  0.00     0.135 A 
HETATM   27  C14 UNL     1      -4.351  25.723  17.754  1.00  0.00     0.254 A 
HETATM   28  O6  UNL     1      -5.463  25.246  18.115  1.00  0.00    -0.281 OA
HETATM   29  C15 UNL     1      -3.507  26.742  18.100  1.00  0.00     0.254 A 
HETATM   30  O7  UNL     1      -3.535  27.644  18.972  1.00  0.00    -0.281 OA
BRANCH  26  31
HETATM   31  N3  UNL     1      -3.469  24.289  15.766  1.00  0.00    -0.292 N 
ATOM     32  H3  UNL     1      -4.338  24.004  15.313  1.00  0.00     0.187 HD
BRANCH  31  33
HETATM   33  N4  UNL     1      -2.268  23.667  15.436  1.00  0.00    -0.270 N 
HETATM   34  C12 UNL     1      -2.057  23.108  14.152  1.00  0.00     0.232 C 
HETATM   35  C13 UNL     1      -0.762  22.458  13.855  1.00  0.00     0.119 C 
HETATM   36  O5  UNL     1      -3.001  23.189  13.298  1.00  0.00    -0.272 OA
ATOM     37  H4  UNL     1      -1.524  23.613  16.133  1.00  0.00     0.190 HD
ENDBRANCH  31  33
ENDBRANCH  26  31
ENDBRANCH  23  25
ENDBRANCH  21  23
ENDBRANCH   1  21
TORSDOF 13
ENDMDL
MODEL 2
REMARK VINA RESULT: -8.900493107      1.448      3.389
REMARK  13 active torsions:
REMARK  status: ('A' for Active; 'I' for Inactive)
REMARK    1  A    between atoms: O1_2  and  C2_3 
REMARK    2  A    between atoms: C2_3  and  C3_4 
REMARK    3  A    between atoms: C5_6  and  C6_7 
REMARK    4  A    between atoms: C6_7  and  O2_8 
REMARK    5  A    between atoms: C6_7  and  O3_10 
REMARK    6  A    between atoms: C8_13  and  C9_14 
REMARK    7  A    between atoms: C9_14  and  O4_15 
REMARK    8  A    between atoms: C9_14  and  N1_17 
REMARK    9  A    between atoms: N1_17  and  N2_19 
REMARK   10  A    between atoms: N2_19  and  C10_21 
REMARK   11  A    between atoms: C11_22  and  N3_23 
REMARK   12  A    between atoms: N3_23  and  N4_25 
REMARK       I    between atoms: N4_25  and  C12_27 
REMARK   13  A    between atoms: C16_34  and  O8_35 
ROOT
HETATM    1  C9  UNL     1      -4.230  30.022  16.055  1.00  0.00     0.170 C 
ENDROOT
BRANCH   1   2
HETATM    2  C8  UNL     1      -3.538  30.781  17.065  1.00  0.00     0.075 C 
HETATM    3  C7  UNL     1      -4.367  31.701  17.894  1.00  0.00     0.033 C 
HETATM    4  C5  UNL     1      -4.044  32.683  18.709  1.00  0.00    -0.001 C 
HETATM    5  C4  UNL     1      -2.687  33.133  19.014  1.00  0.00     0.047 C 
HETATM    6  C3  UNL     1      -1.522  32.514  18.766  1.00  0.00     0.080 C 
HETATM    7  O9  UNL     1      -1.398  31.286  18.149  1.00  0.00    -0.289 OA
HETATM    8  C16 UNL     1      -2.246  30.630  17.209  1.00  0.00     0.200 C 
BRANCH   4   9
HETATM    9  C6  UNL     1      -5.166  33.410  19.388  1.00  0.00     0.288 C 
BRANCH   9  10
HETATM   10  O2  UNL     1      -4.610  34.315  20.291  1.00  0.00    -0.367 OA
ATOM     11  H2  UNL     1      -4.303  35.069  19.802  1.00  0.00     0.213 HD
ENDBRANCH   9  10
BRANCH   9  12
HETATM   12  O3  UNL     1      -5.951  33.999  18.429  1.00  0.00    -0.367 OA
ATOM     13  H3  UNL     1      -6.490  34.662  18.843  1.00  0.00     0.213 HD
ENDBRANCH   9  12
ENDBRANCH   4   9
BRANCH   6  14
HETATM   14  C2  UNL     1      -0.273  33.194  19.184  1.00  0.00     0.232 C 
BRANCH  14  15
HETATM   15  O1  UNL     1       0.633  33.101  18.129  1.00  0.00    -0.390 OA
HETATM   16  C1  UNL     1       1.779  32.396  18.524  1.00  0.00     0.201 C 
ENDBRANCH  14  15
ENDBRANCH   6  14
BRANCH   8  17
HETATM   17  O8  UNL     1      -1.583  29.746  16.382  1.00  0.00    -0.335 OA
HETATM   18  C17 UNL     1      -0.762  28.726  16.903  1.00  0.00     0.212 C 
ENDBRANCH   8  17
ENDBRANCH   1   2
BRANCH   1  19
HETATM   19  O4  UNL     1      -5.445  30.462  15.823  1.00  0.00    -0.344 OA
ATOM     20  H4  UNL     1      -6.075  29.763  15.684  1.00  0.00     0.219 HD
ENDBRANCH   1  19
BRANCH   1  21
HETATM   21  N1  UNL     1      -3.875  28.933  15.290  1.00  0.00    -0.279 N 
ATOM     22  H1  UNL     1      -3.153  29.011  14.573  1.00  0.00     0.189 HD
BRANCH  21  23
HETATM   23  N2  UNL     1      -4.544  27.688  15.525  1.00  0.00    -0.293 N 
ATOM     24  H2  UNL     1      -5.373  27.432  14.988  1.00  0.00     0.187 HD
BRANCH  23  25
HETATM   25  C10 UNL     1      -4.030  26.823  16.516  1.00  0.00     0.135 A 
HETATM   26  C11 UNL     1      -3.596  25.519  16.541  1.00  0.00     0.135 A 
HETATM   27  C14 UNL     1      -3.329  25.655  17.910  1.00  0.00     0.254 A 
HETATM   28  O6  UNL     1      -2.867  24.828  18.744  1.00  0.00    -0.281 OA
HETATM   29  C15 UNL     1      -3.762  26.952  17.877  1.00  0.00     0.254 A 
HETATM   30  O7  UNL     1      -3.865  27.862  18.735  1.00  0.00    -0.281 OA
BRANCH  26  31
HETATM   31  N3  UNL     1      -3.462  24.470  15.593  1.00  0.00    -0.292 N 
ATOM     32  H3  UNL     1      -4.229  24.249  14.958  1.00  0.00     0.187 HD
BRANCH  31  33
HETATM   33  N4  UNL     1      -2.274  23.746  15.539  1.00  0.00    -0.270 N 
HETATM   34  C12 UNL     1      -1.918  23.001  14.388  1.00  0.00     0.232 C 
HETATM   35  C13 UNL     1      -0.644  22.249  14.385  1.00  0.00     0.119 C 
HETATM   36  O5  UNL     1      -2.717  23.009  13.395  1.00  0.00    -0.272 OA
ATOM     37  H4  UNL     1      -1.647  23.751  16.345  1.00  0.00     0.190 HD
ENDBRANCH  31  33
ENDBRANCH  26  31
ENDBRANCH  23  25
ENDBRANCH  21  23
ENDBRANCH   1  21
TORSDOF 13
ENDMDL
MODEL 3
REMARK VINA RESULT: -8.746927401      1.472      3.220
REMARK  13 active torsions:
REMARK  status: ('A' for Active; 'I' for Inactive)
REMARK    1  A    between atoms: O1_2  and  C2_3 
REMARK    2  A    between atoms: C2_3  and  C3_4 
REMARK    3  A    between atoms: C5_6  and  C6_7 
REMARK    4  A    between atoms: C6_7  and  O2_8 
REMARK    5  A    between atoms: C6_7  and  O3_10 
REMARK    6  A    between atoms: C8_13  and  C9_14 
REMARK    7  A    between atoms: C9_14  and  O4_15 
REMARK    8  A    between atoms: C9_14  and  N1_17 
REMARK    9  A    between atoms: N1_17  and  N2_19 
REMARK   10  A    between atoms: N2_19  and  C10_21 
REMARK   11  A    between atoms: C11_22  and  N3_23 
REMARK   12  A    between atoms: N3_23  and  N4_25 
REMARK       I    between atoms: N4_25  and  C12_27 
REMARK   13  A    between atoms: C16_34  and  O8_35 
ROOT
HETATM    1  C9  UNL     1      -1.924  28.327  16.747  1.00  0.00     0.170 C 
ENDROOT
BRANCH   1   2
HETATM    2  C8  UNL     1      -2.057  29.713  17.116  1.00  0.00     0.075 C 
HETATM    3  C7  UNL     1      -0.826  30.396  17.603  1.00  0.00     0.033 C 
HETATM    4  C5  UNL     1      -0.643  31.541  18.227  1.00  0.00    -0.001 C 
HETATM    5  C4  UNL     1      -1.691  32.483  18.615  1.00  0.00     0.047 C 
HETATM    6  C3  UNL     1      -2.969  32.529  18.210  1.00  0.00     0.080 C 
HETATM    7  O9  UNL     1      -3.545  31.653  17.313  1.00  0.00    -0.289 OA
HETATM    8  C16 UNL     1      -3.223  30.298  17.004  1.00  0.00     0.200 C 
BRANCH   4   9
HETATM    9  C6  UNL     1       0.767  31.917  18.573  1.00  0.00     0.288 C 
BRANCH   9  10
HETATM   10  O2  UNL     1       1.624  31.052  17.894  1.00  0.00    -0.367 OA
ATOM     11  H2  UNL     1       2.465  31.483  17.802  1.00  0.00     0.213 HD
ENDBRANCH   9  10
BRANCH   9  12
HETATM   12  O3  UNL     1       0.958  33.239  18.261  1.00  0.00    -0.367 OA
ATOM     13  H3  UNL     1       1.362  33.294  17.403  1.00  0.00     0.213 HD
ENDBRANCH   9  12
ENDBRANCH   4   9
BRANCH   6  14
HETATM   14  C2  UNL     1      -3.833  33.600  18.763  1.00  0.00     0.232 C 
BRANCH  14  15
HETATM   15  O1  UNL     1      -4.153  34.468  17.720  1.00  0.00    -0.390 OA
HETATM   16  C1  UNL     1      -4.639  35.683  18.221  1.00  0.00     0.201 C 
ENDBRANCH  14  15
ENDBRANCH   6  14
BRANCH   8  17
HETATM   17  O8  UNL     1      -4.294  29.563  16.539  1.00  0.00    -0.335 OA
HETATM   18  C17 UNL     1      -4.813  29.759  15.244  1.00  0.00     0.212 C 
ENDBRANCH   8  17
ENDBRANCH   1   2
BRANCH   1  19
HETATM   19  O4  UNL     1      -2.278  27.503  17.706  1.00  0.00    -0.344 OA
ATOM     20  H4  UNL     1      -1.538  27.133  18.173  1.00  0.00     0.219 HD
ENDBRANCH   1  19
BRANCH   1  21
HETATM   21  N1  UNL     1      -1.501  27.697  15.598  1.00  0.00    -0.279 N 
ATOM     22  H1  UNL     1      -1.589  28.152  14.689  1.00  0.00     0.189 HD
BRANCH  21  23
HETATM   23  N2  UNL     1      -0.933  26.386  15.710  1.00  0.00    -0.293 N 
ATOM     24  H2  UNL     1       0.017  26.257  16.059  1.00  0.00     0.187 HD
BRANCH  23  25
HETATM   25  C10 UNL     1      -1.718  25.276  15.326  1.00  0.00     0.135 A 
HETATM   26  C11 UNL     1      -2.968  24.808  15.652  1.00  0.00     0.135 A 
HETATM   27  C14 UNL     1      -2.771  23.731  14.777  1.00  0.00     0.254 A 
HETATM   28  O6  UNL     1      -3.525  22.763  14.482  1.00  0.00    -0.281 OA
HETATM   29  C15 UNL     1      -1.529  24.203  14.458  1.00  0.00     0.254 A 
HETATM   30  O7  UNL     1      -0.614  23.811  13.694  1.00  0.00    -0.281 OA
BRANCH  26  31
HETATM   31  N3  UNL     1      -4.025  25.228  16.503  1.00  0.00    -0.292 N 
ATOM     32  H3  UNL     1      -4.703  25.918  16.181  1.00  0.00     0.187 HD
BRANCH  31  33
HETATM   33  N4  UNL     1      -4.126  24.687  17.783  1.00  0.00    -0.270 N 
HETATM   34  C12 UNL     1      -4.470  25.492  18.896  1.00  0.00     0.232 C 
HETATM   35  C13 UNL     1      -4.563  24.867  20.233  1.00  0.00     0.119 C 
HETATM   36  O5  UNL     1      -4.686  26.734  18.698  1.00  0.00    -0.272 OA
ATOM     37  H4  UNL     1      -3.949  23.692  17.921  1.00  0.00     0.190 HD
ENDBRANCH  31  33
ENDBRANCH  26  31
ENDBRANCH  23  25
ENDBRANCH  21  23
ENDBRANCH   1  21
TORSDOF 13
ENDMDL
MODEL 4
REMARK VINA RESULT: -8.504647654      1.345      1.638
REMARK  13 active torsions:
REMARK  status: ('A' for Active; 'I' for Inactive)
REMARK    1  A    between atoms: O1_2  and  C2_3 
REMARK    2  A    between atoms: C2_3  and  C3_4 
REMARK    3  A    between atoms: C5_6  and  C6_7 
REMARK    4  A    between atoms: C6_7  and  O2_8 
REMARK    5  A    between atoms: C6_7  and  O3_10 
REMARK    6  A    between atoms: C8_13  and  C9_14 
REMARK    7  A    between atoms: C9_14  and  O4_15 
REMARK    8  A    between atoms: C9_14  and  N1_17 
REMARK    9  A    between atoms: N1_17  and  N2_19 
REMARK   10  A    between atoms: N2_19  and  C10_21 
REMARK   11  A    between atoms: C11_22  and  N3_23 
REMARK   12  A    between atoms: N3_23  and  N4_25 
REMARK       I    between atoms: N4_25  and  C12_27 
REMARK   13  A    between atoms: C16_34  and  O8_35 
ROOT
HETATM    1  C9  UNL     1      -1.787  28.734  16.773  1.00  0.00     0.170 C 
ENDROOT
BRANCH   1   2
HETATM    2  C8  UNL     1      -1.923  30.117  17.152  1.00  0.00     0.075 C 
HETATM    3  C7  UNL     1      -0.666  30.842  17.491  1.00  0.00     0.033 C 
HETATM    4  C5  UNL     1      -0.450  31.996  18.087  1.00  0.00    -0.001 C 
HETATM    5  C4  UNL     1      -1.476  32.905  18.594  1.00  0.00     0.047 C 
HETATM    6  C3  UNL     1      -2.794  32.907  18.341  1.00  0.00     0.080 C 
HETATM    7  O9  UNL     1      -3.441  32.007  17.519  1.00  0.00    -0.289 OA
HETATM    8  C16 UNL     1      -3.112  30.662  17.176  1.00  0.00     0.200 C 
BRANCH   4   9
HETATM    9  C6  UNL     1       0.977  32.420  18.265  1.00  0.00     0.288 C 
BRANCH   9  10
HETATM   10  O2  UNL     1       1.058  33.188  19.426  1.00  0.00    -0.367 OA
ATOM     11  H2  UNL     1       0.258  33.694  19.500  1.00  0.00     0.213 HD
ENDBRANCH   9  10
BRANCH   9  12
HETATM   12  O3  UNL     1       1.768  31.299  18.290  1.00  0.00    -0.367 OA
ATOM     13  H3  UNL     1       2.009  31.116  19.190  1.00  0.00     0.213 HD
ENDBRANCH   9  12
ENDBRANCH   4   9
BRANCH   6  14
HETATM   14  C2  UNL     1      -3.623  33.952  18.989  1.00  0.00     0.232 C 
BRANCH  14  15
HETATM   15  O1  UNL     1      -4.585  34.362  18.068  1.00  0.00    -0.390 OA
HETATM   16  C1  UNL     1      -4.451  35.730  17.791  1.00  0.00     0.201 C 
ENDBRANCH  14  15
ENDBRANCH   6  14
BRANCH   8  17
HETATM   17  O8  UNL     1      -4.206  29.890  16.841  1.00  0.00    -0.335 OA
HETATM   18  C17 UNL     1      -4.724  29.879  15.530  1.00  0.00     0.212 C 
ENDBRANCH   8  17
ENDBRANCH   1   2
BRANCH   1  19
HETATM   19  O4  UNL     1      -1.063  28.565  15.691  1.00  0.00    -0.344 OA
ATOM     20  H4  UNL     1      -0.131  28.656  15.848  1.00  0.00     0.219 HD
ENDBRANCH   1  19
BRANCH   1  21
HETATM   21  N1  UNL     1      -2.264  27.560  17.314  1.00  0.00    -0.279 N 
ATOM     22  H1  UNL     1      -1.871  26.660  17.039  1.00  0.00     0.189 HD
BRANCH  21  23
HETATM   23  N2  UNL     1      -3.325  27.635  18.275  1.00  0.00    -0.293 N 
ATOM     24  H2  UNL     1      -3.592  28.528  18.688  1.00  0.00     0.187 HD
BRANCH  23  25
HETATM   25  C10 UNL     1      -3.993  26.443  18.636  1.00  0.00     0.135 A 
HETATM   26  C11 UNL     1      -4.310  25.271  17.992  1.00  0.00     0.135 A 
HETATM   27  C14 UNL     1      -4.923  24.816  19.167  1.00  0.00     0.254 A 
HETATM   28  O6  UNL     1      -5.510  23.728  19.419  1.00  0.00    -0.281 OA
HETATM   29  C15 UNL     1      -4.603  25.985  19.801  1.00  0.00     0.254 A 
HETATM   30  O7  UNL     1      -4.795  26.434  20.957  1.00  0.00    -0.281 OA
BRANCH  26  31
HETATM   31  N3  UNL     1      -4.106  24.732  16.694  1.00  0.00    -0.292 N 
ATOM     32  H3  UNL     1      -4.888  24.337  16.172  1.00  0.00     0.187 HD
BRANCH  31  33
HETATM   33  N4  UNL     1      -2.828  24.749  16.141  1.00  0.00    -0.270 N 
HETATM   34  C12 UNL     1      -2.501  23.948  15.020  1.00  0.00     0.232 C 
HETATM   35  C13 UNL     1      -1.128  24.005  14.472  1.00  0.00     0.119 C 
HETATM   36  O5  UNL     1      -3.412  23.206  14.524  1.00  0.00    -0.272 OA
ATOM     37  H4  UNL     1      -2.113  25.351  16.551  1.00  0.00     0.190 HD
ENDBRANCH  31  33
ENDBRANCH  26  31
ENDBRANCH  23  25
ENDBRANCH  21  23
ENDBRANCH   1  21
TORSDOF 13
ENDMDL
MODEL 5
REMARK VINA RESULT: -8.335662126      2.681      7.868
REMARK  13 active torsions:
REMARK  status: ('A' for Active; 'I' for Inactive)
REMARK    1  A    between atoms: O1_2  and  C2_3 
REMARK    2  A    between atoms: C2_3  and  C3_4 
REMARK    3  A    between atoms: C5_6  and  C6_7 
REMARK    4  A    between atoms: C6_7  and  O2_8 
REMARK    5  A    between atoms: C6_7  and  O3_10 
REMARK    6  A    between atoms: C8_13  and  C9_14 
REMARK    7  A    between atoms: C9_14  and  O4_15 
REMARK    8  A    between atoms: C9_14  and  N1_17 
REMARK    9  A    between atoms: N1_17  and  N2_19 
REMARK   10  A    between atoms: N2_19  and  C10_21 
REMARK   11  A    between atoms: C11_22  and  N3_23 
REMARK   12  A    between atoms: N3_23  and  N4_25 
REMARK       I    between atoms: N4_25  and  C12_27 
REMARK   13  A    between atoms: C16_34  and  O8_35 
ROOT
HETATM    1  C9  UNL     1      -4.353  29.950  16.640  1.00  0.00     0.170 C 
ENDROOT
BRANCH   1   2
HETATM    2  C8  UNL     1      -3.970  28.573  16.461  1.00  0.00     0.075 C 
HETATM    3  C7  UNL     1      -4.155  27.670  17.632  1.00  0.00     0.033 C 
HETATM    4  C5  UNL     1      -3.705  26.460  17.890  1.00  0.00    -0.001 C 
HETATM    5  C4  UNL     1      -2.854  25.657  17.014  1.00  0.00     0.047 C 
HETATM    6  C3  UNL     1      -2.576  25.842  15.714  1.00  0.00     0.080 C 
HETATM    7  O9  UNL     1      -3.070  26.872  14.941  1.00  0.00    -0.289 OA
HETATM    8  C16 UNL     1      -3.494  28.185  15.305  1.00  0.00     0.200 C 
BRANCH   4   9
HETATM    9  C6  UNL     1      -4.100  25.845  19.198  1.00  0.00     0.288 C 
BRANCH   9  10
HETATM   10  O2  UNL     1      -2.992  25.174  19.712  1.00  0.00    -0.367 OA
ATOM     11  H2  UNL     1      -3.171  24.242  19.682  1.00  0.00     0.213 HD
ENDBRANCH   9  10
BRANCH   9  12
HETATM   12  O3  UNL     1      -4.577  26.833  20.022  1.00  0.00    -0.367 OA
ATOM     13  H3  UNL     1      -5.387  26.535  20.418  1.00  0.00     0.213 HD
ENDBRANCH   9  12
ENDBRANCH   4   9
BRANCH   6  14
HETATM   14  C2  UNL     1      -1.672  24.870  15.053  1.00  0.00     0.232 C 
BRANCH  14  15
HETATM   15  O1  UNL     1      -2.423  23.739  14.737  1.00  0.00    -0.390 OA
HETATM   16  C1  UNL     1      -1.838  23.041  13.672  1.00  0.00     0.201 C 
ENDBRANCH  14  15
ENDBRANCH   6  14
BRANCH   8  17
HETATM   17  O8  UNL     1      -3.369  29.112  14.291  1.00  0.00    -0.335 OA
HETATM   18  C17 UNL     1      -2.135  29.733  14.011  1.00  0.00     0.212 C 
ENDBRANCH   8  17
ENDBRANCH   1   2
BRANCH   1  19
HETATM   19  O4  UNL     1      -5.277  30.342  15.795  1.00  0.00    -0.344 OA
ATOM     20  H4  UNL     1      -5.792  31.073  16.118  1.00  0.00     0.219 HD
ENDBRANCH   1  19
BRANCH   1  21
HETATM   21  N1  UNL     1      -3.944  30.932  17.516  1.00  0.00    -0.279 N 
ATOM     22  H1  UNL     1      -4.303  31.884  17.438  1.00  0.00     0.189 HD
BRANCH  21  23
HETATM   23  N2  UNL     1      -3.002  30.584  18.538  1.00  0.00    -0.293 N 
ATOM     24  H2  UNL     1      -3.315  30.167  19.416  1.00  0.00     0.187 HD
BRANCH  23  25
HETATM   25  C10 UNL     1      -1.631  30.830  18.304  1.00  0.00     0.135 A 
HETATM   26  C11 UNL     1      -0.795  31.909  18.462  1.00  0.00     0.135 A 
HETATM   27  C14 UNL     1       0.263  31.136  17.965  1.00  0.00     0.254 A 
HETATM   28  O6  UNL     1       1.477  31.426  17.778  1.00  0.00    -0.281 OA
HETATM   29  C15 UNL     1      -0.575  30.066  17.812  1.00  0.00     0.254 A 
HETATM   30  O7  UNL     1      -0.428  28.892  17.395  1.00  0.00    -0.281 OA
BRANCH  26  31
HETATM   31  N3  UNL     1      -0.927  33.242  18.932  1.00  0.00    -0.292 N 
ATOM     32  H3  UNL     1      -0.381  33.563  19.732  1.00  0.00     0.187 HD
BRANCH  31  33
HETATM   33  N4  UNL     1      -1.810  34.108  18.291  1.00  0.00    -0.270 N 
HETATM   34  C12 UNL     1      -3.177  34.166  18.656  1.00  0.00     0.232 C 
HETATM   35  C13 UNL     1      -4.071  35.104  17.942  1.00  0.00     0.119 C 
HETATM   36  O5  UNL     1      -3.584  33.402  19.592  1.00  0.00    -0.272 OA
ATOM     37  H4  UNL     1      -1.465  34.712  17.544  1.00  0.00     0.190 HD
ENDBRANCH  31  33
ENDBRANCH  26  31
ENDBRANCH  23  25
ENDBRANCH  21  23
ENDBRANCH   1  21
TORSDOF 13
ENDMDL
