MODEL 1
REMARK VINA RESULT: -5.916470910      0.000      0.000
REMARK  7 active torsions:
REMARK  status: ('A' for Active; 'I' for Inactive)
REMARK    1  A    between atoms: C2_2  and  C3_3 
REMARK    2  A    between atoms: C3_3  and  C4_4 
REMARK    3  A    between atoms: C4_4  and  C5_5 
REMARK    4  A    between atoms: C6_7  and  C7_8 
REMARK    5  A    between atoms: C6_7  and  O2_10 
REMARK    6  A    between atoms: O2_10  and  C9_11 
REMARK    7  A    between atoms: C9_11  and  C10_12 
ROOT
HETATM    1  O2  UNL     1     -33.589 -23.138 -37.125  1.00  0.00    -0.350 OA
ENDROOT
BRANCH   1   2
HETATM    2  C6  UNL     1     -33.940 -24.358 -37.588  1.00  0.00     0.055 C 
HETATM    3  C4  UNL     1     -34.825 -25.165 -36.987  1.00  0.00     0.009 C 
BRANCH   3   4
HETATM    4  C3  UNL     1     -35.159 -26.517 -37.515  1.00  0.00     0.044 C 
BRANCH   4   5
HETATM    5  C2  UNL     1     -36.531 -26.587 -38.151  1.00  0.00     0.000 C 
HETATM    6  C1  UNL     1     -36.370 -27.127 -39.569  1.00  0.00     0.005 C 
ENDBRANCH   4   5
ENDBRANCH   3   4
BRANCH   3   7
HETATM    7  C5  UNL     1     -35.551 -24.690 -35.817  1.00  0.00     0.268 C 
HETATM    8  O1  UNL     1     -35.401 -25.205 -34.665  1.00  0.00    -0.302 OA
ENDBRANCH   3   7
BRANCH   2   9
HETATM    9  C7  UNL     1     -33.246 -24.785 -38.850  1.00  0.00     0.061 C 
HETATM   10  C8  UNL     1     -33.924 -24.117 -40.045  1.00  0.00     0.012 C 
ENDBRANCH   2   9
ENDBRANCH   1   2
BRANCH   1  11
HETATM   11  C9  UNL     1     -33.962 -21.847 -37.246  1.00  0.00     0.215 C 
BRANCH  11  12
HETATM   12  C10 UNL     1     -33.166 -20.798 -36.574  1.00  0.00    -0.022 A 
HETATM   13  C11 UNL     1     -32.492 -19.812 -37.224  1.00  0.00    -0.053 A 
HETATM   14  C12 UNL     1     -32.729 -19.589 -38.657  1.00  0.00     0.049 C 
HETATM   15  C13 UNL     1     -31.607 -18.936 -36.561  1.00  0.00     0.014 A 
HETATM   16  C14 UNL     1     -31.392 -19.047 -35.213  1.00  0.00    -0.061 A 
HETATM   17  C15 UNL     1     -30.440 -18.129 -34.521  1.00  0.00     0.048 C 
HETATM   18  C16 UNL     1     -32.075 -20.045 -34.538  1.00  0.00     0.014 A 
HETATM   19  C17 UNL     1     -32.945 -20.906 -35.197  1.00  0.00    -0.053 A 
HETATM   20  C18 UNL     1     -33.643 -21.944 -34.389  1.00  0.00     0.049 C 
ENDBRANCH  11  12
ENDBRANCH   1  11
TORSDOF 7
ENDMDL
MODEL 2
REMARK VINA RESULT: -5.895466521      3.210      6.049
REMARK  7 active torsions:
REMARK  status: ('A' for Active; 'I' for Inactive)
REMARK    1  A    between atoms: C2_2  and  C3_3 
REMARK    2  A    between atoms: C3_3  and  C4_4 
REMARK    3  A    between atoms: C4_4  and  C5_5 
REMARK    4  A    between atoms: C6_7  and  C7_8 
REMARK    5  A    between atoms: C6_7  and  O2_10 
REMARK    6  A    between atoms: O2_10  and  C9_11 
REMARK    7  A    between atoms: C9_11  and  C10_12 
ROOT
HETATM    1  O2  UNL     1     -34.123 -23.921 -40.140  1.00  0.00    -0.350 OA
ENDROOT
BRANCH   1   2
HETATM    2  C6  UNL     1     -34.710 -24.499 -41.210  1.00  0.00     0.055 C 
HETATM    3  C4  UNL     1     -34.400 -24.218 -42.483  1.00  0.00     0.009 C 
BRANCH   3   4
HETATM    4  C3  UNL     1     -35.098 -24.856 -43.634  1.00  0.00     0.044 C 
BRANCH   4   5
HETATM    5  C2  UNL     1     -36.310 -24.079 -44.101  1.00  0.00     0.000 C 
HETATM    6  C1  UNL     1     -37.479 -25.052 -44.225  1.00  0.00     0.005 C 
ENDBRANCH   4   5
ENDBRANCH   3   4
BRANCH   3   7
HETATM    7  C5  UNL     1     -33.293 -23.316 -42.770  1.00  0.00     0.268 C 
HETATM    8  O1  UNL     1     -33.465 -22.081 -43.012  1.00  0.00    -0.302 OA
ENDBRANCH   3   7
BRANCH   2   9
HETATM    9  C7  UNL     1     -35.786 -25.498 -40.885  1.00  0.00     0.061 C 
HETATM   10  C8  UNL     1     -36.909 -24.794 -40.124  1.00  0.00     0.012 C 
ENDBRANCH   2   9
ENDBRANCH   1   2
BRANCH   1  11
HETATM   11  C9  UNL     1     -33.343 -24.258 -39.090  1.00  0.00     0.215 C 
BRANCH  11  12
HETATM   12  C10 UNL     1     -33.976 -24.775 -37.857  1.00  0.00    -0.022 A 
HETATM   13  C11 UNL     1     -34.170 -26.094 -37.591  1.00  0.00    -0.053 A 
HETATM   14  C12 UNL     1     -33.521 -27.111 -38.430  1.00  0.00     0.049 C 
HETATM   15  C13 UNL     1     -34.928 -26.540 -36.488  1.00  0.00     0.014 A 
HETATM   16  C14 UNL     1     -35.505 -25.644 -35.627  1.00  0.00    -0.061 A 
HETATM   17  C15 UNL     1     -36.321 -26.121 -34.473  1.00  0.00     0.048 C 
HETATM   18  C16 UNL     1     -35.312 -24.297 -35.885  1.00  0.00     0.014 A 
HETATM   19  C17 UNL     1     -34.564 -23.864 -36.974  1.00  0.00    -0.053 A 
HETATM   20  C18 UNL     1     -34.402 -22.396 -37.168  1.00  0.00     0.049 C 
ENDBRANCH  11  12
ENDBRANCH   1  11
TORSDOF 7
ENDMDL
MODEL 3
REMARK VINA RESULT: -5.881074943      0.555      1.967
REMARK  7 active torsions:
REMARK  status: ('A' for Active; 'I' for Inactive)
REMARK    1  A    between atoms: C2_2  and  C3_3 
REMARK    2  A    between atoms: C3_3  and  C4_4 
REMARK    3  A    between atoms: C4_4  and  C5_5 
REMARK    4  A    between atoms: C6_7  and  C7_8 
REMARK    5  A    between atoms: C6_7  and  O2_10 
REMARK    6  A    between atoms: O2_10  and  C9_11 
REMARK    7  A    between atoms: C9_11  and  C10_12 
ROOT
HETATM    1  O2  UNL     1     -33.602 -23.160 -37.083  1.00  0.00    -0.350 OA
ENDROOT
BRANCH   1   2
HETATM    2  C6  UNL     1     -33.982 -24.314 -37.674  1.00  0.00     0.055 C 
HETATM    3  C4  UNL     1     -34.790 -25.220 -37.108  1.00  0.00     0.009 C 
BRANCH   3   4
HETATM    4  C3  UNL     1     -35.157 -26.496 -37.785  1.00  0.00     0.044 C 
BRANCH   4   5
HETATM    5  C2  UNL     1     -36.565 -26.492 -38.342  1.00  0.00     0.000 C 
HETATM    6  C1  UNL     1     -36.543 -27.200 -39.693  1.00  0.00     0.005 C 
ENDBRANCH   4   5
ENDBRANCH   3   4
BRANCH   3   7
HETATM    7  C5  UNL     1     -35.401 -24.931 -35.818  1.00  0.00     0.268 C 
HETATM    8  O1  UNL     1     -36.394 -24.147 -35.694  1.00  0.00    -0.302 OA
ENDBRANCH   3   7
BRANCH   2   9
HETATM    9  C7  UNL     1     -33.412 -24.545 -39.046  1.00  0.00     0.061 C 
HETATM   10  C8  UNL     1     -34.301 -23.855 -40.079  1.00  0.00     0.012 C 
ENDBRANCH   2   9
ENDBRANCH   1   2
BRANCH   1  11
HETATM   11  C9  UNL     1     -33.899 -21.844 -37.114  1.00  0.00     0.215 C 
BRANCH  11  12
HETATM   12  C10 UNL     1     -33.107 -20.905 -36.291  1.00  0.00    -0.022 A 
HETATM   13  C11 UNL     1     -33.046 -20.939 -34.933  1.00  0.00    -0.053 A 
HETATM   14  C12 UNL     1     -33.585 -22.097 -34.208  1.00  0.00     0.049 C 
HETATM   15  C13 UNL     1     -32.420 -19.925 -34.178  1.00  0.00     0.014 A 
HETATM   16  C14 UNL     1     -31.838 -18.850 -34.796  1.00  0.00    -0.061 A 
HETATM   17  C15 UNL     1     -31.194 -17.772 -33.990  1.00  0.00     0.048 C 
HETATM   18  C16 UNL     1     -31.890 -18.804 -36.179  1.00  0.00     0.014 A 
HETATM   19  C17 UNL     1     -32.509 -19.806 -36.918  1.00  0.00    -0.053 A 
HETATM   20  C18 UNL     1     -32.509 -19.679 -38.402  1.00  0.00     0.049 C 
ENDBRANCH  11  12
ENDBRANCH   1  11
TORSDOF 7
ENDMDL
MODEL 4
REMARK VINA RESULT: -5.832662183      1.843      3.658
REMARK  7 active torsions:
REMARK  status: ('A' for Active; 'I' for Inactive)
REMARK    1  A    between atoms: C2_2  and  C3_3 
REMARK    2  A    between atoms: C3_3  and  C4_4 
REMARK    3  A    between atoms: C4_4  and  C5_5 
REMARK    4  A    between atoms: C6_7  and  C7_8 
REMARK    5  A    between atoms: C6_7  and  O2_10 
REMARK    6  A    between atoms: O2_10  and  C9_11 
REMARK    7  A    between atoms: C9_11  and  C10_12 
ROOT
HETATM    1  O2  UNL     1     -34.261 -21.396 -36.882  1.00  0.00    -0.350 OA
ENDROOT
BRANCH   1   2
HETATM    2  C6  UNL     1     -35.047 -22.241 -37.583  1.00  0.00     0.055 C 
HETATM    3  C4  UNL     1     -35.065 -22.319 -38.921  1.00  0.00     0.009 C 
BRANCH   3   4
HETATM    4  C3  UNL     1     -35.973 -23.244 -39.656  1.00  0.00     0.044 C 
BRANCH   4   5
HETATM    5  C2  UNL     1     -35.237 -24.203 -40.567  1.00  0.00     0.000 C 
HETATM    6  C1  UNL     1     -34.699 -25.349 -39.715  1.00  0.00     0.005 C 
ENDBRANCH   4   5
ENDBRANCH   3   4
BRANCH   3   7
HETATM    7  C5  UNL     1     -34.117 -21.532 -39.698  1.00  0.00     0.268 C 
HETATM    8  O1  UNL     1     -34.349 -20.332 -40.046  1.00  0.00    -0.302 OA
ENDBRANCH   3   7
BRANCH   2   9
HETATM    9  C7  UNL     1     -35.949 -23.110 -36.753  1.00  0.00     0.061 C 
HETATM   10  C8  UNL     1     -35.123 -24.232 -36.124  1.00  0.00     0.012 C 
ENDBRANCH   2   9
ENDBRANCH   1   2
BRANCH   1  11
HETATM   11  C9  UNL     1     -32.968 -21.258 -36.519  1.00  0.00     0.215 C 
BRANCH  11  12
HETATM   12  C10 UNL     1     -32.614 -20.289 -35.460  1.00  0.00    -0.022 A 
HETATM   13  C11 UNL     1     -32.873 -20.470 -34.137  1.00  0.00    -0.053 A 
HETATM   14  C12 UNL     1     -33.310 -21.787 -33.654  1.00  0.00     0.049 C 
HETATM   15  C13 UNL     1     -32.676 -19.452 -33.181  1.00  0.00     0.014 A 
HETATM   16  C14 UNL     1     -32.206 -18.222 -33.555  1.00  0.00    -0.061 A 
HETATM   17  C15 UNL     1     -32.017 -17.143 -32.542  1.00  0.00     0.048 C 
HETATM   18  C16 UNL     1     -31.935 -18.024 -34.899  1.00  0.00     0.014 A 
HETATM   19  C17 UNL     1     -32.132 -19.031 -35.838  1.00  0.00    -0.053 A 
HETATM   20  C18 UNL     1     -31.805 -18.733 -37.260  1.00  0.00     0.049 C 
ENDBRANCH  11  12
ENDBRANCH   1  11
TORSDOF 7
ENDMDL
MODEL 5
REMARK VINA RESULT: -5.829753086      4.202      6.294
REMARK  7 active torsions:
REMARK  status: ('A' for Active; 'I' for Inactive)
REMARK    1  A    between atoms: C2_2  and  C3_3 
REMARK    2  A    between atoms: C3_3  and  C4_4 
REMARK    3  A    between atoms: C4_4  and  C5_5 
REMARK    4  A    between atoms: C6_7  and  C7_8 
REMARK    5  A    between atoms: C6_7  and  O2_10 
REMARK    6  A    between atoms: O2_10  and  C9_11 
REMARK    7  A    between atoms: C9_11  and  C10_12 
ROOT
HETATM    1  O2  UNL     1     -34.026 -21.237 -41.860  1.00  0.00    -0.350 OA
ENDROOT
BRANCH   1   2
HETATM    2  C6  UNL     1     -34.039 -22.545 -41.524  1.00  0.00     0.055 C 
HETATM    3  C4  UNL     1     -34.275 -23.002 -40.286  1.00  0.00     0.009 C 
BRANCH   3   4
HETATM    4  C3  UNL     1     -34.246 -24.454 -39.953  1.00  0.00     0.044 C 
BRANCH   4   5
HETATM    5  C2  UNL     1     -33.264 -24.794 -38.853  1.00  0.00     0.000 C 
HETATM    6  C1  UNL     1     -33.633 -26.163 -38.291  1.00  0.00     0.005 C 
ENDBRANCH   4   5
ENDBRANCH   3   4
BRANCH   3   7
HETATM    7  C5  UNL     1     -34.648 -22.067 -39.234  1.00  0.00     0.268 C 
HETATM    8  O1  UNL     1     -35.856 -21.749 -39.000  1.00  0.00    -0.302 OA
ENDBRANCH   3   7
BRANCH   2   9
HETATM    9  C7  UNL     1     -33.744 -23.495 -42.650  1.00  0.00     0.061 C 
HETATM   10  C8  UNL     1     -32.258 -23.415 -42.996  1.00  0.00     0.012 C 
ENDBRANCH   2   9
ENDBRANCH   1   2
BRANCH   1  11
HETATM   11  C9  UNL     1     -34.721 -20.365 -42.622  1.00  0.00     0.215 C 
BRANCH  11  12
HETATM   12  C10 UNL     1     -35.861 -19.634 -42.027  1.00  0.00    -0.022 A 
HETATM   13  C11 UNL     1     -37.138 -20.098 -41.998  1.00  0.00    -0.053 A 
HETATM   14  C12 UNL     1     -37.414 -21.498 -42.349  1.00  0.00     0.049 C 
HETATM   15  C13 UNL     1     -38.224 -19.301 -41.578  1.00  0.00     0.014 A 
HETATM   16  C14 UNL     1     -38.027 -18.007 -41.174  1.00  0.00    -0.061 A 
HETATM   17  C15 UNL     1     -39.181 -17.163 -40.747  1.00  0.00     0.048 C 
HETATM   18  C16 UNL     1     -36.729 -17.523 -41.194  1.00  0.00     0.014 A 
HETATM   19  C17 UNL     1     -35.663 -18.313 -41.610  1.00  0.00    -0.053 A 
HETATM   20  C18 UNL     1     -34.301 -17.712 -41.592  1.00  0.00     0.049 C 
ENDBRANCH  11  12
ENDBRANCH   1  11
TORSDOF 7
ENDMDL
