MODEL 1
REMARK VINA RESULT: -5.946702544      0.000      0.000
REMARK  9 active torsions:
REMARK  status: ('A' for Active; 'I' for Inactive)
REMARK    1  A    between atoms: C2_2  and  C3_3 
REMARK    2  A    between atoms: C3_3  and  C6_6 
REMARK    3  A    between atoms: C6_6  and  C7_7 
REMARK    4  A    between atoms: C7_7  and  O1_8 
REMARK    5  A    between atoms: C7_7  and  C8_10 
REMARK    6  A    between atoms: C8_10  and  C9_11 
REMARK    7  A    between atoms: C9_11  and  C10_12 
REMARK    8  A    between atoms: C10_12  and  O2_13 
REMARK    9  A    between atoms: O2_13  and  C11_14 
ROOT
HETATM    1  C9  UNL     1     -32.577 -19.684 -32.935  1.00  0.00     0.029 C 
ENDROOT
BRANCH   1   2
HETATM    2  C8  UNL     1     -32.951 -18.227 -32.798  1.00  0.00     0.034 C 
BRANCH   2   3
HETATM    3  C7  UNL     1     -32.491 -17.401 -33.976  1.00  0.00     0.122 C 
BRANCH   3   4
HETATM    4  C6  UNL     1     -31.382 -16.511 -33.489  1.00  0.00     0.070 C 
BRANCH   4   5
HETATM    5  C3  UNL     1     -30.024 -17.002 -33.688  1.00  0.00    -0.061 C 
HETATM    6  C4  UNL     1     -29.227 -17.348 -32.707  1.00  0.00    -0.024 C 
HETATM    7  C5  UNL     1     -27.853 -17.856 -33.033  1.00  0.00     0.036 C 
BRANCH   5   8
HETATM    8  C2  UNL     1     -29.546 -17.120 -35.065  1.00  0.00    -0.004 C 
HETATM    9  C1  UNL     1     -29.962 -16.296 -36.002  1.00  0.00     0.012 C 
ENDBRANCH   5   8
ENDBRANCH   4   5
ENDBRANCH   3   4
BRANCH   3  10
HETATM   10  O1  UNL     1     -33.508 -16.602 -34.479  1.00  0.00    -0.395 OA
ATOM     11  H1  UNL     1     -33.964 -17.086 -35.158  1.00  0.00     0.210 HD
ENDBRANCH   3  10
ENDBRANCH   2   3
ENDBRANCH   1   2
BRANCH   1  12
HETATM   12  C10 UNL     1     -31.823 -19.993 -34.177  1.00  0.00     0.175 C 
BRANCH  12  13
HETATM   13  O2  UNL     1     -32.633 -20.578 -35.122  1.00  0.00    -0.351 OA
BRANCH  13  14
HETATM   14  C11 UNL     1     -32.815 -20.457 -36.455  1.00  0.00     0.075 A 
HETATM   15  C12 UNL     1     -32.335 -19.455 -37.259  1.00  0.00     0.044 A 
HETATM   16  C13 UNL     1     -32.562 -19.387 -38.634  1.00  0.00    -0.059 A 
HETATM   17  C14 UNL     1     -32.016 -18.277 -39.463  1.00  0.00     0.048 C 
HETATM   18  C15 UNL     1     -33.315 -20.397 -39.189  1.00  0.00     0.007 A 
HETATM   19  C16 UNL     1     -33.805 -21.407 -38.396  1.00  0.00     0.010 A 
HETATM   20  C17 UNL     1     -33.583 -21.475 -37.048  1.00  0.00    -0.029 A 
HETATM   21  C18 UNL     1     -34.139 -22.599 -36.230  1.00  0.00     0.051 C 
ENDBRANCH  13  14
ENDBRANCH  12  13
ENDBRANCH   1  12
TORSDOF 9
ENDMDL
MODEL 2
REMARK VINA RESULT: -5.926801199      3.147      7.973
REMARK  9 active torsions:
REMARK  status: ('A' for Active; 'I' for Inactive)
REMARK    1  A    between atoms: C2_2  and  C3_3 
REMARK    2  A    between atoms: C3_3  and  C6_6 
REMARK    3  A    between atoms: C6_6  and  C7_7 
REMARK    4  A    between atoms: C7_7  and  O1_8 
REMARK    5  A    between atoms: C7_7  and  C8_10 
REMARK    6  A    between atoms: C8_10  and  C9_11 
REMARK    7  A    between atoms: C9_11  and  C10_12 
REMARK    8  A    between atoms: C10_12  and  O2_13 
REMARK    9  A    between atoms: O2_13  and  C11_14 
ROOT
HETATM    1  C9  UNL     1     -34.225 -22.275 -39.245  1.00  0.00     0.029 C 
ENDROOT
BRANCH   1   2
HETATM    2  C8  UNL     1     -34.196 -23.448 -38.295  1.00  0.00     0.034 C 
BRANCH   2   3
HETATM    3  C7  UNL     1     -33.557 -24.672 -38.908  1.00  0.00     0.122 C 
BRANCH   3   4
HETATM    4  C6  UNL     1     -33.734 -25.803 -37.933  1.00  0.00     0.070 C 
BRANCH   4   5
HETATM    5  C3  UNL     1     -35.033 -26.464 -37.940  1.00  0.00    -0.061 C 
HETATM    6  C4  UNL     1     -35.611 -26.917 -39.025  1.00  0.00    -0.024 C 
HETATM    7  C5  UNL     1     -36.944 -27.596 -38.910  1.00  0.00     0.036 C 
BRANCH   5   8
HETATM    8  C2  UNL     1     -35.709 -26.635 -36.654  1.00  0.00    -0.004 C 
HETATM    9  C1  UNL     1     -35.695 -25.681 -35.747  1.00  0.00     0.012 C 
ENDBRANCH   5   8
ENDBRANCH   4   5
ENDBRANCH   3   4
BRANCH   3  10
HETATM   10  O1  UNL     1     -32.199 -24.492 -39.131  1.00  0.00    -0.395 OA
ATOM     11  H1  UNL     1     -32.054 -23.589 -39.388  1.00  0.00     0.210 HD
ENDBRANCH   3  10
ENDBRANCH   2   3
ENDBRANCH   1   2
BRANCH   1  12
HETATM   12  C10 UNL     1     -33.618 -21.039 -38.686  1.00  0.00     0.175 C 
BRANCH  12  13
HETATM   13  O2  UNL     1     -33.577 -21.079 -37.312  1.00  0.00    -0.351 OA
BRANCH  13  14
HETATM   14  C11 UNL     1     -32.920 -20.409 -36.341  1.00  0.00     0.075 A 
HETATM   15  C12 UNL     1     -32.143 -19.290 -36.499  1.00  0.00     0.044 A 
HETATM   16  C13 UNL     1     -31.488 -18.645 -35.449  1.00  0.00    -0.059 A 
HETATM   17  C14 UNL     1     -30.657 -17.431 -35.675  1.00  0.00     0.048 C 
HETATM   18  C15 UNL     1     -31.646 -19.186 -34.193  1.00  0.00     0.007 A 
HETATM   19  C16 UNL     1     -32.420 -20.309 -34.019  1.00  0.00     0.010 A 
HETATM   20  C17 UNL     1     -33.064 -20.942 -35.047  1.00  0.00    -0.029 A 
HETATM   21  C18 UNL     1     -33.896 -22.162 -34.801  1.00  0.00     0.051 C 
ENDBRANCH  13  14
ENDBRANCH  12  13
ENDBRANCH   1  12
TORSDOF 9
ENDMDL
MODEL 3
REMARK VINA RESULT: -5.891405403      1.260      2.004
REMARK  9 active torsions:
REMARK  status: ('A' for Active; 'I' for Inactive)
REMARK    1  A    between atoms: C2_2  and  C3_3 
REMARK    2  A    between atoms: C3_3  and  C6_6 
REMARK    3  A    between atoms: C6_6  and  C7_7 
REMARK    4  A    between atoms: C7_7  and  O1_8 
REMARK    5  A    between atoms: C7_7  and  C8_10 
REMARK    6  A    between atoms: C8_10  and  C9_11 
REMARK    7  A    between atoms: C9_11  and  C10_12 
REMARK    8  A    between atoms: C10_12  and  O2_13 
REMARK    9  A    between atoms: O2_13  and  C11_14 
ROOT
HETATM    1  C9  UNL     1     -32.392 -19.867 -34.302  1.00  0.00     0.029 C 
ENDROOT
BRANCH   1   2
HETATM    2  C8  UNL     1     -32.807 -18.603 -33.588  1.00  0.00     0.034 C 
BRANCH   2   3
HETATM    3  C7  UNL     1     -32.549 -17.364 -34.413  1.00  0.00     0.122 C 
BRANCH   3   4
HETATM    4  C6  UNL     1     -31.514 -16.552 -33.685  1.00  0.00     0.070 C 
BRANCH   4   5
HETATM    5  C3  UNL     1     -30.134 -17.005 -33.809  1.00  0.00    -0.061 C 
HETATM    6  C4  UNL     1     -29.415 -17.428 -32.797  1.00  0.00    -0.024 C 
HETATM    7  C5  UNL     1     -28.008 -17.886 -33.046  1.00  0.00     0.036 C 
BRANCH   5   8
HETATM    8  C2  UNL     1     -29.538 -16.993 -35.145  1.00  0.00    -0.004 C 
HETATM    9  C1  UNL     1     -30.000 -16.199 -36.087  1.00  0.00     0.012 C 
ENDBRANCH   5   8
ENDBRANCH   4   5
ENDBRANCH   3   4
BRANCH   3  10
HETATM   10  O1  UNL     1     -33.692 -16.590 -34.557  1.00  0.00    -0.395 OA
ATOM     11  H1  UNL     1     -33.735 -16.281 -35.455  1.00  0.00     0.210 HD
ENDBRANCH   3  10
ENDBRANCH   2   3
ENDBRANCH   1   2
BRANCH   1  12
HETATM   12  C10 UNL     1     -32.533 -19.792 -35.779  1.00  0.00     0.175 C 
BRANCH  12  13
HETATM   13  O2  UNL     1     -33.625 -20.505 -36.214  1.00  0.00    -0.351 OA
BRANCH  13  14
HETATM   14  C11 UNL     1     -33.835 -21.549 -37.045  1.00  0.00     0.075 A 
HETATM   15  C12 UNL     1     -33.746 -21.537 -38.414  1.00  0.00     0.044 A 
HETATM   16  C13 UNL     1     -33.979 -22.655 -39.216  1.00  0.00    -0.059 A 
HETATM   17  C14 UNL     1     -33.867 -22.589 -40.699  1.00  0.00     0.048 C 
HETATM   18  C15 UNL     1     -34.317 -23.823 -38.571  1.00  0.00     0.007 A 
HETATM   19  C16 UNL     1     -34.411 -23.850 -37.200  1.00  0.00     0.010 A 
HETATM   20  C17 UNL     1     -34.183 -22.755 -36.411  1.00  0.00    -0.029 A 
HETATM   21  C18 UNL     1     -34.300 -22.840 -34.921  1.00  0.00     0.051 C 
ENDBRANCH  13  14
ENDBRANCH  12  13
ENDBRANCH   1  12
TORSDOF 9
ENDMDL
MODEL 4
REMARK VINA RESULT: -5.860851681      2.988      7.933
REMARK  9 active torsions:
REMARK  status: ('A' for Active; 'I' for Inactive)
REMARK    1  A    between atoms: C2_2  and  C3_3 
REMARK    2  A    between atoms: C3_3  and  C6_6 
REMARK    3  A    between atoms: C6_6  and  C7_7 
REMARK    4  A    between atoms: C7_7  and  O1_8 
REMARK    5  A    between atoms: C7_7  and  C8_10 
REMARK    6  A    between atoms: C8_10  and  C9_11 
REMARK    7  A    between atoms: C9_11  and  C10_12 
REMARK    8  A    between atoms: C10_12  and  O2_13 
REMARK    9  A    between atoms: O2_13  and  C11_14 
ROOT
HETATM    1  C9  UNL     1     -34.598 -22.860 -36.138  1.00  0.00     0.029 C 
ENDROOT
BRANCH   1   2
HETATM    2  C8  UNL     1     -34.129 -22.834 -37.573  1.00  0.00     0.034 C 
BRANCH   2   3
HETATM    3  C7  UNL     1     -33.954 -24.221 -38.147  1.00  0.00     0.122 C 
BRANCH   3   4
HETATM    4  C6  UNL     1     -34.423 -25.197 -37.103  1.00  0.00     0.070 C 
BRANCH   4   5
HETATM    5  C3  UNL     1     -35.432 -26.159 -37.526  1.00  0.00    -0.061 C 
HETATM    6  C4  UNL     1     -35.522 -26.627 -38.747  1.00  0.00    -0.024 C 
HETATM    7  C5  UNL     1     -36.593 -27.628 -39.065  1.00  0.00     0.036 C 
BRANCH   5   8
HETATM    8  C2  UNL     1     -36.380 -26.630 -36.516  1.00  0.00    -0.004 C 
HETATM    9  C1  UNL     1     -36.358 -26.153 -35.290  1.00  0.00     0.012 C 
ENDBRANCH   5   8
ENDBRANCH   4   5
ENDBRANCH   3   4
BRANCH   3  10
HETATM   10  O1  UNL     1     -32.626 -24.496 -38.442  1.00  0.00    -0.395 OA
ATOM     11  H1  UNL     1     -32.456 -24.232 -39.339  1.00  0.00     0.210 HD
ENDBRANCH   3  10
ENDBRANCH   2   3
ENDBRANCH   1   2
BRANCH   1  12
HETATM   12  C10 UNL     1     -33.757 -22.046 -35.221  1.00  0.00     0.175 C 
BRANCH  12  13
HETATM   13  O2  UNL     1     -33.652 -20.747 -35.660  1.00  0.00    -0.351 OA
BRANCH  13  14
HETATM   14  C11 UNL     1     -32.870 -19.685 -35.368  1.00  0.00     0.075 A 
HETATM   15  C12 UNL     1     -32.697 -19.107 -34.136  1.00  0.00     0.044 A 
HETATM   16  C13 UNL     1     -31.873 -18.006 -33.904  1.00  0.00    -0.059 A 
HETATM   17  C14 UNL     1     -31.721 -17.418 -32.545  1.00  0.00     0.048 C 
HETATM   18  C15 UNL     1     -31.207 -17.488 -34.992  1.00  0.00     0.007 A 
HETATM   19  C16 UNL     1     -31.370 -18.055 -36.233  1.00  0.00     0.010 A 
HETATM   20  C17 UNL     1     -32.178 -19.136 -36.463  1.00  0.00    -0.029 A 
HETATM   21  C18 UNL     1     -32.320 -19.714 -37.836  1.00  0.00     0.051 C 
ENDBRANCH  13  14
ENDBRANCH  12  13
ENDBRANCH   1  12
TORSDOF 9
ENDMDL
MODEL 5
REMARK VINA RESULT: -5.858921803      1.999      2.728
REMARK  9 active torsions:
REMARK  status: ('A' for Active; 'I' for Inactive)
REMARK    1  A    between atoms: C2_2  and  C3_3 
REMARK    2  A    between atoms: C3_3  and  C6_6 
REMARK    3  A    between atoms: C6_6  and  C7_7 
REMARK    4  A    between atoms: C7_7  and  O1_8 
REMARK    5  A    between atoms: C7_7  and  C8_10 
REMARK    6  A    between atoms: C8_10  and  C9_11 
REMARK    7  A    between atoms: C9_11  and  C10_12 
REMARK    8  A    between atoms: C10_12  and  O2_13 
REMARK    9  A    between atoms: O2_13  and  C11_14 
ROOT
HETATM    1  C9  UNL     1     -32.899 -21.433 -35.312  1.00  0.00     0.029 C 
ENDROOT
BRANCH   1   2
HETATM    2  C8  UNL     1     -33.258 -20.232 -34.469  1.00  0.00     0.034 C 
BRANCH   2   3
HETATM    3  C7  UNL     1     -32.742 -18.940 -35.058  1.00  0.00     0.122 C 
BRANCH   3   4
HETATM    4  C6  UNL     1     -32.070 -18.181 -33.948  1.00  0.00     0.070 C 
BRANCH   4   5
HETATM    5  C3  UNL     1     -30.668 -17.842 -34.154  1.00  0.00    -0.061 C 
HETATM    6  C4  UNL     1     -29.718 -18.125 -33.296  1.00  0.00    -0.024 C 
HETATM    7  C5  UNL     1     -28.305 -17.741 -33.622  1.00  0.00     0.036 C 
BRANCH   5   8
HETATM    8  C2  UNL     1     -30.316 -17.158 -35.398  1.00  0.00    -0.004 C 
HETATM    9  C1  UNL     1     -30.734 -15.934 -35.642  1.00  0.00     0.012 C 
ENDBRANCH   5   8
ENDBRANCH   4   5
ENDBRANCH   3   4
BRANCH   3  10
HETATM   10  O1  UNL     1     -33.768 -18.156 -35.567  1.00  0.00    -0.395 OA
ATOM     11  H1  UNL     1     -34.576 -18.396 -35.128  1.00  0.00     0.210 HD
ENDBRANCH   3  10
ENDBRANCH   2   3
ENDBRANCH   1   2
BRANCH   1  12
HETATM   12  C10 UNL     1     -34.054 -22.319 -35.610  1.00  0.00     0.175 C 
BRANCH  12  13
HETATM   13  O2  UNL     1     -33.795 -23.133 -36.688  1.00  0.00    -0.351 OA
BRANCH  13  14
HETATM   14  C11 UNL     1     -33.985 -23.064 -38.023  1.00  0.00     0.075 A 
HETATM   15  C12 UNL     1     -34.234 -21.934 -38.759  1.00  0.00     0.044 A 
HETATM   16  C13 UNL     1     -34.423 -21.933 -40.141  1.00  0.00    -0.059 A 
HETATM   17  C14 UNL     1     -34.690 -20.676 -40.892  1.00  0.00     0.048 C 
HETATM   18  C15 UNL     1     -34.351 -23.152 -40.778  1.00  0.00     0.007 A 
HETATM   19  C16 UNL     1     -34.104 -24.294 -40.055  1.00  0.00     0.010 A 
HETATM   20  C17 UNL     1     -33.917 -24.296 -38.699  1.00  0.00    -0.029 A 
HETATM   21  C18 UNL     1     -33.650 -25.570 -37.960  1.00  0.00     0.051 C 
ENDBRANCH  13  14
ENDBRANCH  12  13
ENDBRANCH   1  12
TORSDOF 9
ENDMDL
