MODEL 1
REMARK VINA RESULT: -6.173484705      0.000      0.000
REMARK  9 active torsions:
REMARK  status: ('A' for Active; 'I' for Inactive)
REMARK    1  A    between atoms: O1_2  and  C2_3 
REMARK    2  A    between atoms: C9_10  and  C10_11 
REMARK    3  A    between atoms: C10_11  and  C11_12 
REMARK    4  A    between atoms: C11_12  and  C12_13 
REMARK    5  A    between atoms: C12_13  and  C13_14 
REMARK    6  A    between atoms: C13_14  and  C14_15 
REMARK    7  A    between atoms: C14_15  and  C15_16 
REMARK    8  A    between atoms: C15_16  and  C16_17 
REMARK    9  A    between atoms: C16_17  and  O2_20 
ROOT
HETATM    1  C10 UNL     1     -33.544 -20.310 -34.417  1.00  0.00     0.041 C 
ENDROOT
BRANCH   1   2
HETATM    2  C9  UNL     1     -32.437 -19.358 -34.716  1.00  0.00    -0.024 A 
HETATM    3  C2  UNL     1     -32.223 -18.828 -35.962  1.00  0.00     0.075 A 
HETATM    4  C3  UNL     1     -31.179 -17.955 -36.146  1.00  0.00     0.044 A 
HETATM    5  C4  UNL     1     -30.319 -17.576 -35.128  1.00  0.00    -0.053 A 
HETATM    6  C5  UNL     1     -29.195 -16.632 -35.343  1.00  0.00     0.049 C 
HETATM    7  C6  UNL     1     -30.558 -18.123 -33.891  1.00  0.00    -0.055 A 
HETATM    8  C7  UNL     1     -29.650 -17.737 -32.766  1.00  0.00     0.049 C 
HETATM    9  C8  UNL     1     -31.597 -18.996 -33.692  1.00  0.00     0.017 A 
BRANCH   3  10
HETATM   10  O1  UNL     1     -33.050 -19.169 -37.017  1.00  0.00    -0.355 OA
HETATM   11  C1  UNL     1     -32.503 -19.409 -38.308  1.00  0.00     0.210 C 
ENDBRANCH   3  10
ENDBRANCH   1   2
BRANCH   1  12
HETATM   12  C11 UNL     1     -33.162 -21.709 -34.794  1.00  0.00     0.005 C 
BRANCH  12  13
HETATM   13  C12 UNL     1     -34.307 -22.509 -35.335  1.00  0.00     0.000 C 
BRANCH  13  14
HETATM   14  C13 UNL     1     -34.503 -22.352 -36.836  1.00  0.00     0.000 C 
BRANCH  14  15
HETATM   15  C14 UNL     1     -35.167 -23.510 -37.481  1.00  0.00     0.003 C 
BRANCH  15  16
HETATM   16  C15 UNL     1     -34.631 -24.863 -37.261  1.00  0.00     0.037 C 
BRANCH  16  17
HETATM   17  C16 UNL     1     -33.779 -25.497 -38.283  1.00  0.00     0.051 C 
HETATM   18  C17 UNL     1     -34.564 -25.399 -39.616  1.00  0.00     0.045 C 
HETATM   19  C18 UNL     1     -33.432 -26.937 -38.146  1.00  0.00     0.045 C 
BRANCH  17  20
HETATM   20  O2  UNL     1     -32.586 -24.797 -38.513  1.00  0.00    -0.391 OA
ATOM     21  H2  UNL     1     -32.510 -24.474 -39.403  1.00  0.00     0.210 HD
ENDBRANCH  17  20
ENDBRANCH  16  17
ENDBRANCH  15  16
ENDBRANCH  14  15
ENDBRANCH  13  14
ENDBRANCH  12  13
ENDBRANCH   1  12
TORSDOF 9
ENDMDL
MODEL 2
REMARK VINA RESULT: -6.161687671      2.058      7.635
REMARK  9 active torsions:
REMARK  status: ('A' for Active; 'I' for Inactive)
REMARK    1  A    between atoms: O1_2  and  C2_3 
REMARK    2  A    between atoms: C9_10  and  C10_11 
REMARK    3  A    between atoms: C10_11  and  C11_12 
REMARK    4  A    between atoms: C11_12  and  C12_13 
REMARK    5  A    between atoms: C12_13  and  C13_14 
REMARK    6  A    between atoms: C13_14  and  C14_15 
REMARK    7  A    between atoms: C14_15  and  C15_16 
REMARK    8  A    between atoms: C15_16  and  C16_17 
REMARK    9  A    between atoms: C16_17  and  O2_20 
ROOT
HETATM    1  C10 UNL     1     -34.293 -23.003 -36.574  1.00  0.00     0.041 C 
ENDROOT
BRANCH   1   2
HETATM    2  C9  UNL     1     -34.115 -23.100 -38.050  1.00  0.00    -0.024 A 
HETATM    3  C2  UNL     1     -33.603 -24.210 -38.670  1.00  0.00     0.075 A 
HETATM    4  C3  UNL     1     -33.478 -24.213 -40.038  1.00  0.00     0.044 A 
HETATM    5  C4  UNL     1     -33.845 -23.142 -40.835  1.00  0.00    -0.053 A 
HETATM    6  C5  UNL     1     -33.703 -23.160 -42.312  1.00  0.00     0.049 C 
HETATM    7  C6  UNL     1     -34.356 -22.044 -40.186  1.00  0.00    -0.055 A 
HETATM    8  C7  UNL     1     -34.764 -20.866 -41.015  1.00  0.00     0.049 C 
HETATM    9  C8  UNL     1     -34.487 -22.026 -38.821  1.00  0.00     0.017 A 
BRANCH   3  10
HETATM   10  O1  UNL     1     -33.219 -25.310 -37.925  1.00  0.00    -0.355 OA
HETATM   11  C1  UNL     1     -33.572 -26.621 -38.349  1.00  0.00     0.210 C 
ENDBRANCH   3  10
ENDBRANCH   1   2
BRANCH   1  12
HETATM   12  C11 UNL     1     -33.570 -21.809 -36.027  1.00  0.00     0.005 C 
BRANCH  12  13
HETATM   13  C12 UNL     1     -33.537 -21.773 -34.529  1.00  0.00     0.000 C 
BRANCH  13  14
HETATM   14  C13 UNL     1     -32.883 -20.520 -33.965  1.00  0.00     0.000 C 
BRANCH  14  15
HETATM   15  C14 UNL     1     -32.950 -19.346 -34.869  1.00  0.00     0.003 C 
BRANCH  15  16
HETATM   16  C15 UNL     1     -31.852 -18.368 -34.862  1.00  0.00     0.037 C 
BRANCH  16  17
HETATM   17  C16 UNL     1     -32.065 -17.019 -34.308  1.00  0.00     0.051 C 
HETATM   18  C17 UNL     1     -31.085 -16.086 -35.064  1.00  0.00     0.045 C 
HETATM   19  C18 UNL     1     -31.791 -16.776 -32.866  1.00  0.00     0.045 C 
BRANCH  17  20
HETATM   20  O2  UNL     1     -33.340 -16.507 -34.586  1.00  0.00    -0.391 OA
ATOM     21  H2  UNL     1     -33.993 -17.184 -34.714  1.00  0.00     0.210 HD
ENDBRANCH  17  20
ENDBRANCH  16  17
ENDBRANCH  15  16
ENDBRANCH  14  15
ENDBRANCH  13  14
ENDBRANCH  12  13
ENDBRANCH   1  12
TORSDOF 9
ENDMDL
MODEL 3
REMARK VINA RESULT: -6.094932158      2.132      8.374
REMARK  9 active torsions:
REMARK  status: ('A' for Active; 'I' for Inactive)
REMARK    1  A    between atoms: O1_2  and  C2_3 
REMARK    2  A    between atoms: C9_10  and  C10_11 
REMARK    3  A    between atoms: C10_11  and  C11_12 
REMARK    4  A    between atoms: C11_12  and  C12_13 
REMARK    5  A    between atoms: C12_13  and  C13_14 
REMARK    6  A    between atoms: C13_14  and  C14_15 
REMARK    7  A    between atoms: C14_15  and  C15_16 
REMARK    8  A    between atoms: C15_16  and  C16_17 
REMARK    9  A    between atoms: C16_17  and  O2_20 
ROOT
HETATM    1  C10 UNL     1     -34.400 -22.914 -35.763  1.00  0.00     0.041 C 
ENDROOT
BRANCH   1   2
HETATM    2  C9  UNL     1     -34.859 -24.099 -36.540  1.00  0.00    -0.024 A 
HETATM    3  C2  UNL     1     -35.487 -25.174 -35.966  1.00  0.00     0.075 A 
HETATM    4  C3  UNL     1     -35.879 -26.222 -36.761  1.00  0.00     0.044 A 
HETATM    5  C4  UNL     1     -35.672 -26.254 -38.131  1.00  0.00    -0.053 A 
HETATM    6  C5  UNL     1     -36.101 -27.395 -38.977  1.00  0.00     0.049 C 
HETATM    7  C6  UNL     1     -35.041 -25.164 -38.679  1.00  0.00    -0.055 A 
HETATM    8  C7  UNL     1     -34.799 -25.162 -40.155  1.00  0.00     0.049 C 
HETATM    9  C8  UNL     1     -34.643 -24.109 -37.897  1.00  0.00     0.017 A 
BRANCH   3  10
HETATM   10  O1  UNL     1     -35.721 -25.197 -34.603  1.00  0.00    -0.355 OA
HETATM   11  C1  UNL     1     -35.906 -26.436 -33.929  1.00  0.00     0.210 C 
ENDBRANCH   3  10
ENDBRANCH   1   2
BRANCH   1  12
HETATM   12  C11 UNL     1     -33.769 -21.896 -36.664  1.00  0.00     0.005 C 
BRANCH  12  13
HETATM   13  C12 UNL     1     -32.926 -20.899 -35.930  1.00  0.00     0.000 C 
BRANCH  13  14
HETATM   14  C13 UNL     1     -33.129 -20.924 -34.422  1.00  0.00     0.000 C 
BRANCH  14  15
HETATM   15  C14 UNL     1     -32.328 -19.914 -33.689  1.00  0.00     0.003 C 
BRANCH  15  16
HETATM   16  C15 UNL     1     -32.954 -18.641 -33.300  1.00  0.00     0.037 C 
BRANCH  16  17
HETATM   17  C16 UNL     1     -32.372 -17.363 -33.747  1.00  0.00     0.051 C 
HETATM   18  C17 UNL     1     -31.289 -17.729 -34.794  1.00  0.00     0.045 C 
HETATM   19  C18 UNL     1     -31.673 -16.499 -32.758  1.00  0.00     0.045 C 
BRANCH  17  20
HETATM   20  O2  UNL     1     -33.287 -16.556 -34.438  1.00  0.00    -0.391 OA
ATOM     21  H2  UNL     1     -32.975 -15.669 -34.569  1.00  0.00     0.210 HD
ENDBRANCH  17  20
ENDBRANCH  16  17
ENDBRANCH  15  16
ENDBRANCH  14  15
ENDBRANCH  13  14
ENDBRANCH  12  13
ENDBRANCH   1  12
TORSDOF 9
ENDMDL
MODEL 4
REMARK VINA RESULT: -6.090176072      1.900      7.778
REMARK  9 active torsions:
REMARK  status: ('A' for Active; 'I' for Inactive)
REMARK    1  A    between atoms: O1_2  and  C2_3 
REMARK    2  A    between atoms: C9_10  and  C10_11 
REMARK    3  A    between atoms: C10_11  and  C11_12 
REMARK    4  A    between atoms: C11_12  and  C12_13 
REMARK    5  A    between atoms: C12_13  and  C13_14 
REMARK    6  A    between atoms: C13_14  and  C14_15 
REMARK    7  A    between atoms: C14_15  and  C15_16 
REMARK    8  A    between atoms: C15_16  and  C16_17 
REMARK    9  A    between atoms: C16_17  and  O2_20 
ROOT
HETATM    1  C10 UNL     1     -33.958 -22.025 -37.020  1.00  0.00     0.041 C 
ENDROOT
BRANCH   1   2
HETATM    2  C9  UNL     1     -34.351 -22.990 -38.085  1.00  0.00    -0.024 A 
HETATM    3  C2  UNL     1     -34.981 -22.612 -39.242  1.00  0.00     0.075 A 
HETATM    4  C3  UNL     1     -35.305 -23.570 -40.171  1.00  0.00     0.044 A 
HETATM    5  C4  UNL     1     -35.026 -24.917 -40.000  1.00  0.00    -0.053 A 
HETATM    6  C5  UNL     1     -35.382 -25.941 -41.013  1.00  0.00     0.049 C 
HETATM    7  C6  UNL     1     -34.394 -25.266 -38.831  1.00  0.00    -0.055 A 
HETATM    8  C7  UNL     1     -34.076 -26.712 -38.610  1.00  0.00     0.049 C 
HETATM    9  C8  UNL     1     -34.065 -24.320 -37.894  1.00  0.00     0.017 A 
BRANCH   3  10
HETATM   10  O1  UNL     1     -35.285 -21.282 -39.468  1.00  0.00    -0.355 OA
HETATM   11  C1  UNL     1     -34.978 -20.679 -40.718  1.00  0.00     0.210 C 
ENDBRANCH   3  10
ENDBRANCH   1   2
BRANCH   1  12
HETATM   12  C11 UNL     1     -34.268 -22.574 -35.660  1.00  0.00     0.005 C 
BRANCH  12  13
HETATM   13  C12 UNL     1     -33.528 -21.878 -34.559  1.00  0.00     0.000 C 
BRANCH  13  14
HETATM   14  C13 UNL     1     -32.679 -20.710 -35.041  1.00  0.00     0.000 C 
BRANCH  14  15
HETATM   15  C14 UNL     1     -32.109 -19.888 -33.947  1.00  0.00     0.003 C 
BRANCH  15  16
HETATM   16  C15 UNL     1     -32.839 -18.697 -33.484  1.00  0.00     0.037 C 
BRANCH  16  17
HETATM   17  C16 UNL     1     -32.357 -17.350 -33.835  1.00  0.00     0.051 C 
HETATM   18  C17 UNL     1     -31.236 -17.557 -34.886  1.00  0.00     0.045 C 
HETATM   19  C18 UNL     1     -31.741 -16.502 -32.779  1.00  0.00     0.045 C 
BRANCH  17  20
HETATM   20  O2  UNL     1     -33.325 -16.573 -34.487  1.00  0.00    -0.391 OA
ATOM     21  H2  UNL     1     -32.953 -15.957 -35.106  1.00  0.00     0.210 HD
ENDBRANCH  17  20
ENDBRANCH  16  17
ENDBRANCH  15  16
ENDBRANCH  14  15
ENDBRANCH  13  14
ENDBRANCH  12  13
ENDBRANCH   1  12
TORSDOF 9
ENDMDL
MODEL 5
REMARK VINA RESULT: -6.021195277      1.946      7.313
REMARK  9 active torsions:
REMARK  status: ('A' for Active; 'I' for Inactive)
REMARK    1  A    between atoms: O1_2  and  C2_3 
REMARK    2  A    between atoms: C9_10  and  C10_11 
REMARK    3  A    between atoms: C10_11  and  C11_12 
REMARK    4  A    between atoms: C11_12  and  C12_13 
REMARK    5  A    between atoms: C12_13  and  C13_14 
REMARK    6  A    between atoms: C13_14  and  C14_15 
REMARK    7  A    between atoms: C14_15  and  C15_16 
REMARK    8  A    between atoms: C15_16  and  C16_17 
REMARK    9  A    between atoms: C16_17  and  O2_20 
ROOT
HETATM    1  C10 UNL     1     -33.620 -22.082 -34.526  1.00  0.00     0.041 C 
ENDROOT
BRANCH   1   2
HETATM    2  C9  UNL     1     -34.139 -22.522 -35.852  1.00  0.00    -0.024 A 
HETATM    3  C2  UNL     1     -34.940 -23.622 -36.014  1.00  0.00     0.075 A 
HETATM    4  C3  UNL     1     -35.375 -23.953 -37.273  1.00  0.00     0.044 A 
HETATM    5  C4  UNL     1     -35.044 -23.226 -38.405  1.00  0.00    -0.053 A 
HETATM    6  C5  UNL     1     -35.521 -23.597 -39.760  1.00  0.00     0.049 C 
HETATM    7  C6  UNL     1     -34.240 -22.129 -38.212  1.00  0.00    -0.055 A 
HETATM    8  C7  UNL     1     -33.860 -21.318 -39.412  1.00  0.00     0.049 C 
HETATM    9  C8  UNL     1     -33.798 -21.786 -36.960  1.00  0.00     0.017 A 
BRANCH   3  10
HETATM   10  O1  UNL     1     -35.304 -24.387 -34.920  1.00  0.00    -0.355 OA
HETATM   11  C1  UNL     1     -35.633 -25.761 -35.083  1.00  0.00     0.210 C 
ENDBRANCH   3  10
ENDBRANCH   1   2
BRANCH   1  12
HETATM   12  C11 UNL     1     -33.262 -20.626 -34.550  1.00  0.00     0.005 C 
BRANCH  12  13
HETATM   13  C12 UNL     1     -32.462 -20.196 -33.359  1.00  0.00     0.000 C 
BRANCH  13  14
HETATM   14  C13 UNL     1     -32.813 -18.800 -32.863  1.00  0.00     0.000 C 
BRANCH  14  15
HETATM   15  C14 UNL     1     -31.687 -17.838 -32.925  1.00  0.00     0.003 C 
BRANCH  15  16
HETATM   16  C15 UNL     1     -30.760 -17.885 -34.066  1.00  0.00     0.037 C 
BRANCH  16  17
HETATM   17  C16 UNL     1     -31.089 -17.179 -35.317  1.00  0.00     0.051 C 
HETATM   18  C17 UNL     1     -31.389 -18.281 -36.365  1.00  0.00     0.045 C 
HETATM   19  C18 UNL     1     -30.059 -16.314 -35.953  1.00  0.00     0.045 C 
BRANCH  17  20
HETATM   20  O2  UNL     1     -32.271 -16.430 -35.230  1.00  0.00    -0.391 OA
ATOM     21  H2  UNL     1     -32.568 -16.105 -36.071  1.00  0.00     0.210 HD
ENDBRANCH  17  20
ENDBRANCH  16  17
ENDBRANCH  15  16
ENDBRANCH  14  15
ENDBRANCH  13  14
ENDBRANCH  12  13
ENDBRANCH   1  12
TORSDOF 9
ENDMDL
