MODEL 1
REMARK VINA RESULT: -6.022245335      0.000      0.000
REMARK  10 active torsions:
REMARK  status: ('A' for Active; 'I' for Inactive)
REMARK    1  A    between atoms: C2_2  and  C3_3 
REMARK    2  A    between atoms: C3_3  and  C4_4 
REMARK    3  A    between atoms: C6_6  and  C7_7 
REMARK    4  A    between atoms: C10_10  and  C11_11 
REMARK    5  A    between atoms: C11_11  and  O1_12 
REMARK    6  A    between atoms: O1_12  and  C12_13 
REMARK    7  A    between atoms: C12_13  and  C14_15 
REMARK    8  A    between atoms: C14_15  and  O2_16 
REMARK    9  A    between atoms: C14_15  and  C15_18 
REMARK   10  A    between atoms: C15_18  and  C16_19 
ROOT
HETATM    1  C4  UNL     1     -32.549 -19.251 -33.909  1.00  0.00    -0.057 A 
HETATM    2  C5  UNL     1     -32.117 -18.727 -35.121  1.00  0.00     0.014 A 
HETATM    3  C6  UNL     1     -32.274 -19.379 -36.319  1.00  0.00    -0.057 A 
HETATM    4  C9  UNL     1     -32.895 -20.613 -36.285  1.00  0.00     0.016 A 
HETATM    5  C10 UNL     1     -33.352 -21.196 -35.122  1.00  0.00    -0.034 A 
HETATM    6  C18 UNL     1     -33.163 -20.486 -33.937  1.00  0.00     0.016 A 
ENDROOT
BRANCH   5   7
HETATM    7  C11 UNL     1     -34.014 -22.527 -35.135  1.00  0.00     0.207 C 
BRANCH   7   8
HETATM    8  O1  UNL     1     -35.357 -22.346 -35.373  1.00  0.00    -0.379 OA
BRANCH   8   9
HETATM    9  C12 UNL     1     -35.885 -23.199 -36.312  1.00  0.00     0.146 C 
HETATM   10  C13 UNL     1     -35.390 -22.919 -37.713  1.00  0.00     0.042 C 
BRANCH   9  11
HETATM   11  C14 UNL     1     -35.407 -24.612 -35.962  1.00  0.00     0.146 C 
BRANCH  11  12
HETATM   12  O2  UNL     1     -36.348 -25.161 -35.116  1.00  0.00    -0.393 OA
ATOM     13  H2  UNL     1     -36.016 -25.069 -34.232  1.00  0.00     0.210 HD
ENDBRANCH  11  12
BRANCH  11  14
HETATM   14  C15 UNL     1     -35.394 -25.397 -37.260  1.00  0.00     0.034 C 
BRANCH  14  15
HETATM   15  C16 UNL     1     -34.577 -26.652 -37.046  1.00  0.00    -0.002 C 
HETATM   16  C17 UNL     1     -33.646 -26.923 -38.198  1.00  0.00     0.005 C 
ENDBRANCH  14  15
ENDBRANCH  11  14
ENDBRANCH   9  11
ENDBRANCH   8   9
ENDBRANCH   7   8
ENDBRANCH   5   7
BRANCH   3  17
HETATM   17  C7  UNL     1     -31.807 -18.801 -37.586  1.00  0.00     0.034 C 
HETATM   18  C8  UNL     1     -32.477 -19.355 -38.794  1.00  0.00     0.010 C 
ENDBRANCH   3  17
BRANCH   1  19
HETATM   19  C3  UNL     1     -32.341 -18.484 -32.664  1.00  0.00     0.038 C 
BRANCH  19  20
HETATM   20  C2  UNL     1     -32.031 -17.023 -32.955  1.00  0.00     0.000 C 
HETATM   21  C1  UNL     1     -30.606 -16.684 -32.541  1.00  0.00     0.005 C 
ENDBRANCH  19  20
ENDBRANCH   1  19
TORSDOF 10
ENDMDL
MODEL 2
REMARK VINA RESULT: -5.994371198      1.562      1.955
REMARK  10 active torsions:
REMARK  status: ('A' for Active; 'I' for Inactive)
REMARK    1  A    between atoms: C2_2  and  C3_3 
REMARK    2  A    between atoms: C3_3  and  C4_4 
REMARK    3  A    between atoms: C6_6  and  C7_7 
REMARK    4  A    between atoms: C10_10  and  C11_11 
REMARK    5  A    between atoms: C11_11  and  O1_12 
REMARK    6  A    between atoms: O1_12  and  C12_13 
REMARK    7  A    between atoms: C12_13  and  C14_15 
REMARK    8  A    between atoms: C14_15  and  O2_16 
REMARK    9  A    between atoms: C14_15  and  C15_18 
REMARK   10  A    between atoms: C15_18  and  C16_19 
ROOT
HETATM    1  C4  UNL     1     -32.311 -18.632 -33.729  1.00  0.00    -0.057 A 
HETATM    2  C5  UNL     1     -31.962 -18.237 -35.014  1.00  0.00     0.014 A 
HETATM    3  C6  UNL     1     -32.129 -19.038 -36.116  1.00  0.00    -0.057 A 
HETATM    4  C9  UNL     1     -32.672 -20.291 -35.905  1.00  0.00     0.016 A 
HETATM    5  C10 UNL     1     -33.044 -20.752 -34.659  1.00  0.00    -0.034 A 
HETATM    6  C18 UNL     1     -32.851 -19.893 -33.578  1.00  0.00     0.016 A 
ENDROOT
BRANCH   5   7
HETATM    7  C11 UNL     1     -33.625 -22.108 -34.481  1.00  0.00     0.207 C 
BRANCH   7   8
HETATM    8  O1  UNL     1     -34.768 -22.200 -35.241  1.00  0.00    -0.379 OA
BRANCH   8   9
HETATM    9  C12 UNL     1     -34.918 -23.399 -35.895  1.00  0.00     0.146 C 
HETATM   10  C13 UNL     1     -36.321 -23.622 -36.413  1.00  0.00     0.042 C 
BRANCH   9  11
HETATM   11  C14 UNL     1     -34.006 -23.362 -37.126  1.00  0.00     0.146 C 
BRANCH  11  12
HETATM   12  O2  UNL     1     -33.603 -24.656 -37.373  1.00  0.00    -0.393 OA
ATOM     13  H2  UNL     1     -33.506 -25.084 -36.531  1.00  0.00     0.210 HD
ENDBRANCH  11  12
BRANCH  11  14
HETATM   14  C15 UNL     1     -34.864 -22.884 -38.283  1.00  0.00     0.034 C 
BRANCH  14  15
HETATM   15  C16 UNL     1     -34.353 -23.531 -39.551  1.00  0.00    -0.002 C 
HETATM   16  C17 UNL     1     -33.600 -22.557 -40.418  1.00  0.00     0.005 C 
ENDBRANCH  14  15
ENDBRANCH  11  14
ENDBRANCH   9  11
ENDBRANCH   8   9
ENDBRANCH   7   8
ENDBRANCH   5   7
BRANCH   3  17
HETATM   17  C7  UNL     1     -31.750 -18.594 -37.464  1.00  0.00     0.034 C 
HETATM   18  C8  UNL     1     -32.484 -19.283 -38.562  1.00  0.00     0.010 C 
ENDBRANCH   3  17
BRANCH   1  19
HETATM   19  C3  UNL     1     -32.098 -17.708 -32.595  1.00  0.00     0.038 C 
BRANCH  19  20
HETATM   20  C2  UNL     1     -30.979 -16.720 -32.886  1.00  0.00     0.000 C 
HETATM   21  C1  UNL     1     -29.626 -17.326 -32.541  1.00  0.00     0.005 C 
ENDBRANCH  19  20
ENDBRANCH   1  19
TORSDOF 10
ENDMDL
MODEL 3
REMARK VINA RESULT: -5.954443697      2.493      7.463
REMARK  10 active torsions:
REMARK  status: ('A' for Active; 'I' for Inactive)
REMARK    1  A    between atoms: C2_2  and  C3_3 
REMARK    2  A    between atoms: C3_3  and  C4_4 
REMARK    3  A    between atoms: C6_6  and  C7_7 
REMARK    4  A    between atoms: C10_10  and  C11_11 
REMARK    5  A    between atoms: C11_11  and  O1_12 
REMARK    6  A    between atoms: O1_12  and  C12_13 
REMARK    7  A    between atoms: C12_13  and  C14_15 
REMARK    8  A    between atoms: C14_15  and  O2_16 
REMARK    9  A    between atoms: C14_15  and  C15_18 
REMARK   10  A    between atoms: C15_18  and  C16_19 
ROOT
HETATM    1  C4  UNL     1     -34.147 -22.923 -39.965  1.00  0.00    -0.057 A 
HETATM    2  C5  UNL     1     -34.093 -24.310 -39.915  1.00  0.00     0.014 A 
HETATM    3  C6  UNL     1     -34.065 -25.018 -38.738  1.00  0.00    -0.057 A 
HETATM    4  C9  UNL     1     -34.092 -24.287 -37.566  1.00  0.00     0.016 A 
HETATM    5  C10 UNL     1     -34.147 -22.909 -37.537  1.00  0.00    -0.034 A 
HETATM    6  C18 UNL     1     -34.173 -22.246 -38.763  1.00  0.00     0.016 A 
ENDROOT
BRANCH   5   7
HETATM    7  C11 UNL     1     -34.174 -22.167 -36.249  1.00  0.00     0.207 C 
BRANCH   7   8
HETATM    8  O1  UNL     1     -33.674 -20.903 -36.460  1.00  0.00    -0.379 OA
BRANCH   8   9
HETATM    9  C12 UNL     1     -32.579 -20.592 -35.691  1.00  0.00     0.146 C 
HETATM   10  C13 UNL     1     -31.803 -19.405 -36.215  1.00  0.00     0.042 C 
BRANCH   9  11
HETATM   11  C14 UNL     1     -33.098 -20.188 -34.306  1.00  0.00     0.146 C 
BRANCH  11  12
HETATM   12  O2  UNL     1     -32.333 -20.857 -33.375  1.00  0.00    -0.393 OA
ATOM     13  H2  UNL     1     -32.650 -21.752 -33.344  1.00  0.00     0.210 HD
ENDBRANCH  11  12
BRANCH  11  14
HETATM   14  C15 UNL     1     -32.848 -18.698 -34.170  1.00  0.00     0.034 C 
BRANCH  14  15
HETATM   15  C16 UNL     1     -32.580 -18.394 -32.713  1.00  0.00    -0.002 C 
HETATM   16  C17 UNL     1     -31.690 -17.191 -32.541  1.00  0.00     0.005 C 
ENDBRANCH  14  15
ENDBRANCH  11  14
ENDBRANCH   9  11
ENDBRANCH   8   9
ENDBRANCH   7   8
ENDBRANCH   5   7
BRANCH   3  17
HETATM   17  C7  UNL     1     -34.008 -26.485 -38.716  1.00  0.00     0.034 C 
HETATM   18  C8  UNL     1     -33.448 -27.055 -37.459  1.00  0.00     0.010 C 
ENDBRANCH   3  17
BRANCH   1  19
HETATM   19  C3  UNL     1     -34.173 -22.238 -41.274  1.00  0.00     0.038 C 
BRANCH  19  20
HETATM   20  C2  UNL     1     -34.093 -23.231 -42.423  1.00  0.00     0.000 C 
HETATM   21  C1  UNL     1     -32.676 -23.299 -42.976  1.00  0.00     0.005 C 
ENDBRANCH  19  20
ENDBRANCH   1  19
TORSDOF 10
ENDMDL
MODEL 4
REMARK VINA RESULT: -5.899824255      2.393      3.780
REMARK  10 active torsions:
REMARK  status: ('A' for Active; 'I' for Inactive)
REMARK    1  A    between atoms: C2_2  and  C3_3 
REMARK    2  A    between atoms: C3_3  and  C4_4 
REMARK    3  A    between atoms: C6_6  and  C7_7 
REMARK    4  A    between atoms: C10_10  and  C11_11 
REMARK    5  A    between atoms: C11_11  and  O1_12 
REMARK    6  A    between atoms: O1_12  and  C12_13 
REMARK    7  A    between atoms: C12_13  and  C14_15 
REMARK    8  A    between atoms: C14_15  and  O2_16 
REMARK    9  A    between atoms: C14_15  and  C15_18 
REMARK   10  A    between atoms: C15_18  and  C16_19 
ROOT
HETATM    1  C4  UNL     1     -31.317 -18.866 -35.357  1.00  0.00    -0.057 A 
HETATM    2  C5  UNL     1     -31.961 -19.922 -34.726  1.00  0.00     0.014 A 
HETATM    3  C6  UNL     1     -32.820 -20.773 -35.377  1.00  0.00    -0.057 A 
HETATM    4  C9  UNL     1     -33.034 -20.541 -36.722  1.00  0.00     0.016 A 
HETATM    5  C10 UNL     1     -32.430 -19.514 -37.416  1.00  0.00    -0.034 A 
HETATM    6  C18 UNL     1     -31.567 -18.683 -36.702  1.00  0.00     0.016 A 
ENDROOT
BRANCH   5   7
HETATM    7  C11 UNL     1     -32.691 -19.304 -38.864  1.00  0.00     0.207 C 
BRANCH   7   8
HETATM    8  O1  UNL     1     -32.731 -20.530 -39.486  1.00  0.00    -0.379 OA
BRANCH   8   9
HETATM    9  C12 UNL     1     -33.988 -20.924 -39.880  1.00  0.00     0.146 C 
HETATM   10  C13 UNL     1     -34.539 -20.096 -41.019  1.00  0.00     0.042 C 
BRANCH   9  11
HETATM   11  C14 UNL     1     -33.868 -22.357 -40.409  1.00  0.00     0.146 C 
BRANCH  11  12
HETATM   12  O2  UNL     1     -32.539 -22.572 -40.705  1.00  0.00    -0.393 OA
ATOM     13  H2  UNL     1     -32.234 -23.264 -40.132  1.00  0.00     0.210 HD
ENDBRANCH  11  12
BRANCH  11  14
HETATM   14  C15 UNL     1     -34.273 -23.272 -39.268  1.00  0.00     0.034 C 
BRANCH  14  15
HETATM   15  C16 UNL     1     -33.255 -24.387 -39.172  1.00  0.00    -0.002 C 
HETATM   16  C17 UNL     1     -33.635 -25.410 -38.134  1.00  0.00     0.005 C 
ENDBRANCH  14  15
ENDBRANCH  11  14
ENDBRANCH   9  11
ENDBRANCH   8   9
ENDBRANCH   7   8
ENDBRANCH   5   7
BRANCH   3  17
HETATM   17  C7  UNL     1     -33.488 -21.882 -34.684  1.00  0.00     0.034 C 
HETATM   18  C8  UNL     1     -34.360 -22.712 -35.560  1.00  0.00     0.010 C 
ENDBRANCH   3  17
BRANCH   1  19
HETATM   19  C3  UNL     1     -30.407 -17.996 -34.584  1.00  0.00     0.038 C 
BRANCH  19  20
HETATM   20  C2  UNL     1     -30.791 -17.958 -33.112  1.00  0.00     0.000 C 
HETATM   21  C1  UNL     1     -31.604 -16.709 -32.803  1.00  0.00     0.005 C 
ENDBRANCH  19  20
ENDBRANCH   1  19
TORSDOF 10
ENDMDL
MODEL 5
REMARK VINA RESULT: -5.861060141      1.537      3.672
REMARK  10 active torsions:
REMARK  status: ('A' for Active; 'I' for Inactive)
REMARK    1  A    between atoms: C2_2  and  C3_3 
REMARK    2  A    between atoms: C3_3  and  C4_4 
REMARK    3  A    between atoms: C6_6  and  C7_7 
REMARK    4  A    between atoms: C10_10  and  C11_11 
REMARK    5  A    between atoms: C11_11  and  O1_12 
REMARK    6  A    between atoms: O1_12  and  C12_13 
REMARK    7  A    between atoms: C12_13  and  C14_15 
REMARK    8  A    between atoms: C14_15  and  O2_16 
REMARK    9  A    between atoms: C14_15  and  C15_18 
REMARK   10  A    between atoms: C15_18  and  C16_19 
ROOT
HETATM    1  C4  UNL     1     -32.347 -19.460 -36.463  1.00  0.00    -0.057 A 
HETATM    2  C5  UNL     1     -32.245 -18.939 -35.179  1.00  0.00     0.014 A 
HETATM    3  C6  UNL     1     -32.739 -19.578 -34.069  1.00  0.00    -0.057 A 
HETATM    4  C9  UNL     1     -33.363 -20.794 -34.271  1.00  0.00     0.016 A 
HETATM    5  C10 UNL     1     -33.502 -21.374 -35.514  1.00  0.00    -0.034 A 
HETATM    6  C18 UNL     1     -32.980 -20.679 -36.604  1.00  0.00     0.016 A 
ENDROOT
BRANCH   5   7
HETATM    7  C11 UNL     1     -34.182 -22.686 -35.681  1.00  0.00     0.207 C 
BRANCH   7   8
HETATM    8  O1  UNL     1     -33.657 -23.315 -36.786  1.00  0.00    -0.379 OA
BRANCH   8   9
HETATM    9  C12 UNL     1     -34.593 -23.926 -37.586  1.00  0.00     0.146 C 
HETATM   10  C13 UNL     1     -35.322 -22.960 -38.492  1.00  0.00     0.042 C 
BRANCH   9  11
HETATM   11  C14 UNL     1     -33.840 -24.894 -38.506  1.00  0.00     0.146 C 
BRANCH  11  12
HETATM   12  O2  UNL     1     -32.538 -24.448 -38.586  1.00  0.00    -0.393 OA
ATOM     13  H2  UNL     1     -32.240 -24.612 -39.472  1.00  0.00     0.210 HD
ENDBRANCH  11  12
BRANCH  11  14
HETATM   14  C15 UNL     1     -33.856 -26.245 -37.817  1.00  0.00     0.034 C 
BRANCH  14  15
HETATM   15  C16 UNL     1     -35.293 -26.706 -37.713  1.00  0.00    -0.002 C 
HETATM   16  C17 UNL     1     -35.842 -27.149 -39.044  1.00  0.00     0.005 C 
ENDBRANCH  14  15
ENDBRANCH  11  14
ENDBRANCH   9  11
ENDBRANCH   8   9
ENDBRANCH   7   8
ENDBRANCH   5   7
BRANCH   3  17
HETATM   17  C7  UNL     1     -32.617 -19.003 -32.724  1.00  0.00     0.034 C 
HETATM   18  C8  UNL     1     -32.124 -17.598 -32.703  1.00  0.00     0.010 C 
ENDBRANCH   3  17
BRANCH   1  19
HETATM   19  C3  UNL     1     -31.788 -18.709 -37.606  1.00  0.00     0.038 C 
BRANCH  19  20
HETATM   20  C2  UNL     1     -32.385 -19.175 -38.925  1.00  0.00     0.000 C 
HETATM   21  C1  UNL     1     -32.481 -18.018 -39.909  1.00  0.00     0.005 C 
ENDBRANCH  19  20
ENDBRANCH   1  19
TORSDOF 10
ENDMDL
