MODEL 1
REMARK VINA RESULT: -7.282935234      0.000      0.000
REMARK  2 active torsions:
REMARK  status: ('A' for Active; 'I' for Inactive)
REMARK    1  A    between atoms: O1_1  and  C1_3 
REMARK    2  A    between atoms: C1_3  and  C2_4 
ROOT
HETATM    1  C2  UNL     1     -22.647 -21.915 -22.442  1.00  0.00     0.294 C 
HETATM    2  N1  UNL     1     -23.124 -23.064 -21.734  1.00  0.00     0.009 N 
ATOM      3  H11 UNL     1     -23.423 -22.848 -20.783  1.00  0.00     0.285 HD
ATOM      4  H12 UNL     1     -22.381 -23.720 -21.497  1.00  0.00     0.285 HD
HETATM    5  C3  UNL     1     -24.175 -23.666 -22.533  1.00  0.00     0.478 C 
HETATM    6  F1  UNL     1     -23.643 -24.656 -23.332  1.00  0.00    -0.169 F 
HETATM    7  F2  UNL     1     -25.220 -24.129 -21.760  1.00  0.00    -0.169 F 
HETATM    8  C4  UNL     1     -24.675 -22.488 -23.369  1.00  0.00     0.401 C 
HETATM    9  F3  UNL     1     -25.212 -21.582 -22.496  1.00  0.00    -0.190 F 
HETATM   10  F4  UNL     1     -25.456 -22.847 -24.397  1.00  0.00    -0.190 F 
HETATM   11  C5  UNL     1     -23.312 -21.936 -23.804  1.00  0.00     0.346 C 
HETATM   12  F5  UNL     1     -22.672 -22.814 -24.641  1.00  0.00    -0.197 F 
HETATM   13  F6  UNL     1     -23.415 -20.692 -24.350  1.00  0.00    -0.197 F 
ENDROOT
BRANCH   1  14
HETATM   14  C1  UNL     1     -21.145 -21.869 -22.546  1.00  0.00     0.203 C 
BRANCH  14  15
HETATM   15  O1  UNL     1     -20.711 -20.579 -22.258  1.00  0.00    -0.399 OA
ATOM     16  H1  UNL     1     -20.646 -20.478 -21.315  1.00  0.00     0.209 HD
ENDBRANCH  14  15
ENDBRANCH   1  14
TORSDOF 2
ENDMDL
MODEL 2
REMARK VINA RESULT: -6.924431869      0.994      1.485
REMARK  2 active torsions:
REMARK  status: ('A' for Active; 'I' for Inactive)
REMARK    1  A    between atoms: O1_1  and  C1_3 
REMARK    2  A    between atoms: C1_3  and  C2_4 
ROOT
HETATM    1  C2  UNL     1     -22.433 -22.168 -22.295  1.00  0.00     0.294 C 
HETATM    2  N1  UNL     1     -22.115 -23.525 -22.621  1.00  0.00     0.009 N 
ATOM      3  H11 UNL     1     -21.964 -24.106 -21.796  1.00  0.00     0.285 HD
ATOM      4  H12 UNL     1     -21.186 -23.627 -23.029  1.00  0.00     0.285 HD
HETATM    5  C3  UNL     1     -23.169 -24.030 -23.480  1.00  0.00     0.478 C 
HETATM    6  F1  UNL     1     -22.811 -23.863 -24.802  1.00  0.00    -0.169 F 
HETATM    7  F2  UNL     1     -23.498 -25.338 -23.193  1.00  0.00    -0.169 F 
HETATM    8  C4  UNL     1     -24.355 -23.139 -23.111  1.00  0.00     0.401 C 
HETATM    9  F3  UNL     1     -24.654 -23.400 -21.803  1.00  0.00    -0.190 F 
HETATM   10  F4  UNL     1     -25.378 -23.216 -23.974  1.00  0.00    -0.190 F 
HETATM   11  C5  UNL     1     -23.631 -21.787 -23.143  1.00  0.00     0.346 C 
HETATM   12  F5  UNL     1     -23.239 -21.472 -24.419  1.00  0.00    -0.197 F 
HETATM   13  F6  UNL     1     -24.374 -20.796 -22.576  1.00  0.00    -0.197 F 
ENDROOT
BRANCH   1  14
HETATM   14  C1  UNL     1     -21.275 -21.227 -22.496  1.00  0.00     0.203 C 
BRANCH  14  15
HETATM   15  O1  UNL     1     -20.087 -21.943 -22.397  1.00  0.00    -0.399 OA
ATOM     16  H1  UNL     1     -19.364 -21.333 -22.308  1.00  0.00     0.209 HD
ENDBRANCH  14  15
ENDBRANCH   1  14
TORSDOF 2
ENDMDL
MODEL 3
REMARK VINA RESULT: -6.744854977      1.362      2.740
REMARK  2 active torsions:
REMARK  status: ('A' for Active; 'I' for Inactive)
REMARK    1  A    between atoms: O1_1  and  C1_3 
REMARK    2  A    between atoms: C1_3  and  C2_4 
ROOT
HETATM    1  C2  UNL     1     -22.273 -22.494 -23.105  1.00  0.00     0.294 C 
HETATM    2  N1  UNL     1     -23.275 -22.089 -24.043  1.00  0.00     0.009 N 
ATOM      3  H11 UNL     1     -23.106 -22.446 -24.983  1.00  0.00     0.285 HD
ATOM      4  H12 UNL     1     -23.230 -21.095 -24.266  1.00  0.00     0.285 HD
HETATM    5  C3  UNL     1     -24.564 -22.490 -23.510  1.00  0.00     0.478 C 
HETATM    6  F1  UNL     1     -25.120 -21.445 -22.802  1.00  0.00    -0.169 F 
HETATM    7  F2  UNL     1     -25.411 -22.963 -24.490  1.00  0.00    -0.169 F 
HETATM    8  C4  UNL     1     -24.195 -23.651 -22.586  1.00  0.00     0.401 C 
HETATM    9  F3  UNL     1     -23.688 -24.642 -23.378  1.00  0.00    -0.190 F 
HETATM   10  F4  UNL     1     -25.180 -24.011 -21.752  1.00  0.00    -0.190 F 
HETATM   11  C5  UNL     1     -23.005 -22.994 -21.874  1.00  0.00     0.346 C 
HETATM   12  F5  UNL     1     -23.418 -21.942 -21.098  1.00  0.00    -0.197 F 
HETATM   13  F6  UNL     1     -22.271 -23.897 -21.166  1.00  0.00    -0.197 F 
ENDROOT
BRANCH   1  14
HETATM   14  C1  UNL     1     -21.296 -21.396 -22.775  1.00  0.00     0.203 C 
BRANCH  14  15
HETATM   15  O1  UNL     1     -20.080 -21.966 -22.412  1.00  0.00    -0.399 OA
ATOM     16  H1  UNL     1     -19.384 -21.553 -22.910  1.00  0.00     0.209 HD
ENDBRANCH  14  15
ENDBRANCH   1  14
TORSDOF 2
ENDMDL
MODEL 4
REMARK VINA RESULT: -6.700416528      1.506      2.920
REMARK  2 active torsions:
REMARK  status: ('A' for Active; 'I' for Inactive)
REMARK    1  A    between atoms: O1_1  and  C1_3 
REMARK    2  A    between atoms: C1_3  and  C2_4 
ROOT
HETATM    1  C2  UNL     1     -21.661 -22.404 -23.273  1.00  0.00     0.294 C 
HETATM    2  N1  UNL     1     -21.983 -21.324 -24.155  1.00  0.00     0.009 N 
ATOM      3  H11 UNL     1     -21.457 -21.354 -25.028  1.00  0.00     0.285 HD
ATOM      4  H12 UNL     1     -21.639 -20.423 -23.821  1.00  0.00     0.285 HD
HETATM    5  C3  UNL     1     -23.419 -21.338 -24.361  1.00  0.00     0.478 C 
HETATM    6  F1  UNL     1     -24.027 -20.490 -23.460  1.00  0.00    -0.169 F 
HETATM    7  F2  UNL     1     -23.764 -21.045 -25.664  1.00  0.00    -0.169 F 
HETATM    8  C4  UNL     1     -23.781 -22.797 -24.080  1.00  0.00     0.401 C 
HETATM    9  F3  UNL     1     -23.164 -23.550 -25.039  1.00  0.00    -0.190 F 
HETATM   10  F4  UNL     1     -25.096 -23.007 -23.924  1.00  0.00    -0.190 F 
HETATM   11  C5  UNL     1     -22.978 -22.975 -22.785  1.00  0.00     0.346 C 
HETATM   12  F5  UNL     1     -23.496 -22.203 -21.777  1.00  0.00    -0.197 F 
HETATM   13  F6  UNL     1     -22.874 -24.285 -22.425  1.00  0.00    -0.197 F 
ENDROOT
BRANCH   1  14
HETATM   14  C1  UNL     1     -20.768 -21.988 -22.133  1.00  0.00     0.203 C 
BRANCH  14  15
HETATM   15  O1  UNL     1     -20.631 -20.604 -22.149  1.00  0.00    -0.399 OA
ATOM     16  H1  UNL     1     -19.851 -20.376 -22.642  1.00  0.00     0.209 HD
ENDBRANCH  14  15
ENDBRANCH   1  14
TORSDOF 2
ENDMDL
MODEL 5
REMARK VINA RESULT: -6.678417153      1.523      1.981
REMARK  2 active torsions:
REMARK  status: ('A' for Active; 'I' for Inactive)
REMARK    1  A    between atoms: O1_1  and  C1_3 
REMARK    2  A    between atoms: C1_3  and  C2_4 
ROOT
HETATM    1  C2  UNL     1     -23.321 -21.416 -23.675  1.00  0.00     0.294 C 
HETATM    2  N1  UNL     1     -22.402 -21.860 -22.672  1.00  0.00     0.009 N 
ATOM      3  H11 UNL     1     -22.357 -21.232 -21.870  1.00  0.00     0.285 HD
ATOM      4  H12 UNL     1     -21.428 -21.777 -22.962  1.00  0.00     0.285 HD
HETATM    5  C3  UNL     1     -22.770 -23.215 -22.307  1.00  0.00     0.478 C 
HETATM    6  F1  UNL     1     -22.039 -24.113 -23.057  1.00  0.00    -0.169 F 
HETATM    7  F2  UNL     1     -22.643 -23.445 -20.953  1.00  0.00    -0.169 F 
HETATM    8  C4  UNL     1     -24.253 -23.267 -22.672  1.00  0.00     0.401 C 
HETATM    9  F3  UNL     1     -24.893 -22.374 -21.858  1.00  0.00    -0.190 F 
HETATM   10  F4  UNL     1     -24.761 -24.507 -22.697  1.00  0.00    -0.190 F 
HETATM   11  C5  UNL     1     -24.160 -22.620 -24.060  1.00  0.00     0.346 C 
HETATM   12  F5  UNL     1     -23.476 -23.427 -24.932  1.00  0.00    -0.197 F 
HETATM   13  F6  UNL     1     -25.384 -22.266 -24.542  1.00  0.00    -0.197 F 
ENDROOT
BRANCH   1  14
HETATM   14  C1  UNL     1     -22.639 -20.798 -24.867  1.00  0.00     0.203 C 
BRANCH  14  15
HETATM   15  O1  UNL     1     -21.891 -19.705 -24.444  1.00  0.00    -0.399 OA
ATOM     16  H1  UNL     1     -22.127 -18.947 -24.966  1.00  0.00     0.209 HD
ENDBRANCH  14  15
ENDBRANCH   1  14
TORSDOF 2
ENDMDL
