MODEL 1
REMARK VINA RESULT: -6.706034410      0.000      0.000
REMARK  2 active torsions:
REMARK  status: ('A' for Active; 'I' for Inactive)
REMARK    1  A    between atoms: N1_1  and  C1_5 
REMARK    2  A    between atoms: C1_5  and  C2_7 
ROOT
HETATM    1  C2  UNL     1     -23.214 -22.165 -23.788  1.00  0.00     0.086 A 
HETATM    2  C3  UNL     1     -22.154 -22.367 -22.918  1.00  0.00     0.172 A 
HETATM    3  F2  UNL     1     -21.018 -21.650 -22.998  1.00  0.00    -0.202 F 
HETATM    4  C4  UNL     1     -22.264 -23.338 -21.931  1.00  0.00     0.197 A 
HETATM    5  F3  UNL     1     -21.269 -23.590 -21.046  1.00  0.00    -0.199 F 
HETATM    6  C5  UNL     1     -23.411 -24.093 -21.817  1.00  0.00     0.199 A 
HETATM    7  F4  UNL     1     -23.533 -25.043 -20.861  1.00  0.00    -0.199 F 
HETATM    8  C6  UNL     1     -24.456 -23.879 -22.691  1.00  0.00     0.197 A 
HETATM    9  F5  UNL     1     -25.612 -24.586 -22.634  1.00  0.00    -0.199 F 
HETATM   10  C7  UNL     1     -24.360 -22.910 -23.683  1.00  0.00     0.172 A 
HETATM   11  F6  UNL     1     -25.366 -22.674 -24.557  1.00  0.00    -0.202 F 
ENDROOT
BRANCH   1  12
HETATM   12  C1  UNL     1     -23.111 -21.140 -24.838  1.00  0.00     0.405 C 
HETATM   13  F1  UNL     1     -22.925 -19.901 -24.256  1.00  0.00    -0.214 F 
BRANCH  12  14
HETATM   14  N1  UNL     1     -22.051 -21.345 -25.767  1.00  0.00    -0.044 N 
ATOM     15  H13 UNL     1     -22.188 -20.840 -26.643  1.00  0.00     0.278 HD
ATOM     16  H12 UNL     1     -21.182 -20.890 -25.485  1.00  0.00     0.278 HD
ATOM     17  H11 UNL     1     -21.947 -22.351 -25.901  1.00  0.00     0.278 HD
ENDBRANCH  12  14
ENDBRANCH   1  12
TORSDOF 2
ENDMDL
MODEL 2
REMARK VINA RESULT: -6.655760721      1.844      4.608
REMARK  2 active torsions:
REMARK  status: ('A' for Active; 'I' for Inactive)
REMARK    1  A    between atoms: N1_1  and  C1_5 
REMARK    2  A    between atoms: C1_5  and  C2_7 
ROOT
HETATM    1  C2  UNL     1     -23.558 -23.517 -22.513  1.00  0.00     0.086 A 
HETATM    2  C3  UNL     1     -24.276 -22.946 -23.551  1.00  0.00     0.172 A 
HETATM    3  F2  UNL     1     -25.464 -23.437 -23.953  1.00  0.00    -0.202 F 
HETATM    4  C4  UNL     1     -23.758 -21.834 -24.201  1.00  0.00     0.197 A 
HETATM    5  F3  UNL     1     -24.404 -21.223 -25.224  1.00  0.00    -0.199 F 
HETATM    6  C5  UNL     1     -22.545 -21.302 -23.820  1.00  0.00     0.199 A 
HETATM    7  F4  UNL     1     -22.027 -20.218 -24.443  1.00  0.00    -0.199 F 
HETATM    8  C6  UNL     1     -21.844 -21.883 -22.784  1.00  0.00     0.197 A 
HETATM    9  F5  UNL     1     -20.646 -21.411 -22.358  1.00  0.00    -0.199 F 
HETATM   10  C7  UNL     1     -22.351 -22.997 -22.124  1.00  0.00     0.172 A 
HETATM   11  F6  UNL     1     -21.689 -23.590 -21.105  1.00  0.00    -0.202 F 
ENDROOT
BRANCH   1  12
HETATM   12  C1  UNL     1     -24.094 -24.696 -21.816  1.00  0.00     0.405 C 
HETATM   13  F1  UNL     1     -25.458 -24.553 -21.650  1.00  0.00    -0.214 F 
BRANCH  12  14
HETATM   14  N1  UNL     1     -23.868 -25.935 -22.483  1.00  0.00    -0.044 N 
ATOM     15  H13 UNL     1     -24.030 -25.879 -23.488  1.00  0.00     0.278 HD
ATOM     16  H12 UNL     1     -22.881 -26.191 -22.520  1.00  0.00     0.278 HD
ATOM     17  H11 UNL     1     -24.444 -26.642 -22.026  1.00  0.00     0.278 HD
ENDBRANCH  12  14
ENDBRANCH   1  12
TORSDOF 2
ENDMDL
MODEL 3
REMARK VINA RESULT: -6.633906369      0.062      2.833
REMARK  2 active torsions:
REMARK  status: ('A' for Active; 'I' for Inactive)
REMARK    1  A    between atoms: N1_1  and  C1_5 
REMARK    2  A    between atoms: C1_5  and  C2_7 
ROOT
HETATM    1  C2  UNL     1     -23.235 -22.173 -23.780  1.00  0.00     0.086 A 
HETATM    2  C3  UNL     1     -24.404 -22.912 -23.686  1.00  0.00     0.172 A 
HETATM    3  F2  UNL     1     -25.443 -22.715 -24.518  1.00  0.00    -0.202 F 
HETATM    4  C4  UNL     1     -24.510 -23.887 -22.702  1.00  0.00     0.197 A 
HETATM    5  F3  UNL     1     -25.622 -24.647 -22.550  1.00  0.00    -0.199 F 
HETATM    6  C5  UNL     1     -23.469 -24.119 -21.830  1.00  0.00     0.199 A 
HETATM    7  F4  UNL     1     -23.557 -25.065 -20.867  1.00  0.00    -0.199 F 
HETATM    8  C6  UNL     1     -22.313 -23.375 -21.939  1.00  0.00     0.197 A 
HETATM    9  F5  UNL     1     -21.250 -23.551 -21.115  1.00  0.00    -0.199 F 
HETATM   10  C7  UNL     1     -22.192 -22.396 -22.919  1.00  0.00     0.172 A 
HETATM   11  F6  UNL     1     -21.073 -21.648 -23.053  1.00  0.00    -0.202 F 
ENDROOT
BRANCH   1  12
HETATM   12  C1  UNL     1     -23.108 -21.137 -24.817  1.00  0.00     0.405 C 
HETATM   13  F1  UNL     1     -22.890 -19.912 -24.219  1.00  0.00    -0.214 F 
BRANCH  12  14
HETATM   14  N1  UNL     1     -22.054 -21.357 -25.750  1.00  0.00    -0.044 N 
ATOM     15  H13 UNL     1     -21.155 -21.005 -25.422  1.00  0.00     0.278 HD
ATOM     16  H12 UNL     1     -21.793 -22.340 -25.830  1.00  0.00     0.278 HD
ATOM     17  H11 UNL     1     -22.339 -20.948 -26.640  1.00  0.00     0.278 HD
ENDBRANCH  12  14
ENDBRANCH   1  12
TORSDOF 2
ENDMDL
MODEL 4
REMARK VINA RESULT: -6.546255164      1.854      3.713
REMARK  2 active torsions:
REMARK  status: ('A' for Active; 'I' for Inactive)
REMARK    1  A    between atoms: N1_1  and  C1_5 
REMARK    2  A    between atoms: C1_5  and  C2_7 
ROOT
HETATM    1  C2  UNL     1     -23.563 -23.546 -22.467  1.00  0.00     0.086 A 
HETATM    2  C3  UNL     1     -22.341 -23.026 -22.070  1.00  0.00     0.172 A 
HETATM    3  F2  UNL     1     -21.623 -23.571 -21.071  1.00  0.00    -0.202 F 
HETATM    4  C4  UNL     1     -21.839 -21.906 -22.721  1.00  0.00     0.197 A 
HETATM    5  F3  UNL     1     -20.653 -21.343 -22.387  1.00  0.00    -0.199 F 
HETATM    6  C5  UNL     1     -22.545 -21.319 -23.749  1.00  0.00     0.199 A 
HETATM    7  F4  UNL     1     -22.068 -20.227 -24.393  1.00  0.00    -0.199 F 
HETATM    8  C6  UNL     1     -23.758 -21.850 -24.131  1.00  0.00     0.197 A 
HETATM    9  F5  UNL     1     -24.503 -21.323 -25.134  1.00  0.00    -0.199 F 
HETATM   10  C7  UNL     1     -24.273 -22.971 -23.489  1.00  0.00     0.172 A 
HETATM   11  F6  UNL     1     -25.460 -23.517 -23.839  1.00  0.00    -0.202 F 
ENDROOT
BRANCH   1  12
HETATM   12  C1  UNL     1     -24.107 -24.731 -21.787  1.00  0.00     0.405 C 
HETATM   13  F1  UNL     1     -25.473 -24.591 -21.639  1.00  0.00    -0.214 F 
BRANCH  12  14
HETATM   14  N1  UNL     1     -23.871 -25.964 -22.461  1.00  0.00    -0.044 N 
ATOM     15  H13 UNL     1     -23.760 -26.751 -21.821  1.00  0.00     0.278 HD
ATOM     16  H12 UNL     1     -24.693 -26.310 -22.957  1.00  0.00     0.278 HD
ATOM     17  H11 UNL     1     -23.066 -25.833 -23.073  1.00  0.00     0.278 HD
ENDBRANCH  12  14
ENDBRANCH   1  12
TORSDOF 2
ENDMDL
MODEL 5
REMARK VINA RESULT: -6.104456379      2.031      2.292
REMARK  2 active torsions:
REMARK  status: ('A' for Active; 'I' for Inactive)
REMARK    1  A    between atoms: N1_1  and  C1_5 
REMARK    2  A    between atoms: C1_5  and  C2_7 
ROOT
HETATM    1  C2  UNL     1     -23.254 -22.118 -24.228  1.00  0.00     0.086 A 
HETATM    2  C3  UNL     1     -23.973 -21.522 -23.204  1.00  0.00     0.172 A 
HETATM    3  F2  UNL     1     -24.122 -20.187 -23.120  1.00  0.00    -0.202 F 
HETATM    4  C4  UNL     1     -24.557 -22.323 -22.232  1.00  0.00     0.197 A 
HETATM    5  F3  UNL     1     -25.273 -21.809 -21.202  1.00  0.00    -0.199 F 
HETATM    6  C5  UNL     1     -24.426 -23.694 -22.282  1.00  0.00     0.199 A 
HETATM    7  F4  UNL     1     -24.991 -24.487 -21.342  1.00  0.00    -0.199 F 
HETATM    8  C6  UNL     1     -23.709 -24.270 -23.309  1.00  0.00     0.197 A 
HETATM    9  F5  UNL     1     -23.542 -25.612 -23.419  1.00  0.00    -0.199 F 
HETATM   10  C7  UNL     1     -23.119 -23.481 -24.290  1.00  0.00     0.172 A 
HETATM   11  F6  UNL     1     -22.408 -24.015 -25.309  1.00  0.00    -0.202 F 
ENDROOT
BRANCH   1  12
HETATM   12  C1  UNL     1     -22.629 -21.283 -25.265  1.00  0.00     0.405 C 
HETATM   13  F1  UNL     1     -23.607 -20.765 -26.091  1.00  0.00    -0.214 F 
BRANCH  12  14
HETATM   14  N1  UNL     1     -21.863 -20.190 -24.765  1.00  0.00    -0.044 N 
ATOM     15  H13 UNL     1     -22.131 -19.918 -23.820  1.00  0.00     0.278 HD
ATOM     16  H12 UNL     1     -20.896 -20.443 -24.563  1.00  0.00     0.278 HD
ATOM     17  H11 UNL     1     -21.941 -19.426 -25.436  1.00  0.00     0.278 HD
ENDBRANCH  12  14
ENDBRANCH   1  12
TORSDOF 2
ENDMDL
