MODEL 1
REMARK VINA RESULT: -6.655840695      0.000      0.000
REMARK  2 active torsions:
REMARK  status: ('A' for Active; 'I' for Inactive)
REMARK    1  A    between atoms: N1_1  and  C1_5 
REMARK    2  A    between atoms: C1_5  and  C2_6 
ROOT
HETATM    1  C2  UNL     1     -23.404 -21.444 -23.857  1.00  0.00     0.096 C 
HETATM    2  C3  UNL     1     -22.226 -22.000 -23.115  1.00  0.00     0.098 C 
HETATM    3  C4  UNL     1     -22.722 -23.259 -22.411  1.00  0.00     0.314 C 
HETATM    4  F1  UNL     1     -22.553 -23.164 -21.038  1.00  0.00    -0.199 F 
HETATM    5  F2  UNL     1     -22.148 -24.397 -22.909  1.00  0.00    -0.199 F 
HETATM    6  C5  UNL     1     -24.203 -23.322 -22.724  1.00  0.00     0.372 C 
HETATM    7  F3  UNL     1     -24.903 -22.468 -21.890  1.00  0.00    -0.193 F 
HETATM    8  F4  UNL     1     -24.696 -24.588 -22.729  1.00  0.00    -0.193 F 
HETATM    9  C6  UNL     1     -24.217 -22.689 -24.123  1.00  0.00     0.319 C 
HETATM   10  F5  UNL     1     -25.477 -22.395 -24.537  1.00  0.00    -0.199 F 
HETATM   11  F6  UNL     1     -23.524 -23.526 -24.946  1.00  0.00    -0.199 F 
ENDROOT
BRANCH   1  12
HETATM   12  C1  UNL     1     -23.031 -20.726 -25.124  1.00  0.00     0.240 C 
BRANCH  12  13
HETATM   13  N1  UNL     1     -21.706 -21.001 -25.576  1.00  0.00    -0.079 N 
ATOM     14  H13 UNL     1     -21.208 -21.579 -24.898  1.00  0.00     0.274 HD
ATOM     15  H12 UNL     1     -21.724 -21.642 -26.369  1.00  0.00     0.274 HD
ATOM     16  H11 UNL     1     -21.164 -20.166 -25.801  1.00  0.00     0.274 HD
ENDBRANCH  12  13
ENDBRANCH   1  12
TORSDOF 2
ENDMDL
MODEL 2
REMARK VINA RESULT: -6.590724675      1.094      2.712
REMARK  2 active torsions:
REMARK  status: ('A' for Active; 'I' for Inactive)
REMARK    1  A    between atoms: N1_1  and  C1_5 
REMARK    2  A    between atoms: C1_5  and  C2_6 
ROOT
HETATM    1  C2  UNL     1     -23.030 -22.168 -24.409  1.00  0.00     0.096 C 
HETATM    2  C3  UNL     1     -24.431 -22.599 -24.097  1.00  0.00     0.098 C 
HETATM    3  C4  UNL     1     -24.375 -23.279 -22.734  1.00  0.00     0.314 C 
HETATM    4  F1  UNL     1     -24.819 -24.591 -22.809  1.00  0.00    -0.199 F 
HETATM    5  F2  UNL     1     -25.049 -22.578 -21.772  1.00  0.00    -0.199 F 
HETATM    6  C5  UNL     1     -22.907 -23.276 -22.357  1.00  0.00     0.372 C 
HETATM    7  F3  UNL     1     -22.248 -24.306 -23.001  1.00  0.00    -0.193 F 
HETATM    8  F4  UNL     1     -22.700 -23.263 -21.014  1.00  0.00    -0.193 F 
HETATM    9  C6  UNL     1     -22.455 -21.969 -23.025  1.00  0.00     0.319 C 
HETATM   10  F5  UNL     1     -21.101 -21.851 -23.050  1.00  0.00    -0.199 F 
HETATM   11  F6  UNL     1     -23.107 -20.951 -22.396  1.00  0.00    -0.199 F 
ENDROOT
BRANCH   1  12
HETATM   12  C1  UNL     1     -22.957 -20.918 -25.241  1.00  0.00     0.240 C 
BRANCH  12  13
HETATM   13  N1  UNL     1     -21.832 -20.870 -26.115  1.00  0.00    -0.079 N 
ATOM     14  H13 UNL     1     -22.133 -20.756 -27.083  1.00  0.00     0.274 HD
ATOM     15  H12 UNL     1     -21.318 -19.998 -25.991  1.00  0.00     0.274 HD
ATOM     16  H11 UNL     1     -21.205 -21.671 -26.027  1.00  0.00     0.274 HD
ENDBRANCH  12  13
ENDBRANCH   1  12
TORSDOF 2
ENDMDL
MODEL 3
REMARK VINA RESULT: -6.574350308      1.234      2.087
REMARK  2 active torsions:
REMARK  status: ('A' for Active; 'I' for Inactive)
REMARK    1  A    between atoms: N1_1  and  C1_5 
REMARK    2  A    between atoms: C1_5  and  C2_6 
ROOT
HETATM    1  C2  UNL     1     -23.287 -21.521 -24.846  1.00  0.00     0.096 C 
HETATM    2  C3  UNL     1     -23.556 -20.728 -23.603  1.00  0.00     0.098 C 
HETATM    3  C4  UNL     1     -24.066 -21.721 -22.565  1.00  0.00     0.314 C 
HETATM    4  F1  UNL     1     -25.334 -21.378 -22.123  1.00  0.00    -0.199 F 
HETATM    5  F2  UNL     1     -23.198 -21.878 -21.520  1.00  0.00    -0.199 F 
HETATM    6  C5  UNL     1     -24.141 -23.046 -23.298  1.00  0.00     0.372 C 
HETATM    7  F3  UNL     1     -25.295 -23.105 -24.057  1.00  0.00    -0.193 F 
HETATM    8  F4  UNL     1     -23.982 -24.120 -22.480  1.00  0.00    -0.193 F 
HETATM    9  C6  UNL     1     -22.970 -22.885 -24.278  1.00  0.00     0.319 C 
HETATM   10  F5  UNL     1     -22.971 -23.847 -25.237  1.00  0.00    -0.199 F 
HETATM   11  F6  UNL     1     -21.830 -22.821 -23.531  1.00  0.00    -0.199 F 
ENDROOT
BRANCH   1  12
HETATM   12  C1  UNL     1     -22.158 -20.973 -25.675  1.00  0.00     0.240 C 
BRANCH  12  13
HETATM   13  N1  UNL     1     -22.578 -20.378 -26.901  1.00  0.00    -0.079 N 
ATOM     14  H13 UNL     1     -22.276 -20.941 -27.696  1.00  0.00     0.274 HD
ATOM     15  H12 UNL     1     -23.590 -20.456 -27.009  1.00  0.00     0.274 HD
ATOM     16  H11 UNL     1     -22.280 -19.409 -27.014  1.00  0.00     0.274 HD
ENDBRANCH  12  13
ENDBRANCH   1  12
TORSDOF 2
ENDMDL
MODEL 4
REMARK VINA RESULT: -6.471913045      1.279      1.955
REMARK  2 active torsions:
REMARK  status: ('A' for Active; 'I' for Inactive)
REMARK    1  A    between atoms: N1_1  and  C1_5 
REMARK    2  A    between atoms: C1_5  and  C2_6 
ROOT
HETATM    1  C2  UNL     1     -22.709 -22.220 -24.072  1.00  0.00     0.096 C 
HETATM    2  C3  UNL     1     -22.973 -23.676 -23.832  1.00  0.00     0.098 C 
HETATM    3  C4  UNL     1     -23.875 -23.750 -22.606  1.00  0.00     0.314 C 
HETATM    4  F1  UNL     1     -23.284 -24.489 -21.593  1.00  0.00    -0.199 F 
HETATM    5  F2  UNL     1     -25.125 -24.219 -22.903  1.00  0.00    -0.199 F 
HETATM    6  C5  UNL     1     -24.024 -22.314 -22.145  1.00  0.00     0.372 C 
HETATM    7  F3  UNL     1     -22.913 -21.928 -21.419  1.00  0.00    -0.193 F 
HETATM    8  F4  UNL     1     -25.196 -22.079 -21.497  1.00  0.00    -0.193 F 
HETATM    9  C6  UNL     1     -23.952 -21.583 -23.494  1.00  0.00     0.319 C 
HETATM   10  F5  UNL     1     -23.810 -20.241 -23.341  1.00  0.00    -0.199 F 
HETATM   11  F6  UNL     1     -25.045 -21.966 -24.215  1.00  0.00    -0.199 F 
ENDROOT
BRANCH   1  12
HETATM   12  C1  UNL     1     -22.515 -21.876 -25.523  1.00  0.00     0.240 C 
BRANCH  12  13
HETATM   13  N1  UNL     1     -21.721 -20.711 -25.739  1.00  0.00    -0.079 N 
ATOM     14  H13 UNL     1     -21.513 -20.597 -26.731  1.00  0.00     0.274 HD
ATOM     15  H12 UNL     1     -22.272 -19.868 -25.581  1.00  0.00     0.274 HD
ATOM     16  H11 UNL     1     -20.862 -20.688 -25.188  1.00  0.00     0.274 HD
ENDBRANCH  12  13
ENDBRANCH   1  12
TORSDOF 2
ENDMDL
MODEL 5
REMARK VINA RESULT: -6.456067989      1.853      3.345
REMARK  2 active torsions:
REMARK  status: ('A' for Active; 'I' for Inactive)
REMARK    1  A    between atoms: N1_1  and  C1_5 
REMARK    2  A    between atoms: C1_5  and  C2_6 
ROOT
HETATM    1  C2  UNL     1     -22.166 -23.194 -22.652  1.00  0.00     0.096 C 
HETATM    2  C3  UNL     1     -22.505 -21.741 -22.508  1.00  0.00     0.098 C 
HETATM    3  C4  UNL     1     -23.801 -21.526 -23.282  1.00  0.00     0.314 C 
HETATM    4  F1  UNL     1     -23.634 -20.586 -24.288  1.00  0.00    -0.199 F 
HETATM    5  F2  UNL     1     -24.851 -21.205 -22.467  1.00  0.00    -0.199 F 
HETATM    6  C5  UNL     1     -24.106 -22.872 -23.910  1.00  0.00     0.372 C 
HETATM    7  F3  UNL     1     -23.345 -23.049 -25.051  1.00  0.00    -0.193 F 
HETATM    8  F4  UNL     1     -25.434 -23.077 -24.115  1.00  0.00    -0.193 F 
HETATM    9  C6  UNL     1     -23.532 -23.811 -22.840  1.00  0.00     0.319 C 
HETATM   10  F5  UNL     1     -23.453 -25.095 -23.277  1.00  0.00    -0.199 F 
HETATM   11  F6  UNL     1     -24.278 -23.635 -21.712  1.00  0.00    -0.199 F 
ENDROOT
BRANCH   1  12
HETATM   12  C1  UNL     1     -21.443 -23.762 -21.462  1.00  0.00     0.240 C 
BRANCH  12  13
HETATM   13  N1  UNL     1     -20.022 -23.717 -21.575  1.00  0.00    -0.079 N 
ATOM     14  H13 UNL     1     -19.700 -24.344 -22.312  1.00  0.00     0.274 HD
ATOM     15  H12 UNL     1     -19.721 -22.824 -21.966  1.00  0.00     0.274 HD
ATOM     16  H11 UNL     1     -19.531 -23.909 -20.701  1.00  0.00     0.274 HD
ENDBRANCH  12  13
ENDBRANCH   1  12
TORSDOF 2
ENDMDL
