MODEL 1
REMARK VINA RESULT: -7.460243777      0.000      0.000
REMARK  2 active torsions:
REMARK  status: ('A' for Active; 'I' for Inactive)
REMARK    1  A    between atoms: O1_1  and  N1_3 
REMARK    2  A    between atoms: N1_3  and  N2_4 
ROOT
HETATM    1  N2  UNL     1     -22.154 -22.516 -23.229  1.00  0.00    -0.131 NA
HETATM    2  C1  UNL     1     -22.897 -22.321 -22.018  1.00  0.00     0.204 C 
HETATM    3  C2  UNL     1     -24.214 -21.750 -22.516  1.00  0.00     0.328 C 
HETATM    4  F1  UNL     1     -25.191 -21.743 -21.581  1.00  0.00    -0.198 F 
HETATM    5  F2  UNL     1     -23.975 -20.534 -23.100  1.00  0.00    -0.198 F 
HETATM    6  C3  UNL     1     -24.481 -22.761 -23.642  1.00  0.00     0.389 C 
HETATM    7  F3  UNL     1     -24.668 -24.023 -23.149  1.00  0.00    -0.191 F 
HETATM    8  F4  UNL     1     -25.496 -22.381 -24.452  1.00  0.00    -0.191 F 
HETATM    9  C4  UNL     1     -23.115 -22.698 -24.304  1.00  0.00     0.389 C 
HETATM   10  F5  UNL     1     -22.783 -23.841 -24.961  1.00  0.00    -0.179 F 
HETATM   11  F6  UNL     1     -23.117 -21.606 -25.163  1.00  0.00    -0.179 F 
ENDROOT
BRANCH   1  12
HETATM   12  N1  UNL     1     -21.289 -21.447 -23.460  1.00  0.00    -0.003 NA
BRANCH  12  13
HETATM   13  O1  UNL     1     -20.787 -20.927 -22.314  1.00  0.00    -0.281 OA
ATOM     14  H1  UNL     1     -19.969 -20.463 -22.452  1.00  0.00     0.240 HD
ENDBRANCH  12  13
ENDBRANCH   1  12
TORSDOF 2
ENDMDL
MODEL 2
REMARK VINA RESULT: -7.433569020      1.125      2.831
REMARK  2 active torsions:
REMARK  status: ('A' for Active; 'I' for Inactive)
REMARK    1  A    between atoms: O1_1  and  N1_3 
REMARK    2  A    between atoms: N1_3  and  N2_4 
ROOT
HETATM    1  N2  UNL     1     -22.917 -21.048 -22.893  1.00  0.00    -0.131 NA
HETATM    2  C1  UNL     1     -22.437 -21.625 -24.115  1.00  0.00     0.204 C 
HETATM    3  C2  UNL     1     -22.890 -23.072 -24.008  1.00  0.00     0.328 C 
HETATM    4  F1  UNL     1     -22.800 -23.757 -25.170  1.00  0.00    -0.198 F 
HETATM    5  F2  UNL     1     -22.248 -23.658 -22.949  1.00  0.00    -0.198 F 
HETATM    6  C3  UNL     1     -24.345 -22.816 -23.584  1.00  0.00     0.389 C 
HETATM    7  F3  UNL     1     -25.047 -22.172 -24.564  1.00  0.00    -0.191 F 
HETATM    8  F4  UNL     1     -24.971 -23.943 -23.173  1.00  0.00    -0.191 F 
HETATM    9  C4  UNL     1     -24.063 -21.831 -22.463  1.00  0.00     0.389 C 
HETATM   10  F5  UNL     1     -25.088 -20.966 -22.238  1.00  0.00    -0.179 F 
HETATM   11  F6  UNL     1     -23.767 -22.568 -21.323  1.00  0.00    -0.179 F 
ENDROOT
BRANCH   1  12
HETATM   12  N1  UNL     1     -21.907 -21.007 -21.932  1.00  0.00    -0.003 NA
BRANCH  12  13
HETATM   13  O1  UNL     1     -20.716 -20.613 -22.445  1.00  0.00    -0.281 OA
ATOM     14  H1  UNL     1     -20.084 -20.392 -21.772  1.00  0.00     0.240 HD
ENDBRANCH  12  13
ENDBRANCH   1  12
TORSDOF 2
ENDMDL
MODEL 3
REMARK VINA RESULT: -7.368544684      0.993      1.800
REMARK  2 active torsions:
REMARK  status: ('A' for Active; 'I' for Inactive)
REMARK    1  A    between atoms: O1_1  and  N1_3 
REMARK    2  A    between atoms: N1_3  and  N2_4 
ROOT
HETATM    1  N2  UNL     1     -21.810 -22.129 -23.067  1.00  0.00    -0.131 NA
HETATM    2  C1  UNL     1     -22.207 -23.407 -22.553  1.00  0.00     0.204 C 
HETATM    3  C2  UNL     1     -23.702 -23.435 -22.826  1.00  0.00     0.328 C 
HETATM    4  F1  UNL     1     -24.257 -24.659 -22.683  1.00  0.00    -0.198 F 
HETATM    5  F2  UNL     1     -24.303 -22.446 -22.093  1.00  0.00    -0.198 F 
HETATM    6  C3  UNL     1     -23.666 -22.970 -24.291  1.00  0.00     0.389 C 
HETATM    7  F3  UNL     1     -23.021 -23.874 -25.088  1.00  0.00    -0.191 F 
HETATM    8  F4  UNL     1     -24.894 -22.662 -24.768  1.00  0.00    -0.191 F 
HETATM    9  C4  UNL     1     -22.764 -21.763 -24.101  1.00  0.00     0.389 C 
HETATM   10  F5  UNL     1     -22.055 -21.442 -25.216  1.00  0.00    -0.179 F 
HETATM   11  F6  UNL     1     -23.564 -20.703 -23.691  1.00  0.00    -0.179 F 
ENDROOT
BRANCH   1  12
HETATM   12  N1  UNL     1     -21.738 -21.182 -22.047  1.00  0.00    -0.003 NA
BRANCH  12  13
HETATM   13  O1  UNL     1     -20.624 -20.414 -22.127  1.00  0.00    -0.281 OA
ATOM     14  H1  UNL     1     -20.643 -19.679 -21.527  1.00  0.00     0.240 HD
ENDBRANCH  12  13
ENDBRANCH   1  12
TORSDOF 2
ENDMDL
MODEL 4
REMARK VINA RESULT: -7.346349964      1.510      2.570
REMARK  2 active torsions:
REMARK  status: ('A' for Active; 'I' for Inactive)
REMARK    1  A    between atoms: O1_1  and  N1_3 
REMARK    2  A    between atoms: N1_3  and  N2_4 
ROOT
HETATM    1  N2  UNL     1     -22.460 -22.132 -22.239  1.00  0.00    -0.131 NA
HETATM    2  C1  UNL     1     -23.546 -21.708 -23.073  1.00  0.00     0.204 C 
HETATM    3  C2  UNL     1     -23.917 -22.979 -23.820  1.00  0.00     0.328 C 
HETATM    4  F1  UNL     1     -25.103 -22.902 -24.466  1.00  0.00    -0.198 F 
HETATM    5  F2  UNL     1     -22.861 -23.351 -24.609  1.00  0.00    -0.198 F 
HETATM    6  C3  UNL     1     -23.959 -23.935 -22.618  1.00  0.00     0.389 C 
HETATM    7  F3  UNL     1     -24.951 -23.595 -21.741  1.00  0.00    -0.191 F 
HETATM    8  F4  UNL     1     -24.039 -25.233 -22.991  1.00  0.00    -0.191 F 
HETATM    9  C4  UNL     1     -22.622 -23.557 -22.007  1.00  0.00     0.389 C 
HETATM   10  F5  UNL     1     -22.568 -23.761 -20.664  1.00  0.00    -0.179 F 
HETATM   11  F6  UNL     1     -21.639 -24.286 -22.666  1.00  0.00    -0.179 F 
ENDROOT
BRANCH   1  12
HETATM   12  N1  UNL     1     -21.233 -21.821 -22.823  1.00  0.00    -0.003 NA
BRANCH  12  13
HETATM   13  O1  UNL     1     -20.667 -20.712 -22.287  1.00  0.00    -0.281 OA
ATOM     14  H1  UNL     1     -20.465 -20.815 -21.365  1.00  0.00     0.240 HD
ENDBRANCH  12  13
ENDBRANCH   1  12
TORSDOF 2
ENDMDL
MODEL 5
REMARK VINA RESULT: -7.300678343      1.324      1.703
REMARK  2 active torsions:
REMARK  status: ('A' for Active; 'I' for Inactive)
REMARK    1  A    between atoms: O1_1  and  N1_3 
REMARK    2  A    between atoms: N1_3  and  N2_4 
ROOT
HETATM    1  N2  UNL     1     -21.808 -22.308 -23.340  1.00  0.00    -0.131 NA
HETATM    2  C1  UNL     1     -21.656 -23.071 -22.136  1.00  0.00     0.204 C 
HETATM    3  C2  UNL     1     -23.093 -23.344 -21.722  1.00  0.00     0.328 C 
HETATM    4  F1  UNL     1     -23.212 -24.289 -20.763  1.00  0.00    -0.198 F 
HETATM    5  F2  UNL     1     -23.701 -22.152 -21.428  1.00  0.00    -0.198 F 
HETATM    6  C3  UNL     1     -23.628 -23.814 -23.084  1.00  0.00     0.389 C 
HETATM    7  F3  UNL     1     -23.024 -24.972 -23.488  1.00  0.00    -0.191 F 
HETATM    8  F4  UNL     1     -24.977 -23.915 -23.105  1.00  0.00    -0.191 F 
HETATM    9  C4  UNL     1     -23.090 -22.669 -23.924  1.00  0.00     0.389 C 
HETATM   10  F5  UNL     1     -22.866 -23.012 -25.220  1.00  0.00    -0.179 F 
HETATM   11  F6  UNL     1     -23.995 -21.619 -23.830  1.00  0.00    -0.179 F 
ENDROOT
BRANCH   1  12
HETATM   12  N1  UNL     1     -21.705 -20.942 -23.080  1.00  0.00    -0.003 NA
BRANCH  12  13
HETATM   13  O1  UNL     1     -20.687 -20.649 -22.234  1.00  0.00    -0.281 OA
ATOM     14  H1  UNL     1     -20.406 -19.744 -22.301  1.00  0.00     0.240 HD
ENDBRANCH  12  13
ENDBRANCH   1  12
TORSDOF 2
ENDMDL
