MODEL 1
REMARK VINA RESULT: -6.369030997      0.000      0.000
REMARK  2 active torsions:
REMARK  status: ('A' for Active; 'I' for Inactive)
REMARK    1  A    between atoms: N1_1  and  N2_4 
REMARK    2  A    between atoms: N2_4  and  C1_6 
ROOT
HETATM    1  C1  UNL     1     -22.627 -21.750 -23.572  1.00  0.00     0.131 A 
HETATM    2  C2  UNL     1     -21.749 -22.200 -22.629  1.00  0.00     0.189 A 
HETATM    3  F1  UNL     1     -20.553 -21.581 -22.523  1.00  0.00    -0.200 F 
HETATM    4  C3  UNL     1     -22.100 -23.266 -21.803  1.00  0.00     0.199 A 
HETATM    5  F2  UNL     1     -21.215 -23.695 -20.887  1.00  0.00    -0.199 F 
HETATM    6  C4  UNL     1     -23.334 -23.859 -21.941  1.00  0.00     0.199 A 
HETATM    7  F3  UNL     1     -23.636 -24.882 -21.112  1.00  0.00    -0.199 F 
HETATM    8  C5  UNL     1     -24.202 -23.381 -22.906  1.00  0.00     0.199 A 
HETATM    9  F4  UNL     1     -25.396 -23.960 -23.034  1.00  0.00    -0.199 F 
HETATM   10  C6  UNL     1     -23.854 -22.331 -23.718  1.00  0.00     0.189 A 
HETATM   11  F5  UNL     1     -24.757 -21.906 -24.660  1.00  0.00    -0.200 F 
ENDROOT
BRANCH   1  12
HETATM   12  N2  UNL     1     -22.274 -20.676 -24.417  1.00  0.00    -0.301 N 
ATOM     13  H2  UNL     1     -22.369 -19.704 -24.124  1.00  0.00     0.186 HD
BRANCH  12  14
HETATM   14  N1  UNL     1     -21.786 -21.027 -25.682  1.00  0.00    -0.344 N 
ATOM     15  H12 UNL     1     -22.306 -21.660 -26.291  1.00  0.00     0.176 HD
ATOM     16  H11 UNL     1     -20.891 -20.614 -25.946  1.00  0.00     0.176 HD
ENDBRANCH  12  14
ENDBRANCH   1  12
TORSDOF 2
ENDMDL
MODEL 2
REMARK VINA RESULT: -6.361908976      0.066      2.930
REMARK  2 active torsions:
REMARK  status: ('A' for Active; 'I' for Inactive)
REMARK    1  A    between atoms: N1_1  and  N2_4 
REMARK    2  A    between atoms: N2_4  and  C1_6 
ROOT
HETATM    1  C1  UNL     1     -22.665 -21.789 -23.571  1.00  0.00     0.131 A 
HETATM    2  C2  UNL     1     -23.883 -22.396 -23.676  1.00  0.00     0.189 A 
HETATM    3  F1  UNL     1     -24.744 -21.942 -24.612  1.00  0.00    -0.200 F 
HETATM    4  C3  UNL     1     -24.207 -23.459 -22.835  1.00  0.00     0.199 A 
HETATM    5  F2  UNL     1     -25.415 -24.035 -22.954  1.00  0.00    -0.199 F 
HETATM    6  C4  UNL     1     -23.293 -23.893 -21.902  1.00  0.00     0.199 A 
HETATM    7  F3  UNL     1     -23.645 -24.933 -21.115  1.00  0.00    -0.199 F 
HETATM    8  C5  UNL     1     -22.067 -23.259 -21.819  1.00  0.00     0.199 A 
HETATM    9  F4  UNL     1     -21.187 -23.686 -20.914  1.00  0.00    -0.199 F 
HETATM   10  C6  UNL     1     -21.751 -22.212 -22.649  1.00  0.00     0.189 A 
HETATM   11  F5  UNL     1     -20.520 -21.620 -22.514  1.00  0.00    -0.200 F 
ENDROOT
BRANCH   1  12
HETATM   12  N2  UNL     1     -22.334 -20.707 -24.414  1.00  0.00    -0.301 N 
ATOM     13  H2  UNL     1     -22.495 -19.738 -24.139  1.00  0.00     0.186 HD
BRANCH  12  14
HETATM   14  N1  UNL     1     -21.772 -21.044 -25.652  1.00  0.00    -0.344 N 
ATOM     15  H12 UNL     1     -22.342 -21.446 -26.398  1.00  0.00     0.176 HD
ATOM     16  H11 UNL     1     -20.773 -20.864 -25.753  1.00  0.00     0.176 HD
ENDBRANCH  12  14
ENDBRANCH   1  12
TORSDOF 2
ENDMDL
MODEL 3
REMARK VINA RESULT: -6.225754222      0.993      3.070
REMARK  2 active torsions:
REMARK  status: ('A' for Active; 'I' for Inactive)
REMARK    1  A    between atoms: N1_1  and  N2_4 
REMARK    2  A    between atoms: N2_4  and  C1_6 
ROOT
HETATM    1  C1  UNL     1     -22.678 -21.392 -24.062  1.00  0.00     0.131 A 
HETATM    2  C2  UNL     1     -23.915 -21.735 -24.526  1.00  0.00     0.189 A 
HETATM    3  F1  UNL     1     -24.342 -21.177 -25.680  1.00  0.00    -0.200 F 
HETATM    4  C3  UNL     1     -24.697 -22.646 -23.819  1.00  0.00     0.199 A 
HETATM    5  F2  UNL     1     -25.914 -22.963 -24.293  1.00  0.00    -0.199 F 
HETATM    6  C4  UNL     1     -24.216 -23.197 -22.653  1.00  0.00     0.199 A 
HETATM    7  F3  UNL     1     -25.003 -24.083 -22.005  1.00  0.00    -0.199 F 
HETATM    8  C5  UNL     1     -22.959 -22.829 -22.207  1.00  0.00     0.199 A 
HETATM    9  F4  UNL     1     -22.500 -23.367 -21.078  1.00  0.00    -0.199 F 
HETATM   10  C6  UNL     1     -22.191 -21.932 -22.906  1.00  0.00     0.189 A 
HETATM   11  F5  UNL     1     -20.954 -21.604 -22.410  1.00  0.00    -0.200 F 
ENDROOT
BRANCH   1  12
HETATM   12  N2  UNL     1     -21.885 -20.464 -24.770  1.00  0.00    -0.301 N 
ATOM     13  H2  UNL     1     -21.606 -19.570 -24.365  1.00  0.00     0.186 HD
BRANCH  12  14
HETATM   14  N1  UNL     1     -21.504 -20.845 -26.063  1.00  0.00    -0.344 N 
ATOM     15  H12 UNL     1     -21.007 -21.721 -26.231  1.00  0.00     0.176 HD
ATOM     16  H11 UNL     1     -21.754 -20.198 -26.811  1.00  0.00     0.176 HD
ENDBRANCH  12  14
ENDBRANCH   1  12
TORSDOF 2
ENDMDL
MODEL 4
REMARK VINA RESULT: -6.041352058      1.931      3.342
REMARK  2 active torsions:
REMARK  status: ('A' for Active; 'I' for Inactive)
REMARK    1  A    between atoms: N1_1  and  N2_4 
REMARK    2  A    between atoms: N2_4  and  C1_6 
ROOT
HETATM    1  C1  UNL     1     -22.404 -23.009 -22.350  1.00  0.00     0.131 A 
HETATM    2  C2  UNL     1     -22.545 -22.135 -23.388  1.00  0.00     0.189 A 
HETATM    3  F1  UNL     1     -21.503 -21.330 -23.691  1.00  0.00    -0.200 F 
HETATM    4  C3  UNL     1     -23.737 -22.095 -24.109  1.00  0.00     0.199 A 
HETATM    5  F2  UNL     1     -23.853 -21.220 -25.123  1.00  0.00    -0.199 F 
HETATM    6  C4  UNL     1     -24.767 -22.941 -23.770  1.00  0.00     0.199 A 
HETATM    7  F3  UNL     1     -25.901 -22.876 -24.502  1.00  0.00    -0.199 F 
HETATM    8  C5  UNL     1     -24.596 -23.816 -22.713  1.00  0.00     0.199 A 
HETATM    9  F4  UNL     1     -25.598 -24.633 -22.391  1.00  0.00    -0.199 F 
HETATM   10  C6  UNL     1     -23.421 -23.853 -22.005  1.00  0.00     0.189 A 
HETATM   11  F5  UNL     1     -23.313 -24.740 -20.963  1.00  0.00    -0.200 F 
ENDROOT
BRANCH   1  12
HETATM   12  N2  UNL     1     -21.202 -23.048 -21.611  1.00  0.00    -0.301 N 
ATOM     13  H2  UNL     1     -20.968 -22.335 -20.921  1.00  0.00     0.186 HD
BRANCH  12  14
HETATM   14  N1  UNL     1     -20.350 -24.126 -21.884  1.00  0.00    -0.344 N 
ATOM     15  H12 UNL     1     -19.538 -24.015 -22.491  1.00  0.00     0.176 HD
ATOM     16  H11 UNL     1     -20.595 -25.012 -21.442  1.00  0.00     0.176 HD
ENDBRANCH  12  14
ENDBRANCH   1  12
TORSDOF 2
ENDMDL
MODEL 5
REMARK VINA RESULT: -5.981115717      1.986      3.538
REMARK  2 active torsions:
REMARK  status: ('A' for Active; 'I' for Inactive)
REMARK    1  A    between atoms: N1_1  and  N2_4 
REMARK    2  A    between atoms: N2_4  and  C1_6 
ROOT
HETATM    1  C1  UNL     1     -22.420 -23.085 -22.238  1.00  0.00     0.131 A 
HETATM    2  C2  UNL     1     -23.473 -23.916 -21.987  1.00  0.00     0.189 A 
HETATM    3  F1  UNL     1     -23.356 -24.810 -20.981  1.00  0.00    -0.200 F 
HETATM    4  C3  UNL     1     -24.633 -23.822 -22.754  1.00  0.00     0.199 A 
HETATM    5  F2  UNL     1     -25.653 -24.656 -22.491  1.00  0.00    -0.199 F 
HETATM    6  C4  UNL     1     -24.710 -22.889 -23.762  1.00  0.00     0.199 A 
HETATM    7  F3  UNL     1     -25.857 -22.826 -24.473  1.00  0.00    -0.199 F 
HETATM    8  C5  UNL     1     -23.626 -22.061 -23.993  1.00  0.00     0.199 A 
HETATM    9  F4  UNL     1     -23.709 -21.159 -24.970  1.00  0.00    -0.199 F 
HETATM   10  C6  UNL     1     -22.486 -22.156 -23.236  1.00  0.00     0.189 A 
HETATM   11  F5  UNL     1     -21.442 -21.309 -23.517  1.00  0.00    -0.200 F 
ENDROOT
BRANCH   1  12
HETATM   12  N2  UNL     1     -21.240 -23.181 -21.470  1.00  0.00    -0.301 N 
ATOM     13  H2  UNL     1     -21.075 -22.589 -20.655  1.00  0.00     0.186 HD
BRANCH  12  14
HETATM   14  N1  UNL     1     -20.309 -24.138 -21.893  1.00  0.00    -0.344 N 
ATOM     15  H12 UNL     1     -20.224 -24.392 -22.878  1.00  0.00     0.176 HD
ATOM     16  H11 UNL     1     -19.733 -24.555 -21.162  1.00  0.00     0.176 HD
ENDBRANCH  12  14
ENDBRANCH   1  12
TORSDOF 2
ENDMDL
