MODEL 1
REMARK VINA RESULT: -6.433987924      0.000      0.000
REMARK  5 active torsions:
REMARK  status: ('A' for Active; 'I' for Inactive)
REMARK    1  A    between atoms: C2_2  and  O1_5 
REMARK    2  A    between atoms: O1_5  and  C5_6 
REMARK       I    between atoms: C5_6  and  N1_8 
REMARK       I    between atoms: N1_8  and  C6_10 
REMARK       I    between atoms: C6_10  and  N2_12 
REMARK    3  A    between atoms: C10_16  and  C11_17 
REMARK    4  A    between atoms: C11_17  and  N3_18 
REMARK       I    between atoms: N3_18  and  C12_20 
REMARK    5  A    between atoms: C12_20  and  C13_22 
ROOT
HETATM    1  C5  UNL     1      22.996  11.955  24.743  1.00  0.00     0.369 C 
HETATM    2  O2  UNL     1      22.967  12.479  25.891  1.00  0.00    -0.238 OA
HETATM    3  N1  UNL     1      24.054  12.295  23.831  1.00  0.00    -0.254 N 
ATOM      4  H1  UNL     1      24.081  11.873  22.903  1.00  0.00     0.175 HD
HETATM    5  C6  UNL     1      25.065  13.219  24.219  1.00  0.00     0.327 C 
HETATM    6  O3  UNL     1      25.028  13.730  25.348  1.00  0.00    -0.247 OA
HETATM    7  N2  UNL     1      26.089  13.538  23.311  1.00  0.00    -0.328 N 
HETATM    8  C7  UNL     1      27.166  14.458  23.587  1.00  0.00     0.128 C 
HETATM    9  C8  UNL     1      27.913  14.639  22.287  1.00  0.00     0.022 C 
HETATM   10  C9  UNL     1      27.686  13.339  21.579  1.00  0.00     0.028 C 
HETATM   11  C10 UNL     1      26.240  13.016  21.978  1.00  0.00     0.106 C 
ENDROOT
BRANCH  11  12
HETATM   12  C11 UNL     1      25.340  13.671  20.980  1.00  0.00     0.147 C 
BRANCH  12  13
HETATM   13  N3  UNL     1      24.742  12.646  20.141  1.00  0.00    -0.359 N 
HETATM   14  C12 UNL     1      23.381  12.305  20.288  1.00  0.00     0.221 C 
HETATM   15  O4  UNL     1      22.679  12.885  21.145  1.00  0.00    -0.273 OA
ATOM     16  H3  UNL     1      25.311  12.170  19.440  1.00  0.00     0.162 HD
BRANCH  14  17
HETATM   17  C13 UNL     1      22.782  11.269  19.440  1.00  0.00     0.078 C 
HETATM   18  C14 UNL     1      23.753  10.201  18.984  1.00  0.00     0.014 C 
HETATM   19  C15 UNL     1      22.639   9.186  19.203  1.00  0.00     0.002 C 
HETATM   20  C16 UNL     1      22.050  10.167  20.213  1.00  0.00     0.014 C 
ENDBRANCH  14  17
ENDBRANCH  12  13
ENDBRANCH  11  12
BRANCH   1  21
HETATM   21  O1  UNL     1      21.999  11.067  24.413  1.00  0.00    -0.294 OA
BRANCH  21  22
HETATM   22  C2  UNL     1      20.641  11.425  24.277  1.00  0.00     0.061 C 
HETATM   23  C1  UNL     1      19.869  11.275  25.563  1.00  0.00     0.046 C 
HETATM   24  C3  UNL     1      20.465  12.826  23.755  1.00  0.00     0.046 C 
HETATM   25  C4  UNL     1      20.033  10.424  23.287  1.00  0.00     0.046 C 
ENDBRANCH  21  22
ENDBRANCH   1  21
TORSDOF 5
ENDMDL
MODEL 2
REMARK VINA RESULT: -6.429400365      1.937      2.589
REMARK  5 active torsions:
REMARK  status: ('A' for Active; 'I' for Inactive)
REMARK    1  A    between atoms: C2_2  and  O1_5 
REMARK    2  A    between atoms: O1_5  and  C5_6 
REMARK       I    between atoms: C5_6  and  N1_8 
REMARK       I    between atoms: N1_8  and  C6_10 
REMARK       I    between atoms: C6_10  and  N2_12 
REMARK    3  A    between atoms: C10_16  and  C11_17 
REMARK    4  A    between atoms: C11_17  and  N3_18 
REMARK       I    between atoms: N3_18  and  C12_20 
REMARK    5  A    between atoms: C12_20  and  C13_22 
ROOT
HETATM    1  C5  UNL     1      24.413  13.465  22.960  1.00  0.00     0.369 C 
HETATM    2  O2  UNL     1      24.785  14.459  23.643  1.00  0.00    -0.238 OA
HETATM    3  N1  UNL     1      25.390  12.675  22.262  1.00  0.00    -0.254 N 
ATOM      4  H1  UNL     1      25.092  11.871  21.710  1.00  0.00     0.175 HD
HETATM    5  C6  UNL     1      26.771  13.011  22.339  1.00  0.00     0.327 C 
HETATM    6  O3  UNL     1      27.128  13.990  23.012  1.00  0.00    -0.247 OA
HETATM    7  N2  UNL     1      27.708  12.225  21.648  1.00  0.00    -0.328 N 
HETATM    8  C7  UNL     1      29.131  12.464  21.648  1.00  0.00     0.128 C 
HETATM    9  C8  UNL     1      29.723  11.509  20.639  1.00  0.00     0.022 C 
HETATM   10  C9  UNL     1      28.767  10.356  20.660  1.00  0.00     0.028 C 
HETATM   11  C10 UNL     1      27.421  11.071  20.836  1.00  0.00     0.106 C 
ENDROOT
BRANCH  11  12
HETATM   12  C11 UNL     1      26.912  11.418  19.474  1.00  0.00     0.147 C 
BRANCH  12  13
HETATM   13  N3  UNL     1      25.620  10.781  19.278  1.00  0.00    -0.359 N 
HETATM   14  C12 UNL     1      24.440  11.554  19.243  1.00  0.00     0.221 C 
HETATM   15  O4  UNL     1      24.500  12.795  19.382  1.00  0.00    -0.273 OA
ATOM     16  H3  UNL     1      25.566   9.769  19.165  1.00  0.00     0.162 HD
BRANCH  14  17
HETATM   17  C13 UNL     1      23.138  10.908  19.047  1.00  0.00     0.078 C 
HETATM   18  C14 UNL     1      23.183   9.395  19.086  1.00  0.00     0.014 C 
HETATM   19  C15 UNL     1      21.867   9.441  19.852  1.00  0.00     0.002 C 
HETATM   20  C16 UNL     1      22.272  10.839  20.309  1.00  0.00     0.014 C 
ENDBRANCH  14  17
ENDBRANCH  12  13
ENDBRANCH  11  12
BRANCH   1  21
HETATM   21  O1  UNL     1      23.069  13.179  22.916  1.00  0.00    -0.294 OA
BRANCH  21  22
HETATM   22  C2  UNL     1      22.397  12.407  23.888  1.00  0.00     0.061 C 
HETATM   23  C1  UNL     1      22.901  10.988  23.954  1.00  0.00     0.046 C 
HETATM   24  C3  UNL     1      22.467  13.022  25.260  1.00  0.00     0.046 C 
HETATM   25  C4  UNL     1      20.935  12.326  23.432  1.00  0.00     0.046 C 
ENDBRANCH  21  22
ENDBRANCH   1  21
TORSDOF 5
ENDMDL
MODEL 3
REMARK VINA RESULT: -6.377480951      1.972      2.851
REMARK  5 active torsions:
REMARK  status: ('A' for Active; 'I' for Inactive)
REMARK    1  A    between atoms: C2_2  and  O1_5 
REMARK    2  A    between atoms: O1_5  and  C5_6 
REMARK       I    between atoms: C5_6  and  N1_8 
REMARK       I    between atoms: N1_8  and  C6_10 
REMARK       I    between atoms: C6_10  and  N2_12 
REMARK    3  A    between atoms: C10_16  and  C11_17 
REMARK    4  A    between atoms: C11_17  and  N3_18 
REMARK       I    between atoms: N3_18  and  C12_20 
REMARK    5  A    between atoms: C12_20  and  C13_22 
ROOT
HETATM    1  C5  UNL     1      25.454  13.374  24.461  1.00  0.00     0.369 C 
HETATM    2  O2  UNL     1      26.145  13.961  25.339  1.00  0.00    -0.238 OA
HETATM    3  N1  UNL     1      26.102  12.775  23.327  1.00  0.00    -0.254 N 
ATOM      4  H1  UNL     1      25.547  12.300  22.616  1.00  0.00     0.175 HD
HETATM    5  C6  UNL     1      27.518  12.841  23.193  1.00  0.00     0.327 C 
HETATM    6  O3  UNL     1      28.190  13.420  24.060  1.00  0.00    -0.247 OA
HETATM    7  N2  UNL     1      28.131  12.249  22.076  1.00  0.00    -0.328 N 
HETATM    8  C7  UNL     1      29.553  12.251  21.829  1.00  0.00     0.128 C 
HETATM    9  C8  UNL     1      29.744  11.679  20.445  1.00  0.00     0.022 C 
HETATM   10  C9  UNL     1      28.567  10.767  20.287  1.00  0.00     0.028 C 
HETATM   11  C10 UNL     1      27.464  11.554  21.006  1.00  0.00     0.106 C 
ENDROOT
BRANCH  11  12
HETATM   12  C11 UNL     1      26.838  12.471  20.004  1.00  0.00     0.147 C 
BRANCH  12  13
HETATM   13  N3  UNL     1      25.694  11.802  19.405  1.00  0.00    -0.359 N 
HETATM   14  C12 UNL     1      24.404  11.965  19.952  1.00  0.00     0.221 C 
HETATM   15  O4  UNL     1      24.237  12.687  20.959  1.00  0.00    -0.273 OA
ATOM     16  H3  UNL     1      25.826  11.212  18.583  1.00  0.00     0.162 HD
BRANCH  14  17
HETATM   17  C13 UNL     1      23.253  11.288  19.345  1.00  0.00     0.078 C 
HETATM   18  C14 UNL     1      23.515   9.850  18.949  1.00  0.00     0.014 C 
HETATM   19  C15 UNL     1      22.113   9.526  19.446  1.00  0.00     0.002 C 
HETATM   20  C16 UNL     1      22.237  10.744  20.355  1.00  0.00     0.014 C 
ENDBRANCH  14  17
ENDBRANCH  12  13
ENDBRANCH  11  12
BRANCH   1  21
HETATM   21  O1  UNL     1      24.090  13.335  24.633  1.00  0.00    -0.294 OA
BRANCH  21  22
HETATM   22  C2  UNL     1      23.219  14.380  24.259  1.00  0.00     0.061 C 
HETATM   23  C1  UNL     1      22.657  15.121  25.446  1.00  0.00     0.046 C 
HETATM   24  C3  UNL     1      23.871  15.364  23.325  1.00  0.00     0.046 C 
HETATM   25  C4  UNL     1      22.028  13.714  23.560  1.00  0.00     0.046 C 
ENDBRANCH  21  22
ENDBRANCH   1  21
TORSDOF 5
ENDMDL
MODEL 4
REMARK VINA RESULT: -6.337742073      2.593      5.424
REMARK  5 active torsions:
REMARK  status: ('A' for Active; 'I' for Inactive)
REMARK    1  A    between atoms: C2_2  and  O1_5 
REMARK    2  A    between atoms: O1_5  and  C5_6 
REMARK       I    between atoms: C5_6  and  N1_8 
REMARK       I    between atoms: N1_8  and  C6_10 
REMARK       I    between atoms: C6_10  and  N2_12 
REMARK    3  A    between atoms: C10_16  and  C11_17 
REMARK    4  A    between atoms: C11_17  and  N3_18 
REMARK       I    between atoms: N3_18  and  C12_20 
REMARK    5  A    between atoms: C12_20  and  C13_22 
ROOT
HETATM    1  C5  UNL     1      24.290  14.943  25.270  1.00  0.00     0.369 C 
HETATM    2  O2  UNL     1      24.936  15.263  26.306  1.00  0.00    -0.238 OA
HETATM    3  N1  UNL     1      23.193  14.019  25.371  1.00  0.00    -0.254 N 
ATOM      4  H1  UNL     1      22.670  13.759  24.535  1.00  0.00     0.175 HD
HETATM    5  C6  UNL     1      22.836  13.465  26.633  1.00  0.00     0.327 C 
HETATM    6  O3  UNL     1      23.476  13.784  27.646  1.00  0.00    -0.247 OA
HETATM    7  N2  UNL     1      21.762  12.563  26.708  1.00  0.00    -0.328 N 
HETATM    8  C7  UNL     1      21.306  11.937  27.925  1.00  0.00     0.128 C 
HETATM    9  C8  UNL     1      20.271  10.917  27.516  1.00  0.00     0.022 C 
HETATM   10  C9  UNL     1      19.702  11.495  26.257  1.00  0.00     0.028 C 
HETATM   11  C10 UNL     1      20.946  12.115  25.609  1.00  0.00     0.106 C 
ENDROOT
BRANCH  11  12
HETATM   12  C11 UNL     1      21.600  11.055  24.781  1.00  0.00     0.147 C 
BRANCH  12  13
HETATM   13  N3  UNL     1      21.375  11.350  23.375  1.00  0.00    -0.359 N 
HETATM   14  C12 UNL     1      22.389  11.950  22.600  1.00  0.00     0.221 C 
HETATM   15  O4  UNL     1      23.491  12.232  23.119  1.00  0.00    -0.273 OA
ATOM     16  H3  UNL     1      20.478  11.122  22.947  1.00  0.00     0.162 HD
BRANCH  14  17
HETATM   17  C13 UNL     1      22.158  12.247  21.182  1.00  0.00     0.078 C 
HETATM   18  C14 UNL     1      23.201  13.150  20.558  1.00  0.00     0.014 C 
HETATM   19  C15 UNL     1      23.111  12.282  19.310  1.00  0.00     0.002 C 
HETATM   20  C16 UNL     1      22.640  11.154  20.222  1.00  0.00     0.014 C 
ENDBRANCH  14  17
ENDBRANCH  12  13
ENDBRANCH  11  12
BRANCH   1  21
HETATM   21  O1  UNL     1      24.671  15.504  24.074  1.00  0.00    -0.294 OA
BRANCH  21  22
HETATM   22  C2  UNL     1      24.016  16.602  23.476  1.00  0.00     0.061 C 
HETATM   23  C1  UNL     1      22.735  16.210  22.785  1.00  0.00     0.046 C 
HETATM   24  C3  UNL     1      23.732  17.706  24.459  1.00  0.00     0.046 C 
HETATM   25  C4  UNL     1      24.959  17.116  22.381  1.00  0.00     0.046 C 
ENDBRANCH  21  22
ENDBRANCH   1  21
TORSDOF 5
ENDMDL
MODEL 5
REMARK VINA RESULT: -6.328264314      2.082      2.803
REMARK  5 active torsions:
REMARK  status: ('A' for Active; 'I' for Inactive)
REMARK    1  A    between atoms: C2_2  and  O1_5 
REMARK    2  A    between atoms: O1_5  and  C5_6 
REMARK       I    between atoms: C5_6  and  N1_8 
REMARK       I    between atoms: N1_8  and  C6_10 
REMARK       I    between atoms: C6_10  and  N2_12 
REMARK    3  A    between atoms: C10_16  and  C11_17 
REMARK    4  A    between atoms: C11_17  and  N3_18 
REMARK       I    between atoms: N3_18  and  C12_20 
REMARK    5  A    between atoms: C12_20  and  C13_22 
ROOT
HETATM    1  C5  UNL     1      24.745  13.549  23.509  1.00  0.00     0.369 C 
HETATM    2  O2  UNL     1      25.207  14.513  24.180  1.00  0.00    -0.238 OA
HETATM    3  N1  UNL     1      25.621  12.781  22.667  1.00  0.00    -0.254 N 
ATOM      4  H1  UNL     1      25.250  12.002  22.124  1.00  0.00     0.175 HD
HETATM    5  C6  UNL     1      27.005  13.106  22.587  1.00  0.00     0.327 C 
HETATM    6  O3  UNL     1      27.451  14.055  23.249  1.00  0.00    -0.247 OA
HETATM    7  N2  UNL     1      27.843  12.344  21.757  1.00  0.00    -0.328 N 
HETATM    8  C7  UNL     1      29.257  12.574  21.593  1.00  0.00     0.128 C 
HETATM    9  C8  UNL     1      29.711  11.657  20.483  1.00  0.00     0.022 C 
HETATM   10  C9  UNL     1      28.753  10.510  20.575  1.00  0.00     0.028 C 
HETATM   11  C10 UNL     1      27.446  11.224  20.942  1.00  0.00     0.106 C 
ENDROOT
BRANCH  11  12
HETATM   12  C11 UNL     1      26.779  11.629  19.666  1.00  0.00     0.147 C 
BRANCH  12  13
HETATM   13  N3  UNL     1      25.507  10.933  19.559  1.00  0.00    -0.359 N 
HETATM   14  C12 UNL     1      24.361  11.605  19.085  1.00  0.00     0.221 C 
HETATM   15  O4  UNL     1      24.434  12.809  18.754  1.00  0.00    -0.273 OA
ATOM     16  H3  UNL     1      25.443   9.951  19.829  1.00  0.00     0.162 HD
BRANCH  14  17
HETATM   17  C13 UNL     1      23.080  10.900  18.980  1.00  0.00     0.078 C 
HETATM   18  C14 UNL     1      23.192   9.392  19.062  1.00  0.00     0.014 C 
HETATM   19  C15 UNL     1      21.919   9.408  19.898  1.00  0.00     0.002 C 
HETATM   20  C16 UNL     1      22.286  10.836  20.289  1.00  0.00     0.014 C 
ENDBRANCH  14  17
ENDBRANCH  12  13
ENDBRANCH  11  12
BRANCH   1  21
HETATM   21  O1  UNL     1      23.402  13.272  23.618  1.00  0.00    -0.294 OA
BRANCH  21  22
HETATM   22  C2  UNL     1      22.395  13.979  22.926  1.00  0.00     0.061 C 
HETATM   23  C1  UNL     1      22.001  15.258  23.620  1.00  0.00     0.046 C 
HETATM   24  C3  UNL     1      22.781  14.285  21.504  1.00  0.00     0.046 C 
HETATM   25  C4  UNL     1      21.154  13.077  22.943  1.00  0.00     0.046 C 
ENDBRANCH  21  22
ENDBRANCH   1  21
TORSDOF 5
ENDMDL
