MODEL 1
REMARK VINA RESULT: -8.005592544      0.000      0.000
REMARK  3 active torsions:
REMARK  status: ('A' for Active; 'I' for Inactive)
REMARK    1  A    between atoms: C2_2  and  C3_3 
REMARK       I    between atoms: C3_3  and  N1_5 
REMARK    2  A    between atoms: N1_5  and  C4_7 
REMARK    3  A    between atoms: C4_7  and  C5_8 
ROOT
HETATM    1  C5  UNL     1      22.811  11.089  22.855  1.00  0.00     0.096 C 
HETATM    2  C6  UNL     1      23.047  12.348  22.117  1.00  0.00     0.031 C 
HETATM    3  C7  UNL     1      23.190  12.126  20.631  1.00  0.00    -0.006 C 
HETATM    4  C8  UNL     1      23.498  13.369  19.876  1.00  0.00     0.005 C 
HETATM    5  C9  UNL     1      23.397  12.971  18.399  1.00  0.00     0.000 C 
HETATM    6  C10 UNL     1      24.497  12.032  18.085  1.00  0.00     0.001 C 
HETATM    7  C11 UNL     1      24.763  10.960  19.050  1.00  0.00     0.008 C 
HETATM    8  C12 UNL     1      24.289  11.132  20.436  1.00  0.00     0.026 C 
HETATM    9  C13 UNL     1      23.753   9.828  21.008  1.00  0.00     0.189 C 
HETATM   10  C14 UNL     1      22.572   9.479  20.210  1.00  0.00     0.084 C 
HETATM   11  N2  UNL     1      21.642   9.195  19.560  1.00  0.00    -0.195 NA
HETATM   12  N3  UNL     1      23.369   9.909  22.370  1.00  0.00    -0.400 N 
ATOM     13  H3  UNL     1      23.501   9.110  22.989  1.00  0.00     0.155 HD
ENDROOT
BRANCH   1  14
HETATM   14  C4  UNL     1      23.268  11.297  24.300  1.00  0.00     0.147 C 
BRANCH  14  15
HETATM   15  N1  UNL     1      22.154  11.274  25.207  1.00  0.00    -0.358 N 
HETATM   16  C3  UNL     1      22.071  12.212  26.259  1.00  0.00     0.226 C 
HETATM   17  O1  UNL     1      22.996  13.076  26.391  1.00  0.00    -0.273 OA
ATOM     18  H1  UNL     1      21.419  10.577  25.089  1.00  0.00     0.162 HD
BRANCH  16  19
HETATM   19  C2  UNL     1      20.936  12.231  27.225  1.00  0.00     0.041 C 
HETATM   20  C1  UNL     1      20.266  10.883  27.210  1.00  0.00     0.025 C 
HETATM   21  C15 UNL     1      21.464  12.496  28.621  1.00  0.00     0.045 C 
HETATM   22  C16 UNL     1      20.349  12.886  29.550  1.00  0.00     0.168 C 
HETATM   23  O2  UNL     1      19.705  14.033  29.085  1.00  0.00    -0.391 OA
HETATM   24  C17 UNL     1      19.011  13.676  27.939  1.00  0.00     0.168 C 
HETATM   25  C18 UNL     1      20.017  13.360  26.859  1.00  0.00     0.045 C 
ENDBRANCH  16  19
ENDBRANCH  14  15
ENDBRANCH   1  14
TORSDOF 3
ENDMDL
MODEL 2
REMARK VINA RESULT: -7.759570838      3.705      4.293
REMARK  3 active torsions:
REMARK  status: ('A' for Active; 'I' for Inactive)
REMARK    1  A    between atoms: C2_2  and  C3_3 
REMARK       I    between atoms: C3_3  and  N1_5 
REMARK    2  A    between atoms: N1_5  and  C4_7 
REMARK    3  A    between atoms: C4_7  and  C5_8 
ROOT
HETATM    1  C5  UNL     1      21.560  10.537  22.248  1.00  0.00     0.096 C 
HETATM    2  C6  UNL     1      21.705  11.961  21.877  1.00  0.00     0.031 C 
HETATM    3  C7  UNL     1      22.736  12.172  20.797  1.00  0.00    -0.006 C 
HETATM    4  C8  UNL     1      22.950  13.603  20.457  1.00  0.00     0.005 C 
HETATM    5  C9  UNL     1      23.859  13.587  19.222  1.00  0.00     0.000 C 
HETATM    6  C10 UNL     1      25.188  13.069  19.619  1.00  0.00     0.001 C 
HETATM    7  C11 UNL     1      25.218  11.888  20.489  1.00  0.00     0.008 C 
HETATM    8  C12 UNL     1      24.016  11.573  21.284  1.00  0.00     0.026 C 
HETATM    9  C13 UNL     1      23.759  10.074  21.335  1.00  0.00     0.189 C 
HETATM   10  C14 UNL     1      23.465   9.655  19.960  1.00  0.00     0.084 C 
HETATM   11  N2  UNL     1      23.248   9.322  18.860  1.00  0.00    -0.195 NA
HETATM   12  N3  UNL     1      22.670   9.702  22.163  1.00  0.00    -0.400 N 
ATOM     13  H3  UNL     1      22.700   8.830  22.691  1.00  0.00     0.155 HD
ENDROOT
BRANCH   1  14
HETATM   14  C4  UNL     1      21.000  10.475  23.671  1.00  0.00     0.147 C 
BRANCH  14  15
HETATM   15  N1  UNL     1      19.628  10.047  23.672  1.00  0.00    -0.358 N 
HETATM   16  C3  UNL     1      18.588  10.989  23.830  1.00  0.00     0.226 C 
HETATM   17  O1  UNL     1      18.883  12.219  23.969  1.00  0.00    -0.273 OA
ATOM     18  H1  UNL     1      19.406   9.058  23.559  1.00  0.00     0.162 HD
BRANCH  16  19
HETATM   19  C2  UNL     1      17.150  10.597  23.837  1.00  0.00     0.041 C 
HETATM   20  C1  UNL     1      16.313  11.824  23.596  1.00  0.00     0.025 C 
HETATM   21  C15 UNL     1      16.890   9.603  22.721  1.00  0.00     0.045 C 
HETATM   22  C16 UNL     1      15.571   8.912  22.916  1.00  0.00     0.168 C 
HETATM   23  O2  UNL     1      15.550   8.236  24.137  1.00  0.00    -0.391 OA
HETATM   24  C17 UNL     1      15.520   9.197  25.136  1.00  0.00     0.168 C 
HETATM   25  C18 UNL     1      16.848   9.914  25.139  1.00  0.00     0.045 C 
ENDBRANCH  16  19
ENDBRANCH  14  15
ENDBRANCH   1  14
TORSDOF 3
ENDMDL
MODEL 3
REMARK VINA RESULT: -7.722034155      3.018      6.986
REMARK  3 active torsions:
REMARK  status: ('A' for Active; 'I' for Inactive)
REMARK    1  A    between atoms: C2_2  and  C3_3 
REMARK       I    between atoms: C3_3  and  N1_5 
REMARK    2  A    between atoms: N1_5  and  C4_7 
REMARK    3  A    between atoms: C4_7  and  C5_8 
ROOT
HETATM    1  C5  UNL     1      21.156  10.388  24.990  1.00  0.00     0.096 C 
HETATM    2  C6  UNL     1      21.881  11.664  24.807  1.00  0.00     0.031 C 
HETATM    3  C7  UNL     1      20.984  12.865  24.981  1.00  0.00    -0.006 C 
HETATM    4  C8  UNL     1      21.676  14.157  24.732  1.00  0.00     0.005 C 
HETATM    5  C9  UNL     1      20.670  15.234  25.156  1.00  0.00     0.000 C 
HETATM    6  C10 UNL     1      19.524  15.208  24.219  1.00  0.00     0.001 C 
HETATM    7  C11 UNL     1      18.984  13.894  23.852  1.00  0.00     0.008 C 
HETATM    8  C12 UNL     1      19.846  12.709  24.025  1.00  0.00     0.026 C 
HETATM    9  C13 UNL     1      19.055  11.516  24.539  1.00  0.00     0.189 C 
HETATM   10  C14 UNL     1      18.579  11.877  25.879  1.00  0.00     0.084 C 
HETATM   11  N2  UNL     1      18.187  12.176  26.940  1.00  0.00    -0.195 NA
HETATM   12  N3  UNL     1      19.811  10.320  24.636  1.00  0.00    -0.400 N 
ATOM     13  H3  UNL     1      19.374   9.419  24.448  1.00  0.00     0.155 HD
ENDROOT
BRANCH   1  14
HETATM   14  C4  UNL     1      21.923   9.298  24.240  1.00  0.00     0.147 C 
BRANCH  14  15
HETATM   15  N1  UNL     1      22.647   9.844  23.126  1.00  0.00    -0.358 N 
HETATM   16  C3  UNL     1      22.017   9.994  21.871  1.00  0.00     0.226 C 
HETATM   17  O1  UNL     1      20.802   9.639  21.743  1.00  0.00    -0.273 OA
ATOM     18  H1  UNL     1      23.620  10.126  23.242  1.00  0.00     0.162 HD
BRANCH  16  19
HETATM   19  C2  UNL     1      22.723  10.556  20.685  1.00  0.00     0.041 C 
HETATM   20  C1  UNL     1      22.227   9.853  19.449  1.00  0.00     0.025 C 
HETATM   21  C15 UNL     1      22.409  12.035  20.562  1.00  0.00     0.045 C 
HETATM   22  C16 UNL     1      23.368  12.709  19.624  1.00  0.00     0.168 C 
HETATM   23  O2  UNL     1      24.680  12.562  20.078  1.00  0.00    -0.391 OA
HETATM   24  C17 UNL     1      25.019  11.227  19.922  1.00  0.00     0.168 C 
HETATM   25  C18 UNL     1      24.202  10.417  20.899  1.00  0.00     0.045 C 
ENDBRANCH  16  19
ENDBRANCH  14  15
ENDBRANCH   1  14
TORSDOF 3
ENDMDL
MODEL 4
REMARK VINA RESULT: -7.699696009      0.731      1.340
REMARK  3 active torsions:
REMARK  status: ('A' for Active; 'I' for Inactive)
REMARK    1  A    between atoms: C2_2  and  C3_3 
REMARK       I    between atoms: C3_3  and  N1_5 
REMARK    2  A    between atoms: N1_5  and  C4_7 
REMARK    3  A    between atoms: C4_7  and  C5_8 
ROOT
HETATM    1  C5  UNL     1      22.788  10.831  22.781  1.00  0.00     0.096 C 
HETATM    2  C6  UNL     1      22.966  12.161  22.161  1.00  0.00     0.031 C 
HETATM    3  C7  UNL     1      23.134  12.080  20.664  1.00  0.00    -0.006 C 
HETATM    4  C8  UNL     1      23.385  13.400  20.027  1.00  0.00     0.005 C 
HETATM    5  C9  UNL     1      23.318  13.132  18.519  1.00  0.00     0.000 C 
HETATM    6  C10 UNL     1      24.467  12.280  18.137  1.00  0.00     0.001 C 
HETATM    7  C11 UNL     1      24.778  11.141  19.007  1.00  0.00     0.008 C 
HETATM    8  C12 UNL     1      24.283  11.164  20.396  1.00  0.00     0.026 C 
HETATM    9  C13 UNL     1      23.808   9.789  20.842  1.00  0.00     0.189 C 
HETATM   10  C14 UNL     1      22.654   9.455  20.000  1.00  0.00     0.084 C 
HETATM   11  N2  UNL     1      21.746   9.184  19.315  1.00  0.00    -0.195 NA
HETATM   12  N3  UNL     1      23.409   9.728  22.200  1.00  0.00    -0.400 N 
ATOM     13  H3  UNL     1      23.576   8.884  22.748  1.00  0.00     0.155 HD
ENDROOT
BRANCH   1  14
HETATM   14  C4  UNL     1      23.221  10.931  24.245  1.00  0.00     0.147 C 
BRANCH  14  15
HETATM   15  N1  UNL     1      22.132  11.353  25.082  1.00  0.00    -0.358 N 
HETATM   16  C3  UNL     1      22.281  12.465  25.940  1.00  0.00     0.226 C 
HETATM   17  O1  UNL     1      23.392  13.085  25.959  1.00  0.00    -0.273 OA
ATOM     18  H1  UNL     1      21.247  10.848  25.056  1.00  0.00     0.162 HD
BRANCH  16  19
HETATM   19  C2  UNL     1      21.183  12.943  26.826  1.00  0.00     0.041 C 
HETATM   20  C1  UNL     1      20.889  14.383  26.497  1.00  0.00     0.025 C 
HETATM   21  C15 UNL     1      19.933  12.122  26.573  1.00  0.00     0.045 C 
HETATM   22  C16 UNL     1      18.933  12.315  27.677  1.00  0.00     0.168 C 
HETATM   23  O2  UNL     1      19.482  11.937  28.904  1.00  0.00    -0.391 OA
HETATM   24  C17 UNL     1      20.448  12.878  29.226  1.00  0.00     0.168 C 
HETATM   25  C18 UNL     1      21.593  12.728  28.254  1.00  0.00     0.045 C 
ENDBRANCH  16  19
ENDBRANCH  14  15
ENDBRANCH   1  14
TORSDOF 3
ENDMDL
MODEL 5
REMARK VINA RESULT: -7.695784106      1.749      2.540
REMARK  3 active torsions:
REMARK  status: ('A' for Active; 'I' for Inactive)
REMARK    1  A    between atoms: C2_2  and  C3_3 
REMARK       I    between atoms: C3_3  and  N1_5 
REMARK    2  A    between atoms: N1_5  and  C4_7 
REMARK    3  A    between atoms: C4_7  and  C5_8 
ROOT
HETATM    1  C5  UNL     1      21.651  11.278  22.753  1.00  0.00     0.096 C 
HETATM    2  C6  UNL     1      21.821  10.287  21.669  1.00  0.00     0.031 C 
HETATM    3  C7  UNL     1      22.917  10.672  20.705  1.00  0.00    -0.006 C 
HETATM    4  C8  UNL     1      23.059   9.726  19.567  1.00  0.00     0.005 C 
HETATM    5  C9  UNL     1      24.333  10.171  18.838  1.00  0.00     0.000 C 
HETATM    6  C10 UNL     1      24.090  11.497  18.226  1.00  0.00     0.001 C 
HETATM    7  C11 UNL     1      23.402  12.500  19.046  1.00  0.00     0.008 C 
HETATM    8  C12 UNL     1      22.594  12.036  20.190  1.00  0.00     0.026 C 
HETATM    9  C13 UNL     1      22.744  12.960  21.389  1.00  0.00     0.189 C 
HETATM   10  C14 UNL     1      24.146  12.869  21.812  1.00  0.00     0.084 C 
HETATM   11  N2  UNL     1      25.269  12.807  22.135  1.00  0.00    -0.195 NA
HETATM   12  N3  UNL     1      21.918  12.619  22.489  1.00  0.00    -0.400 N 
ATOM     13  H3  UNL     1      21.523  13.348  23.081  1.00  0.00     0.155 HD
ENDROOT
BRANCH   1  14
HETATM   14  C4  UNL     1      20.222  11.152  23.286  1.00  0.00     0.147 C 
BRANCH  14  15
HETATM   15  N1  UNL     1      20.211  11.023  24.717  1.00  0.00    -0.358 N 
HETATM   16  C3  UNL     1      20.073  12.165  25.535  1.00  0.00     0.226 C 
HETATM   17  O1  UNL     1      19.959  13.308  24.987  1.00  0.00    -0.273 OA
ATOM     18  H1  UNL     1      20.302  10.101  25.144  1.00  0.00     0.162 HD
BRANCH  16  19
HETATM   19  C2  UNL     1      20.055  12.085  27.023  1.00  0.00     0.041 C 
HETATM   20  C1  UNL     1      20.400  10.679  27.435  1.00  0.00     0.025 C 
HETATM   21  C15 UNL     1      21.096  13.029  27.594  1.00  0.00     0.045 C 
HETATM   22  C16 UNL     1      20.865  13.254  29.062  1.00  0.00     0.168 C 
HETATM   23  O2  UNL     1      19.597  13.794  29.280  1.00  0.00    -0.391 OA
HETATM   24  C17 UNL     1      18.675  12.799  28.996  1.00  0.00     0.168 C 
HETATM   25  C18 UNL     1      18.708  12.537  27.509  1.00  0.00     0.045 C 
ENDBRANCH  16  19
ENDBRANCH  14  15
ENDBRANCH   1  14
TORSDOF 3
ENDMDL
