MODEL 1
REMARK VINA RESULT: -7.130226516      0.000      0.000
REMARK  4 active torsions:
REMARK  status: ('A' for Active; 'I' for Inactive)
REMARK    1  A    between atoms: C2_2  and  C3_4 
REMARK    2  A    between atoms: C3_4  and  O2_5 
REMARK    3  A    between atoms: N1_7  and  C4_9 
REMARK    4  A    between atoms: C16_22  and  C17_23 
ROOT
HETATM    1  C4  UNL     1      26.667  13.043  21.900  1.00  0.00     0.119 C 
HETATM    2  C5  UNL     1      27.300  13.061  20.546  1.00  0.00     0.058 C 
HETATM    3  C6  UNL     1      26.180  12.791  19.548  1.00  0.00     0.028 C 
HETATM    4  C7  UNL     1      26.316  13.877  18.472  1.00  0.00     0.038 C 
HETATM    5  C8  UNL     1      26.454  11.481  18.872  1.00  0.00     0.031 C 
HETATM    6  C9  UNL     1      25.907  10.367  19.699  1.00  0.00     0.013 C 
HETATM    7  C10 UNL     1      24.417  10.521  19.897  1.00  0.00    -0.023 C 
HETATM    8  C11 UNL     1      24.059   9.643  21.102  1.00  0.00     0.017 C 
HETATM    9  C12 UNL     1      23.742   9.846  18.700  1.00  0.00     0.017 C 
HETATM   10  C13 UNL     1      23.984  11.934  20.077  1.00  0.00     0.029 C 
HETATM   11  C14 UNL     1      22.946  11.975  21.178  1.00  0.00     0.039 C 
HETATM   12  C15 UNL     1      23.274  12.366  18.806  1.00  0.00     0.039 C 
HETATM   13  N2  UNL     1      25.016  12.873  20.303  1.00  0.00    -0.380 N 
HETATM   14  C16 UNL     1      25.218  13.364  21.591  1.00  0.00     0.205 C 
ENDROOT
BRANCH   1  15
HETATM   15  N1  UNL     1      27.274  14.004  22.767  1.00  0.00    -0.361 N 
HETATM   16  C3  UNL     1      28.261  13.762  23.552  1.00  0.00     0.183 C 
ATOM     17  H1  UNL     1      26.894  14.952  22.762  1.00  0.00     0.162 HD
BRANCH  16  18
HETATM   18  C2  UNL     1      28.831  14.782  24.407  1.00  0.00     0.195 C 
HETATM   19  C1  UNL     1      29.273  16.072  23.845  1.00  0.00     0.101 C 
HETATM   20  O1  UNL     1      28.972  14.612  25.649  1.00  0.00    -0.289 OA
ENDBRANCH  16  18
BRANCH  16  21
HETATM   21  O2  UNL     1      28.789  12.488  23.576  1.00  0.00    -0.344 OA
ATOM     22  H2  UNL     1      28.242  11.752  23.324  1.00  0.00     0.219 HD
ENDBRANCH  16  21
ENDBRANCH   1  15
BRANCH  14  23
HETATM   23  C17 UNL     1      24.959  14.826  21.633  1.00  0.00     0.198 C 
HETATM   24  O3  UNL     1      24.854  15.404  22.736  1.00  0.00    -0.646 OA
HETATM   25  O4  UNL     1      24.827  15.599  20.488  1.00  0.00    -0.646 OA
ENDBRANCH  14  23
TORSDOF 4
ENDMDL
MODEL 2
REMARK VINA RESULT: -6.933550486      1.752      1.861
REMARK  4 active torsions:
REMARK  status: ('A' for Active; 'I' for Inactive)
REMARK    1  A    between atoms: C2_2  and  C3_4 
REMARK    2  A    between atoms: C3_4  and  O2_5 
REMARK    3  A    between atoms: N1_7  and  C4_9 
REMARK    4  A    between atoms: C16_22  and  C17_23 
ROOT
HETATM    1  C4  UNL     1      25.757  12.962  22.364  1.00  0.00     0.119 C 
HETATM    2  C5  UNL     1      26.883  13.030  21.384  1.00  0.00     0.058 C 
HETATM    3  C6  UNL     1      26.259  12.858  20.004  1.00  0.00     0.028 C 
HETATM    4  C7  UNL     1      26.832  13.995  19.148  1.00  0.00     0.038 C 
HETATM    5  C8  UNL     1      26.765  11.578  19.410  1.00  0.00     0.031 C 
HETATM    6  C9  UNL     1      25.916  10.442  19.872  1.00  0.00     0.013 C 
HETATM    7  C10 UNL     1      24.475  10.643  19.463  1.00  0.00    -0.023 C 
HETATM    8  C11 UNL     1      23.648   9.715  20.361  1.00  0.00     0.017 C 
HETATM    9  C12 UNL     1      24.332  10.061  18.054  1.00  0.00     0.017 C 
HETATM   10  C13 UNL     1      24.025  12.060  19.547  1.00  0.00     0.029 C 
HETATM   11  C14 UNL     1      22.631  12.081  20.137  1.00  0.00     0.039 C 
HETATM   12  C15 UNL     1      23.894  12.589  18.129  1.00  0.00     0.039 C 
HETATM   13  N2  UNL     1      24.890  12.945  20.230  1.00  0.00    -0.380 N 
HETATM   14  C16 UNL     1      24.561  13.356  21.520  1.00  0.00     0.205 C 
ENDROOT
BRANCH   1  15
HETATM   15  N1  UNL     1      25.974  13.850  23.464  1.00  0.00    -0.361 N 
HETATM   16  C3  UNL     1      25.506  13.678  24.647  1.00  0.00     0.183 C 
ATOM     17  H1  UNL     1      26.543  14.681  23.295  1.00  0.00     0.162 HD
BRANCH  16  18
HETATM   18  C2  UNL     1      25.764  14.616  25.718  1.00  0.00     0.195 C 
HETATM   19  C1  UNL     1      26.838  15.619  25.597  1.00  0.00     0.101 C 
HETATM   20  O1  UNL     1      25.091  14.614  26.786  1.00  0.00    -0.289 OA
ENDBRANCH  16  18
BRANCH  16  21
HETATM   21  O2  UNL     1      24.735  12.562  24.897  1.00  0.00    -0.344 OA
ATOM     22  H2  UNL     1      25.150  11.773  25.228  1.00  0.00     0.219 HD
ENDBRANCH  16  21
ENDBRANCH   1  15
BRANCH  14  23
HETATM   23  C17 UNL     1      24.327  14.822  21.550  1.00  0.00     0.198 C 
HETATM   24  O3  UNL     1      23.159  15.260  21.623  1.00  0.00    -0.646 OA
HETATM   25  O4  UNL     1      25.358  15.749  21.503  1.00  0.00    -0.646 OA
ENDBRANCH  14  23
TORSDOF 4
ENDMDL
MODEL 3
REMARK VINA RESULT: -6.874436720      5.679      8.063
REMARK  4 active torsions:
REMARK  status: ('A' for Active; 'I' for Inactive)
REMARK    1  A    between atoms: C2_2  and  C3_4 
REMARK    2  A    between atoms: C3_4  and  O2_5 
REMARK    3  A    between atoms: N1_7  and  C4_9 
REMARK    4  A    between atoms: C16_22  and  C17_23 
ROOT
HETATM    1  C4  UNL     1      21.009  12.832  24.012  1.00  0.00     0.119 C 
HETATM    2  C5  UNL     1      19.688  12.134  23.968  1.00  0.00     0.058 C 
HETATM    3  C6  UNL     1      18.933  12.571  25.218  1.00  0.00     0.028 C 
HETATM    4  C7  UNL     1      17.541  12.997  24.731  1.00  0.00     0.038 C 
HETATM    5  C8  UNL     1      18.731  11.370  26.094  1.00  0.00     0.031 C 
HETATM    6  C9  UNL     1      19.931  11.174  26.957  1.00  0.00     0.013 C 
HETATM    7  C10 UNL     1      20.177  12.386  27.826  1.00  0.00    -0.023 C 
HETATM    8  C11 UNL     1      21.634  12.283  28.291  1.00  0.00     0.017 C 
HETATM    9  C12 UNL     1      19.341  12.194  29.094  1.00  0.00     0.017 C 
HETATM   10  C13 UNL     1      19.891  13.676  27.140  1.00  0.00     0.029 C 
HETATM   11  C14 UNL     1      20.985  14.657  27.501  1.00  0.00     0.039 C 
HETATM   12  C15 UNL     1      18.606  14.237  27.727  1.00  0.00     0.039 C 
HETATM   13  N2  UNL     1      19.699  13.605  25.742  1.00  0.00    -0.380 N 
HETATM   14  C16 UNL     1      20.720  14.031  24.894  1.00  0.00     0.205 C 
ENDROOT
BRANCH   1  15
HETATM   15  N1  UNL     1      21.443  13.202  22.701  1.00  0.00    -0.361 N 
HETATM   16  C3  UNL     1      22.379  12.615  22.047  1.00  0.00     0.183 C 
ATOM     17  H1  UNL     1      20.974  13.990  22.252  1.00  0.00     0.162 HD
BRANCH  16  18
HETATM   18  C2  UNL     1      22.771  13.039  20.720  1.00  0.00     0.195 C 
HETATM   19  C1  UNL     1      22.996  12.049  19.650  1.00  0.00     0.101 C 
HETATM   20  O1  UNL     1      22.935  14.256  20.427  1.00  0.00    -0.289 OA
ENDBRANCH  16  18
BRANCH  16  21
HETATM   21  O2  UNL     1      23.027  11.548  22.634  1.00  0.00    -0.344 OA
ATOM     22  H2  UNL     1      22.651  10.678  22.562  1.00  0.00     0.219 HD
ENDBRANCH  16  21
ENDBRANCH   1  15
BRANCH  14  23
HETATM   23  C17 UNL     1      20.274  15.203  24.098  1.00  0.00     0.198 C 
HETATM   24  O3  UNL     1      21.107  15.841  23.419  1.00  0.00    -0.646 OA
HETATM   25  O4  UNL     1      18.956  15.633  24.067  1.00  0.00    -0.646 OA
ENDBRANCH  14  23
TORSDOF 4
ENDMDL
MODEL 4
REMARK VINA RESULT: -6.814787389      2.824      5.159
REMARK  4 active torsions:
REMARK  status: ('A' for Active; 'I' for Inactive)
REMARK    1  A    between atoms: C2_2  and  C3_4 
REMARK    2  A    between atoms: C3_4  and  O2_5 
REMARK    3  A    between atoms: N1_7  and  C4_9 
REMARK    4  A    between atoms: C16_22  and  C17_23 
ROOT
HETATM    1  C4  UNL     1      22.447  13.401  21.796  1.00  0.00     0.119 C 
HETATM    2  C5  UNL     1      22.041  12.056  21.285  1.00  0.00     0.058 C 
HETATM    3  C6  UNL     1      23.317  11.386  20.786  1.00  0.00     0.028 C 
HETATM    4  C7  UNL     1      23.319   9.985  21.413  1.00  0.00     0.038 C 
HETATM    5  C8  UNL     1      23.201  11.192  19.304  1.00  0.00     0.031 C 
HETATM    6  C9  UNL     1      23.644  12.430  18.601  1.00  0.00     0.013 C 
HETATM    7  C10 UNL     1      25.077  12.765  18.947  1.00  0.00    -0.023 C 
HETATM    8  C11 UNL     1      25.266  14.242  18.579  1.00  0.00     0.017 C 
HETATM    9  C12 UNL     1      25.959  11.995  17.961  1.00  0.00     0.017 C 
HETATM   10  C13 UNL     1      25.426  12.487  20.367  1.00  0.00     0.029 C 
HETATM   11  C14 UNL     1      26.270  13.632  20.882  1.00  0.00     0.039 C 
HETATM   12  C15 UNL     1      26.318  11.257  20.392  1.00  0.00     0.039 C 
HETATM   13  N2  UNL     1      24.340  12.215  21.230  1.00  0.00    -0.380 N 
HETATM   14  C16 UNL     1      23.915  13.202  22.118  1.00  0.00     0.205 C 
ENDROOT
BRANCH   1  15
HETATM   15  N1  UNL     1      21.676  13.774  22.941  1.00  0.00    -0.361 N 
HETATM   16  C3  UNL     1      21.387  14.981  23.267  1.00  0.00     0.183 C 
ATOM     17  H1  UNL     1      21.329  13.025  23.542  1.00  0.00     0.162 HD
BRANCH  16  18
HETATM   18  C2  UNL     1      20.600  15.293  24.441  1.00  0.00     0.195 C 
HETATM   19  C1  UNL     1      21.139  15.054  25.792  1.00  0.00     0.101 C 
HETATM   20  O1  UNL     1      19.436  15.773  24.358  1.00  0.00    -0.289 OA
ENDBRANCH  16  18
BRANCH  16  21
HETATM   21  O2  UNL     1      21.846  16.009  22.469  1.00  0.00    -0.344 OA
ATOM     22  H2  UNL     1      21.312  16.307  21.741  1.00  0.00     0.219 HD
ENDBRANCH  16  21
ENDBRANCH   1  15
BRANCH  14  23
HETATM   23  C17 UNL     1      24.114  12.754  23.520  1.00  0.00     0.198 C 
HETATM   24  O3  UNL     1      25.056  13.225  24.192  1.00  0.00    -0.646 OA
HETATM   25  O4  UNL     1      23.290  11.821  24.135  1.00  0.00    -0.646 OA
ENDBRANCH  14  23
TORSDOF 4
ENDMDL
MODEL 5
REMARK VINA RESULT: -6.792463429      2.025      3.929
REMARK  4 active torsions:
REMARK  status: ('A' for Active; 'I' for Inactive)
REMARK    1  A    between atoms: C2_2  and  C3_4 
REMARK    2  A    between atoms: C3_4  and  O2_5 
REMARK    3  A    between atoms: N1_7  and  C4_9 
REMARK    4  A    between atoms: C16_22  and  C17_23 
ROOT
HETATM    1  C4  UNL     1      24.347  14.355  21.292  1.00  0.00     0.119 C 
HETATM    2  C5  UNL     1      23.095  13.690  21.766  1.00  0.00     0.058 C 
HETATM    3  C6  UNL     1      23.309  12.192  21.577  1.00  0.00     0.028 C 
HETATM    4  C7  UNL     1      22.908  11.548  22.911  1.00  0.00     0.038 C 
HETATM    5  C8  UNL     1      22.333  11.699  20.552  1.00  0.00     0.031 C 
HETATM    6  C9  UNL     1      22.900  11.893  19.187  1.00  0.00     0.013 C 
HETATM    7  C10 UNL     1      24.204  11.144  19.031  1.00  0.00    -0.023 C 
HETATM    8  C11 UNL     1      24.910  11.773  17.825  1.00  0.00     0.017 C 
HETATM    9  C12 UNL     1      23.845   9.724  18.585  1.00  0.00     0.017 C 
HETATM   10  C13 UNL     1      25.050  11.163  20.256  1.00  0.00     0.029 C 
HETATM   11  C14 UNL     1      26.487  11.386  19.836  1.00  0.00     0.039 C 
HETATM   12  C15 UNL     1      24.998   9.777  20.876  1.00  0.00     0.039 C 
HETATM   13  N2  UNL     1      24.658  12.072  21.265  1.00  0.00    -0.380 N 
HETATM   14  C16 UNL     1      25.379  13.252  21.433  1.00  0.00     0.205 C 
ENDROOT
BRANCH   1  15
HETATM   15  N1  UNL     1      24.654  15.504  22.085  1.00  0.00    -0.361 N 
HETATM   16  C3  UNL     1      24.934  16.665  21.613  1.00  0.00     0.183 C 
ATOM     17  H1  UNL     1      24.650  15.394  23.099  1.00  0.00     0.162 HD
BRANCH  16  18
HETATM   18  C2  UNL     1      25.236  17.791  22.471  1.00  0.00     0.195 C 
HETATM   19  C1  UNL     1      24.213  18.336  23.382  1.00  0.00     0.101 C 
HETATM   20  O1  UNL     1      26.370  18.345  22.474  1.00  0.00    -0.289 OA
ENDBRANCH  16  18
BRANCH  16  21
HETATM   21  O2  UNL     1      24.946  16.836  20.244  1.00  0.00    -0.344 OA
ATOM     22  H2  UNL     1      25.665  17.309  19.840  1.00  0.00     0.219 HD
ENDBRANCH  16  21
ENDBRANCH   1  15
BRANCH  14  23
HETATM   23  C17 UNL     1      26.027  13.276  22.770  1.00  0.00     0.198 C 
HETATM   24  O3  UNL     1      27.256  13.068  22.864  1.00  0.00    -0.646 OA
HETATM   25  O4  UNL     1      25.325  13.522  23.941  1.00  0.00    -0.646 OA
ENDBRANCH  14  23
TORSDOF 4
ENDMDL
