MODEL 1
REMARK VINA RESULT: -7.801706961      0.000      0.000
REMARK  8 active torsions:
REMARK  status: ('A' for Active; 'I' for Inactive)
REMARK    1  A    between atoms: C4_4  and  C5_5 
REMARK    2  A    between atoms: C5_5  and  C6_6 
REMARK    3  A    between atoms: C6_6  and  C7_7 
REMARK    4  A    between atoms: C7_7  and  C8_8 
REMARK    5  A    between atoms: C13_15  and  O3_16 
REMARK    6  A    between atoms: C18_23  and  C19_24 
REMARK    7  A    between atoms: C19_24  and  O4_25 
REMARK    8  A    between atoms: C20_27  and  C21_28 
ROOT
HETATM    1  C7  UNL     1      -5.955  16.965  32.214  1.00  0.00     0.081 C 
HETATM    2  C9  UNL     1      -6.554  16.375  30.966  1.00  0.00     0.024 C 
HETATM    3  C10 UNL     1      -7.991  16.566  30.729  1.00  0.00     0.014 C 
HETATM    4  C11 UNL     1      -8.855  16.941  31.867  1.00  0.00    -0.006 C 
HETATM    5  C12 UNL     1      -8.144  16.780  33.186  1.00  0.00     0.053 C 
HETATM    6  C13 UNL     1      -7.018  17.769  32.949  1.00  0.00     0.089 C 
HETATM    7  C14 UNL     1      -7.588  18.820  31.974  1.00  0.00     0.098 C 
HETATM    8 BR1  UNL     1      -7.124  20.598  32.498  1.00  0.00    -0.088 Br
HETATM    9  C15 UNL     1      -8.991  18.481  32.004  1.00  0.00     0.014 C 
HETATM   10  C16 UNL     1      -9.949  18.772  30.968  1.00  0.00     0.014 C 
HETATM   11  C17 UNL     1     -11.060  17.818  31.453  1.00  0.00     0.025 C 
HETATM   12  C18 UNL     1     -12.018  17.462  30.378  1.00  0.00     0.055 C 
HETATM   13  C20 UNL     1     -11.717  15.978  30.180  1.00  0.00     0.229 C 
HETATM   14  O7  UNL     1     -10.459  15.761  30.666  1.00  0.00    -0.368 OA
HETATM   15  C22 UNL     1     -10.272  16.555  31.800  1.00  0.00     0.136 C 
ENDROOT
BRANCH   1  16
HETATM   16  C6  UNL     1      -4.828  17.893  31.955  1.00  0.00     0.027 C 
BRANCH  16  17
HETATM   17  C5  UNL     1      -4.276  18.010  30.595  1.00  0.00     0.028 C 
BRANCH  17  18
HETATM   18  C4  UNL     1      -3.170  17.162  30.184  1.00  0.00    -0.025 C 
HETATM   19  C2  UNL     1      -3.094  16.702  28.914  1.00  0.00    -0.091 C 
HETATM   20  C1  UNL     1      -1.972  15.847  28.518  1.00  0.00     0.042 C 
HETATM   21  C3  UNL     1      -4.147  17.063  27.921  1.00  0.00     0.042 C 
ENDBRANCH  17  18
ENDBRANCH  16  17
ENDBRANCH   1  16
BRANCH   1  22
HETATM   22  C8  UNL     1      -5.546  15.899  33.154  1.00  0.00     0.185 C 
HETATM   23  O1  UNL     1      -4.976  16.154  34.271  1.00  0.00    -0.647 OA
HETATM   24  O2  UNL     1      -5.760  14.560  32.867  1.00  0.00    -0.647 OA
ENDBRANCH   1  22
BRANCH   6  25
HETATM   25  O3  UNL     1      -6.578  18.322  34.111  1.00  0.00    -0.387 OA
ATOM     26  H3  UNL     1      -6.959  17.931  34.889  1.00  0.00     0.210 HD
ENDBRANCH   6  25
BRANCH  12  27
HETATM   27  C19 UNL     1     -13.419  17.539  30.958  1.00  0.00     0.172 C 
BRANCH  27  28
HETATM   28  O4  UNL     1     -13.420  18.061  32.243  1.00  0.00    -0.400 OA
ATOM     29  H4  UNL     1     -14.066  18.749  32.346  1.00  0.00     0.209 HD
ENDBRANCH  27  28
ENDBRANCH  12  27
BRANCH  13  30
HETATM   30  C21 UNL     1     -11.810  15.729  28.718  1.00  0.00     0.203 C 
HETATM   31  O5  UNL     1     -12.887  15.441  28.135  1.00  0.00    -0.646 OA
HETATM   32  O6  UNL     1     -10.668  15.810  27.934  1.00  0.00    -0.646 OA
ENDBRANCH  13  30
TORSDOF 8
ENDMDL
MODEL 2
REMARK VINA RESULT: -6.983741229      8.354     11.594
REMARK  8 active torsions:
REMARK  status: ('A' for Active; 'I' for Inactive)
REMARK    1  A    between atoms: C4_4  and  C5_5 
REMARK    2  A    between atoms: C5_5  and  C6_6 
REMARK    3  A    between atoms: C6_6  and  C7_7 
REMARK    4  A    between atoms: C7_7  and  C8_8 
REMARK    5  A    between atoms: C13_15  and  O3_16 
REMARK    6  A    between atoms: C18_23  and  C19_24 
REMARK    7  A    between atoms: C19_24  and  O4_25 
REMARK    8  A    between atoms: C20_27  and  C21_28 
ROOT
HETATM    1  C7  UNL     1      -1.300  10.815  31.896  1.00  0.00     0.081 C 
HETATM    2  C9  UNL     1      -1.266  12.318  31.854  1.00  0.00     0.024 C 
HETATM    3  C10 UNL     1      -0.268  12.966  30.993  1.00  0.00     0.014 C 
HETATM    4  C11 UNL     1       0.899  12.180  30.542  1.00  0.00    -0.006 C 
HETATM    5  C12 UNL     1       1.026  10.884  31.300  1.00  0.00     0.053 C 
HETATM    6  C13 UNL     1      -0.296  10.262  30.893  1.00  0.00     0.089 C 
HETATM    7  C14 UNL     1      -0.624  10.855  29.507  1.00  0.00     0.098 C 
HETATM    8 BR1  UNL     1      -1.253   9.517  28.296  1.00  0.00    -0.088 Br
HETATM    9  C15 UNL     1       0.633  11.485  29.181  1.00  0.00     0.014 C 
HETATM   10  C16 UNL     1       0.811  12.582  28.265  1.00  0.00     0.014 C 
HETATM   11  C17 UNL     1       2.236  12.977  28.704  1.00  0.00     0.025 C 
HETATM   12  C18 UNL     1       2.582  14.372  28.338  1.00  0.00     0.055 C 
HETATM   13  C20 UNL     1       2.666  15.035  29.711  1.00  0.00     0.229 C 
HETATM   14  O7  UNL     1       1.945  14.256  30.572  1.00  0.00    -0.368 OA
HETATM   15  C22 UNL     1       2.132  12.915  30.228  1.00  0.00     0.136 C 
ENDROOT
BRANCH   1  16
HETATM   16  C6  UNL     1      -2.617  10.236  31.538  1.00  0.00     0.027 C 
BRANCH  16  17
HETATM   17  C5  UNL     1      -3.620   9.995  32.588  1.00  0.00     0.028 C 
BRANCH  17  18
HETATM   18  C4  UNL     1      -4.544  11.050  32.967  1.00  0.00    -0.025 C 
HETATM   19  C2  UNL     1      -4.560  11.527  34.232  1.00  0.00    -0.091 C 
HETATM   20  C1  UNL     1      -5.499  12.591  34.596  1.00  0.00     0.042 C 
HETATM   21  C3  UNL     1      -3.624  10.973  35.254  1.00  0.00     0.042 C 
ENDBRANCH  17  18
ENDBRANCH  16  17
ENDBRANCH   1  16
BRANCH   1  22
HETATM   22  C8  UNL     1      -0.854  10.316  33.215  1.00  0.00     0.185 C 
HETATM   23  O1  UNL     1      -0.999   9.096  33.570  1.00  0.00    -0.647 OA
HETATM   24  O2  UNL     1      -0.254  11.156  34.141  1.00  0.00    -0.647 OA
ENDBRANCH   1  22
BRANCH   6  25
HETATM   25  O3  UNL     1      -0.233   8.903  30.877  1.00  0.00    -0.387 OA
ATOM     26  H3  UNL     1      -0.070   8.539  30.014  1.00  0.00     0.210 HD
ENDBRANCH   6  25
BRANCH  12  27
HETATM   27  C19 UNL     1       3.993  14.372  27.778  1.00  0.00     0.172 C 
BRANCH  27  28
HETATM   28  O4  UNL     1       4.268  15.531  27.069  1.00  0.00    -0.400 OA
ATOM     29  H4  UNL     1       4.527  15.346  26.174  1.00  0.00     0.209 HD
ENDBRANCH  27  28
ENDBRANCH  12  27
BRANCH  13  30
HETATM   30  C21 UNL     1       2.080  16.392  29.552  1.00  0.00     0.203 C 
HETATM   31  O5  UNL     1       1.969  17.210  30.501  1.00  0.00    -0.646 OA
HETATM   32  O6  UNL     1       1.626  16.802  28.307  1.00  0.00    -0.646 OA
ENDBRANCH  13  30
TORSDOF 8
ENDMDL
MODEL 3
REMARK VINA RESULT: -6.756533383      6.912     10.900
REMARK  8 active torsions:
REMARK  status: ('A' for Active; 'I' for Inactive)
REMARK    1  A    between atoms: C4_4  and  C5_5 
REMARK    2  A    between atoms: C5_5  and  C6_6 
REMARK    3  A    between atoms: C6_6  and  C7_7 
REMARK    4  A    between atoms: C7_7  and  C8_8 
REMARK    5  A    between atoms: C13_15  and  O3_16 
REMARK    6  A    between atoms: C18_23  and  C19_24 
REMARK    7  A    between atoms: C19_24  and  O4_25 
REMARK    8  A    between atoms: C20_27  and  C21_28 
ROOT
HETATM    1  C7  UNL     1      -3.247  11.216  33.925  1.00  0.00     0.081 C 
HETATM    2  C9  UNL     1      -2.584  12.506  33.526  1.00  0.00     0.024 C 
HETATM    3  C10 UNL     1      -1.454  12.446  32.590  1.00  0.00     0.014 C 
HETATM    4  C11 UNL     1      -0.754  11.158  32.405  1.00  0.00    -0.006 C 
HETATM    5  C12 UNL     1      -1.145  10.153  33.456  1.00  0.00     0.053 C 
HETATM    6  C13 UNL     1      -2.626  10.069  33.140  1.00  0.00     0.089 C 
HETATM    7  C14 UNL     1      -2.747  10.394  31.636  1.00  0.00     0.098 C 
HETATM    8 BR1  UNL     1      -3.946   9.200  30.748  1.00  0.00    -0.088 Br
HETATM    9  C15 UNL     1      -1.361  10.336  31.237  1.00  0.00     0.014 C 
HETATM   10  C16 UNL     1      -0.786  11.001  30.096  1.00  0.00     0.014 C 
HETATM   11  C17 UNL     1       0.693  10.851  30.504  1.00  0.00     0.025 C 
HETATM   12  C18 UNL     1       1.576  11.838  29.835  1.00  0.00     0.055 C 
HETATM   13  C20 UNL     1       2.005  12.710  31.012  1.00  0.00     0.229 C 
HETATM   14  O7  UNL     1       1.071  12.539  31.994  1.00  0.00    -0.368 OA
HETATM   15  C22 UNL     1       0.656  11.205  31.991  1.00  0.00     0.136 C 
ENDROOT
BRANCH   1  16
HETATM   16  C6  UNL     1      -4.703  11.180  33.645  1.00  0.00     0.027 C 
BRANCH  16  17
HETATM   17  C5  UNL     1      -5.462  12.439  33.562  1.00  0.00     0.028 C 
BRANCH  17  18
HETATM   18  C4  UNL     1      -5.628  13.267  34.745  1.00  0.00    -0.025 C 
HETATM   19  C2  UNL     1      -5.553  14.615  34.654  1.00  0.00    -0.091 C 
HETATM   20  C1  UNL     1      -5.722  15.434  35.857  1.00  0.00     0.042 C 
HETATM   21  C3  UNL     1      -5.301  15.264  33.335  1.00  0.00     0.042 C 
ENDBRANCH  17  18
ENDBRANCH  16  17
ENDBRANCH   1  16
BRANCH   1  22
HETATM   22  C8  UNL     1      -2.983  10.908  35.348  1.00  0.00     0.185 C 
HETATM   23  O1  UNL     1      -2.930   9.708  35.789  1.00  0.00    -0.647 OA
HETATM   24  O2  UNL     1      -2.781  11.913  36.280  1.00  0.00    -0.647 OA
ENDBRANCH   1  22
BRANCH   6  25
HETATM   25  O3  UNL     1      -3.143   8.850  33.452  1.00  0.00    -0.387 OA
ATOM     26  H3  UNL     1      -3.605   8.436  32.732  1.00  0.00     0.210 HD
ENDBRANCH   6  25
BRANCH  12  27
HETATM   27  C19 UNL     1       2.822  11.108  29.368  1.00  0.00     0.172 C 
BRANCH  27  28
HETATM   28  O4  UNL     1       3.773  11.013  30.373  1.00  0.00    -0.400 OA
ATOM     29  H4  UNL     1       4.285  10.216  30.302  1.00  0.00     0.209 HD
ENDBRANCH  27  28
ENDBRANCH  12  27
BRANCH  13  30
HETATM   30  C21 UNL     1       2.040  14.106  30.501  1.00  0.00     0.203 C 
HETATM   31  O5  UNL     1       2.620  14.435  29.435  1.00  0.00    -0.646 OA
HETATM   32  O6  UNL     1       1.410  15.115  31.216  1.00  0.00    -0.646 OA
ENDBRANCH  13  30
TORSDOF 8
ENDMDL
MODEL 4
REMARK VINA RESULT: -6.752490214      9.593     12.019
REMARK  8 active torsions:
REMARK  status: ('A' for Active; 'I' for Inactive)
REMARK    1  A    between atoms: C4_4  and  C5_5 
REMARK    2  A    between atoms: C5_5  and  C6_6 
REMARK    3  A    between atoms: C6_6  and  C7_7 
REMARK    4  A    between atoms: C7_7  and  C8_8 
REMARK    5  A    between atoms: C13_15  and  O3_16 
REMARK    6  A    between atoms: C18_23  and  C19_24 
REMARK    7  A    between atoms: C19_24  and  O4_25 
REMARK    8  A    between atoms: C20_27  and  C21_28 
ROOT
HETATM    1  C7  UNL     1       1.003  13.164  30.354  1.00  0.00     0.081 C 
HETATM    2  C9  UNL     1       0.143  13.784  29.287  1.00  0.00     0.024 C 
HETATM    3  C10 UNL     1       0.809  14.451  28.160  1.00  0.00     0.014 C 
HETATM    4  C11 UNL     1       2.222  14.854  28.307  1.00  0.00    -0.006 C 
HETATM    5  C12 UNL     1       2.681  14.770  29.740  1.00  0.00     0.053 C 
HETATM    6  C13 UNL     1       2.467  13.283  29.952  1.00  0.00     0.089 C 
HETATM    7  C14 UNL     1       2.637  12.637  28.560  1.00  0.00     0.098 C 
HETATM    8 BR1  UNL     1       3.692  11.047  28.643  1.00  0.00    -0.088 Br
HETATM    9  C15 UNL     1       3.191  13.744  27.818  1.00  0.00     0.014 C 
HETATM   10  C16 UNL     1       3.119  13.919  26.390  1.00  0.00     0.014 C 
HETATM   11  C17 UNL     1       3.515  15.409  26.352  1.00  0.00     0.025 C 
HETATM   12  C18 UNL     1       3.078  16.086  25.107  1.00  0.00     0.055 C 
HETATM   13  C20 UNL     1       2.013  17.043  25.638  1.00  0.00     0.229 C 
HETATM   14  O7  UNL     1       1.594  16.543  26.839  1.00  0.00    -0.368 OA
HETATM   15  C22 UNL     1       2.692  15.990  27.502  1.00  0.00     0.136 C 
ENDROOT
BRANCH   1  16
HETATM   16  C6  UNL     1       0.740  11.721  30.570  1.00  0.00     0.027 C 
BRANCH  16  17
HETATM   17  C5  UNL     1      -0.576  11.283  31.063  1.00  0.00     0.028 C 
BRANCH  17  18
HETATM   18  C4  UNL     1      -0.713  10.773  32.417  1.00  0.00    -0.025 C 
HETATM   19  C2  UNL     1      -1.792  10.036  32.766  1.00  0.00    -0.091 C 
HETATM   20  C1  UNL     1      -1.914   9.530  34.136  1.00  0.00     0.042 C 
HETATM   21  C3  UNL     1      -2.855   9.740  31.762  1.00  0.00     0.042 C 
ENDBRANCH  17  18
ENDBRANCH  16  17
ENDBRANCH   1  16
BRANCH   1  22
HETATM   22  C8  UNL     1       0.882  13.911  31.625  1.00  0.00     0.185 C 
HETATM   23  O1  UNL     1       0.159  14.960  31.736  1.00  0.00    -0.647 OA
HETATM   24  O2  UNL     1       1.556  13.508  32.768  1.00  0.00    -0.647 OA
ENDBRANCH   1  22
BRANCH   6  25
HETATM   25  O3  UNL     1       3.329  12.773  30.871  1.00  0.00    -0.387 OA
ATOM     26  H3  UNL     1       4.195  13.164  30.842  1.00  0.00     0.210 HD
ENDBRANCH   6  25
BRANCH  12  27
HETATM   27  C19 UNL     1       4.224  16.953  24.620  1.00  0.00     0.172 C 
BRANCH  27  28
HETATM   28  O4  UNL     1       4.303  18.148  25.319  1.00  0.00    -0.400 OA
ATOM     29  H4  UNL     1       5.070  18.652  25.075  1.00  0.00     0.209 HD
ENDBRANCH  27  28
ENDBRANCH  12  27
BRANCH  13  30
HETATM   30  C21 UNL     1       0.927  17.059  24.623  1.00  0.00     0.203 C 
HETATM   31  O5  UNL     1       0.759  16.140  23.780  1.00  0.00    -0.646 OA
HETATM   32  O6  UNL     1       0.042  18.127  24.580  1.00  0.00    -0.646 OA
ENDBRANCH  13  30
TORSDOF 8
ENDMDL
MODEL 5
REMARK VINA RESULT: -6.711188548      8.281     10.853
REMARK  8 active torsions:
REMARK  status: ('A' for Active; 'I' for Inactive)
REMARK    1  A    between atoms: C4_4  and  C5_5 
REMARK    2  A    between atoms: C5_5  and  C6_6 
REMARK    3  A    between atoms: C6_6  and  C7_7 
REMARK    4  A    between atoms: C7_7  and  C8_8 
REMARK    5  A    between atoms: C13_15  and  O3_16 
REMARK    6  A    between atoms: C18_23  and  C19_24 
REMARK    7  A    between atoms: C19_24  and  O4_25 
REMARK    8  A    between atoms: C20_27  and  C21_28 
ROOT
HETATM    1  C7  UNL     1       0.323  12.121  31.531  1.00  0.00     0.081 C 
HETATM    2  C9  UNL     1      -0.631  13.133  30.957  1.00  0.00     0.024 C 
HETATM    3  C10 UNL     1      -0.503  13.479  29.535  1.00  0.00     0.014 C 
HETATM    4  C11 UNL     1       0.761  13.167  28.839  1.00  0.00    -0.006 C 
HETATM    5  C12 UNL     1       1.854  12.793  29.806  1.00  0.00     0.053 C 
HETATM    6  C13 UNL     1       1.199  11.568  30.415  1.00  0.00     0.089 C 
HETATM    7  C14 UNL     1       0.277  11.002  29.315  1.00  0.00     0.098 C 
HETATM    8 BR1  UNL     1       0.417   9.101  29.182  1.00  0.00    -0.088 Br
HETATM    9  C15 UNL     1       0.721  11.766  28.173  1.00  0.00     0.014 C 
HETATM   10  C16 UNL     1      -0.054  12.038  26.990  1.00  0.00     0.014 C 
HETATM   11  C17 UNL     1       0.831  13.171  26.432  1.00  0.00     0.025 C 
HETATM   12  C18 UNL     1       0.105  14.048  25.479  1.00  0.00     0.055 C 
HETATM   13  C20 UNL     1       0.035  15.357  26.262  1.00  0.00     0.229 C 
HETATM   14  O7  UNL     1       0.196  15.039  27.581  1.00  0.00    -0.368 OA
HETATM   15  C22 UNL     1       1.124  13.999  27.683  1.00  0.00     0.136 C 
ENDROOT
BRANCH   1  16
HETATM   16  C6  UNL     1      -0.346  10.957  32.159  1.00  0.00     0.027 C 
BRANCH  16  17
HETATM   17  C5  UNL     1      -1.791  11.008  32.439  1.00  0.00     0.028 C 
BRANCH  17  18
HETATM   18  C4  UNL     1      -2.719  10.257  31.610  1.00  0.00    -0.025 C 
HETATM   19  C2  UNL     1      -4.035  10.214  31.920  1.00  0.00    -0.091 C 
HETATM   20  C1  UNL     1      -4.956   9.452  31.073  1.00  0.00     0.042 C 
HETATM   21  C3  UNL     1      -4.547  10.941  33.118  1.00  0.00     0.042 C 
ENDBRANCH  17  18
ENDBRANCH  16  17
ENDBRANCH   1  16
BRANCH   1  22
HETATM   22  C8  UNL     1       1.257  12.761  32.483  1.00  0.00     0.185 C 
HETATM   23  O1  UNL     1       1.251  14.021  32.706  1.00  0.00    -0.647 OA
HETATM   24  O2  UNL     1       2.194  12.019  33.186  1.00  0.00    -0.647 OA
ENDBRANCH   1  22
BRANCH   6  25
HETATM   25  O3  UNL     1       2.118  10.661  30.841  1.00  0.00    -0.387 OA
ATOM     26  H3  UNL     1       2.192   9.899  30.278  1.00  0.00     0.210 HD
ENDBRANCH   6  25
BRANCH  12  27
HETATM   27  C19 UNL     1       1.018  14.307  24.295  1.00  0.00     0.172 C 
BRANCH  27  28
HETATM   28  O4  UNL     1       1.883  15.366  24.530  1.00  0.00    -0.400 OA
ATOM     29  H4  UNL     1       2.550  15.144  25.169  1.00  0.00     0.209 HD
ENDBRANCH  27  28
ENDBRANCH  12  27
BRANCH  13  30
HETATM   30  C21 UNL     1      -1.304  15.937  25.980  1.00  0.00     0.203 C 
HETATM   31  O5  UNL     1      -2.360  15.535  26.532  1.00  0.00    -0.646 OA
HETATM   32  O6  UNL     1      -1.424  16.975  25.065  1.00  0.00    -0.646 OA
ENDBRANCH  13  30
TORSDOF 8
ENDMDL
