MODEL 1
REMARK VINA RESULT: -8.360092432      0.000      0.000
REMARK  7 active torsions:
REMARK  status: ('A' for Active; 'I' for Inactive)
REMARK    1  A    between atoms: C7_9  and  N2_10 
REMARK    2  A    between atoms: C8_13  and  C9_14 
REMARK    3  A    between atoms: C9_14  and  N3_15 
REMARK    4  A    between atoms: C12_18  and  O1_19 
REMARK    5  A    between atoms: O1_19  and  C13_20 
REMARK    6  A    between atoms: C15_22  and  N4_23 
REMARK    7  A    between atoms: N4_23  and  C16_25 
ROOT
HETATM    1  N3  UNL     1      -5.554  15.783  34.967  1.00  0.00     0.092 N 
HETATM    2  C10 UNL     1      -6.265  14.746  35.755  1.00  0.00     0.275 C 
HETATM    3  C11 UNL     1      -6.162  13.390  35.155  1.00  0.00     0.062 C 
HETATM    4  C12 UNL     1      -4.761  12.909  34.995  1.00  0.00     0.132 C 
HETATM    5  C22 UNL     1      -4.010  13.962  34.164  1.00  0.00     0.062 C 
HETATM    6  C23 UNL     1      -4.188  15.284  34.765  1.00  0.00     0.275 C 
ENDROOT
BRANCH   4   7
HETATM    7  O1  UNL     1      -4.715  11.694  34.316  1.00  0.00    -0.344 OA
BRANCH   7   8
HETATM    8  C13 UNL     1      -3.563  10.986  33.982  1.00  0.00     0.091 A 
HETATM    9  C14 UNL     1      -2.457  10.977  34.763  1.00  0.00     0.086 A 
HETATM   10  C15 UNL     1      -1.296  10.248  34.388  1.00  0.00     0.103 A 
HETATM   11  N6  UNL     1      -1.325   9.565  33.229  1.00  0.00    -0.351 N 
HETATM   12  C20 UNL     1      -2.434   9.580  32.457  1.00  0.00     0.111 A 
ATOM     13  H6  UNL     1      -0.506   9.032  32.933  1.00  0.00     0.166 HD
HETATM   14  C21 UNL     1      -3.573  10.269  32.785  1.00  0.00     0.059 A 
HETATM   15 BR1  UNL     1      -5.094  10.235  31.636  1.00  0.00    -0.047 Br
BRANCH  10  16
HETATM   16  N4  UNL     1      -0.321  10.278  35.167  1.00  0.00    -0.370 N 
ATOM     17  H4  UNL     1      -0.511   9.732  36.007  1.00  0.00     0.161 HD
BRANCH  16  18
HETATM   18  C16 UNL     1       0.959  10.844  35.219  1.00  0.00     0.110 C 
HETATM   19  C17 UNL     1       1.211  11.749  33.994  1.00  0.00     0.054 C 
HETATM   20  C18 UNL     1       2.313  12.627  34.471  1.00  0.00     0.234 C 
HETATM   21  N5  UNL     1       2.058  12.866  35.870  1.00  0.00    -0.073 N 
HETATM   22  C19 UNL     1       1.272  11.762  36.354  1.00  0.00     0.257 C 
ATOM     23  H52 UNL     1       2.910  13.017  36.410  1.00  0.00     0.277 HD
ATOM     24  H51 UNL     1       1.626  13.773  36.048  1.00  0.00     0.277 HD
ENDBRANCH  16  18
ENDBRANCH  10  16
ENDBRANCH   7   8
ENDBRANCH   4   7
BRANCH   1  25
HETATM   25  C9  UNL     1      -6.240  15.867  33.661  1.00  0.00     0.315 C 
BRANCH  25  26
HETATM   26  C8  UNL     1      -6.935  17.116  33.404  1.00  0.00     0.024 A 
HETATM   27  C4  UNL     1      -6.291  18.015  32.575  1.00  0.00    -0.021 A 
HETATM   28  C2  UNL     1      -5.101  17.804  31.796  1.00  0.00    -0.077 C 
HETATM   29  C5  UNL     1      -6.984  19.241  32.368  1.00  0.00     0.029 A 
HETATM   30  C1  UNL     1      -4.246  19.045  31.539  1.00  0.00     0.044 C 
HETATM   31  C3  UNL     1      -4.358  16.563  31.632  1.00  0.00     0.044 C 
HETATM   32  C6  UNL     1      -8.191  19.508  32.937  1.00  0.00     0.090 A 
HETATM   33  N1  UNL     1      -8.780  18.639  33.711  1.00  0.00    -0.352 N 
HETATM   34  C7  UNL     1      -8.187  17.405  33.981  1.00  0.00     0.107 A 
ATOM     35  H1  UNL     1      -9.685  18.864  34.124  1.00  0.00     0.166 HD
BRANCH  34  36
HETATM   36  N2  UNL     1      -8.862  16.615  34.639  1.00  0.00    -0.385 N 
ATOM     37  H22 UNL     1      -9.815  16.327  34.413  1.00  0.00     0.157 HD
ATOM     38  H21 UNL     1      -8.447  16.295  35.514  1.00  0.00     0.157 HD
ENDBRANCH  34  36
ENDBRANCH  25  26
ENDBRANCH   1  25
TORSDOF 7
ENDMDL
MODEL 2
REMARK VINA RESULT: -7.890515392      3.979      9.214
REMARK  7 active torsions:
REMARK  status: ('A' for Active; 'I' for Inactive)
REMARK    1  A    between atoms: C7_9  and  N2_10 
REMARK    2  A    between atoms: C8_13  and  C9_14 
REMARK    3  A    between atoms: C9_14  and  N3_15 
REMARK    4  A    between atoms: C12_18  and  O1_19 
REMARK    5  A    between atoms: O1_19  and  C13_20 
REMARK    6  A    between atoms: C15_22  and  N4_23 
REMARK    7  A    between atoms: N4_23  and  C16_25 
ROOT
HETATM    1  N3  UNL     1       0.957  11.618  30.837  1.00  0.00     0.092 N 
HETATM    2  C10 UNL     1       0.143  11.573  29.597  1.00  0.00     0.275 C 
HETATM    3  C11 UNL     1      -0.210  12.923  29.087  1.00  0.00     0.062 C 
HETATM    4  C12 UNL     1       0.971  13.778  28.784  1.00  0.00     0.132 C 
HETATM    5  C22 UNL     1       1.819  13.854  30.063  1.00  0.00     0.062 C 
HETATM    6  C23 UNL     1       2.093  12.503  30.554  1.00  0.00     0.275 C 
ENDROOT
BRANCH   4   7
HETATM    7  O1  UNL     1       0.586  15.070  28.431  1.00  0.00    -0.344 OA
BRANCH   7   8
HETATM    8  C13 UNL     1      -0.719  15.558  28.412  1.00  0.00     0.091 A 
HETATM    9  C14 UNL     1      -1.320  16.083  29.506  1.00  0.00     0.086 A 
HETATM   10  C15 UNL     1      -2.656  16.566  29.451  1.00  0.00     0.103 A 
HETATM   11  N6  UNL     1      -3.311  16.486  28.279  1.00  0.00    -0.351 N 
HETATM   12  C20 UNL     1      -2.701  15.960  27.193  1.00  0.00     0.111 A 
ATOM     13  H6  UNL     1      -4.271  16.825  28.209  1.00  0.00     0.166 HD
HETATM   14  C21 UNL     1      -1.416  15.486  27.205  1.00  0.00     0.059 A 
HETATM   15 BR1  UNL     1      -0.632  14.760  25.626  1.00  0.00    -0.047 Br
BRANCH  10  16
HETATM   16  N4  UNL     1      -3.137  17.049  30.497  1.00  0.00    -0.370 N 
ATOM     17  H4  UNL     1      -2.453  17.031  31.253  1.00  0.00     0.161 HD
BRANCH  16  18
HETATM   18  C16 UNL     1      -4.346  17.607  30.932  1.00  0.00     0.110 C 
HETATM   19  C17 UNL     1      -5.028  16.699  31.976  1.00  0.00     0.054 C 
HETATM   20  C18 UNL     1      -5.938  17.646  32.674  1.00  0.00     0.234 C 
HETATM   21  N5  UNL     1      -5.238  18.905  32.731  1.00  0.00    -0.073 N 
HETATM   22  C19 UNL     1      -4.294  18.918  31.646  1.00  0.00     0.257 C 
ATOM     23  H52 UNL     1      -5.864  19.711  32.726  1.00  0.00     0.277 HD
ATOM     24  H51 UNL     1      -4.806  19.080  33.639  1.00  0.00     0.277 HD
ENDBRANCH  16  18
ENDBRANCH  10  16
ENDBRANCH   7   8
ENDBRANCH   4   7
BRANCH   1  25
HETATM   25  C9  UNL     1       0.107  12.232  31.879  1.00  0.00     0.315 C 
BRANCH  25  26
HETATM   26  C8  UNL     1       0.299  11.715  33.222  1.00  0.00     0.024 A 
HETATM   27  C4  UNL     1      -0.709  10.908  33.716  1.00  0.00    -0.021 A 
HETATM   28  C2  UNL     1      -1.842  10.375  33.010  1.00  0.00    -0.077 C 
HETATM   29  C5  UNL     1      -0.505  10.442  35.046  1.00  0.00     0.029 A 
HETATM   30  C1  UNL     1      -3.093  10.124  33.853  1.00  0.00     0.044 C 
HETATM   31  C3  UNL     1      -2.133  10.488  31.588  1.00  0.00     0.044 C 
HETATM   32  C6  UNL     1       0.599  10.760  35.775  1.00  0.00     0.090 A 
HETATM   33  N1  UNL     1       1.539  11.519  35.282  1.00  0.00    -0.352 N 
HETATM   34  C7  UNL     1       1.439  12.029  33.987  1.00  0.00     0.107 A 
ATOM     35  H1  UNL     1       2.357  11.741  35.849  1.00  0.00     0.166 HD
BRANCH  34  36
HETATM   36  N2  UNL     1       2.417  12.650  33.575  1.00  0.00    -0.385 N 
ATOM     37  H22 UNL     1       3.354  12.601  33.976  1.00  0.00     0.157 HD
ATOM     38  H21 UNL     1       2.239  13.318  32.824  1.00  0.00     0.157 HD
ENDBRANCH  34  36
ENDBRANCH  25  26
ENDBRANCH   1  25
TORSDOF 7
ENDMDL
MODEL 3
REMARK VINA RESULT: -7.785623665      3.001      9.012
REMARK  7 active torsions:
REMARK  status: ('A' for Active; 'I' for Inactive)
REMARK    1  A    between atoms: C7_9  and  N2_10 
REMARK    2  A    between atoms: C8_13  and  C9_14 
REMARK    3  A    between atoms: C9_14  and  N3_15 
REMARK    4  A    between atoms: C12_18  and  O1_19 
REMARK    5  A    between atoms: O1_19  and  C13_20 
REMARK    6  A    between atoms: C15_22  and  N4_23 
REMARK    7  A    between atoms: N4_23  and  C16_25 
ROOT
HETATM    1  N3  UNL     1      -3.820  11.714  34.304  1.00  0.00     0.092 N 
HETATM    2  C10 UNL     1      -3.857  12.480  35.575  1.00  0.00     0.275 C 
HETATM    3  C11 UNL     1      -4.192  13.914  35.377  1.00  0.00     0.062 C 
HETATM    4  C12 UNL     1      -5.507  14.138  34.714  1.00  0.00     0.132 C 
HETATM    5  C22 UNL     1      -5.483  13.368  33.384  1.00  0.00     0.062 C 
HETATM    6  C23 UNL     1      -5.095  11.978  33.626  1.00  0.00     0.275 C 
ENDROOT
BRANCH   4   7
HETATM    7  O1  UNL     1      -5.714  15.488  34.439  1.00  0.00    -0.344 OA
BRANCH   7   8
HETATM    8  C13 UNL     1      -6.929  16.075  34.092  1.00  0.00     0.091 A 
HETATM    9  C14 UNL     1      -8.016  16.040  34.899  1.00  0.00     0.086 A 
HETATM   10  C15 UNL     1      -9.242  16.645  34.510  1.00  0.00     0.103 A 
HETATM   11  N6  UNL     1      -9.295  17.254  33.311  1.00  0.00    -0.351 N 
HETATM   12  C20 UNL     1      -8.204  17.282  32.513  1.00  0.00     0.111 A 
ATOM     13  H6  UNL     1     -10.161  17.696  33.004  1.00  0.00     0.166 HD
HETATM   14  C21 UNL     1      -7.005  16.713  32.853  1.00  0.00     0.059 A 
HETATM   15 BR1  UNL     1      -5.515  16.801  31.667  1.00  0.00    -0.047 Br
BRANCH  10  16
HETATM   16  N4  UNL     1     -10.195  16.583  35.313  1.00  0.00    -0.370 N 
ATOM     17  H4  UNL     1     -10.136  17.330  36.004  1.00  0.00     0.161 HD
BRANCH  16  18
HETATM   18  C16 UNL     1     -11.323  15.784  35.539  1.00  0.00     0.110 C 
HETATM   19  C17 UNL     1     -11.816  15.144  34.224  1.00  0.00     0.054 C 
HETATM   20  C18 UNL     1     -12.611  13.986  34.713  1.00  0.00     0.234 C 
HETATM   21  N5  UNL     1     -11.924  13.494  35.882  1.00  0.00    -0.073 N 
HETATM   22  C19 UNL     1     -11.169  14.593  36.426  1.00  0.00     0.257 C 
ATOM     23  H52 UNL     1     -12.551  13.065  36.562  1.00  0.00     0.277 HD
ATOM     24  H51 UNL     1     -11.352  12.672  35.693  1.00  0.00     0.277 HD
ENDBRANCH  16  18
ENDBRANCH  10  16
ENDBRANCH   7   8
ENDBRANCH   4   7
BRANCH   1  25
HETATM   25  C9  UNL     1      -2.715  12.279  33.502  1.00  0.00     0.315 C 
BRANCH  25  26
HETATM   26  C8  UNL     1      -1.955  11.315  32.727  1.00  0.00     0.024 A 
HETATM   27  C4  UNL     1      -1.172  11.830  31.710  1.00  0.00    -0.021 A 
HETATM   28  C2  UNL     1      -0.879  13.209  31.431  1.00  0.00    -0.077 C 
HETATM   29  C5  UNL     1      -0.463  10.857  30.950  1.00  0.00     0.029 A 
HETATM   30  C1  UNL     1      -0.602  13.546  29.965  1.00  0.00     0.044 C 
HETATM   31  C3  UNL     1      -1.266  14.373  32.214  1.00  0.00     0.044 C 
HETATM   32  C6  UNL     1      -0.544   9.523  31.205  1.00  0.00     0.090 A 
HETATM   33  N1  UNL     1      -1.286   9.064  32.175  1.00  0.00    -0.352 N 
HETATM   34  C7  UNL     1      -2.023   9.932  32.982  1.00  0.00     0.107 A 
ATOM     35  H1  UNL     1      -1.328   8.059  32.346  1.00  0.00     0.166 HD
BRANCH  34  36
HETATM   36  N2  UNL     1      -2.613   9.417  33.930  1.00  0.00    -0.385 N 
ATOM     37  H22 UNL     1      -2.296   8.591  34.439  1.00  0.00     0.157 HD
ATOM     38  H21 UNL     1      -3.524   9.815  34.159  1.00  0.00     0.157 HD
ENDBRANCH  34  36
ENDBRANCH  25  26
ENDBRANCH   1  25
TORSDOF 7
ENDMDL
MODEL 4
REMARK VINA RESULT: -7.731183305      4.171      9.300
REMARK  7 active torsions:
REMARK  status: ('A' for Active; 'I' for Inactive)
REMARK    1  A    between atoms: C7_9  and  N2_10 
REMARK    2  A    between atoms: C8_13  and  C9_14 
REMARK    3  A    between atoms: C9_14  and  N3_15 
REMARK    4  A    between atoms: C12_18  and  O1_19 
REMARK    5  A    between atoms: O1_19  and  C13_20 
REMARK    6  A    between atoms: C15_22  and  N4_23 
REMARK    7  A    between atoms: N4_23  and  C16_25 
ROOT
HETATM    1  N3  UNL     1       1.445  13.812  31.499  1.00  0.00     0.092 N 
HETATM    2  C10 UNL     1       2.128  14.135  30.222  1.00  0.00     0.275 C 
HETATM    3  C11 UNL     1       1.228  14.038  29.044  1.00  0.00     0.062 C 
HETATM    4  C12 UNL     1       0.038  14.931  29.121  1.00  0.00     0.132 C 
HETATM    5  C22 UNL     1      -0.696  14.599  30.430  1.00  0.00     0.062 C 
HETATM    6  C23 UNL     1       0.244  14.655  31.550  1.00  0.00     0.275 C 
ENDROOT
BRANCH   4   7
HETATM    7  O1  UNL     1      -0.833  14.710  28.057  1.00  0.00    -0.344 OA
BRANCH   7   8
HETATM    8  C13 UNL     1      -1.936  15.495  27.726  1.00  0.00     0.091 A 
HETATM    9  C14 UNL     1      -2.649  16.182  28.650  1.00  0.00     0.086 A 
HETATM   10  C15 UNL     1      -3.773  16.968  28.276  1.00  0.00     0.103 A 
HETATM   11  N6  UNL     1      -4.111  17.010  26.975  1.00  0.00    -0.351 N 
HETATM   12  C20 UNL     1      -3.393  16.321  26.061  1.00  0.00     0.111 A 
ATOM     13  H6  UNL     1      -4.914  17.566  26.677  1.00  0.00     0.166 HD
HETATM   14  C21 UNL     1      -2.303  15.554  26.381  1.00  0.00     0.059 A 
HETATM   15 BR1  UNL     1      -1.344  14.614  25.027  1.00  0.00    -0.047 Br
BRANCH  10  16
HETATM   16  N4  UNL     1      -4.372  17.583  29.182  1.00  0.00    -0.370 N 
ATOM     17  H4  UNL     1      -5.276  17.922  28.854  1.00  0.00     0.161 HD
BRANCH  16  18
HETATM   18  C16 UNL     1      -4.161  17.941  30.520  1.00  0.00     0.110 C 
HETATM   19  C17 UNL     1      -4.957  19.212  30.881  1.00  0.00     0.054 C 
HETATM   20  C18 UNL     1      -5.041  19.123  32.364  1.00  0.00     0.234 C 
HETATM   21  N5  UNL     1      -5.179  17.721  32.673  1.00  0.00    -0.073 N 
HETATM   22  C19 UNL     1      -4.604  16.985  31.578  1.00  0.00     0.257 C 
ATOM     23  H52 UNL     1      -4.778  17.471  33.577  1.00  0.00     0.277 HD
ATOM     24  H51 UNL     1      -6.141  17.449  32.875  1.00  0.00     0.277 HD
ENDBRANCH  16  18
ENDBRANCH  10  16
ENDBRANCH   7   8
ENDBRANCH   4   7
BRANCH   1  25
HETATM   25  C9  UNL     1       1.041  12.393  31.417  1.00  0.00     0.315 C 
BRANCH  25  26
HETATM   26  C8  UNL     1       0.647  11.785  32.675  1.00  0.00     0.024 A 
HETATM   27  C4  UNL     1      -0.491  11.000  32.644  1.00  0.00    -0.021 A 
HETATM   28  C2  UNL     1      -1.236  10.567  31.493  1.00  0.00    -0.077 C 
HETATM   29  C5  UNL     1      -0.868  10.443  33.899  1.00  0.00     0.029 A 
HETATM   30  C1  UNL     1      -2.729  10.325  31.721  1.00  0.00     0.044 C 
HETATM   31  C3  UNL     1      -0.906  10.782  30.092  1.00  0.00     0.044 C 
HETATM   32  C6  UNL     1      -0.162  10.662  35.042  1.00  0.00     0.090 A 
HETATM   33  N1  UNL     1       0.912  11.403  35.042  1.00  0.00    -0.352 N 
HETATM   34  C7  UNL     1       1.369  11.996  33.865  1.00  0.00     0.107 A 
ATOM     35  H1  UNL     1       1.423  11.550  35.912  1.00  0.00     0.166 HD
BRANCH  34  36
HETATM   36  N2  UNL     1       2.442  12.594  33.944  1.00  0.00    -0.385 N 
ATOM     37  H22 UNL     1       3.355  12.189  33.732  1.00  0.00     0.157 HD
ATOM     38  H21 UNL     1       2.400  13.539  34.326  1.00  0.00     0.157 HD
ENDBRANCH  34  36
ENDBRANCH  25  26
ENDBRANCH   1  25
TORSDOF 7
ENDMDL
MODEL 5
REMARK VINA RESULT: -7.728067816      4.563     10.360
REMARK  7 active torsions:
REMARK  status: ('A' for Active; 'I' for Inactive)
REMARK    1  A    between atoms: C7_9  and  N2_10 
REMARK    2  A    between atoms: C8_13  and  C9_14 
REMARK    3  A    between atoms: C9_14  and  N3_15 
REMARK    4  A    between atoms: C12_18  and  O1_19 
REMARK    5  A    between atoms: O1_19  and  C13_20 
REMARK    6  A    between atoms: C15_22  and  N4_23 
REMARK    7  A    between atoms: N4_23  and  C16_25 
ROOT
HETATM    1  N3  UNL     1       1.876  14.469  30.403  1.00  0.00     0.092 N 
HETATM    2  C10 UNL     1       1.657  15.829  29.850  1.00  0.00     0.275 C 
HETATM    3  C11 UNL     1       0.363  15.960  29.130  1.00  0.00     0.062 C 
HETATM    4  C12 UNL     1      -0.826  15.652  29.972  1.00  0.00     0.132 C 
HETATM    5  C22 UNL     1      -0.628  14.238  30.540  1.00  0.00     0.062 C 
HETATM    6  C23 UNL     1       0.680  14.145  31.189  1.00  0.00     0.275 C 
ENDROOT
BRANCH   4   7
HETATM    7  O1  UNL     1      -1.999  15.667  29.220  1.00  0.00    -0.344 OA
BRANCH   7   8
HETATM    8  C13 UNL     1      -3.028  16.600  29.327  1.00  0.00     0.091 A 
HETATM    9  C14 UNL     1      -3.352  17.201  30.496  1.00  0.00     0.086 A 
HETATM   10  C15 UNL     1      -4.413  18.144  30.569  1.00  0.00     0.103 A 
HETATM   11  N6  UNL     1      -5.090  18.424  29.441  1.00  0.00    -0.351 N 
HETATM   12  C20 UNL     1      -4.759  17.818  28.280  1.00  0.00     0.111 A 
ATOM     13  H6  UNL     1      -5.857  19.097  29.463  1.00  0.00     0.166 HD
HETATM   14  C21 UNL     1      -3.742  16.906  28.168  1.00  0.00     0.059 A 
HETATM   15 BR1  UNL     1      -3.340  16.098  26.488  1.00  0.00    -0.047 Br
BRANCH  10  16
HETATM   16  N4  UNL     1      -4.643  18.667  31.680  1.00  0.00    -0.370 N 
ATOM     17  H4  UNL     1      -3.821  19.159  32.027  1.00  0.00     0.161 HD
BRANCH  16  18
HETATM   18  C16 UNL     1      -5.706  18.771  32.586  1.00  0.00     0.110 C 
HETATM   19  C17 UNL     1      -6.594  19.988  32.254  1.00  0.00     0.054 C 
HETATM   20  C18 UNL     1      -7.875  19.638  32.925  1.00  0.00     0.234 C 
HETATM   21  N5  UNL     1      -8.022  18.210  32.787  1.00  0.00    -0.073 N 
HETATM   22  C19 UNL     1      -6.702  17.660  32.626  1.00  0.00     0.257 C 
ATOM     23  H52 UNL     1      -8.541  17.786  33.556  1.00  0.00     0.277 HD
ATOM     24  H51 UNL     1      -8.660  17.946  32.036  1.00  0.00     0.277 HD
ENDBRANCH  16  18
ENDBRANCH  10  16
ENDBRANCH   7   8
ENDBRANCH   4   7
BRANCH   1  25
HETATM   25  C9  UNL     1       1.963  13.552  29.247  1.00  0.00     0.315 C 
BRANCH  25  26
HETATM   26  C8  UNL     1       2.444  12.216  29.550  1.00  0.00     0.024 A 
HETATM   27  C4  UNL     1       1.642  11.169  29.135  1.00  0.00    -0.021 A 
HETATM   28  C2  UNL     1       0.479  11.226  28.291  1.00  0.00    -0.077 C 
HETATM   29  C5  UNL     1       2.126   9.873  29.473  1.00  0.00     0.029 A 
HETATM   30  C1  UNL     1      -0.569  10.138  28.528  1.00  0.00     0.044 C 
HETATM   31  C3  UNL     1      -0.062  12.391  27.605  1.00  0.00     0.044 C 
HETATM   32  C6  UNL     1       3.290   9.677  30.150  1.00  0.00     0.090 A 
HETATM   33  N1  UNL     1       4.031  10.683  30.525  1.00  0.00    -0.352 N 
HETATM   34  C7  UNL     1       3.649  11.995  30.244  1.00  0.00     0.107 A 
ATOM     35  H1  UNL     1       4.900  10.508  31.029  1.00  0.00     0.166 HD
BRANCH  34  36
HETATM   36  N2  UNL     1       4.459  12.870  30.549  1.00  0.00    -0.385 N 
ATOM     37  H22 UNL     1       5.420  12.701  30.846  1.00  0.00     0.157 HD
ATOM     38  H21 UNL     1       4.098  13.824  30.574  1.00  0.00     0.157 HD
ENDBRANCH  34  36
ENDBRANCH  25  26
ENDBRANCH   1  25
TORSDOF 7
ENDMDL
