MODEL 1
REMARK VINA RESULT: -6.710807259      0.000      0.000
REMARK  6 active torsions:
REMARK  status: ('A' for Active; 'I' for Inactive)
REMARK    1  A    between atoms: N2_4  and  O1_5 
REMARK    2  A    between atoms: N2_4  and  C1_7 
REMARK    3  A    between atoms: C2_10  and  N4_11 
REMARK    4  A    between atoms: N4_11  and  C3_13 
REMARK    5  A    between atoms: C3_13  and  C4_14 
REMARK    6  A    between atoms: C4_14  and  N5_15 
ROOT
HETATM    1  C1  UNL     1      72.248  42.420  76.576  1.00  0.00     0.753 A 
HETATM    2  N3  UNL     1      72.927  41.505  75.839  1.00  0.00    -0.016 N 
ATOM      3  H3  UNL     1      72.928  41.435  74.822  1.00  0.00     0.203 HD
HETATM    4  C2  UNL     1      73.605  40.700  76.693  1.00  0.00     0.707 A 
HETATM    5  N6  UNL     1      73.312  41.157  77.937  1.00  0.00    -0.117 N 
ATOM      6  H6  UNL     1      73.675  40.754  78.801  1.00  0.00     0.206 HD
HETATM    7  N7  UNL     1      72.502  42.186  77.882  1.00  0.00    -0.114 N 
ATOM      8  H7  UNL     1      72.132  42.710  78.675  1.00  0.00     0.206 HD
ENDROOT
BRANCH   4   9
HETATM    9  N4  UNL     1      74.371  39.702  76.353  1.00  0.00    -0.223 N 
ATOM     10  H4  UNL     1      74.604  39.506  75.379  1.00  0.00     0.177 HD
BRANCH   9  11
HETATM   11  C3  UNL     1      74.867  38.896  77.430  1.00  0.00     0.165 C 
BRANCH  11  12
HETATM   12  C4  UNL     1      76.314  39.019  77.726  1.00  0.00     0.249 C 
BRANCH  12  13
HETATM   13  N5  UNL     1      76.672  39.997  78.708  1.00  0.00    -0.078 N 
ATOM     14  H53 UNL     1      77.612  40.346  78.522  1.00  0.00     0.274 HD
ATOM     15  H52 UNL     1      76.129  40.848  78.564  1.00  0.00     0.274 HD
ATOM     16  H51 UNL     1      76.599  39.700  79.681  1.00  0.00     0.274 HD
ENDBRANCH  12  13
ENDBRANCH  11  12
ENDBRANCH   9  11
ENDBRANCH   4   9
BRANCH   1  17
HETATM   17  N2  UNL     1      71.400  43.467  76.121  1.00  0.00     0.011 N 
HETATM   18  N1  UNL     1      70.287  43.741  76.656  1.00  0.00    -0.304 N 
ATOM     19  H12 UNL     1      69.679  44.492  76.329  1.00  0.00     0.180 HD
ATOM     20  H11 UNL     1      69.979  43.185  77.454  1.00  0.00     0.180 HD
BRANCH  17  21
HETATM   21  O1  UNL     1      71.812  44.212  75.053  1.00  0.00    -0.255 OA
ATOM     22  H1  UNL     1      72.743  44.368  74.940  1.00  0.00     0.247 HD
ENDBRANCH  17  21
ENDBRANCH   1  17
TORSDOF 6
ENDMDL
MODEL 2
REMARK VINA RESULT: -6.619268098      0.693      1.294
REMARK  6 active torsions:
REMARK  status: ('A' for Active; 'I' for Inactive)
REMARK    1  A    between atoms: N2_4  and  O1_5 
REMARK    2  A    between atoms: N2_4  and  C1_7 
REMARK    3  A    between atoms: C2_10  and  N4_11 
REMARK    4  A    between atoms: N4_11  and  C3_13 
REMARK    5  A    between atoms: C3_13  and  C4_14 
REMARK    6  A    between atoms: C4_14  and  N5_15 
ROOT
HETATM    1  C1  UNL     1      72.283  42.243  76.485  1.00  0.00     0.753 A 
HETATM    2  N3  UNL     1      72.803  41.960  77.706  1.00  0.00    -0.016 N 
ATOM      3  H3  UNL     1      72.666  42.505  78.557  1.00  0.00     0.203 HD
HETATM    4  C2  UNL     1      73.536  40.825  77.595  1.00  0.00     0.707 A 
HETATM    5  N6  UNL     1      73.436  40.451  76.294  1.00  0.00    -0.117 N 
ATOM      6  H6  UNL     1      73.883  39.626  75.894  1.00  0.00     0.206 HD
HETATM    7  N7  UNL     1      72.690  41.291  75.619  1.00  0.00    -0.114 N 
ATOM      8  H7  UNL     1      72.460  41.235  74.626  1.00  0.00     0.206 HD
ENDROOT
BRANCH   4   9
HETATM    9  N4  UNL     1      74.188  40.242  78.561  1.00  0.00    -0.223 N 
ATOM     10  H4  UNL     1      74.266  40.659  79.489  1.00  0.00     0.177 HD
BRANCH   9  11
HETATM   11  C3  UNL     1      74.788  38.981  78.241  1.00  0.00     0.165 C 
BRANCH  11  12
HETATM   12  C4  UNL     1      76.269  38.931  78.289  1.00  0.00     0.249 C 
BRANCH  12  13
HETATM   13  N5  UNL     1      76.920  40.106  78.784  1.00  0.00    -0.078 N 
ATOM     14  H53 UNL     1      76.343  40.546  79.500  1.00  0.00     0.274 HD
ATOM     15  H52 UNL     1      77.733  39.844  79.340  1.00  0.00     0.274 HD
ATOM     16  H51 UNL     1      77.189  40.797  78.083  1.00  0.00     0.274 HD
ENDBRANCH  12  13
ENDBRANCH  11  12
ENDBRANCH   9  11
ENDBRANCH   4   9
BRANCH   1  17
HETATM   17  N2  UNL     1      71.450  43.335  76.111  1.00  0.00     0.011 N 
HETATM   18  N1  UNL     1      70.338  43.578  76.661  1.00  0.00    -0.304 N 
ATOM     19  H12 UNL     1      69.741  44.361  76.394  1.00  0.00     0.180 HD
ATOM     20  H11 UNL     1      70.018  42.963  77.410  1.00  0.00     0.180 HD
BRANCH  17  21
HETATM   21  O1  UNL     1      71.879  44.159  75.110  1.00  0.00    -0.255 OA
ATOM     22  H1  UNL     1      72.485  43.814  74.465  1.00  0.00     0.247 HD
ENDBRANCH  17  21
ENDBRANCH   1  17
TORSDOF 6
ENDMDL
MODEL 3
REMARK VINA RESULT: -6.241553816      2.777      4.128
REMARK  6 active torsions:
REMARK  status: ('A' for Active; 'I' for Inactive)
REMARK    1  A    between atoms: N2_4  and  O1_5 
REMARK    2  A    between atoms: N2_4  and  C1_7 
REMARK    3  A    between atoms: C2_10  and  N4_11 
REMARK    4  A    between atoms: N4_11  and  C3_13 
REMARK    5  A    between atoms: C3_13  and  C4_14 
REMARK    6  A    between atoms: C4_14  and  N5_15 
ROOT
HETATM    1  C1  UNL     1      74.257  39.989  78.402  1.00  0.00     0.753 A 
HETATM    2  N3  UNL     1      75.460  40.413  78.866  1.00  0.00    -0.016 N 
ATOM      3  H3  UNL     1      76.105  41.035  78.379  1.00  0.00     0.203 HD
HETATM    4  C2  UNL     1      75.653  39.865  80.090  1.00  0.00     0.707 A 
HETATM    5  N6  UNL     1      74.548  39.116  80.334  1.00  0.00    -0.117 N 
ATOM      6  H6  UNL     1      74.394  38.573  81.184  1.00  0.00     0.206 HD
HETATM    7  N7  UNL     1      73.705  39.181  79.333  1.00  0.00    -0.114 N 
ATOM      8  H7  UNL     1      72.802  38.711  79.268  1.00  0.00     0.206 HD
ENDROOT
BRANCH   4   9
HETATM    9  N4  UNL     1      76.699  40.043  80.848  1.00  0.00    -0.223 N 
ATOM     10  H4  UNL     1      76.827  40.891  81.401  1.00  0.00     0.177 HD
BRANCH   9  11
HETATM   11  C3  UNL     1      77.656  38.976  80.859  1.00  0.00     0.165 C 
BRANCH  11  12
HETATM   12  C4  UNL     1      78.835  39.147  79.976  1.00  0.00     0.249 C 
BRANCH  12  13
HETATM   13  N5  UNL     1      80.112  38.951  80.592  1.00  0.00    -0.078 N 
ATOM     14  H53 UNL     1      80.087  38.122  81.185  1.00  0.00     0.274 HD
ATOM     15  H52 UNL     1      80.792  38.654  79.892  1.00  0.00     0.274 HD
ATOM     16  H51 UNL     1      80.481  39.742  81.119  1.00  0.00     0.274 HD
ENDBRANCH  12  13
ENDBRANCH  11  12
ENDBRANCH   9  11
ENDBRANCH   4   9
BRANCH   1  17
HETATM   17  N2  UNL     1      73.628  40.300  77.165  1.00  0.00     0.011 N 
HETATM   18  N1  UNL     1      74.119  39.992  76.041  1.00  0.00    -0.304 N 
ATOM     19  H12 UNL     1      73.668  40.215  75.154  1.00  0.00     0.180 HD
ATOM     20  H11 UNL     1      75.011  39.498  76.017  1.00  0.00     0.180 HD
BRANCH  17  21
HETATM   21  O1  UNL     1      72.433  40.961  77.197  1.00  0.00    -0.255 OA
ATOM     22  H1  UNL     1      72.439  41.907  77.293  1.00  0.00     0.247 HD
ENDBRANCH  17  21
ENDBRANCH   1  17
TORSDOF 6
ENDMDL
MODEL 4
REMARK VINA RESULT: -6.230584843      2.545      4.955
REMARK  6 active torsions:
REMARK  status: ('A' for Active; 'I' for Inactive)
REMARK    1  A    between atoms: N2_4  and  O1_5 
REMARK    2  A    between atoms: N2_4  and  C1_7 
REMARK    3  A    between atoms: C2_10  and  N4_11 
REMARK    4  A    between atoms: N4_11  and  C3_13 
REMARK    5  A    between atoms: C3_13  and  C4_14 
REMARK    6  A    between atoms: C4_14  and  N5_15 
ROOT
HETATM    1  C1  UNL     1      73.856  40.017  77.807  1.00  0.00     0.753 A 
HETATM    2  N3  UNL     1      73.064  41.112  77.683  1.00  0.00    -0.016 N 
ATOM      3  H3  UNL     1      72.628  41.628  78.448  1.00  0.00     0.203 HD
HETATM    4  C2  UNL     1      72.954  41.401  76.364  1.00  0.00     0.707 A 
HETATM    5  N6  UNL     1      73.692  40.460  75.720  1.00  0.00    -0.117 N 
ATOM      6  H6  UNL     1      73.806  40.409  74.708  1.00  0.00     0.206 HD
HETATM    7  N7  UNL     1      74.236  39.627  76.572  1.00  0.00    -0.114 N 
ATOM      8  H7  UNL     1      74.835  38.832  76.345  1.00  0.00     0.206 HD
ENDROOT
BRANCH   4   9
HETATM    9  N4  UNL     1      72.272  42.388  75.854  1.00  0.00    -0.223 N 
ATOM     10  H4  UNL     1      72.207  42.537  74.846  1.00  0.00     0.177 HD
BRANCH   9  11
HETATM   11  C3  UNL     1      71.618  43.251  76.793  1.00  0.00     0.165 C 
BRANCH  11  12
HETATM   12  C4  UNL     1      72.270  44.558  77.044  1.00  0.00     0.249 C 
BRANCH  12  13
HETATM   13  N5  UNL     1      73.266  44.574  78.072  1.00  0.00    -0.078 N 
ATOM     14  H53 UNL     1      72.969  45.185  78.832  1.00  0.00     0.274 HD
ATOM     15  H52 UNL     1      73.282  43.676  78.554  1.00  0.00     0.274 HD
ATOM     16  H51 UNL     1      74.210  44.824  77.776  1.00  0.00     0.274 HD
ENDBRANCH  12  13
ENDBRANCH  11  12
ENDBRANCH   9  11
ENDBRANCH   4   9
BRANCH   1  17
HETATM   17  N2  UNL     1      74.254  39.346  78.996  1.00  0.00     0.011 N 
HETATM   18  N1  UNL     1      75.284  38.616  79.069  1.00  0.00    -0.304 N 
ATOM     19  H12 UNL     1      75.569  38.135  79.922  1.00  0.00     0.180 HD
ATOM     20  H11 UNL     1      75.860  38.500  78.235  1.00  0.00     0.180 HD
BRANCH  17  21
HETATM   21  O1  UNL     1      73.483  39.502  80.114  1.00  0.00    -0.255 OA
ATOM     22  H1  UNL     1      72.593  39.169  80.102  1.00  0.00     0.247 HD
ENDBRANCH  17  21
ENDBRANCH   1  17
TORSDOF 6
ENDMDL
MODEL 5
REMARK VINA RESULT: -6.221119397      1.698      2.499
REMARK  6 active torsions:
REMARK  status: ('A' for Active; 'I' for Inactive)
REMARK    1  A    between atoms: N2_4  and  O1_5 
REMARK    2  A    between atoms: N2_4  and  C1_7 
REMARK    3  A    between atoms: C2_10  and  N4_11 
REMARK    4  A    between atoms: N4_11  and  C3_13 
REMARK    5  A    between atoms: C3_13  and  C4_14 
REMARK    6  A    between atoms: C4_14  and  N5_15 
ROOT
HETATM    1  C1  UNL     1      73.238  40.978  77.129  1.00  0.00     0.753 A 
HETATM    2  N3  UNL     1      73.679  40.374  78.262  1.00  0.00    -0.016 N 
ATOM      3  H3  UNL     1      73.422  40.628  79.215  1.00  0.00     0.203 HD
HETATM    4  C2  UNL     1      74.520  39.375  77.902  1.00  0.00     0.707 A 
HETATM    5  N6  UNL     1      74.564  39.403  76.545  1.00  0.00    -0.117 N 
ATOM      6  H6  UNL     1      75.117  38.767  75.972  1.00  0.00     0.206 HD
HETATM    7  N7  UNL     1      73.802  40.358  76.070  1.00  0.00    -0.114 N 
ATOM      8  H7  UNL     1      73.661  40.589  75.087  1.00  0.00     0.206 HD
ENDROOT
BRANCH   4   9
HETATM    9  N4  UNL     1      75.141  38.570  78.719  1.00  0.00    -0.223 N 
ATOM     10  H4  UNL     1      74.648  37.848  79.244  1.00  0.00     0.177 HD
BRANCH   9  11
HETATM   11  C3  UNL     1      76.556  38.762  78.834  1.00  0.00     0.165 C 
BRANCH  11  12
HETATM   12  C4  UNL     1      77.092  38.867  80.212  1.00  0.00     0.249 C 
BRANCH  12  13
HETATM   13  N5  UNL     1      76.751  40.059  80.929  1.00  0.00    -0.078 N 
ATOM     14  H53 UNL     1      76.889  40.873  80.331  1.00  0.00     0.274 HD
ATOM     15  H52 UNL     1      75.742  40.103  81.067  1.00  0.00     0.274 HD
ATOM     16  H51 UNL     1      77.229  40.197  81.819  1.00  0.00     0.274 HD
ENDBRANCH  12  13
ENDBRANCH  11  12
ENDBRANCH   9  11
ENDBRANCH   4   9
BRANCH   1  17
HETATM   17  N2  UNL     1      72.342  42.076  77.005  1.00  0.00     0.011 N 
HETATM   18  N1  UNL     1      72.063  42.622  75.899  1.00  0.00    -0.304 N 
ATOM     19  H12 UNL     1      71.420  43.409  75.810  1.00  0.00     0.180 HD
ATOM     20  H11 UNL     1      72.501  42.261  75.052  1.00  0.00     0.180 HD
BRANCH  17  21
HETATM   21  O1  UNL     1      71.754  42.560  78.140  1.00  0.00    -0.255 OA
ATOM     22  H1  UNL     1      72.311  42.814  78.867  1.00  0.00     0.247 HD
ENDBRANCH  17  21
ENDBRANCH   1  17
TORSDOF 6
ENDMDL
