MODEL 1
REMARK VINA RESULT: -5.018585473      0.000      0.000
REMARK  6 active torsions:
REMARK  status: ('A' for Active; 'I' for Inactive)
REMARK    1  A    between atoms: N1_2  and  C2_4 
REMARK    2  A    between atoms: C3_7  and  N3_8 
REMARK    3  A    between atoms: N5_13  and  C4_14 
REMARK    4  A    between atoms: C4_14  and  C5_15 
REMARK    5  A    between atoms: C5_15  and  C6_16 
REMARK    6  A    between atoms: C6_16  and  N6_17 
ROOT
HETATM    1  C2  UNL     1      71.059  44.037  77.259  1.00  0.00     0.709 A 
HETATM    2  N2  UNL     1      71.185  42.928  76.486  1.00  0.00    -0.020 N 
ATOM      3  H2  UNL     1      70.436  42.473  75.963  1.00  0.00     0.203 HD
HETATM    4  C3  UNL     1      72.469  42.536  76.528  1.00  0.00     0.705 A 
HETATM    5  N4  UNL     1      73.119  43.404  77.324  1.00  0.00    -0.115 N 
ATOM      6  H4  UNL     1      74.113  43.365  77.548  1.00  0.00     0.206 HD
HETATM    7  N5  UNL     1      72.268  44.322  77.775  1.00  0.00    -0.109 N 
ENDROOT
BRANCH   7   8
HETATM    8  C4  UNL     1      72.594  45.409  78.646  1.00  0.00     0.170 C 
BRANCH   8   9
HETATM    9  C5  UNL     1      73.432  46.408  77.835  1.00  0.00     0.050 C 
BRANCH   9  10
HETATM   10  C6  UNL     1      72.586  47.687  77.780  1.00  0.00     0.231 C 
BRANCH  10  11
HETATM   11  N6  UNL     1      71.769  47.568  76.586  1.00  0.00    -0.079 N 
ATOM     12  H63 UNL     1      72.265  47.801  75.726  1.00  0.00     0.274 HD
ATOM     13  H62 UNL     1      71.544  46.604  76.339  1.00  0.00     0.274 HD
ATOM     14  H61 UNL     1      70.947  48.148  76.754  1.00  0.00     0.274 HD
ENDBRANCH  10  11
ENDBRANCH   9  10
ENDBRANCH   8   9
ENDBRANCH   7   8
BRANCH   1  15
HETATM   15  N1  UNL     1      69.992  44.720  77.482  1.00  0.00    -0.228 N 
HETATM   16  C1  UNL     1      69.063  44.418  78.530  1.00  0.00     0.165 C 
ATOM     17  H1  UNL     1      69.797  45.520  76.880  1.00  0.00     0.177 HD
ENDBRANCH   1  15
BRANCH   4  18
HETATM   18  N3  UNL     1      72.944  41.506  75.901  1.00  0.00    -0.233 N 
ATOM     19  H32 UNL     1      72.436  40.716  75.502  1.00  0.00     0.174 HD
ATOM     20  H31 UNL     1      73.935  41.346  75.719  1.00  0.00     0.174 HD
ENDBRANCH   4  18
TORSDOF 6
ENDMDL
MODEL 2
REMARK VINA RESULT: -4.944393644      5.608      7.029
REMARK  6 active torsions:
REMARK  status: ('A' for Active; 'I' for Inactive)
REMARK    1  A    between atoms: N1_2  and  C2_4 
REMARK    2  A    between atoms: C3_7  and  N3_8 
REMARK    3  A    between atoms: N5_13  and  C4_14 
REMARK    4  A    between atoms: C4_14  and  C5_15 
REMARK    5  A    between atoms: C5_15  and  C6_16 
REMARK    6  A    between atoms: C6_16  and  N6_17 
ROOT
HETATM    1  C2  UNL     1      74.661  39.514  78.784  1.00  0.00     0.709 A 
HETATM    2  N2  UNL     1      73.786  40.034  77.886  1.00  0.00    -0.020 N 
ATOM      3  H2  UNL     1      72.888  40.467  78.105  1.00  0.00     0.203 HD
HETATM    4  C3  UNL     1      74.308  39.880  76.659  1.00  0.00     0.705 A 
HETATM    5  N4  UNL     1      75.497  39.269  76.812  1.00  0.00    -0.115 N 
ATOM      6  H4  UNL     1      76.132  39.019  76.054  1.00  0.00     0.206 HD
HETATM    7  N5  UNL     1      75.721  39.042  78.104  1.00  0.00    -0.109 N 
ENDROOT
BRANCH   7   8
HETATM    8  C4  UNL     1      76.882  38.411  78.654  1.00  0.00     0.170 C 
BRANCH   8   9
HETATM    9  C5  UNL     1      77.911  39.515  78.933  1.00  0.00     0.050 C 
BRANCH   9  10
HETATM   10  C6  UNL     1      78.451  39.212  80.337  1.00  0.00     0.231 C 
BRANCH  10  11
HETATM   11  N6  UNL     1      77.627  39.982  81.251  1.00  0.00    -0.079 N 
ATOM     12  H63 UNL     1      77.582  40.975  81.023  1.00  0.00     0.274 HD
ATOM     13  H62 UNL     1      76.629  39.792  81.160  1.00  0.00     0.274 HD
ATOM     14  H61 UNL     1      77.996  39.793  82.182  1.00  0.00     0.274 HD
ENDBRANCH  10  11
ENDBRANCH   9  10
ENDBRANCH   8   9
ENDBRANCH   7   8
BRANCH   1  15
HETATM   15  N1  UNL     1      74.535  39.465  80.063  1.00  0.00    -0.228 N 
HETATM   16  C1  UNL     1      73.271  39.477  80.736  1.00  0.00     0.165 C 
ATOM     17  H1  UNL     1      75.382  39.415  80.629  1.00  0.00     0.177 HD
ENDBRANCH   1  15
BRANCH   4  18
HETATM   18  N3  UNL     1      73.736  40.265  75.562  1.00  0.00    -0.233 N 
ATOM     19  H32 UNL     1      74.165  40.678  74.734  1.00  0.00     0.174 HD
ATOM     20  H31 UNL     1      72.734  40.204  75.380  1.00  0.00     0.174 HD
ENDBRANCH   4  18
TORSDOF 6
ENDMDL
MODEL 3
REMARK VINA RESULT: -4.891542323      4.226      6.539
REMARK  6 active torsions:
REMARK  status: ('A' for Active; 'I' for Inactive)
REMARK    1  A    between atoms: N1_2  and  C2_4 
REMARK    2  A    between atoms: C3_7  and  N3_8 
REMARK    3  A    between atoms: N5_13  and  C4_14 
REMARK    4  A    between atoms: C4_14  and  C5_15 
REMARK    5  A    between atoms: C5_15  and  C6_16 
REMARK    6  A    between atoms: C6_16  and  N6_17 
ROOT
HETATM    1  C2  UNL     1      73.657  39.916  78.474  1.00  0.00     0.709 A 
HETATM    2  N2  UNL     1      73.033  41.020  77.990  1.00  0.00    -0.020 N 
ATOM      3  H2  UNL     1      72.448  41.662  78.526  1.00  0.00     0.203 HD
HETATM    4  C3  UNL     1      73.319  41.120  76.682  1.00  0.00     0.705 A 
HETATM    5  N4  UNL     1      74.116  40.081  76.374  1.00  0.00    -0.115 N 
ATOM      6  H4  UNL     1      74.500  39.889  75.449  1.00  0.00     0.206 HD
HETATM    7  N5  UNL     1      74.327  39.341  77.459  1.00  0.00    -0.109 N 
ENDROOT
BRANCH   7   8
HETATM    8  C4  UNL     1      75.125  38.155  77.521  1.00  0.00     0.170 C 
BRANCH   8   9
HETATM    9  C5  UNL     1      76.570  38.560  77.200  1.00  0.00     0.050 C 
BRANCH   9  10
HETATM   10  C6  UNL     1      77.220  38.838  78.562  1.00  0.00     0.231 C 
BRANCH  10  11
HETATM   11  N6  UNL     1      77.732  40.195  78.485  1.00  0.00    -0.079 N 
ATOM     12  H63 UNL     1      77.847  40.534  77.530  1.00  0.00     0.274 HD
ATOM     13  H62 UNL     1      77.061  40.902  78.785  1.00  0.00     0.274 HD
ATOM     14  H61 UNL     1      78.596  40.195  79.026  1.00  0.00     0.274 HD
ENDBRANCH  10  11
ENDBRANCH   9  10
ENDBRANCH   8   9
ENDBRANCH   7   8
BRANCH   1  15
HETATM   15  N1  UNL     1      73.638  39.469  79.680  1.00  0.00    -0.228 N 
HETATM   16  C1  UNL     1      74.790  39.436  80.531  1.00  0.00     0.165 C 
ATOM     17  H1  UNL     1      72.754  39.119  80.050  1.00  0.00     0.177 HD
ENDBRANCH   1  15
BRANCH   4  18
HETATM   18  N3  UNL     1      72.885  42.061  75.904  1.00  0.00    -0.233 N 
ATOM     19  H32 UNL     1      72.267  42.840  76.134  1.00  0.00     0.174 HD
ATOM     20  H31 UNL     1      73.117  42.147  74.914  1.00  0.00     0.174 HD
ENDBRANCH   4  18
TORSDOF 6
ENDMDL
MODEL 4
REMARK VINA RESULT: -4.879783448      4.959      7.193
REMARK  6 active torsions:
REMARK  status: ('A' for Active; 'I' for Inactive)
REMARK    1  A    between atoms: N1_2  and  C2_4 
REMARK    2  A    between atoms: C3_7  and  N3_8 
REMARK    3  A    between atoms: N5_13  and  C4_14 
REMARK    4  A    between atoms: C4_14  and  C5_15 
REMARK    5  A    between atoms: C5_15  and  C6_16 
REMARK    6  A    between atoms: C6_16  and  N6_17 
ROOT
HETATM    1  C2  UNL     1      76.395  39.505  78.934  1.00  0.00     0.709 A 
HETATM    2  N2  UNL     1      76.669  39.279  80.245  1.00  0.00    -0.020 N 
ATOM      3  H2  UNL     1      77.594  39.288  80.674  1.00  0.00     0.203 HD
HETATM    4  C3  UNL     1      75.508  39.040  80.877  1.00  0.00     0.705 A 
HETATM    5  N4  UNL     1      74.533  39.123  79.953  1.00  0.00    -0.115 N 
ATOM      6  H4  UNL     1      73.539  38.990  80.135  1.00  0.00     0.206 HD
HETATM    7  N5  UNL     1      75.064  39.405  78.767  1.00  0.00    -0.109 N 
ENDROOT
BRANCH   7   8
HETATM    8  C4  UNL     1      74.339  39.572  77.544  1.00  0.00     0.170 C 
BRANCH   8   9
HETATM    9  C5  UNL     1      73.236  40.607  77.805  1.00  0.00     0.050 C 
BRANCH   9  10
HETATM   10  C6  UNL     1      72.911  41.202  76.428  1.00  0.00     0.231 C 
BRANCH  10  11
HETATM   11  N6  UNL     1      73.659  40.408  75.470  1.00  0.00    -0.079 N 
ATOM     12  H63 UNL     1      73.118  40.145  74.647  1.00  0.00     0.274 HD
ATOM     13  H62 UNL     1      74.381  40.935  74.978  1.00  0.00     0.274 HD
ATOM     14  H61 UNL     1      74.021  39.612  75.994  1.00  0.00     0.274 HD
ENDBRANCH  10  11
ENDBRANCH   9  10
ENDBRANCH   8   9
ENDBRANCH   7   8
BRANCH   1  15
HETATM   15  N1  UNL     1      77.230  39.772  77.993  1.00  0.00    -0.228 N 
HETATM   16  C1  UNL     1      78.597  40.131  78.226  1.00  0.00     0.165 C 
ATOM     17  H1  UNL     1      76.901  39.725  77.029  1.00  0.00     0.177 HD
ENDBRANCH   1  15
BRANCH   4  18
HETATM   18  N3  UNL     1      75.400  38.785  82.142  1.00  0.00    -0.233 N 
ATOM     19  H32 UNL     1      75.158  37.902  82.593  1.00  0.00     0.174 HD
ATOM     20  H31 UNL     1      75.547  39.468  82.885  1.00  0.00     0.174 HD
ENDBRANCH   4  18
TORSDOF 6
ENDMDL
MODEL 5
REMARK VINA RESULT: -4.807415551      5.752      8.017
REMARK  6 active torsions:
REMARK  status: ('A' for Active; 'I' for Inactive)
REMARK    1  A    between atoms: N1_2  and  C2_4 
REMARK    2  A    between atoms: C3_7  and  N3_8 
REMARK    3  A    between atoms: N5_13  and  C4_14 
REMARK    4  A    between atoms: C4_14  and  C5_15 
REMARK    5  A    between atoms: C5_15  and  C6_16 
REMARK    6  A    between atoms: C6_16  and  N6_17 
ROOT
HETATM    1  C2  UNL     1      77.089  39.616  79.088  1.00  0.00     0.709 A 
HETATM    2  N2  UNL     1      76.995  39.771  80.434  1.00  0.00    -0.020 N 
ATOM      3  H2  UNL     1      77.540  40.419  81.002  1.00  0.00     0.203 HD
HETATM    4  C3  UNL     1      76.059  38.920  80.886  1.00  0.00     0.705 A 
HETATM    5  N4  UNL     1      75.585  38.253  79.817  1.00  0.00    -0.115 N 
ATOM      6  H4  UNL     1      74.860  37.537  79.846  1.00  0.00     0.206 HD
HETATM    7  N5  UNL     1      76.207  38.670  78.718  1.00  0.00    -0.109 N 
ENDROOT
BRANCH   7   8
HETATM    8  C4  UNL     1      75.970  38.191  77.390  1.00  0.00     0.170 C 
BRANCH   8   9
HETATM    9  C5  UNL     1      74.451  38.187  77.171  1.00  0.00     0.050 C 
BRANCH   9  10
HETATM   10  C6  UNL     1      74.035  39.663  77.227  1.00  0.00     0.231 C 
BRANCH  10  11
HETATM   11  N6  UNL     1      74.015  40.118  75.848  1.00  0.00    -0.079 N 
ATOM     12  H63 UNL     1      74.595  40.940  75.680  1.00  0.00     0.274 HD
ATOM     13  H62 UNL     1      74.499  39.493  75.205  1.00  0.00     0.274 HD
ATOM     14  H61 UNL     1      73.031  40.258  75.618  1.00  0.00     0.274 HD
ENDBRANCH  10  11
ENDBRANCH   9  10
ENDBRANCH   8   9
ENDBRANCH   7   8
BRANCH   1  15
HETATM   15  N1  UNL     1      77.867  40.244  78.279  1.00  0.00    -0.228 N 
HETATM   16  C1  UNL     1      79.294  40.248  78.397  1.00  0.00     0.165 C 
ATOM     17  H1  UNL     1      77.444  40.767  77.512  1.00  0.00     0.177 HD
ENDBRANCH   1  15
BRANCH   4  18
HETATM   18  N3  UNL     1      75.711  38.803  82.128  1.00  0.00    -0.233 N 
ATOM     19  H32 UNL     1      74.974  39.299  82.631  1.00  0.00     0.174 HD
ATOM     20  H31 UNL     1      76.152  38.170  82.795  1.00  0.00     0.174 HD
ENDBRANCH   4  18
TORSDOF 6
ENDMDL
