MODEL 1
REMARK VINA RESULT: -9.869570539      0.000      0.000
REMARK  8 active torsions:
REMARK  status: ('A' for Active; 'I' for Inactive)
REMARK    1  A    between atoms: C4_11  and  C5_12 
REMARK    2  A    between atoms: C5_12  and  N5_13 
REMARK    3  A    between atoms: C6_16  and  C7_17 
REMARK    4  A    between atoms: C8_22  and  S1_23 
REMARK    5  A    between atoms: S1_23  and  C9_24 
REMARK    6  A    between atoms: C9_24  and  C10_25 
REMARK       I    between atoms: C10_25  and  N8_27 
REMARK    7  A    between atoms: N8_27  and  C11_29 
REMARK    8  A    between atoms: C13_37  and  N12_38 
ROOT
HETATM    1  N5  UNL     1     -13.547 -12.067  13.340  1.00  0.00    -0.296 NA
HETATM    2  O1  UNL     1     -13.552 -12.857  14.303  1.00  0.00    -0.219 OA
ATOM      3  H1  UNL     1     -13.537 -13.457  15.040  1.00  0.00     0.261 HD
ENDROOT
BRANCH   1   4
HETATM    4  C5  UNL     1     -13.566 -11.311  12.411  1.00  0.00     0.232 C 
BRANCH   4   5
HETATM    5  C4  UNL     1     -14.444 -11.405  11.249  1.00  0.00     0.041 A 
HETATM    6  C3  UNL     1     -15.045 -12.615  10.900  1.00  0.00     0.101 A 
HETATM    7  C2  UNL     1     -15.950 -12.754   9.861  1.00  0.00     0.143 A 
HETATM    8  N4  UNL     1     -14.716 -13.773  11.650  1.00  0.00    -0.098 NA
HETATM    9  N2  UNL     1     -16.260 -11.665   9.161  1.00  0.00    -0.329 N 
HETATM   10  N3  UNL     1     -16.507 -14.045   9.599  1.00  0.00    -0.081 NA
HETATM   11  C1  UNL     1     -15.707 -10.464   9.450  1.00  0.00     0.115 A 
ATOM     12  H2  UNL     1     -16.926 -11.737   8.392  1.00  0.00     0.168 HD
HETATM   13  N1  UNL     1     -16.068  -9.523   8.657  1.00  0.00    -0.385 N 
HETATM   14  C6  UNL     1     -14.798 -10.317  10.490  1.00  0.00     0.075 A 
ATOM     15  H12 UNL     1     -16.736  -9.631   7.893  1.00  0.00     0.157 HD
ATOM     16  H11 UNL     1     -15.652  -8.618   8.875  1.00  0.00     0.157 HD
BRANCH  14  17
HETATM   17  C7  UNL     1     -14.330  -8.983  10.775  1.00  0.00     0.180 A 
HETATM   18  N6  UNL     1     -14.999  -8.004  11.386  1.00  0.00    -0.276 N 
HETATM   19  N7  UNL     1     -14.229  -6.959  11.474  1.00  0.00    -0.272 N 
ATOM     20  H6  UNL     1     -15.957  -8.065  11.727  1.00  0.00     0.189 HD
HETATM   21  C8  UNL     1     -13.024  -7.255  10.904  1.00  0.00     0.204 A 
ATOM     22  H7  UNL     1     -14.483  -6.068  11.898  1.00  0.00     0.189 HD
HETATM   23  O4  UNL     1     -13.134  -8.469  10.504  1.00  0.00    -0.267 OA
BRANCH  21  24
HETATM   24  S1  UNL     1     -11.721  -6.061  10.843  1.00  0.00    -0.075 SA
BRANCH  24  25
HETATM   25  C9  UNL     1     -12.113  -4.508  11.694  1.00  0.00     0.186 C 
BRANCH  25  26
HETATM   26  C10 UNL     1     -12.680  -3.605  10.672  1.00  0.00     0.233 C 
HETATM   27  O2  UNL     1     -12.243  -3.657   9.458  1.00  0.00    -0.272 OA
HETATM   28  N8  UNL     1     -13.685  -2.652  10.918  1.00  0.00    -0.309 N 
ATOM     29  H8  UNL     1     -13.980  -2.058  10.143  1.00  0.00     0.170 HD
BRANCH  28  30
HETATM   30  C11 UNL     1     -14.312  -2.466  12.168  1.00  0.00     0.160 A 
HETATM   31  N9  UNL     1     -13.961  -1.601  13.112  1.00  0.00    -0.223 N 
HETATM   32  O3  UNL     1     -14.582  -1.513  14.232  1.00  0.00    -0.154 OA
ATOM     33  H9  UNL     1     -13.169  -0.983  12.940  1.00  0.00     0.198 HD
HETATM   34  N10 UNL     1     -15.602  -2.242  14.562  1.00  0.00    -0.225 N 
HETATM   35  C12 UNL     1     -16.037  -3.152  13.672  1.00  0.00     0.168 A 
ATOM     36  H10 UNL     1     -16.059  -2.130  15.467  1.00  0.00     0.198 HD
HETATM   37  N11 UNL     1     -17.167  -3.986  13.954  1.00  0.00    -0.078 NA
HETATM   38  C13 UNL     1     -15.414  -3.298  12.453  1.00  0.00     0.115 A 
BRANCH  38  39
HETATM   39  N12 UNL     1     -15.814  -4.146  11.592  1.00  0.00    -0.393 N 
ATOM     40 2H12 UNL     1     -16.119  -3.864  10.660  1.00  0.00     0.156 HD
ATOM     41 1H12 UNL     1     -15.829  -5.140  11.820  1.00  0.00     0.156 HD
ENDBRANCH  38  39
ENDBRANCH  28  30
ENDBRANCH  25  26
ENDBRANCH  24  25
ENDBRANCH  21  24
ENDBRANCH  14  17
ENDBRANCH   4   5
ENDBRANCH   1   4
TORSDOF 8
ENDMDL
MODEL 2
REMARK VINA RESULT: -9.573615786      0.804      1.361
REMARK  8 active torsions:
REMARK  status: ('A' for Active; 'I' for Inactive)
REMARK    1  A    between atoms: C4_11  and  C5_12 
REMARK    2  A    between atoms: C5_12  and  N5_13 
REMARK    3  A    between atoms: C6_16  and  C7_17 
REMARK    4  A    between atoms: C8_22  and  S1_23 
REMARK    5  A    between atoms: S1_23  and  C9_24 
REMARK    6  A    between atoms: C9_24  and  C10_25 
REMARK       I    between atoms: C10_25  and  N8_27 
REMARK    7  A    between atoms: N8_27  and  C11_29 
REMARK    8  A    between atoms: C13_37  and  N12_38 
ROOT
HETATM    1  N5  UNL     1     -13.568 -12.175  13.265  1.00  0.00    -0.296 NA
HETATM    2  O1  UNL     1     -13.555 -12.919  14.263  1.00  0.00    -0.219 OA
ATOM      3  H1  UNL     1     -13.538 -13.502  15.014  1.00  0.00     0.261 HD
ENDROOT
BRANCH   1   4
HETATM    4  C5  UNL     1     -13.590 -11.440  12.320  1.00  0.00     0.232 C 
BRANCH   4   5
HETATM    5  C4  UNL     1     -14.491 -11.543  11.176  1.00  0.00     0.041 A 
HETATM    6  C3  UNL     1     -15.100 -12.756  10.849  1.00  0.00     0.101 A 
HETATM    7  C2  UNL     1     -16.026 -12.903   9.830  1.00  0.00     0.143 A 
HETATM    8  N4  UNL     1     -14.757 -13.907  11.603  1.00  0.00    -0.098 NA
HETATM    9  N2  UNL     1     -16.349 -11.819   9.127  1.00  0.00    -0.329 N 
HETATM   10  N3  UNL     1     -16.589 -14.196   9.590  1.00  0.00    -0.081 NA
HETATM   11  C1  UNL     1     -15.790 -10.616   9.395  1.00  0.00     0.115 A 
ATOM     12  H2  UNL     1     -17.030 -11.898   8.372  1.00  0.00     0.168 HD
HETATM   13  N1  UNL     1     -16.166  -9.683   8.601  1.00  0.00    -0.385 N 
HETATM   14  C6  UNL     1     -14.860 -10.461  10.415  1.00  0.00     0.075 A 
ATOM     15  H12 UNL     1     -16.849  -9.796   7.852  1.00  0.00     0.157 HD
ATOM     16  H11 UNL     1     -15.745  -8.775   8.802  1.00  0.00     0.157 HD
BRANCH  14  17
HETATM   17  C7  UNL     1     -14.385  -9.125  10.679  1.00  0.00     0.180 A 
HETATM   18  N6  UNL     1     -15.067  -8.118  11.226  1.00  0.00    -0.276 N 
HETATM   19  N7  UNL     1     -14.286  -7.082  11.317  1.00  0.00    -0.272 N 
ATOM     20  H6  UNL     1     -16.041  -8.154  11.523  1.00  0.00     0.189 HD
HETATM   21  C8  UNL     1     -13.060  -7.412  10.815  1.00  0.00     0.204 A 
ATOM     22  H7  UNL     1     -14.546  -6.173  11.700  1.00  0.00     0.189 HD
HETATM   23  O4  UNL     1     -13.170  -8.637  10.448  1.00  0.00    -0.267 OA
BRANCH  21  24
HETATM   24  S1  UNL     1     -11.738  -6.239  10.777  1.00  0.00    -0.075 SA
BRANCH  24  25
HETATM   25  C9  UNL     1     -12.102  -4.700  11.664  1.00  0.00     0.186 C 
BRANCH  25  26
HETATM   26  C10 UNL     1     -12.748  -3.799  10.688  1.00  0.00     0.233 C 
HETATM   27  O2  UNL     1     -12.124  -3.475   9.606  1.00  0.00    -0.272 OA
HETATM   28  N8  UNL     1     -14.029  -3.238  10.845  1.00  0.00    -0.309 N 
ATOM     29  H8  UNL     1     -14.364  -2.602  10.120  1.00  0.00     0.170 HD
BRANCH  28  30
HETATM   30  C11 UNL     1     -14.880  -3.498  11.941  1.00  0.00     0.160 A 
HETATM   31  N9  UNL     1     -15.765  -4.481  12.042  1.00  0.00    -0.223 N 
HETATM   32  O3  UNL     1     -16.513  -4.632  13.075  1.00  0.00    -0.154 OA
ATOM     33  H9  UNL     1     -15.854  -5.143  11.271  1.00  0.00     0.198 HD
HETATM   34  N10 UNL     1     -16.489  -3.857  14.114  1.00  0.00    -0.225 N 
HETATM   35  C12 UNL     1     -15.624  -2.827  14.110  1.00  0.00     0.168 A 
ATOM     36  H10 UNL     1     -17.106  -4.023  14.910  1.00  0.00     0.198 HD
HETATM   37  N11 UNL     1     -15.524  -1.935  15.225  1.00  0.00    -0.078 NA
HETATM   38  C13 UNL     1     -14.794  -2.610  13.032  1.00  0.00     0.115 A 
BRANCH  38  39
HETATM   39  N12 UNL     1     -13.961  -1.647  13.010  1.00  0.00    -0.393 N 
ATOM     40 2H12 UNL     1     -12.965  -1.794  13.172  1.00  0.00     0.156 HD
ATOM     41 1H12 UNL     1     -14.280  -0.698  12.818  1.00  0.00     0.156 HD
ENDBRANCH  38  39
ENDBRANCH  28  30
ENDBRANCH  25  26
ENDBRANCH  24  25
ENDBRANCH  21  24
ENDBRANCH  14  17
ENDBRANCH   4   5
ENDBRANCH   1   4
TORSDOF 8
ENDMDL
MODEL 3
REMARK VINA RESULT: -9.529738254      1.210      1.210
REMARK  8 active torsions:
REMARK  status: ('A' for Active; 'I' for Inactive)
REMARK    1  A    between atoms: C4_11  and  C5_12 
REMARK    2  A    between atoms: C5_12  and  N5_13 
REMARK    3  A    between atoms: C6_16  and  C7_17 
REMARK    4  A    between atoms: C8_22  and  S1_23 
REMARK    5  A    between atoms: S1_23  and  C9_24 
REMARK    6  A    between atoms: C9_24  and  C10_25 
REMARK       I    between atoms: C10_25  and  N8_27 
REMARK    7  A    between atoms: N8_27  and  C11_29 
REMARK    8  A    between atoms: C13_37  and  N12_38 
ROOT
HETATM    1  N5  UNL     1     -13.491 -12.013  13.186  1.00  0.00    -0.296 NA
HETATM    2  O1  UNL     1     -13.507 -12.703  14.222  1.00  0.00    -0.219 OA
ATOM      3  H1  UNL     1     -13.500 -13.227  15.015  1.00  0.00     0.261 HD
ENDROOT
BRANCH   1   4
HETATM    4  C5  UNL     1     -13.500 -11.352  12.187  1.00  0.00     0.232 C 
BRANCH   4   5
HETATM    5  C4  UNL     1     -14.545 -11.356  11.168  1.00  0.00     0.041 A 
HETATM    6  C3  UNL     1     -15.269 -12.516  10.885  1.00  0.00     0.101 A 
HETATM    7  C2  UNL     1     -16.325 -12.566   9.992  1.00  0.00     0.143 A 
HETATM    8  N4  UNL     1     -14.908 -13.714  11.552  1.00  0.00    -0.098 NA
HETATM    9  N2  UNL     1     -16.664 -11.439   9.370  1.00  0.00    -0.329 N 
HETATM   10  N3  UNL     1     -16.997 -13.812   9.788  1.00  0.00    -0.081 NA
HETATM   11  C1  UNL     1     -15.998 -10.283   9.600  1.00  0.00     0.115 A 
ATOM     12  H2  UNL     1     -17.440 -11.446   8.709  1.00  0.00     0.168 HD
HETATM   13  N1  UNL     1     -16.411  -9.298   8.891  1.00  0.00    -0.385 N 
HETATM   14  C6  UNL     1     -14.937 -10.225  10.495  1.00  0.00     0.075 A 
ATOM     15  H12 UNL     1     -17.190  -9.341   8.234  1.00  0.00     0.157 HD
ATOM     16  H11 UNL     1     -15.910  -8.427   9.064  1.00  0.00     0.157 HD
BRANCH  14  17
HETATM   17  C7  UNL     1     -14.346  -8.932  10.736  1.00  0.00     0.180 A 
HETATM   18  N6  UNL     1     -13.214  -8.451  10.222  1.00  0.00    -0.276 N 
HETATM   19  N7  UNL     1     -13.031  -7.241  10.663  1.00  0.00    -0.272 N 
ATOM     20  H6  UNL     1     -12.592  -8.951   9.587  1.00  0.00     0.189 HD
HETATM   21  C8  UNL     1     -14.067  -6.917  11.491  1.00  0.00     0.204 A 
ATOM     22  H7  UNL     1     -12.245  -6.635  10.429  1.00  0.00     0.189 HD
HETATM   23  O4  UNL     1     -14.822  -7.954  11.502  1.00  0.00    -0.267 OA
BRANCH  21  24
HETATM   24  S1  UNL     1     -14.151  -5.335  12.278  1.00  0.00    -0.075 SA
BRANCH  24  25
HETATM   25  C9  UNL     1     -12.650  -4.339  12.077  1.00  0.00     0.186 C 
BRANCH  25  26
HETATM   26  C10 UNL     1     -12.856  -3.513  10.870  1.00  0.00     0.233 C 
HETATM   27  O2  UNL     1     -12.255  -3.823   9.771  1.00  0.00    -0.272 OA
HETATM   28  N8  UNL     1     -13.677  -2.371  10.815  1.00  0.00    -0.309 N 
ATOM     29  H8  UNL     1     -13.721  -1.857   9.935  1.00  0.00     0.170 HD
BRANCH  28  30
HETATM   30  C11 UNL     1     -14.442  -1.891  11.900  1.00  0.00     0.160 A 
HETATM   31  N9  UNL     1     -13.979  -1.374  13.031  1.00  0.00    -0.223 N 
HETATM   32  O3  UNL     1     -14.752  -0.977  13.976  1.00  0.00    -0.154 OA
ATOM     33  H9  UNL     1     -12.970  -1.288  13.154  1.00  0.00     0.198 HD
HETATM   34  N10 UNL     1     -16.047  -1.035  13.933  1.00  0.00    -0.225 N 
HETATM   35  C12 UNL     1     -16.617  -1.544  12.826  1.00  0.00     0.168 A 
ATOM     36  H10 UNL     1     -16.615  -0.704  14.713  1.00  0.00     0.198 HD
HETATM   37  N11 UNL     1     -18.040  -1.628  12.694  1.00  0.00    -0.078 NA
HETATM   38  C13 UNL     1     -15.842  -1.989  11.777  1.00  0.00     0.115 A 
BRANCH  38  39
HETATM   39  N12 UNL     1     -16.360  -2.466  10.716  1.00  0.00    -0.393 N 
ATOM     40 2H12 UNL     1     -15.817  -2.591   9.862  1.00  0.00     0.156 HD
ATOM     41 1H12 UNL     1     -17.341  -2.746  10.706  1.00  0.00     0.156 HD
ENDBRANCH  38  39
ENDBRANCH  28  30
ENDBRANCH  25  26
ENDBRANCH  24  25
ENDBRANCH  21  24
ENDBRANCH  14  17
ENDBRANCH   4   5
ENDBRANCH   1   4
TORSDOF 8
ENDMDL
MODEL 4
REMARK VINA RESULT: -9.237885692      1.435      2.892
REMARK  8 active torsions:
REMARK  status: ('A' for Active; 'I' for Inactive)
REMARK    1  A    between atoms: C4_11  and  C5_12 
REMARK    2  A    between atoms: C5_12  and  N5_13 
REMARK    3  A    between atoms: C6_16  and  C7_17 
REMARK    4  A    between atoms: C8_22  and  S1_23 
REMARK    5  A    between atoms: S1_23  and  C9_24 
REMARK    6  A    between atoms: C9_24  and  C10_25 
REMARK       I    between atoms: C10_25  and  N8_27 
REMARK    7  A    between atoms: N8_27  and  C11_29 
REMARK    8  A    between atoms: C13_37  and  N12_38 
ROOT
HETATM    1  N5  UNL     1     -16.844  -9.178   8.840  1.00  0.00    -0.296 NA
HETATM    2  O1  UNL     1     -17.441  -8.110   9.072  1.00  0.00    -0.219 OA
ATOM      3  H1  UNL     1     -17.913  -7.304   9.243  1.00  0.00     0.261 HD
ENDROOT
BRANCH   1   4
HETATM    4  C5  UNL     1     -16.249 -10.195   8.624  1.00  0.00     0.232 C 
BRANCH   4   5
HETATM    5  C4  UNL     1     -15.736 -11.116   9.633  1.00  0.00     0.041 A 
HETATM    6  C3  UNL     1     -16.003 -12.484   9.558  1.00  0.00     0.101 A 
HETATM    7  C2  UNL     1     -15.480 -13.421  10.433  1.00  0.00     0.143 A 
HETATM    8  N4  UNL     1     -16.857 -12.949   8.525  1.00  0.00    -0.098 NA
HETATM    9  N2  UNL     1     -14.676 -12.983  11.400  1.00  0.00    -0.329 N 
HETATM   10  N3  UNL     1     -15.820 -14.798  10.254  1.00  0.00    -0.081 NA
HETATM   11  C1  UNL     1     -14.382 -11.668  11.526  1.00  0.00     0.115 A 
ATOM     12  H2  UNL     1     -14.274 -13.650  12.057  1.00  0.00     0.168 HD
HETATM   13  N1  UNL     1     -13.634 -11.399  12.532  1.00  0.00    -0.385 N 
HETATM   14  C6  UNL     1     -14.903 -10.722  10.651  1.00  0.00     0.075 A 
ATOM     15  H12 UNL     1     -13.251 -12.093  13.174  1.00  0.00     0.157 HD
ATOM     16  H11 UNL     1     -13.412 -10.408  12.627  1.00  0.00     0.157 HD
BRANCH  14  17
HETATM   17  C7  UNL     1     -14.464  -9.358  10.814  1.00  0.00     0.180 A 
HETATM   18  N6  UNL     1     -15.184  -8.323  11.246  1.00  0.00    -0.276 N 
HETATM   19  N7  UNL     1     -14.426  -7.266  11.275  1.00  0.00    -0.272 N 
ATOM     20  H6  UNL     1     -16.168  -8.354  11.511  1.00  0.00     0.189 HD
HETATM   21  C8  UNL     1     -13.177  -7.612  10.847  1.00  0.00     0.204 A 
ATOM     22  H7  UNL     1     -14.717  -6.333  11.568  1.00  0.00     0.189 HD
HETATM   23  O4  UNL     1     -13.250  -8.866  10.585  1.00  0.00    -0.267 OA
BRANCH  21  24
HETATM   24  S1  UNL     1     -11.875  -6.417  10.755  1.00  0.00    -0.075 SA
BRANCH  24  25
HETATM   25  C9  UNL     1     -12.204  -4.905  11.700  1.00  0.00     0.186 C 
BRANCH  25  26
HETATM   26  C10 UNL     1     -12.737  -3.920  10.737  1.00  0.00     0.233 C 
HETATM   27  O2  UNL     1     -12.017  -3.555   9.729  1.00  0.00    -0.272 OA
HETATM   28  N8  UNL     1     -14.004  -3.316  10.831  1.00  0.00    -0.309 N 
ATOM     29  H8  UNL     1     -14.257  -2.624  10.125  1.00  0.00     0.170 HD
BRANCH  28  30
HETATM   30  C11 UNL     1     -14.949  -3.608  11.838  1.00  0.00     0.160 A 
HETATM   31  N9  UNL     1     -15.812  -4.616  11.849  1.00  0.00    -0.223 N 
HETATM   32  O3  UNL     1     -16.652  -4.794  12.804  1.00  0.00    -0.154 OA
ATOM     33  H9  UNL     1     -15.808  -5.273  11.070  1.00  0.00     0.198 HD
HETATM   34  N10 UNL     1     -16.748  -4.027  13.845  1.00  0.00    -0.225 N 
HETATM   35  C12 UNL     1     -15.916  -2.975  13.929  1.00  0.00     0.168 A 
ATOM     36  H10 UNL     1     -17.434  -4.216  14.577  1.00  0.00     0.198 HD
HETATM   37  N11 UNL     1     -15.948  -2.088  15.054  1.00  0.00    -0.078 NA
HETATM   38  C13 UNL     1     -14.993  -2.726  12.937  1.00  0.00     0.115 A 
BRANCH  38  39
HETATM   39  N12 UNL     1     -14.189  -1.741  13.000  1.00  0.00    -0.393 N 
ATOM     40 2H12 UNL     1     -14.389  -0.853  12.539  1.00  0.00     0.156 HD
ATOM     41 1H12 UNL     1     -13.321  -1.821  13.528  1.00  0.00     0.156 HD
ENDBRANCH  38  39
ENDBRANCH  28  30
ENDBRANCH  25  26
ENDBRANCH  24  25
ENDBRANCH  21  24
ENDBRANCH  14  17
ENDBRANCH   4   5
ENDBRANCH   1   4
TORSDOF 8
ENDMDL
MODEL 5
REMARK VINA RESULT: -9.185768494      1.875      3.026
REMARK  8 active torsions:
REMARK  status: ('A' for Active; 'I' for Inactive)
REMARK    1  A    between atoms: C4_11  and  C5_12 
REMARK    2  A    between atoms: C5_12  and  N5_13 
REMARK    3  A    between atoms: C6_16  and  C7_17 
REMARK    4  A    between atoms: C8_22  and  S1_23 
REMARK    5  A    between atoms: S1_23  and  C9_24 
REMARK    6  A    between atoms: C9_24  and  C10_25 
REMARK       I    between atoms: C10_25  and  N8_27 
REMARK    7  A    between atoms: N8_27  and  C11_29 
REMARK    8  A    between atoms: C13_37  and  N12_38 
ROOT
HETATM    1  N5  UNL     1     -15.807 -10.477   8.606  1.00  0.00    -0.296 NA
HETATM    2  O1  UNL     1     -15.364  -9.618   7.821  1.00  0.00    -0.219 OA
ATOM      3  H1  UNL     1     -15.027  -8.949   7.236  1.00  0.00     0.261 HD
ENDROOT
BRANCH   1   4
HETATM    4  C5  UNL     1     -16.231 -11.321   9.343  1.00  0.00     0.232 C 
BRANCH   4   5
HETATM    5  C4  UNL     1     -15.499 -11.944  10.441  1.00  0.00     0.041 A 
HETATM    6  C3  UNL     1     -15.409 -13.333  10.547  1.00  0.00     0.101 A 
HETATM    7  C2  UNL     1     -14.663 -13.985  11.514  1.00  0.00     0.143 A 
HETATM    8  N4  UNL     1     -16.117 -14.128   9.610  1.00  0.00    -0.098 NA
HETATM    9  N2  UNL     1     -13.996 -13.237  12.390  1.00  0.00    -0.329 N 
HETATM   10  N3  UNL     1     -14.641 -15.416  11.520  1.00  0.00    -0.081 NA
HETATM   11  C1  UNL     1     -14.047 -11.885  12.341  1.00  0.00     0.115 A 
ATOM     12  H2  UNL     1     -13.437 -13.691  13.112  1.00  0.00     0.168 HD
HETATM   13  N1  UNL     1     -13.392 -11.308  13.279  1.00  0.00    -0.385 N 
HETATM   14  C6  UNL     1     -14.793 -11.224  11.373  1.00  0.00     0.075 A 
ATOM     15  H12 UNL     1     -12.844 -11.794  13.990  1.00  0.00     0.157 HD
ATOM     16  H11 UNL     1     -13.429 -10.290  13.243  1.00  0.00     0.157 HD
BRANCH  14  17
HETATM   17  C7  UNL     1     -14.716  -9.784  11.350  1.00  0.00     0.180 A 
HETATM   18  N6  UNL     1     -13.916  -9.029  10.597  1.00  0.00    -0.276 N 
HETATM   19  N7  UNL     1     -14.159  -7.776  10.848  1.00  0.00    -0.272 N 
ATOM     20  H6  UNL     1     -13.225  -9.377   9.932  1.00  0.00     0.189 HD
HETATM   21  C8  UNL     1     -15.142  -7.703  11.793  1.00  0.00     0.204 A 
ATOM     22  H7  UNL     1     -13.693  -6.981  10.411  1.00  0.00     0.189 HD
HETATM   23  O4  UNL     1     -15.439  -8.923  12.059  1.00  0.00    -0.267 OA
BRANCH  21  24
HETATM   24  S1  UNL     1     -15.733  -6.144  12.382  1.00  0.00    -0.075 SA
BRANCH  24  25
HETATM   25  C9  UNL     1     -14.475  -5.166  13.247  1.00  0.00     0.186 C 
BRANCH  25  26
HETATM   26  C10 UNL     1     -13.755  -4.401  12.209  1.00  0.00     0.233 C 
HETATM   27  O2  UNL     1     -12.935  -5.008  11.418  1.00  0.00    -0.272 OA
HETATM   28  N8  UNL     1     -13.885  -3.015  12.005  1.00  0.00    -0.309 N 
ATOM     29  H8  UNL     1     -13.315  -2.583  11.277  1.00  0.00     0.170 HD
BRANCH  28  30
HETATM   30  C11 UNL     1     -14.755  -2.183  12.742  1.00  0.00     0.160 A 
HETATM   31  N9  UNL     1     -14.458  -1.498  13.839  1.00  0.00    -0.223 N 
HETATM   32  O3  UNL     1     -15.323  -0.777  14.458  1.00  0.00    -0.154 OA
ATOM     33  H9  UNL     1     -13.508  -1.545  14.205  1.00  0.00     0.198 HD
HETATM   34  N10 UNL     1     -16.557  -0.638  14.087  1.00  0.00    -0.225 N 
HETATM   35  C12 UNL     1     -16.960  -1.293  12.983  1.00  0.00     0.168 A 
ATOM     36  H10 UNL     1     -17.203  -0.051  14.616  1.00  0.00     0.198 HD
HETATM   37  N11 UNL     1     -18.303  -1.181  12.499  1.00  0.00    -0.078 NA
HETATM   38  C13 UNL     1     -16.081  -2.085  12.276  1.00  0.00     0.115 A 
BRANCH  38  39
HETATM   39  N12 UNL     1     -16.438  -2.707  11.224  1.00  0.00    -0.393 N 
ATOM     40 2H12 UNL     1     -15.756  -3.076  10.561  1.00  0.00     0.156 HD
ATOM     41 1H12 UNL     1     -17.427  -2.857  11.027  1.00  0.00     0.156 HD
ENDBRANCH  38  39
ENDBRANCH  28  30
ENDBRANCH  25  26
ENDBRANCH  24  25
ENDBRANCH  21  24
ENDBRANCH  14  17
ENDBRANCH   4   5
ENDBRANCH   1   4
TORSDOF 8
ENDMDL
