MODEL 1
REMARK VINA RESULT: -8.127357858      0.000      0.000
REMARK  7 active torsions:
REMARK  status: ('A' for Active; 'I' for Inactive)
REMARK    1  A    between atoms: C3_3  and  C4_4 
REMARK    2  A    between atoms: C5_8  and  N2_9 
REMARK    3  A    between atoms: N2_9  and  C6_11 
REMARK    4  A    between atoms: C11_25  and  N7_26 
REMARK    5  A    between atoms: N7_26  and  N8_27 
REMARK    6  A    between atoms: N8_27  and  C12_29 
REMARK    7  A    between atoms: N9_31  and  N10_32 
ROOT
HETATM    1  C6  UNL     1     -14.143  -2.827  10.438  1.00  0.00     0.250 C 
HETATM    2  N3  UNL     1     -15.058  -3.760  11.082  1.00  0.00    -0.199 N 
ATOM      3  H3  UNL     1     -15.223  -4.699  10.720  1.00  0.00     0.180 HD
HETATM    4  C7  UNL     1     -15.713  -3.265  12.263  1.00  0.00     0.707 A 
HETATM    5  N4  UNL     1     -16.857  -3.834  12.660  1.00  0.00    -0.175 N 
ATOM      6  H4  UNL     1     -17.252  -4.609  12.127  1.00  0.00     0.186 HD
HETATM    7  C8  UNL     1     -17.497  -3.379  13.779  1.00  0.00     0.116 A 
HETATM    8  N5  UNL     1     -18.591  -3.930  14.154  1.00  0.00    -0.385 N 
ATOM      9  H51 UNL     1     -19.069  -3.590  14.989  1.00  0.00     0.157 HD
ATOM     10  H52 UNL     1     -19.014  -4.707  13.645  1.00  0.00     0.157 HD
HETATM   11  C9  UNL     1     -16.921  -2.323  14.471  1.00  0.00     0.069 A 
HETATM   12  C10 UNL     1     -15.761  -1.750  14.063  1.00  0.00     0.146 A 
HETATM   13  N6  UNL     1     -15.168  -2.245  12.939  1.00  0.00    -0.060 N 
HETATM   14  O3  UNL     1     -14.000  -1.690  12.504  1.00  0.00    -0.232 OA
HETATM   15  C11 UNL     1     -13.195  -2.380  11.570  1.00  0.00     0.308 C 
ENDROOT
BRANCH  15  16
HETATM   16  N7  UNL     1     -12.696  -3.578  12.213  1.00  0.00    -0.101 NA
BRANCH  16  17
HETATM   17  N8  UNL     1     -11.780  -4.259  11.415  1.00  0.00    -0.286 N 
ATOM     18  H8  UNL     1     -10.982  -3.737  11.054  1.00  0.00     0.184 HD
BRANCH  17  19
HETATM   19  C12 UNL     1     -11.883  -5.619  11.077  1.00  0.00     0.136 A 
HETATM   20  C13 UNL     1     -10.831  -6.480  10.857  1.00  0.00     0.167 A 
HETATM   21  N9  UNL     1     -11.257  -7.706  10.553  1.00  0.00    -0.258 N 
HETATM   22  C14 UNL     1     -12.607  -7.634  10.577  1.00  0.00     0.100 A 
HETATM   23  C15 UNL     1     -13.545  -8.762  10.300  1.00  0.00     0.091 C 
HETATM   24  N11 UNL     1     -12.984  -6.380  10.892  1.00  0.00    -0.329 N 
ATOM     25  H11 UNL     1     -13.947  -6.056  10.977  1.00  0.00     0.168 HD
BRANCH  21  26
HETATM   26  N10 UNL     1     -10.484  -8.836  10.267  1.00  0.00    -0.338 N 
ATOM     27 2H10 UNL     1      -9.470  -8.912  10.328  1.00  0.00     0.177 HD
ATOM     28 1H10 UNL     1     -10.808  -9.752   9.955  1.00  0.00     0.177 HD
ENDBRANCH  21  26
ENDBRANCH  17  19
ENDBRANCH  16  17
ENDBRANCH  15  16
BRANCH   1  29
HETATM   29  N2  UNL     1     -14.856  -1.676   9.997  1.00  0.00    -0.344 N 
ATOM     30  H2  UNL     1     -14.478  -0.770  10.274  1.00  0.00     0.163 HD
BRANCH  29  31
HETATM   31  C5  UNL     1     -16.041  -1.658   9.212  1.00  0.00     0.171 A 
HETATM   32  O2  UNL     1     -16.166  -2.117   7.973  1.00  0.00    -0.286 OA
HETATM   33  C3  UNL     1     -17.380  -1.960   7.523  1.00  0.00     0.150 A 
HETATM   34  C2  UNL     1     -18.150  -1.358   8.495  1.00  0.00     0.006 A 
HETATM   35  C1  UNL     1     -19.589  -0.983   8.435  1.00  0.00     0.053 C 
HETATM   36  C16 UNL     1     -17.276  -1.171   9.574  1.00  0.00     0.106 A 
HETATM   37  N12 UNL     1     -17.690  -0.592  10.783  1.00  0.00    -0.097 NA
BRANCH  33  38
HETATM   38  C4  UNL     1     -17.879  -2.346   6.205  1.00  0.00     0.289 C 
HETATM   39  N1  UNL     1     -18.326  -3.682   6.031  1.00  0.00    -0.055 NA
HETATM   40  O1  UNL     1     -17.919  -1.542   5.253  1.00  0.00    -0.269 OA
ENDBRANCH  33  38
ENDBRANCH  29  31
ENDBRANCH   1  29
TORSDOF 7
ENDMDL
MODEL 2
REMARK VINA RESULT: -7.918641013      2.331      7.038
REMARK  7 active torsions:
REMARK  status: ('A' for Active; 'I' for Inactive)
REMARK    1  A    between atoms: C3_3  and  C4_4 
REMARK    2  A    between atoms: C5_8  and  N2_9 
REMARK    3  A    between atoms: N2_9  and  C6_11 
REMARK    4  A    between atoms: C11_25  and  N7_26 
REMARK    5  A    between atoms: N7_26  and  N8_27 
REMARK    6  A    between atoms: N8_27  and  C12_29 
REMARK    7  A    between atoms: N9_31  and  N10_32 
ROOT
HETATM    1  C6  UNL     1     -13.265  -2.924  11.135  1.00  0.00     0.250 C 
HETATM    2  N3  UNL     1     -13.657  -1.813  11.993  1.00  0.00    -0.199 N 
ATOM      3  H3  UNL     1     -13.109  -0.955  12.057  1.00  0.00     0.180 HD
HETATM    4  C7  UNL     1     -14.869  -2.010  12.741  1.00  0.00     0.707 A 
HETATM    5  N4  UNL     1     -15.076  -1.285  13.846  1.00  0.00    -0.175 N 
ATOM      6  H4  UNL     1     -14.379  -0.604  14.148  1.00  0.00     0.186 HD
HETATM    7  C8  UNL     1     -16.221  -1.457  14.573  1.00  0.00     0.116 A 
HETATM    8  N5  UNL     1     -16.413  -0.759  15.631  1.00  0.00    -0.385 N 
ATOM      9  H51 UNL     1     -17.268  -0.887  16.173  1.00  0.00     0.157 HD
ATOM     10  H52 UNL     1     -15.738  -0.069  15.960  1.00  0.00     0.157 HD
HETATM   11  C9  UNL     1     -17.140  -2.395  14.125  1.00  0.00     0.069 A 
HETATM   12  C10 UNL     1     -16.923  -3.127  13.003  1.00  0.00     0.146 A 
HETATM   13  N6  UNL     1     -15.764  -2.913  12.319  1.00  0.00    -0.060 N 
HETATM   14  O3  UNL     1     -15.518  -3.633  11.187  1.00  0.00    -0.232 OA
HETATM   15  C11 UNL     1     -14.518  -3.209  10.282  1.00  0.00     0.308 C 
ENDROOT
BRANCH  15  16
HETATM   16  N7  UNL     1     -14.944  -1.949   9.708  1.00  0.00    -0.101 NA
BRANCH  16  17
HETATM   17  N8  UNL     1     -15.374  -2.090   8.391  1.00  0.00    -0.286 N 
ATOM     18  H8  UNL     1     -14.668  -2.265   7.676  1.00  0.00     0.184 HD
BRANCH  17  19
HETATM   19  C12 UNL     1     -16.715  -2.005   7.983  1.00  0.00     0.136 A 
HETATM   20  C13 UNL     1     -17.747  -1.447   8.705  1.00  0.00     0.167 A 
HETATM   21  N9  UNL     1     -18.902  -1.521   8.045  1.00  0.00    -0.258 N 
HETATM   22  C14 UNL     1     -18.611  -2.137   6.877  1.00  0.00     0.100 A 
HETATM   23  C15 UNL     1     -19.585  -2.451   5.790  1.00  0.00     0.091 C 
HETATM   24  N11 UNL     1     -17.296  -2.428   6.839  1.00  0.00    -0.329 N 
ATOM     25  H11 UNL     1     -16.816  -2.894   6.070  1.00  0.00     0.168 HD
BRANCH  21  26
HETATM   26  N10 UNL     1     -20.158  -1.063   8.459  1.00  0.00    -0.338 N 
ATOM     27 2H10 UNL     1     -20.729  -1.446   9.211  1.00  0.00     0.177 HD
ATOM     28 1H10 UNL     1     -20.695  -0.284   8.079  1.00  0.00     0.177 HD
ENDBRANCH  21  26
ENDBRANCH  17  19
ENDBRANCH  16  17
ENDBRANCH  15  16
BRANCH   1  29
HETATM   29  N2  UNL     1     -13.014  -4.081  11.927  1.00  0.00    -0.344 N 
ATOM     30  H2  UNL     1     -13.239  -4.013  12.919  1.00  0.00     0.163 HD
BRANCH  29  31
HETATM   31  C5  UNL     1     -12.483  -5.320  11.479  1.00  0.00     0.171 A 
HETATM   32  O2  UNL     1     -11.221  -5.554  11.137  1.00  0.00    -0.286 OA
HETATM   33  C3  UNL     1     -11.045  -6.793  10.771  1.00  0.00     0.150 A 
HETATM   34  C2  UNL     1     -12.244  -7.467  10.858  1.00  0.00     0.006 A 
HETATM   35  C1  UNL     1     -12.529  -8.894  10.544  1.00  0.00     0.053 C 
HETATM   36  C16 UNL     1     -13.158  -6.508  11.315  1.00  0.00     0.106 A 
HETATM   37  N12 UNL     1     -14.507  -6.811  11.552  1.00  0.00    -0.097 NA
BRANCH  33  38
HETATM   38  C4  UNL     1      -9.793  -7.403  10.330  1.00  0.00     0.289 C 
HETATM   39  N1  UNL     1      -8.828  -7.724  11.320  1.00  0.00    -0.055 NA
HETATM   40  O1  UNL     1      -9.562  -7.643   9.129  1.00  0.00    -0.269 OA
ENDBRANCH  33  38
ENDBRANCH  29  31
ENDBRANCH   1  29
TORSDOF 7
ENDMDL
MODEL 3
REMARK VINA RESULT: -7.842704194      4.606      7.527
REMARK  7 active torsions:
REMARK  status: ('A' for Active; 'I' for Inactive)
REMARK    1  A    between atoms: C3_3  and  C4_4 
REMARK    2  A    between atoms: C5_8  and  N2_9 
REMARK    3  A    between atoms: N2_9  and  C6_11 
REMARK    4  A    between atoms: C11_25  and  N7_26 
REMARK    5  A    between atoms: N7_26  and  N8_27 
REMARK    6  A    between atoms: N8_27  and  C12_29 
REMARK    7  A    between atoms: N9_31  and  N10_32 
ROOT
HETATM    1  C6  UNL     1     -14.489  -8.077  11.139  1.00  0.00     0.250 C 
HETATM    2  N3  UNL     1     -14.239  -8.627   9.813  1.00  0.00    -0.199 N 
ATOM      3  H3  UNL     1     -13.375  -8.446   9.302  1.00  0.00     0.180 HD
HETATM    4  C7  UNL     1     -15.295  -9.440   9.275  1.00  0.00     0.707 A 
HETATM    5  N4  UNL     1     -15.371  -9.617   7.950  1.00  0.00    -0.175 N 
ATOM      6  H4  UNL     1     -14.684  -9.176   7.338  1.00  0.00     0.186 HD
HETATM    7  C8  UNL     1     -16.367 -10.386   7.417  1.00  0.00     0.116 A 
HETATM    8  N5  UNL     1     -16.433 -10.550   6.148  1.00  0.00    -0.385 N 
ATOM      9  H51 UNL     1     -17.177 -11.124   5.750  1.00  0.00     0.157 HD
ATOM     10  H52 UNL     1     -15.763 -10.125   5.507  1.00  0.00     0.157 HD
HETATM   11  C9  UNL     1     -17.278 -10.964   8.290  1.00  0.00     0.069 A 
HETATM   12  C10 UNL     1     -17.196 -10.781   9.632  1.00  0.00     0.146 A 
HETATM   13  N6  UNL     1     -16.182 -10.004  10.107  1.00  0.00    -0.060 N 
HETATM   14  O3  UNL     1     -16.073  -9.802  11.451  1.00  0.00    -0.232 OA
HETATM   15  C11 UNL     1     -14.867  -9.303  11.996  1.00  0.00     0.308 C 
ENDROOT
BRANCH  15  16
HETATM   16  N7  UNL     1     -13.841 -10.304  11.793  1.00  0.00    -0.101 NA
BRANCH  16  17
HETATM   17  N8  UNL     1     -14.062 -11.447  12.557  1.00  0.00    -0.286 N 
ATOM     18  H8  UNL     1     -14.001 -11.361  13.571  1.00  0.00     0.184 HD
BRANCH  17  19
HETATM   19  C12 UNL     1     -14.365 -12.710  12.023  1.00  0.00     0.136 A 
HETATM   20  C13 UNL     1     -14.059 -13.925  12.594  1.00  0.00     0.167 A 
HETATM   21  N9  UNL     1     -14.479 -14.941  11.840  1.00  0.00    -0.258 N 
HETATM   22  C14 UNL     1     -15.067 -14.371  10.764  1.00  0.00     0.100 A 
HETATM   23  C15 UNL     1     -15.697 -15.103   9.625  1.00  0.00     0.091 C 
HETATM   24  N11 UNL     1     -14.998 -13.030  10.873  1.00  0.00    -0.329 N 
ATOM     25  H11 UNL     1     -15.365 -12.363  10.195  1.00  0.00     0.168 HD
BRANCH  21  26
HETATM   26  N10 UNL     1     -14.349 -16.310  12.095  1.00  0.00    -0.338 N 
ATOM     27 2H10 UNL     1     -14.138 -16.746  12.992  1.00  0.00     0.177 HD
ATOM     28 1H10 UNL     1     -14.441 -17.081  11.433  1.00  0.00     0.177 HD
ENDBRANCH  21  26
ENDBRANCH  17  19
ENDBRANCH  16  17
ENDBRANCH  15  16
BRANCH   1  29
HETATM   29  N2  UNL     1     -15.621  -7.215  11.100  1.00  0.00    -0.344 N 
ATOM     30  H2  UNL     1     -16.392  -7.501  10.497  1.00  0.00     0.163 HD
BRANCH  29  31
HETATM   31  C5  UNL     1     -15.790  -5.999  11.816  1.00  0.00     0.171 A 
HETATM   32  O2  UNL     1     -16.931  -5.533  12.311  1.00  0.00    -0.286 OA
HETATM   33  C3  UNL     1     -16.760  -4.392  12.917  1.00  0.00     0.150 A 
HETATM   34  C2  UNL     1     -15.431  -4.034  12.845  1.00  0.00     0.006 A 
HETATM   35  C1  UNL     1     -14.769  -2.819  13.393  1.00  0.00     0.053 C 
HETATM   36  C16 UNL     1     -14.821  -5.076  12.135  1.00  0.00     0.106 A 
HETATM   37  N12 UNL     1     -13.444  -5.094  11.863  1.00  0.00    -0.097 NA
BRANCH  33  38
HETATM   38  C4  UNL     1     -17.789  -3.591  13.577  1.00  0.00     0.289 C 
HETATM   39  N1  UNL     1     -18.495  -4.180  14.658  1.00  0.00    -0.055 NA
HETATM   40  O1  UNL     1     -18.052  -2.427  13.216  1.00  0.00    -0.269 OA
ENDBRANCH  33  38
ENDBRANCH  29  31
ENDBRANCH   1  29
TORSDOF 7
ENDMDL
MODEL 4
REMARK VINA RESULT: -7.644696548      7.522      9.992
REMARK  7 active torsions:
REMARK  status: ('A' for Active; 'I' for Inactive)
REMARK    1  A    between atoms: C3_3  and  C4_4 
REMARK    2  A    between atoms: C5_8  and  N2_9 
REMARK    3  A    between atoms: N2_9  and  C6_11 
REMARK    4  A    between atoms: C11_25  and  N7_26 
REMARK    5  A    between atoms: N7_26  and  N8_27 
REMARK    6  A    between atoms: N8_27  and  C12_29 
REMARK    7  A    between atoms: N9_31  and  N10_32 
ROOT
HETATM    1  C6  UNL     1     -16.802  -9.608   8.515  1.00  0.00     0.250 C 
HETATM    2  N3  UNL     1     -17.782  -8.545   8.332  1.00  0.00    -0.199 N 
ATOM      3  H3  UNL     1     -17.517  -7.561   8.291  1.00  0.00     0.180 HD
HETATM    4  C7  UNL     1     -19.148  -8.979   8.215  1.00  0.00     0.707 A 
HETATM    5  N4  UNL     1     -20.131  -8.114   8.487  1.00  0.00    -0.175 N 
ATOM      6  H4  UNL     1     -19.907  -7.161   8.773  1.00  0.00     0.186 HD
HETATM    7  C8  UNL     1     -21.437  -8.506   8.383  1.00  0.00     0.116 A 
HETATM    8  N5  UNL     1     -22.374  -7.671   8.645  1.00  0.00    -0.385 N 
ATOM      9  H51 UNL     1     -23.348  -7.964   8.567  1.00  0.00     0.157 HD
ATOM     10  H52 UNL     1     -22.185  -6.711   8.932  1.00  0.00     0.157 HD
HETATM   11  C9  UNL     1     -21.693  -9.812   7.992  1.00  0.00     0.069 A 
HETATM   12  C10 UNL     1     -20.691 -10.685   7.718  1.00  0.00     0.146 A 
HETATM   13  N6  UNL     1     -19.408 -10.238   7.839  1.00  0.00    -0.060 N 
HETATM   14  O3  UNL     1     -18.379 -11.092   7.570  1.00  0.00    -0.232 OA
HETATM   15  C11 UNL     1     -17.078 -10.585   7.353  1.00  0.00     0.308 C 
ENDROOT
BRANCH  15  16
HETATM   16  N7  UNL     1     -17.103  -9.806   6.132  1.00  0.00    -0.101 NA
BRANCH  16  17
HETATM   17  N8  UNL     1     -15.824  -9.558   5.640  1.00  0.00    -0.286 N 
ATOM     18  H8  UNL     1     -15.437  -8.624   5.769  1.00  0.00     0.184 HD
BRANCH  17  19
HETATM   19  C12 UNL     1     -15.032 -10.511   4.978  1.00  0.00     0.136 A 
HETATM   20  C13 UNL     1     -13.760 -10.309   4.492  1.00  0.00     0.167 A 
HETATM   21  N9  UNL     1     -13.276 -11.408   3.913  1.00  0.00    -0.258 N 
HETATM   22  C14 UNL     1     -14.253 -12.335   4.029  1.00  0.00     0.100 A 
HETATM   23  C15 UNL     1     -14.184 -13.741   3.530  1.00  0.00     0.091 C 
HETATM   24  N11 UNL     1     -15.309 -11.797   4.669  1.00  0.00    -0.329 N 
ATOM     25  H11 UNL     1     -16.179 -12.283   4.885  1.00  0.00     0.168 HD
BRANCH  21  26
HETATM   26  N10 UNL     1     -12.025 -11.581   3.312  1.00  0.00    -0.338 N 
ATOM     27 2H10 UNL     1     -11.379 -12.354   3.461  1.00  0.00     0.177 HD
ATOM     28 1H10 UNL     1     -11.565 -10.968   2.638  1.00  0.00     0.177 HD
ENDBRANCH  21  26
ENDBRANCH  17  19
ENDBRANCH  16  17
ENDBRANCH  15  16
BRANCH   1  29
HETATM   29  N2  UNL     1     -17.063 -10.303   9.729  1.00  0.00    -0.344 N 
ATOM     30  H2  UNL     1     -17.996 -10.194  10.127  1.00  0.00     0.163 HD
BRANCH  29  31
HETATM   31  C5  UNL     1     -16.160 -11.134  10.446  1.00  0.00     0.171 A 
HETATM   32  O2  UNL     1     -15.187 -10.722  11.250  1.00  0.00    -0.286 OA
HETATM   33  C3  UNL     1     -14.532 -11.726  11.763  1.00  0.00     0.150 A 
HETATM   34  C2  UNL     1     -15.070 -12.906  11.296  1.00  0.00     0.006 A 
HETATM   35  C1  UNL     1     -14.651 -14.300  11.606  1.00  0.00     0.053 C 
HETATM   36  C16 UNL     1     -16.115 -12.509  10.452  1.00  0.00     0.106 A 
HETATM   37  N12 UNL     1     -16.931 -13.434   9.784  1.00  0.00    -0.097 NA
BRANCH  33  38
HETATM   38  C4  UNL     1     -13.402 -11.650  12.687  1.00  0.00     0.289 C 
HETATM   39  N1  UNL     1     -13.551 -12.245  13.967  1.00  0.00    -0.055 NA
HETATM   40  O1  UNL     1     -12.334 -11.085  12.379  1.00  0.00    -0.269 OA
ENDBRANCH  33  38
ENDBRANCH  29  31
ENDBRANCH   1  29
TORSDOF 7
ENDMDL
MODEL 5
REMARK VINA RESULT: -7.520838913      4.928      8.116
REMARK  7 active torsions:
REMARK  status: ('A' for Active; 'I' for Inactive)
REMARK    1  A    between atoms: C3_3  and  C4_4 
REMARK    2  A    between atoms: C5_8  and  N2_9 
REMARK    3  A    between atoms: N2_9  and  C6_11 
REMARK    4  A    between atoms: C11_25  and  N7_26 
REMARK    5  A    between atoms: N7_26  and  N8_27 
REMARK    6  A    between atoms: N8_27  and  C12_29 
REMARK    7  A    between atoms: N9_31  and  N10_32 
ROOT
HETATM    1  C6  UNL     1     -14.198  -9.049  11.700  1.00  0.00     0.250 C 
HETATM    2  N3  UNL     1     -13.908  -9.277  10.291  1.00  0.00    -0.199 N 
ATOM      3  H3  UNL     1     -12.987  -9.099   9.888  1.00  0.00     0.180 HD
HETATM    4  C7  UNL     1     -15.008  -9.768   9.507  1.00  0.00     0.707 A 
HETATM    5  N4  UNL     1     -14.993  -9.592   8.181  1.00  0.00    -0.175 N 
ATOM      6  H4  UNL     1     -14.206  -9.115   7.739  1.00  0.00     0.186 HD
HETATM    7  C8  UNL     1     -16.029 -10.051   7.416  1.00  0.00     0.116 A 
HETATM    8  N5  UNL     1     -16.007  -9.879   6.146  1.00  0.00    -0.385 N 
ATOM      9  H51 UNL     1     -16.781 -10.222   5.576  1.00  0.00     0.157 HD
ATOM     10  H52 UNL     1     -15.237  -9.407   5.672  1.00  0.00     0.157 HD
HETATM   11  C9  UNL     1     -17.076 -10.693   8.061  1.00  0.00     0.069 A 
HETATM   12  C10 UNL     1     -17.086 -10.869   9.407  1.00  0.00     0.146 A 
HETATM   13  N6  UNL     1     -16.026 -10.390  10.118  1.00  0.00    -0.060 N 
HETATM   14  O3  UNL     1     -16.007 -10.551  11.472  1.00  0.00    -0.232 OA
HETATM   15  C11 UNL     1     -14.799 -10.384  12.187  1.00  0.00     0.308 C 
ENDROOT
BRANCH  15  16
HETATM   16  N7  UNL     1     -13.893 -11.438  11.781  1.00  0.00    -0.101 NA
BRANCH  16  17
HETATM   17  N8  UNL     1     -14.247 -12.672  12.320  1.00  0.00    -0.286 N 
ATOM     18  H8  UNL     1     -14.234 -12.770  13.335  1.00  0.00     0.184 HD
BRANCH  17  19
HETATM   19  C12 UNL     1     -14.620 -13.791  11.558  1.00  0.00     0.136 A 
HETATM   20  C13 UNL     1     -14.355 -15.106  11.867  1.00  0.00     0.167 A 
HETATM   21  N9  UNL     1     -14.841 -15.935  10.943  1.00  0.00    -0.258 N 
HETATM   22  C14 UNL     1     -15.431 -15.140  10.021  1.00  0.00     0.100 A 
HETATM   23  C15 UNL     1     -16.123 -15.606   8.784  1.00  0.00     0.091 C 
HETATM   24  N11 UNL     1     -15.298 -13.851  10.391  1.00  0.00    -0.329 N 
ATOM     25  H11 UNL     1     -15.653 -13.049   9.871  1.00  0.00     0.168 HD
BRANCH  21  26
HETATM   26  N10 UNL     1     -14.766 -17.331  10.918  1.00  0.00    -0.338 N 
ATOM     27 2H10 UNL     1     -14.133 -17.918  11.460  1.00  0.00     0.177 HD
ATOM     28 1H10 UNL     1     -15.324 -17.978  10.360  1.00  0.00     0.177 HD
ENDBRANCH  21  26
ENDBRANCH  17  19
ENDBRANCH  16  17
ENDBRANCH  15  16
BRANCH   1  29
HETATM   29  N2  UNL     1     -15.205  -8.052  11.832  1.00  0.00    -0.344 N 
ATOM     30  H2  UNL     1     -16.168  -8.353  11.679  1.00  0.00     0.163 HD
BRANCH  29  31
HETATM   31  C5  UNL     1     -15.010  -6.681  12.153  1.00  0.00     0.171 A 
HETATM   32  O2  UNL     1     -15.809  -5.931  12.902  1.00  0.00    -0.286 OA
HETATM   33  C3  UNL     1     -15.357  -4.713  13.015  1.00  0.00     0.150 A 
HETATM   34  C2  UNL     1     -14.178  -4.600  12.310  1.00  0.00     0.006 A 
HETATM   35  C1  UNL     1     -13.306  -3.404  12.152  1.00  0.00     0.053 C 
HETATM   36  C16 UNL     1     -13.968  -5.872  11.762  1.00  0.00     0.106 A 
HETATM   37  N12 UNL     1     -12.846  -6.175  10.977  1.00  0.00    -0.097 NA
BRANCH  33  38
HETATM   38  C4  UNL     1     -15.975  -3.618  13.760  1.00  0.00     0.289 C 
HETATM   39  N1  UNL     1     -17.233  -3.138  13.311  1.00  0.00    -0.055 NA
HETATM   40  O1  UNL     1     -15.430  -3.111  14.760  1.00  0.00    -0.269 OA
ENDBRANCH  33  38
ENDBRANCH  29  31
ENDBRANCH   1  29
TORSDOF 7
ENDMDL
