MODEL 1
REMARK VINA RESULT: -8.254536482      0.000      0.000
REMARK  10 active torsions:
REMARK  status: ('A' for Active; 'I' for Inactive)
REMARK    1  A    between atoms: O1_2  and  C2_3 
REMARK    2  A    between atoms: C2_3  and  O2_4 
REMARK    3  A    between atoms: C2_3  and  C3_6 
REMARK    4  A    between atoms: C4_9  and  C5_10 
REMARK    5  A    between atoms: C6_13  and  C7_14 
REMARK    6  A    between atoms: C7_14  and  N3_15 
REMARK    7  A    between atoms: N3_15  and  C8_17 
REMARK    8  A    between atoms: C9_20  and  N5_21 
REMARK    9  A    between atoms: C13_37  and  N10_38 
REMARK   10  A    between atoms: C14_41  and  O5_42 
ROOT
HETATM    1  C5  UNL     1     -12.021  -5.191  10.841  1.00  0.00     0.216 A 
HETATM    2  N2  UNL     1     -13.245  -4.862  11.258  1.00  0.00    -0.314 N 
ATOM      3  H2  UNL     1     -13.942  -5.496  11.647  1.00  0.00     0.169 HD
HETATM    4  C6  UNL     1     -13.388  -3.538  11.071  1.00  0.00     0.184 A 
HETATM    5  N8  UNL     1     -12.226  -3.132  10.544  1.00  0.00    -0.240 N 
ATOM      6  H8  UNL     1     -12.019  -2.167  10.286  1.00  0.00     0.196 HD
HETATM    7  O4  UNL     1     -11.405  -4.115  10.404  1.00  0.00    -0.214 OA
ENDROOT
BRANCH   1   8
HETATM    8  C4  UNL     1     -11.424  -6.510  10.850  1.00  0.00     0.162 A 
HETATM    9  N1  UNL     1     -12.225  -7.592  10.937  1.00  0.00    -0.336 N 
HETATM   10  C3  UNL     1     -11.728  -8.851  10.950  1.00  0.00     0.103 A 
ATOM     11  H1  UNL     1     -13.234  -7.457  10.994  1.00  0.00     0.167 HD
HETATM   12  C14 UNL     1     -10.377  -9.025  10.874  1.00  0.00     0.137 A 
HETATM   13  C13 UNL     1      -9.557  -7.911  10.787  1.00  0.00     0.136 A 
HETATM   14  N9  UNL     1     -10.113  -6.708  10.778  1.00  0.00    -0.323 N 
ATOM     15  H9  UNL     1      -9.503  -5.893  10.713  1.00  0.00     0.169 HD
BRANCH  10  16
HETATM   16  C2  UNL     1     -12.684  -9.975  11.042  1.00  0.00     0.310 C 
BRANCH  16  17
HETATM   17  O1  UNL     1     -13.996  -9.471  11.220  1.00  0.00    -0.360 OA
HETATM   18  C1  UNL     1     -14.718  -9.564  10.020  1.00  0.00     0.205 C 
ENDBRANCH  16  17
BRANCH  16  19
HETATM   19  O2  UNL     1     -12.321 -10.758  12.150  1.00  0.00    -0.366 OA
ATOM     20  H2  UNL     1     -12.936 -11.474  12.253  1.00  0.00     0.213 HD
ENDBRANCH  16  19
ENDBRANCH  10  16
BRANCH  12  21
HETATM   21  O5  UNL     1      -9.798 -10.261  10.883  1.00  0.00    -0.355 OA
ATOM     22  H5  UNL     1      -8.907 -10.404  11.182  1.00  0.00     0.218 HD
ENDBRANCH  12  21
BRANCH  13  23
HETATM   23  N10 UNL     1      -8.270  -8.044  10.714  1.00  0.00    -0.383 N 
ATOM     24 2H10 UNL     1      -7.704  -8.103  11.560  1.00  0.00     0.157 HD
ATOM     25 1H10 UNL     1      -7.804  -8.091   9.807  1.00  0.00     0.157 HD
ENDBRANCH  13  23
ENDBRANCH   1   8
BRANCH   4  26
HETATM   26  C7  UNL     1     -14.622  -2.806  11.427  1.00  0.00     0.290 A 
HETATM   27  N6  UNL     1     -14.902  -2.960  12.852  1.00  0.00    -0.302 N 
HETATM   28  C12 UNL     1     -14.715  -1.743  13.149  1.00  0.00     0.235 A 
ATOM     29  H6  UNL     1     -15.161  -3.770  13.416  1.00  0.00     0.168 HD
HETATM   30  N7  UNL     1     -14.749  -0.891  14.300  1.00  0.00    -0.056 NA
HETATM   31  O3  UNL     1     -14.428  -1.467  11.828  1.00  0.00    -0.266 OA
BRANCH  26  32
HETATM   32  N3  UNL     1     -15.782  -3.045  10.620  1.00  0.00    -0.319 N 
ATOM     33  H3  UNL     1     -16.369  -3.849  10.841  1.00  0.00     0.166 HD
BRANCH  32  34
HETATM   34  C8  UNL     1     -16.165  -2.191   9.496  1.00  0.00     0.120 A 
HETATM   35  N4  UNL     1     -15.613  -2.279   8.307  1.00  0.00    -0.322 N 
HETATM   36  C9  UNL     1     -16.036  -1.462   7.342  1.00  0.00     0.144 A 
ATOM     37  H4  UNL     1     -14.875  -2.960   8.127  1.00  0.00     0.169 HD
HETATM   38  S1  UNL     1     -17.239  -0.540   8.111  1.00  0.00    -0.056 SA
HETATM   39  C10 UNL     1     -17.152  -1.245   9.653  1.00  0.00     0.026 A 
HETATM   40  C11 UNL     1     -17.955  -0.915  10.880  1.00  0.00     0.060 C 
BRANCH  36  41
HETATM   41  N5  UNL     1     -15.597  -1.413   6.099  1.00  0.00    -0.380 N 
ATOM     42  H52 UNL     1     -14.642  -1.405   5.741  1.00  0.00     0.158 HD
ATOM     43  H51 UNL     1     -16.164  -1.372   5.251  1.00  0.00     0.158 HD
ENDBRANCH  36  41
ENDBRANCH  32  34
ENDBRANCH  26  32
ENDBRANCH   4  26
TORSDOF 10
ENDMDL
MODEL 2
REMARK VINA RESULT: -8.212413246      3.830      7.864
REMARK  10 active torsions:
REMARK  status: ('A' for Active; 'I' for Inactive)
REMARK    1  A    between atoms: O1_2  and  C2_3 
REMARK    2  A    between atoms: C2_3  and  O2_4 
REMARK    3  A    between atoms: C2_3  and  C3_6 
REMARK    4  A    between atoms: C4_9  and  C5_10 
REMARK    5  A    between atoms: C6_13  and  C7_14 
REMARK    6  A    between atoms: C7_14  and  N3_15 
REMARK    7  A    between atoms: N3_15  and  C8_17 
REMARK    8  A    between atoms: C9_20  and  N5_21 
REMARK    9  A    between atoms: C13_37  and  N10_38 
REMARK   10  A    between atoms: C14_41  and  O5_42 
ROOT
HETATM    1  C5  UNL     1     -14.838  -6.290  12.185  1.00  0.00     0.216 A 
HETATM    2  N2  UNL     1     -14.396  -7.254  11.376  1.00  0.00    -0.314 N 
ATOM      3  H2  UNL     1     -13.702  -7.150  10.635  1.00  0.00     0.169 HD
HETATM    4  C6  UNL     1     -15.035  -8.387  11.717  1.00  0.00     0.184 A 
HETATM    5  N8  UNL     1     -15.839  -8.043  12.730  1.00  0.00    -0.240 N 
ATOM      6  H8  UNL     1     -16.462  -8.689  13.214  1.00  0.00     0.196 HD
HETATM    7  O4  UNL     1     -15.727  -6.790  13.015  1.00  0.00    -0.214 OA
ENDROOT
BRANCH   1   8
HETATM    8  C4  UNL     1     -14.431  -4.900  12.187  1.00  0.00     0.162 A 
HETATM    9  N1  UNL     1     -15.069  -4.031  12.999  1.00  0.00    -0.336 N 
HETATM   10  C3  UNL     1     -14.735  -2.720  13.047  1.00  0.00     0.103 A 
ATOM     11  H1  UNL     1     -15.824  -4.372  13.593  1.00  0.00     0.167 HD
HETATM   12  C14 UNL     1     -13.725  -2.269  12.249  1.00  0.00     0.137 A 
HETATM   13  C13 UNL     1     -13.073  -3.165  11.416  1.00  0.00     0.136 A 
HETATM   14  N9  UNL     1     -13.452  -4.435  11.421  1.00  0.00    -0.323 N 
ATOM     15  H9  UNL     1     -12.967  -5.088  10.806  1.00  0.00     0.169 HD
BRANCH  10  16
HETATM   16  C2  UNL     1     -15.487  -1.844  13.970  1.00  0.00     0.310 C 
BRANCH  16  17
HETATM   17  O1  UNL     1     -16.300  -0.954  13.226  1.00  0.00    -0.360 OA
HETATM   18  C1  UNL     1     -17.620  -1.430  13.176  1.00  0.00     0.205 C 
ENDBRANCH  16  17
BRANCH  16  19
HETATM   19  O2  UNL     1     -14.555  -1.117  14.728  1.00  0.00    -0.366 OA
ATOM     20  H2  UNL     1     -14.470  -1.504  15.591  1.00  0.00     0.213 HD
ENDBRANCH  16  19
ENDBRANCH  10  16
BRANCH  12  21
HETATM   21  O5  UNL     1     -13.329  -0.963  12.237  1.00  0.00    -0.355 OA
ATOM     22  H5  UNL     1     -13.039  -0.526  11.445  1.00  0.00     0.218 HD
ENDBRANCH  12  21
BRANCH  13  23
HETATM   23  N10 UNL     1     -12.109  -2.768  10.645  1.00  0.00    -0.383 N 
ATOM     24 2H10 UNL     1     -11.472  -3.442  10.220  1.00  0.00     0.157 HD
ATOM     25 1H10 UNL     1     -11.974  -1.775  10.452  1.00  0.00     0.157 HD
ENDBRANCH  13  23
ENDBRANCH   1   8
BRANCH   4  26
HETATM   26  C7  UNL     1     -14.795  -9.678  11.040  1.00  0.00     0.290 A 
HETATM   27  N6  UNL     1     -13.475 -10.193  11.394  1.00  0.00    -0.302 N 
HETATM   28  C12 UNL     1     -13.901 -11.200  12.033  1.00  0.00     0.235 A 
ATOM     29  H6  UNL     1     -12.533  -9.858  11.194  1.00  0.00     0.168 HD
HETATM   30  N7  UNL     1     -13.383 -12.319  12.762  1.00  0.00    -0.056 NA
HETATM   31  O3  UNL     1     -15.200 -10.818  11.765  1.00  0.00    -0.266 OA
BRANCH  26  32
HETATM   32  N3  UNL     1     -15.033  -9.731   9.627  1.00  0.00    -0.319 N 
ATOM     33  H3  UNL     1     -14.234  -9.671   8.997  1.00  0.00     0.166 HD
BRANCH  32  34
HETATM   34  C8  UNL     1     -16.369  -9.868   9.045  1.00  0.00     0.120 A 
HETATM   35  N4  UNL     1     -17.137  -8.842   8.762  1.00  0.00    -0.322 N 
HETATM   36  C9  UNL     1     -18.337  -9.067   8.224  1.00  0.00     0.144 A 
ATOM     37  H4  UNL     1     -16.821  -7.890   8.949  1.00  0.00     0.169 HD
HETATM   38  S1  UNL     1     -18.400 -10.762   8.111  1.00  0.00    -0.056 SA
HETATM   39  C10 UNL     1     -16.873 -11.117   8.762  1.00  0.00     0.026 A 
HETATM   40  C11 UNL     1     -16.235 -12.462   8.972  1.00  0.00     0.060 C 
BRANCH  36  41
HETATM   41  N5  UNL     1     -19.232  -8.162   7.879  1.00  0.00    -0.380 N 
ATOM     42  H52 UNL     1     -20.058  -7.833   8.380  1.00  0.00     0.158 HD
ATOM     43  H51 UNL     1     -19.249  -7.616   7.018  1.00  0.00     0.158 HD
ENDBRANCH  36  41
ENDBRANCH  32  34
ENDBRANCH  26  32
ENDBRANCH   4  26
TORSDOF 10
ENDMDL
MODEL 3
REMARK VINA RESULT: -8.185720706      2.925      8.354
REMARK  10 active torsions:
REMARK  status: ('A' for Active; 'I' for Inactive)
REMARK    1  A    between atoms: O1_2  and  C2_3 
REMARK    2  A    between atoms: C2_3  and  O2_4 
REMARK    3  A    between atoms: C2_3  and  C3_6 
REMARK    4  A    between atoms: C4_9  and  C5_10 
REMARK    5  A    between atoms: C6_13  and  C7_14 
REMARK    6  A    between atoms: C7_14  and  N3_15 
REMARK    7  A    between atoms: N3_15  and  C8_17 
REMARK    8  A    between atoms: C9_20  and  N5_21 
REMARK    9  A    between atoms: C13_37  and  N10_38 
REMARK   10  A    between atoms: C14_41  and  O5_42 
ROOT
HETATM    1  C5  UNL     1     -13.275  -4.641  11.372  1.00  0.00     0.216 A 
HETATM    2  N2  UNL     1     -13.443  -5.897  10.954  1.00  0.00    -0.314 N 
ATOM      3  H2  UNL     1     -14.332  -6.351  10.745  1.00  0.00     0.169 HD
HETATM    4  C6  UNL     1     -12.222  -6.452  10.859  1.00  0.00     0.184 A 
HETATM    5  N8  UNL     1     -11.370  -5.489  11.229  1.00  0.00    -0.240 N 
ATOM      6  H8  UNL     1     -10.357  -5.600  11.264  1.00  0.00     0.196 HD
HETATM    7  O4  UNL     1     -11.993  -4.403  11.537  1.00  0.00    -0.214 OA
ENDROOT
BRANCH   1   8
HETATM    8  C4  UNL     1     -14.312  -3.660  11.616  1.00  0.00     0.162 A 
HETATM    9  N1  UNL     1     -14.503  -3.207  12.872  1.00  0.00    -0.336 N 
HETATM   10  C3  UNL     1     -15.455  -2.290  13.166  1.00  0.00     0.103 A 
ATOM     11  H1  UNL     1     -13.914  -3.566  13.623  1.00  0.00     0.167 HD
HETATM   12  C14 UNL     1     -16.241  -1.814  12.158  1.00  0.00     0.137 A 
HETATM   13  C13 UNL     1     -16.042  -2.282  10.869  1.00  0.00     0.136 A 
HETATM   14  N9  UNL     1     -15.091  -3.180  10.654  1.00  0.00    -0.323 N 
ATOM     15  H9  UNL     1     -14.951  -3.519   9.703  1.00  0.00     0.169 HD
BRANCH  10  16
HETATM   16  C2  UNL     1     -15.587  -1.850  14.571  1.00  0.00     0.310 C 
BRANCH  16  17
HETATM   17  O1  UNL     1     -16.953  -1.869  14.949  1.00  0.00    -0.360 OA
HETATM   18  C1  UNL     1     -17.292  -0.675  15.605  1.00  0.00     0.205 C 
ENDBRANCH  16  17
BRANCH  16  19
HETATM   19  O2  UNL     1     -15.088  -0.541  14.661  1.00  0.00    -0.366 OA
ATOM     20  H2  UNL     1     -14.349  -0.437  14.073  1.00  0.00     0.213 HD
ENDBRANCH  16  19
ENDBRANCH  10  16
BRANCH  12  21
HETATM   21  O5  UNL     1     -17.223  -0.889  12.371  1.00  0.00    -0.355 OA
ATOM     22  H5  UNL     1     -17.072   0.045  12.277  1.00  0.00     0.218 HD
ENDBRANCH  12  21
BRANCH  13  23
HETATM   23  N10 UNL     1     -16.773  -1.849   9.889  1.00  0.00    -0.383 N 
ATOM     24 2H10 UNL     1     -16.870  -2.394   9.033  1.00  0.00     0.157 HD
ATOM     25 1H10 UNL     1     -17.263  -0.957   9.962  1.00  0.00     0.157 HD
ENDBRANCH  13  23
ENDBRANCH   1   8
BRANCH   4  26
HETATM   26  C7  UNL     1     -12.007  -7.846  10.415  1.00  0.00     0.290 A 
HETATM   27  N6  UNL     1     -10.856  -7.914   9.518  1.00  0.00    -0.302 N 
HETATM   28  C12 UNL     1     -10.131  -8.600  10.298  1.00  0.00     0.235 A 
ATOM     29  H6  UNL     1     -10.693  -7.539   8.584  1.00  0.00     0.168 HD
HETATM   30  N7  UNL     1      -8.821  -9.179  10.329  1.00  0.00    -0.056 NA
HETATM   31  O3  UNL     1     -11.146  -8.607  11.232  1.00  0.00    -0.266 OA
BRANCH  26  32
HETATM   32  N3  UNL     1     -13.141  -8.549   9.892  1.00  0.00    -0.319 N 
ATOM     33  H3  UNL     1     -13.495  -8.285   8.973  1.00  0.00     0.166 HD
BRANCH  32  34
HETATM   34  C8  UNL     1     -13.815  -9.629  10.613  1.00  0.00     0.120 A 
HETATM   35  N4  UNL     1     -13.308 -10.208  11.677  1.00  0.00    -0.322 N 
HETATM   36  C9  UNL     1     -14.002 -11.179  12.272  1.00  0.00     0.144 A 
ATOM     37  H4  UNL     1     -12.400  -9.920  12.041  1.00  0.00     0.169 HD
HETATM   38  S1  UNL     1     -15.406 -11.293  11.320  1.00  0.00    -0.056 SA
HETATM   39  C10 UNL     1     -15.044 -10.080  10.188  1.00  0.00     0.026 A 
HETATM   40  C11 UNL     1     -15.866  -9.618   9.017  1.00  0.00     0.060 C 
BRANCH  36  41
HETATM   41  N5  UNL     1     -13.648 -11.864  13.342  1.00  0.00    -0.380 N 
ATOM     42  H52 UNL     1     -13.360 -11.535  14.264  1.00  0.00     0.158 HD
ATOM     43  H51 UNL     1     -13.601 -12.879  13.431  1.00  0.00     0.158 HD
ENDBRANCH  36  41
ENDBRANCH  32  34
ENDBRANCH  26  32
ENDBRANCH   4  26
TORSDOF 10
ENDMDL
MODEL 4
REMARK VINA RESULT: -8.090025882      3.172      7.500
REMARK  10 active torsions:
REMARK  status: ('A' for Active; 'I' for Inactive)
REMARK    1  A    between atoms: O1_2  and  C2_3 
REMARK    2  A    between atoms: C2_3  and  O2_4 
REMARK    3  A    between atoms: C2_3  and  C3_6 
REMARK    4  A    between atoms: C4_9  and  C5_10 
REMARK    5  A    between atoms: C6_13  and  C7_14 
REMARK    6  A    between atoms: C7_14  and  N3_15 
REMARK    7  A    between atoms: N3_15  and  C8_17 
REMARK    8  A    between atoms: C9_20  and  N5_21 
REMARK    9  A    between atoms: C13_37  and  N10_38 
REMARK   10  A    between atoms: C14_41  and  O5_42 
ROOT
HETATM    1  C5  UNL     1     -11.781  -5.233  11.119  1.00  0.00     0.216 A 
HETATM    2  N2  UNL     1     -12.068  -6.519  11.325  1.00  0.00    -0.314 N 
ATOM      3  H2  UNL     1     -12.861  -6.886  11.852  1.00  0.00     0.169 HD
HETATM    4  C6  UNL     1     -11.117  -7.243  10.709  1.00  0.00     0.184 A 
HETATM    5  N8  UNL     1     -10.295  -6.343  10.155  1.00  0.00    -0.240 N 
ATOM      6  H8  UNL     1      -9.465  -6.580   9.612  1.00  0.00     0.196 HD
HETATM    7  O4  UNL     1     -10.687  -5.139  10.397  1.00  0.00    -0.214 OA
ENDROOT
BRANCH   1   8
HETATM    8  C4  UNL     1     -12.530  -4.088  11.596  1.00  0.00     0.162 A 
HETATM    9  N1  UNL     1     -13.662  -4.291  12.300  1.00  0.00    -0.336 N 
HETATM   10  C3  UNL     1     -14.406  -3.264  12.773  1.00  0.00     0.103 A 
ATOM     11  H1  UNL     1     -13.967  -5.248  12.481  1.00  0.00     0.167 HD
HETATM   12  C14 UNL     1     -13.994  -1.987  12.526  1.00  0.00     0.137 A 
HETATM   13  C13 UNL     1     -12.830  -1.782  11.802  1.00  0.00     0.136 A 
HETATM   14  N9  UNL     1     -12.152  -2.836  11.370  1.00  0.00    -0.323 N 
ATOM     15  H9  UNL     1     -11.296  -2.676  10.838  1.00  0.00     0.169 HD
BRANCH  10  16
HETATM   16  C2  UNL     1     -15.629  -3.584  13.538  1.00  0.00     0.310 C 
BRANCH  16  17
HETATM   17  O1  UNL     1     -16.753  -2.998  12.906  1.00  0.00    -0.360 OA
HETATM   18  C1  UNL     1     -17.746  -2.706  13.855  1.00  0.00     0.205 C 
ENDBRANCH  16  17
BRANCH  16  19
HETATM   19  O2  UNL     1     -15.480  -3.055  14.830  1.00  0.00    -0.366 OA
ATOM     20  H2  UNL     1     -15.502  -3.757  15.470  1.00  0.00     0.213 HD
ENDBRANCH  16  19
ENDBRANCH  10  16
BRANCH  12  21
HETATM   21  O5  UNL     1     -14.687  -0.897  12.967  1.00  0.00    -0.355 OA
ATOM     22  H5  UNL     1     -15.407  -0.966  13.584  1.00  0.00     0.218 HD
ENDBRANCH  12  21
BRANCH  13  23
HETATM   23  N10 UNL     1     -12.412  -0.580  11.551  1.00  0.00    -0.383 N 
ATOM     24 2H10 UNL     1     -12.666  -0.113  10.681  1.00  0.00     0.157 HD
ATOM     25 1H10 UNL     1     -11.824  -0.085  12.221  1.00  0.00     0.157 HD
ENDBRANCH  13  23
ENDBRANCH   1   8
BRANCH   4  26
HETATM   26  C7  UNL     1     -11.106  -8.721  10.712  1.00  0.00     0.290 A 
HETATM   27  N6  UNL     1      -9.800  -9.214  10.278  1.00  0.00    -0.302 N 
HETATM   28  C12 UNL     1      -9.484  -9.727  11.392  1.00  0.00     0.235 A 
ATOM     29  H6  UNL     1      -9.312  -9.163   9.384  1.00  0.00     0.168 HD
HETATM   30  N7  UNL     1      -8.394 -10.445  11.983  1.00  0.00    -0.056 NA
HETATM   31  O3  UNL     1     -10.688  -9.314  11.923  1.00  0.00    -0.266 OA
BRANCH  26  32
HETATM   32  N3  UNL     1     -12.183  -9.387  10.041  1.00  0.00    -0.319 N 
ATOM     33  H3  UNL     1     -11.966  -9.972   9.235  1.00  0.00     0.166 HD
BRANCH  32  34
HETATM   34  C8  UNL     1     -13.581  -9.267  10.457  1.00  0.00     0.120 A 
HETATM   35  N4  UNL     1     -14.409  -8.385   9.945  1.00  0.00    -0.322 N 
HETATM   36  C9  UNL     1     -15.668  -8.358  10.384  1.00  0.00     0.144 A 
ATOM     37  H4  UNL     1     -14.094  -7.733   9.227  1.00  0.00     0.169 HD
HETATM   38  S1  UNL     1     -15.703  -9.598  11.546  1.00  0.00    -0.056 SA
HETATM   39  C10 UNL     1     -14.087 -10.106  11.422  1.00  0.00     0.026 A 
HETATM   40  C11 UNL     1     -13.391 -11.202  12.181  1.00  0.00     0.060 C 
BRANCH  36  41
HETATM   41  N5  UNL     1     -16.628  -7.545   9.985  1.00  0.00    -0.380 N 
ATOM     42  H52 UNL     1     -17.570  -7.414  10.354  1.00  0.00     0.158 HD
ATOM     43  H51 UNL     1     -16.587  -6.884   9.209  1.00  0.00     0.158 HD
ENDBRANCH  36  41
ENDBRANCH  32  34
ENDBRANCH  26  32
ENDBRANCH   4  26
TORSDOF 10
ENDMDL
MODEL 5
REMARK VINA RESULT: -8.055676401      3.894      8.150
REMARK  10 active torsions:
REMARK  status: ('A' for Active; 'I' for Inactive)
REMARK    1  A    between atoms: O1_2  and  C2_3 
REMARK    2  A    between atoms: C2_3  and  O2_4 
REMARK    3  A    between atoms: C2_3  and  C3_6 
REMARK    4  A    between atoms: C4_9  and  C5_10 
REMARK    5  A    between atoms: C6_13  and  C7_14 
REMARK    6  A    between atoms: C7_14  and  N3_15 
REMARK    7  A    between atoms: N3_15  and  C8_17 
REMARK    8  A    between atoms: C9_20  and  N5_21 
REMARK    9  A    between atoms: C13_37  and  N10_38 
REMARK   10  A    between atoms: C14_41  and  O5_42 
ROOT
HETATM    1  C5  UNL     1     -14.849  -6.248  12.207  1.00  0.00     0.216 A 
HETATM    2  N2  UNL     1     -14.451  -7.208  11.370  1.00  0.00    -0.314 N 
ATOM      3  H2  UNL     1     -13.802  -7.100  10.591  1.00  0.00     0.169 HD
HETATM    4  C6  UNL     1     -15.063  -8.344  11.747  1.00  0.00     0.184 A 
HETATM    5  N8  UNL     1     -15.808  -8.005  12.806  1.00  0.00    -0.240 N 
ATOM      6  H8  UNL     1     -16.399  -8.655  13.325  1.00  0.00     0.196 HD
HETATM    7  O4  UNL     1     -15.685  -6.753  13.086  1.00  0.00    -0.214 OA
ENDROOT
BRANCH   1   8
HETATM    8  C4  UNL     1     -14.448  -4.856  12.187  1.00  0.00     0.162 A 
HETATM    9  N1  UNL     1     -15.128  -3.967  12.940  1.00  0.00    -0.336 N 
HETATM   10  C3  UNL     1     -14.803  -2.653  12.966  1.00  0.00     0.103 A 
ATOM     11  H1  UNL     1     -15.911  -4.294  13.507  1.00  0.00     0.167 HD
HETATM   12  C14 UNL     1     -13.757  -2.221  12.206  1.00  0.00     0.137 A 
HETATM   13  C13 UNL     1     -13.061  -3.137  11.432  1.00  0.00     0.136 A 
HETATM   14  N9  UNL     1     -13.434  -4.408  11.457  1.00  0.00    -0.323 N 
ATOM     15  H9  UNL     1     -12.917  -5.076  10.885  1.00  0.00     0.169 HD
BRANCH  10  16
HETATM   16  C2  UNL     1     -15.603  -1.755  13.825  1.00  0.00     0.310 C 
BRANCH  16  17
HETATM   17  O1  UNL     1     -16.467  -0.972  13.020  1.00  0.00    -0.360 OA
HETATM   18  C1  UNL     1     -17.783  -1.453  13.110  1.00  0.00     0.205 C 
ENDBRANCH  16  17
BRANCH  16  19
HETATM   19  O2  UNL     1     -14.714  -0.921  14.521  1.00  0.00    -0.366 OA
ATOM     20  H2  UNL     1     -14.655  -1.198  15.427  1.00  0.00     0.213 HD
ENDBRANCH  16  19
ENDBRANCH  10  16
BRANCH  12  21
HETATM   21  O5  UNL     1     -13.366  -0.913  12.175  1.00  0.00    -0.355 OA
ATOM     22  H5  UNL     1     -12.489  -0.638  12.418  1.00  0.00     0.218 HD
ENDBRANCH  12  21
BRANCH  13  23
HETATM   23  N10 UNL     1     -12.061  -2.757  10.699  1.00  0.00    -0.383 N 
ATOM     24 2H10 UNL     1     -11.389  -3.437  10.343  1.00  0.00     0.157 HD
ATOM     25 1H10 UNL     1     -11.934  -1.772  10.466  1.00  0.00     0.157 HD
ENDBRANCH  13  23
ENDBRANCH   1   8
BRANCH   4  26
HETATM   26  C7  UNL     1     -14.859  -9.633  11.053  1.00  0.00     0.290 A 
HETATM   27  N6  UNL     1     -13.524 -10.152  11.342  1.00  0.00    -0.302 N 
HETATM   28  C12 UNL     1     -13.922 -11.161  11.997  1.00  0.00     0.235 A 
ATOM     29  H6  UNL     1     -12.592  -9.817  11.100  1.00  0.00     0.168 HD
HETATM   30  N7  UNL     1     -13.371 -12.283  12.696  1.00  0.00    -0.056 NA
HETATM   31  O3  UNL     1     -15.230 -10.776  11.793  1.00  0.00    -0.266 OA
BRANCH  26  32
HETATM   32  N3  UNL     1     -15.164  -9.681   9.653  1.00  0.00    -0.319 N 
ATOM     33  H3  UNL     1     -14.637  -9.079   9.021  1.00  0.00     0.166 HD
BRANCH  32  34
HETATM   34  C8  UNL     1     -16.195 -10.551   9.088  1.00  0.00     0.120 A 
HETATM   35  N4  UNL     1     -16.028 -11.842   8.913  1.00  0.00    -0.322 N 
HETATM   36  C9  UNL     1     -17.030 -12.555   8.398  1.00  0.00     0.144 A 
ATOM     37  H4  UNL     1     -15.147 -12.290   9.166  1.00  0.00     0.169 HD
HETATM   38  S1  UNL     1     -18.246 -11.393   8.148  1.00  0.00    -0.056 SA
HETATM   39  C10 UNL     1     -17.413 -10.028   8.719  1.00  0.00     0.026 A 
HETATM   40  C11 UNL     1     -17.893  -8.606   8.799  1.00  0.00     0.060 C 
BRANCH  36  41
HETATM   41  N5  UNL     1     -17.036 -13.852   8.155  1.00  0.00    -0.380 N 
ATOM     42  H52 UNL     1     -16.337 -14.561   8.372  1.00  0.00     0.158 HD
ATOM     43  H51 UNL     1     -17.773 -14.384   7.692  1.00  0.00     0.158 HD
ENDBRANCH  36  41
ENDBRANCH  32  34
ENDBRANCH  26  32
ENDBRANCH   4  26
TORSDOF 10
ENDMDL
