MODEL 1
REMARK VINA RESULT: -7.321239033      0.000      0.000
REMARK  12 active torsions:
REMARK  status: ('A' for Active; 'I' for Inactive)
REMARK    1  A    between atoms: C3_8  and  N3_9 
REMARK    2  A    between atoms: C4_10  and  O2_11 
REMARK    3  A    between atoms: C5_13  and  O3_14 
REMARK    4  A    between atoms: C6_16  and  O4_17 
REMARK    5  A    between atoms: C7_19  and  C8_20 
REMARK    6  A    between atoms: N7_27  and  C9_28 
REMARK    7  A    between atoms: C9_28  and  C10_29 
REMARK    8  A    between atoms: C10_29  and  O5_30 
REMARK    9  A    between atoms: C10_29  and  C11_32 
REMARK   10  A    between atoms: C12_33  and  O6_34 
REMARK   11  A    between atoms: C13_38  and  N9_39 
REMARK   12  A    between atoms: C14_44  and  N11_45 
ROOT
HETATM    1  C8  UNL     1     -13.853  -8.703  10.864  1.00  0.00     0.170 A 
HETATM    2  N4  UNL     1     -12.862  -8.424   9.932  1.00  0.00    -0.267 N 
ATOM      3  H4  UNL     1     -12.390  -9.118   9.353  1.00  0.00     0.190 HD
HETATM    4  N5  UNL     1     -12.629  -7.177   9.910  1.00  0.00    -0.226 N 
ATOM      5  H5  UNL     1     -11.948  -6.707   9.314  1.00  0.00     0.210 HD
HETATM    6  N6  UNL     1     -13.411  -6.601  10.777  1.00  0.00    -0.224 N 
ATOM      7  H6  UNL     1     -13.446  -5.602  10.978  1.00  0.00     0.210 HD
HETATM    8  N7  UNL     1     -14.174  -7.563  11.373  1.00  0.00    -0.252 N 
ENDROOT
BRANCH   8   9
HETATM    9  C9  UNL     1     -15.067  -7.074  12.418  1.00  0.00     0.217 C 
BRANCH   9  10
HETATM   10  C10 UNL     1     -15.719  -5.842  11.949  1.00  0.00     0.081 C 
BRANCH  10  11
HETATM   11  O5  UNL     1     -16.442  -5.964  10.871  1.00  0.00    -0.362 OA
ATOM     12  H5  UNL     1     -16.030  -5.673  10.066  1.00  0.00     0.217 HD
ENDBRANCH  10  11
BRANCH  10  13
HETATM   13  C11 UNL     1     -15.643  -4.529  12.551  1.00  0.00     0.090 A 
HETATM   14  C12 UNL     1     -14.566  -3.702  12.479  1.00  0.00     0.171 A 
HETATM   15  N8  UNL     1     -14.559  -2.476  13.076  1.00  0.00    -0.170 N 
HETATM   16  C13 UNL     1     -15.612  -2.024  13.761  1.00  0.00     0.679 A 
ATOM     17  H8  UNL     1     -13.728  -1.890  12.997  1.00  0.00     0.186 HD
HETATM   18  N10 UNL     1     -16.688  -2.830  13.840  1.00  0.00    -0.176 N 
HETATM   19  C14 UNL     1     -16.750  -4.039  13.276  1.00  0.00     0.131 A 
ATOM     20  H10 UNL     1     -17.501  -2.498  14.360  1.00  0.00     0.186 HD
BRANCH  14  21
HETATM   21  O6  UNL     1     -13.372  -3.993  11.809  1.00  0.00    -0.345 OA
ATOM     22  H6  UNL     1     -12.773  -3.347  11.454  1.00  0.00     0.219 HD
ENDBRANCH  14  21
BRANCH  16  23
HETATM   23  N9  UNL     1     -15.565  -0.850  14.310  1.00  0.00    -0.234 N 
ATOM     24  H92 UNL     1     -16.056  -0.039  13.933  1.00  0.00     0.174 HD
ATOM     25  H91 UNL     1     -15.013  -0.710  15.157  1.00  0.00     0.174 HD
ENDBRANCH  16  23
BRANCH  19  26
HETATM   26  N11 UNL     1     -17.821  -4.794  13.370  1.00  0.00    -0.384 N 
ATOM     27 2H11 UNL     1     -18.755  -4.426  13.187  1.00  0.00     0.157 HD
ATOM     28 1H11 UNL     1     -17.706  -5.773  13.630  1.00  0.00     0.157 HD
ENDBRANCH  19  26
ENDBRANCH  10  13
ENDBRANCH   9  10
ENDBRANCH   8   9
BRANCH   1  29
HETATM   29  C7  UNL     1     -14.390 -10.040  11.026  1.00  0.00     0.126 A 
HETATM   30  N3  UNL     1     -15.598 -10.374  10.457  1.00  0.00    -0.266 N 
HETATM   31  C4  UNL     1     -15.964 -11.608  10.773  1.00  0.00     0.186 A 
HETATM   32  C5  UNL     1     -15.010 -12.167  11.577  1.00  0.00     0.153 A 
HETATM   33  C6  UNL     1     -14.012 -11.131  11.719  1.00  0.00     0.135 A 
BRANCH  30  34
HETATM   34  C3  UNL     1     -16.414  -9.542   9.640  1.00  0.00     0.161 A 
HETATM   35  C2  UNL     1     -16.499  -9.698   8.270  1.00  0.00     0.077 A 
HETATM   36  C1  UNL     1     -15.777 -10.715   7.469  1.00  0.00     0.074 C 
HETATM   37  N1  UNL     1     -17.355  -8.741   7.853  1.00  0.00    -0.242 N 
HETATM   38  O1  UNL     1     -17.755  -8.056   8.896  1.00  0.00    -0.155 OA
ATOM     39  H1  UNL     1     -17.641  -8.578   6.887  1.00  0.00     0.196 HD
HETATM   40  N2  UNL     1     -17.212  -8.505   9.988  1.00  0.00    -0.223 N 
ATOM     41  H2  UNL     1     -17.360  -8.144  10.931  1.00  0.00     0.198 HD
ENDBRANCH  30  34
BRANCH  31  42
HETATM   42  O2  UNL     1     -17.124 -12.291  10.385  1.00  0.00    -0.344 OA
ATOM     43  H2  UNL     1     -17.723 -12.786  10.931  1.00  0.00     0.219 HD
ENDBRANCH  31  42
BRANCH  32  44
HETATM   44  O3  UNL     1     -14.976 -13.418  12.137  1.00  0.00    -0.354 OA
ATOM     45  H3  UNL     1     -14.423 -13.748  12.835  1.00  0.00     0.218 HD
ENDBRANCH  32  44
BRANCH  33  46
HETATM   46  O4  UNL     1     -12.953 -11.437  12.472  1.00  0.00    -0.356 OA
ATOM     47  H4  UNL     1     -12.369 -10.718  12.681  1.00  0.00     0.218 HD
ENDBRANCH  33  46
ENDBRANCH   1  29
TORSDOF 12
ENDMDL
MODEL 2
REMARK VINA RESULT: -6.697188426      2.640      7.940
REMARK  12 active torsions:
REMARK  status: ('A' for Active; 'I' for Inactive)
REMARK    1  A    between atoms: C3_8  and  N3_9 
REMARK    2  A    between atoms: C4_10  and  O2_11 
REMARK    3  A    between atoms: C5_13  and  O3_14 
REMARK    4  A    between atoms: C6_16  and  O4_17 
REMARK    5  A    between atoms: C7_19  and  C8_20 
REMARK    6  A    between atoms: N7_27  and  C9_28 
REMARK    7  A    between atoms: C9_28  and  C10_29 
REMARK    8  A    between atoms: C10_29  and  O5_30 
REMARK    9  A    between atoms: C10_29  and  C11_32 
REMARK   10  A    between atoms: C12_33  and  O6_34 
REMARK   11  A    between atoms: C13_38  and  N9_39 
REMARK   12  A    between atoms: C14_44  and  N11_45 
ROOT
HETATM    1  C8  UNL     1     -13.599  -3.121  11.083  1.00  0.00     0.170 A 
HETATM    2  N4  UNL     1     -12.379  -2.465  10.990  1.00  0.00    -0.267 N 
ATOM      3  H4  UNL     1     -12.245  -1.529  10.610  1.00  0.00     0.190 HD
HETATM    4  N5  UNL     1     -11.456  -3.204  11.449  1.00  0.00    -0.226 N 
ATOM      5  H5  UNL     1     -10.466  -2.962  11.499  1.00  0.00     0.210 HD
HETATM    6  N6  UNL     1     -11.989  -4.324  11.844  1.00  0.00    -0.224 N 
ATOM      7  H6  UNL     1     -11.488  -5.110  12.257  1.00  0.00     0.210 HD
HETATM    8  N7  UNL     1     -13.332  -4.267  11.611  1.00  0.00    -0.252 N 
ENDROOT
BRANCH   8   9
HETATM    9  C9  UNL     1     -14.064  -5.482  11.952  1.00  0.00     0.217 C 
BRANCH   9  10
HETATM   10  C10 UNL     1     -13.669  -6.551  11.023  1.00  0.00     0.081 C 
BRANCH  10  11
HETATM   11  O5  UNL     1     -12.625  -6.298  10.284  1.00  0.00    -0.362 OA
ATOM     12  H5  UNL     1     -12.685  -6.580   9.379  1.00  0.00     0.217 HD
ENDBRANCH  10  11
BRANCH  10  13
HETATM   13  C11 UNL     1     -14.311  -7.836  10.845  1.00  0.00     0.090 A 
HETATM   14  C12 UNL     1     -15.633  -8.016  10.588  1.00  0.00     0.171 A 
HETATM   15  N8  UNL     1     -16.175  -9.258  10.437  1.00  0.00    -0.170 N 
HETATM   16  C13 UNL     1     -15.432 -10.363  10.533  1.00  0.00     0.679 A 
ATOM     17  H8  UNL     1     -17.173  -9.345  10.246  1.00  0.00     0.186 HD
HETATM   18  N10 UNL     1     -14.118 -10.203  10.786  1.00  0.00    -0.176 N 
HETATM   19  C14 UNL     1     -13.536  -9.011  10.943  1.00  0.00     0.131 A 
ATOM     20  H10 UNL     1     -13.537 -11.038  10.861  1.00  0.00     0.186 HD
BRANCH  14  21
HETATM   21  O6  UNL     1     -16.573  -6.987  10.451  1.00  0.00    -0.345 OA
ATOM     22  H6  UNL     1     -17.108  -6.639  11.155  1.00  0.00     0.219 HD
ENDBRANCH  14  21
BRANCH  16  23
HETATM   23  N9  UNL     1     -15.986 -11.525  10.379  1.00  0.00    -0.234 N 
ATOM     24  H92 UNL     1     -16.908 -11.757  10.751  1.00  0.00     0.174 HD
ATOM     25  H91 UNL     1     -15.492 -12.257   9.867  1.00  0.00     0.174 HD
ENDBRANCH  16  23
BRANCH  19  26
HETATM   26  N11 UNL     1     -12.249  -8.895  11.182  1.00  0.00    -0.384 N 
ATOM     27 2H11 UNL     1     -11.764  -8.003  11.092  1.00  0.00     0.157 HD
ATOM     28 1H11 UNL     1     -11.730  -9.726  11.469  1.00  0.00     0.157 HD
ENDBRANCH  19  26
ENDBRANCH  10  13
ENDBRANCH   9  10
ENDBRANCH   8   9
BRANCH   1  29
HETATM   29  C7  UNL     1     -14.844  -2.468  10.724  1.00  0.00     0.126 A 
HETATM   30  N3  UNL     1     -15.667  -1.963  11.705  1.00  0.00    -0.266 N 
HETATM   31  C4  UNL     1     -16.789  -1.474  11.198  1.00  0.00     0.186 A 
HETATM   32  C5  UNL     1     -16.773  -1.627   9.840  1.00  0.00     0.153 A 
HETATM   33  C6  UNL     1     -15.508  -2.271   9.569  1.00  0.00     0.135 A 
BRANCH  30  34
HETATM   34  C3  UNL     1     -15.416  -1.955  13.106  1.00  0.00     0.161 A 
HETATM   35  C2  UNL     1     -16.012  -2.849  13.974  1.00  0.00     0.077 A 
HETATM   36  C1  UNL     1     -16.972  -3.913  13.595  1.00  0.00     0.074 C 
HETATM   37  N1  UNL     1     -15.537  -2.532  15.197  1.00  0.00    -0.242 N 
HETATM   38  O1  UNL     1     -14.715  -1.519  15.075  1.00  0.00    -0.155 OA
ATOM     39  H1  UNL     1     -15.777  -3.003  16.069  1.00  0.00     0.196 HD
HETATM   40  N2  UNL     1     -14.616  -1.142  13.835  1.00  0.00    -0.223 N 
ATOM     41  H2  UNL     1     -14.042  -0.377  13.479  1.00  0.00     0.198 HD
ENDBRANCH  30  34
BRANCH  31  42
HETATM   42  O2  UNL     1     -17.859  -0.882  11.882  1.00  0.00    -0.344 OA
ATOM     43  H2  UNL     1     -18.729  -1.236  12.027  1.00  0.00     0.219 HD
ENDBRANCH  31  42
BRANCH  32  44
HETATM   44  O3  UNL     1     -17.721  -1.267   8.918  1.00  0.00    -0.354 OA
ATOM     45  H3  UNL     1     -17.813  -1.542   8.013  1.00  0.00     0.218 HD
ENDBRANCH  32  44
BRANCH  33  46
HETATM   46  O4  UNL     1     -15.246  -2.532   8.287  1.00  0.00    -0.356 OA
ATOM     47  H4  UNL     1     -14.346  -2.401   8.010  1.00  0.00     0.218 HD
ENDBRANCH  33  46
ENDBRANCH   1  29
TORSDOF 12
ENDMDL
MODEL 3
REMARK VINA RESULT: -6.577339991      0.785      1.477
REMARK  12 active torsions:
REMARK  status: ('A' for Active; 'I' for Inactive)
REMARK    1  A    between atoms: C3_8  and  N3_9 
REMARK    2  A    between atoms: C4_10  and  O2_11 
REMARK    3  A    between atoms: C5_13  and  O3_14 
REMARK    4  A    between atoms: C6_16  and  O4_17 
REMARK    5  A    between atoms: C7_19  and  C8_20 
REMARK    6  A    between atoms: N7_27  and  C9_28 
REMARK    7  A    between atoms: C9_28  and  C10_29 
REMARK    8  A    between atoms: C10_29  and  O5_30 
REMARK    9  A    between atoms: C10_29  and  C11_32 
REMARK   10  A    between atoms: C12_33  and  O6_34 
REMARK   11  A    between atoms: C13_38  and  N9_39 
REMARK   12  A    between atoms: C14_44  and  N11_45 
ROOT
HETATM    1  C8  UNL     1     -13.858  -8.744  10.814  1.00  0.00     0.170 A 
HETATM    2  N4  UNL     1     -12.909  -8.484   9.834  1.00  0.00    -0.267 N 
ATOM      3  H4  UNL     1     -12.480  -9.187   9.233  1.00  0.00     0.190 HD
HETATM    4  N5  UNL     1     -12.654  -7.241   9.799  1.00  0.00    -0.226 N 
ATOM      5  H5  UNL     1     -11.993  -6.785   9.170  1.00  0.00     0.210 HD
HETATM    6  N6  UNL     1     -13.380  -6.651  10.704  1.00  0.00    -0.224 N 
ATOM      7  H6  UNL     1     -13.386  -5.651  10.905  1.00  0.00     0.210 HD
HETATM    8  N7  UNL     1     -14.132  -7.597  11.337  1.00  0.00    -0.252 N 
ENDROOT
BRANCH   8   9
HETATM    9  C9  UNL     1     -14.962  -7.091  12.424  1.00  0.00     0.217 C 
BRANCH   9  10
HETATM   10  C10 UNL     1     -15.684  -5.899  11.956  1.00  0.00     0.081 C 
BRANCH  10  11
HETATM   11  O5  UNL     1     -16.336  -6.039  10.836  1.00  0.00    -0.362 OA
ATOM     12  H5  UNL     1     -15.923  -5.658  10.070  1.00  0.00     0.217 HD
ENDBRANCH  10  11
BRANCH  10  13
HETATM   13  C11 UNL     1     -15.744  -4.604  12.600  1.00  0.00     0.090 A 
HETATM   14  C12 UNL     1     -16.818  -4.123  13.280  1.00  0.00     0.171 A 
HETATM   15  N8  UNL     1     -16.808  -2.889  13.859  1.00  0.00    -0.170 N 
HETATM   16  C13 UNL     1     -15.741  -2.089  13.789  1.00  0.00     0.679 A 
ATOM     17  H8  UNL     1     -17.637  -2.568  14.359  1.00  0.00     0.186 HD
HETATM   18  N10 UNL     1     -14.668  -2.551  13.119  1.00  0.00    -0.176 N 
HETATM   19  C14 UNL     1     -14.622  -3.751  12.533  1.00  0.00     0.131 A 
ATOM     20  H10 UNL     1     -13.845  -1.952  13.057  1.00  0.00     0.186 HD
BRANCH  14  21
HETATM   21  O6  UNL     1     -18.025  -4.807  13.466  1.00  0.00    -0.345 OA
ATOM     22  H6  UNL     1     -18.625  -4.670  14.190  1.00  0.00     0.219 HD
ENDBRANCH  14  21
BRANCH  16  23
HETATM   23  N9  UNL     1     -15.773  -0.924  14.357  1.00  0.00    -0.234 N 
ATOM     24  H92 UNL     1     -15.890  -0.053  13.838  1.00  0.00     0.174 HD
ATOM     25  H91 UNL     1     -15.675  -0.853  15.371  1.00  0.00     0.174 HD
ENDBRANCH  16  23
BRANCH  19  26
HETATM   26  N11 UNL     1     -13.553  -4.169  11.894  1.00  0.00    -0.384 N 
ATOM     27 2H11 UNL     1     -13.612  -4.843  11.131  1.00  0.00     0.157 HD
ATOM     28 1H11 UNL     1     -12.643  -3.801  12.173  1.00  0.00     0.157 HD
ENDBRANCH  19  26
ENDBRANCH  10  13
ENDBRANCH   9  10
ENDBRANCH   8   9
BRANCH   1  29
HETATM   29  C7  UNL     1     -14.412 -10.070  11.004  1.00  0.00     0.126 A 
HETATM   30  N3  UNL     1     -15.628 -10.398  10.449  1.00  0.00    -0.266 N 
HETATM   31  C4  UNL     1     -16.009 -11.620  10.789  1.00  0.00     0.186 A 
HETATM   32  C5  UNL     1     -15.058 -12.178  11.597  1.00  0.00     0.153 A 
HETATM   33  C6  UNL     1     -14.045 -11.154  11.714  1.00  0.00     0.135 A 
BRANCH  30  34
HETATM   34  C3  UNL     1     -16.438  -9.569   9.621  1.00  0.00     0.161 A 
HETATM   35  C2  UNL     1     -16.516  -9.734   8.253  1.00  0.00     0.077 A 
HETATM   36  C1  UNL     1     -15.792 -10.757   7.461  1.00  0.00     0.074 C 
HETATM   37  N1  UNL     1     -17.368  -8.778   7.824  1.00  0.00    -0.242 N 
HETATM   38  O1  UNL     1     -17.772  -8.085   8.861  1.00  0.00    -0.155 OA
ATOM     39  H1  UNL     1     -17.649  -8.621   6.856  1.00  0.00     0.196 HD
HETATM   40  N2  UNL     1     -17.236  -8.528   9.959  1.00  0.00    -0.223 N 
ATOM     41  H2  UNL     1     -17.388  -8.161  10.898  1.00  0.00     0.198 HD
ENDBRANCH  30  34
BRANCH  31  42
HETATM   42  O2  UNL     1     -17.181 -12.294  10.420  1.00  0.00    -0.344 OA
ATOM     43  H2  UNL     1     -17.260 -13.125   9.966  1.00  0.00     0.219 HD
ENDBRANCH  31  42
BRANCH  32  44
HETATM   44  O3  UNL     1     -15.037 -13.419  12.179  1.00  0.00    -0.354 OA
ATOM     45  H3  UNL     1     -14.781 -14.253  11.804  1.00  0.00     0.218 HD
ENDBRANCH  32  44
BRANCH  33  46
HETATM   46  O4  UNL     1     -12.985 -11.461  12.465  1.00  0.00    -0.356 OA
ATOM     47  H4  UNL     1     -12.636 -10.758  13.001  1.00  0.00     0.218 HD
ENDBRANCH  33  46
ENDBRANCH   1  29
TORSDOF 12
ENDMDL
MODEL 4
REMARK VINA RESULT: -6.342502803      3.511      5.593
REMARK  12 active torsions:
REMARK  status: ('A' for Active; 'I' for Inactive)
REMARK    1  A    between atoms: C3_8  and  N3_9 
REMARK    2  A    between atoms: C4_10  and  O2_11 
REMARK    3  A    between atoms: C5_13  and  O3_14 
REMARK    4  A    between atoms: C6_16  and  O4_17 
REMARK    5  A    between atoms: C7_19  and  C8_20 
REMARK    6  A    between atoms: N7_27  and  C9_28 
REMARK    7  A    between atoms: C9_28  and  C10_29 
REMARK    8  A    between atoms: C10_29  and  O5_30 
REMARK    9  A    between atoms: C10_29  and  C11_32 
REMARK   10  A    between atoms: C12_33  and  O6_34 
REMARK   11  A    between atoms: C13_38  and  N9_39 
REMARK   12  A    between atoms: C14_44  and  N11_45 
ROOT
HETATM    1  C8  UNL     1     -14.606  -9.451  11.433  1.00  0.00     0.170 A 
HETATM    2  N4  UNL     1     -15.537  -8.732  12.171  1.00  0.00    -0.267 N 
ATOM      3  H4  UNL     1     -16.280  -9.143  12.735  1.00  0.00     0.190 HD
HETATM    4  N5  UNL     1     -15.324  -7.488  12.040  1.00  0.00    -0.226 N 
ATOM      5  H5  UNL     1     -15.863  -6.741  12.478  1.00  0.00     0.210 HD
HETATM    6  N6  UNL     1     -14.301  -7.331  11.252  1.00  0.00    -0.224 N 
ATOM      7  H6  UNL     1     -13.900  -6.438  10.965  1.00  0.00     0.210 HD
HETATM    8  N7  UNL     1     -13.855  -8.564  10.873  1.00  0.00    -0.252 N 
ENDROOT
BRANCH   8   9
HETATM    9  C9  UNL     1     -12.739  -8.549   9.935  1.00  0.00     0.217 C 
BRANCH   9  10
HETATM   10  C10 UNL     1     -11.585  -7.904  10.579  1.00  0.00     0.081 C 
BRANCH  10  11
HETATM   11  O5  UNL     1     -11.717  -6.631  10.826  1.00  0.00    -0.362 OA
ATOM     12  H5  UNL     1     -10.908  -6.135  10.866  1.00  0.00     0.217 HD
ENDBRANCH  10  11
BRANCH  10  13
HETATM   13  C11 UNL     1     -10.336  -8.527  10.961  1.00  0.00     0.090 A 
HETATM   14  C12 UNL     1     -10.225  -9.627  11.751  1.00  0.00     0.171 A 
HETATM   15  N8  UNL     1      -9.013 -10.160  12.077  1.00  0.00    -0.170 N 
HETATM   16  C13 UNL     1      -7.872  -9.628  11.634  1.00  0.00     0.679 A 
ATOM     17  H8  UNL     1      -8.977 -10.986  12.674  1.00  0.00     0.186 HD
HETATM   18  N10 UNL     1      -7.963  -8.538  10.848  1.00  0.00    -0.176 N 
HETATM   19  C14 UNL     1      -9.123  -7.975  10.497  1.00  0.00     0.131 A 
ATOM     20  H10 UNL     1      -7.099  -8.121  10.501  1.00  0.00     0.186 HD
BRANCH  14  21
HETATM   21  O6  UNL     1     -11.300 -10.326  12.311  1.00  0.00    -0.345 OA
ATOM     22  H6  UNL     1     -11.452 -10.441  13.242  1.00  0.00     0.219 HD
ENDBRANCH  14  21
BRANCH  16  23
HETATM   23  N9  UNL     1      -6.740 -10.169  11.964  1.00  0.00    -0.234 N 
ATOM     24  H92 UNL     1      -5.978  -9.646  12.397  1.00  0.00     0.174 HD
ATOM     25  H91 UNL     1      -6.584 -11.163  11.789  1.00  0.00     0.174 HD
ENDBRANCH  16  23
BRANCH  19  26
HETATM   26  N11 UNL     1      -9.171  -6.915   9.723  1.00  0.00    -0.384 N 
ATOM     27 2H11 UNL     1      -9.861  -6.177   9.864  1.00  0.00     0.157 HD
ATOM     28 1H11 UNL     1      -8.493  -6.834   8.965  1.00  0.00     0.157 HD
ENDBRANCH  19  26
ENDBRANCH  10  13
ENDBRANCH   9  10
ENDBRANCH   8   9
BRANCH   1  29
HETATM   29  C7  UNL     1     -14.550 -10.899  11.481  1.00  0.00     0.126 A 
HETATM   30  N3  UNL     1     -15.195 -11.648  10.523  1.00  0.00    -0.266 N 
HETATM   31  C4  UNL     1     -15.100 -12.946  10.770  1.00  0.00     0.186 A 
HETATM   32  C5  UNL     1     -14.379 -13.133  11.916  1.00  0.00     0.153 A 
HETATM   33  C6  UNL     1     -14.041 -11.796  12.347  1.00  0.00     0.135 A 
BRANCH  30  34
HETATM   34  C3  UNL     1     -15.911 -11.155   9.396  1.00  0.00     0.161 A 
HETATM   35  C2  UNL     1     -17.287 -11.225   9.301  1.00  0.00     0.077 A 
HETATM   36  C1  UNL     1     -18.197 -11.806  10.316  1.00  0.00     0.074 C 
HETATM   37  N1  UNL     1     -17.593 -10.667   8.110  1.00  0.00    -0.242 N 
HETATM   38  O1  UNL     1     -16.481 -10.290   7.529  1.00  0.00    -0.155 OA
ATOM     39  H1  UNL     1     -18.532 -10.557   7.727  1.00  0.00     0.196 HD
HETATM   40  N2  UNL     1     -15.448 -10.566   8.269  1.00  0.00    -0.223 N 
ATOM     41  H2  UNL     1     -14.472 -10.374   8.042  1.00  0.00     0.198 HD
ENDBRANCH  30  34
BRANCH  31  42
HETATM   42  O2  UNL     1     -15.626 -14.009  10.024  1.00  0.00    -0.344 OA
ATOM     43  H2  UNL     1     -16.273 -14.650  10.293  1.00  0.00     0.219 HD
ENDBRANCH  31  42
BRANCH  32  44
HETATM   44  O3  UNL     1     -14.037 -14.305  12.541  1.00  0.00    -0.354 OA
ATOM     45  H3  UNL     1     -13.859 -14.464  13.461  1.00  0.00     0.218 HD
ENDBRANCH  32  44
BRANCH  33  46
HETATM   46  O4  UNL     1     -13.320 -11.705  13.467  1.00  0.00    -0.356 OA
ATOM     47  H4  UNL     1     -12.426 -12.020  13.413  1.00  0.00     0.218 HD
ENDBRANCH  33  46
ENDBRANCH   1  29
TORSDOF 12
ENDMDL
MODEL 5
REMARK VINA RESULT: -6.264090423      1.245      1.441
REMARK  12 active torsions:
REMARK  status: ('A' for Active; 'I' for Inactive)
REMARK    1  A    between atoms: C3_8  and  N3_9 
REMARK    2  A    between atoms: C4_10  and  O2_11 
REMARK    3  A    between atoms: C5_13  and  O3_14 
REMARK    4  A    between atoms: C6_16  and  O4_17 
REMARK    5  A    between atoms: C7_19  and  C8_20 
REMARK    6  A    between atoms: N7_27  and  C9_28 
REMARK    7  A    between atoms: C9_28  and  C10_29 
REMARK    8  A    between atoms: C10_29  and  O5_30 
REMARK    9  A    between atoms: C10_29  and  C11_32 
REMARK   10  A    between atoms: C12_33  and  O6_34 
REMARK   11  A    between atoms: C13_38  and  N9_39 
REMARK   12  A    between atoms: C14_44  and  N11_45 
ROOT
HETATM    1  C8  UNL     1     -13.451  -8.426  10.735  1.00  0.00     0.170 A 
HETATM    2  N4  UNL     1     -12.500  -8.246   9.740  1.00  0.00    -0.267 N 
ATOM      3  H4  UNL     1     -12.053  -8.996   9.214  1.00  0.00     0.190 HD
HETATM    4  N5  UNL     1     -12.269  -7.008   9.582  1.00  0.00    -0.226 N 
ATOM      5  H5  UNL     1     -11.614  -6.603   8.914  1.00  0.00     0.210 HD
HETATM    6  N6  UNL     1     -13.014  -6.346  10.420  1.00  0.00    -0.224 N 
ATOM      7  H6  UNL     1     -13.041  -5.331  10.520  1.00  0.00     0.210 HD
HETATM    8  N7  UNL     1     -13.751  -7.240  11.140  1.00  0.00    -0.252 N 
ENDROOT
BRANCH   8   9
HETATM    9  C9  UNL     1     -14.599  -6.645  12.168  1.00  0.00     0.217 C 
BRANCH   9  10
HETATM   10  C10 UNL     1     -14.231  -5.230  12.327  1.00  0.00     0.081 C 
BRANCH  10  11
HETATM   11  O5  UNL     1     -13.070  -5.009  12.877  1.00  0.00    -0.362 OA
ATOM     12  H5  UNL     1     -12.410  -4.635  12.305  1.00  0.00     0.217 HD
ENDBRANCH  10  11
BRANCH  10  13
HETATM   13  C11 UNL     1     -15.014  -4.075  11.944  1.00  0.00     0.090 A 
HETATM   14  C12 UNL     1     -14.666  -3.186  10.976  1.00  0.00     0.171 A 
HETATM   15  N8  UNL     1     -15.450  -2.114  10.669  1.00  0.00    -0.170 N 
HETATM   16  C13 UNL     1     -16.602  -1.883  11.303  1.00  0.00     0.679 A 
ATOM     17  H8  UNL     1     -15.149  -1.472   9.935  1.00  0.00     0.186 HD
HETATM   18  N10 UNL     1     -16.962  -2.755  12.264  1.00  0.00    -0.176 N 
HETATM   19  C14 UNL     1     -16.234  -3.821  12.606  1.00  0.00     0.131 A 
ATOM     20  H10 UNL     1     -17.840  -2.592  12.757  1.00  0.00     0.186 HD
BRANCH  14  21
HETATM   21  O6  UNL     1     -13.503  -3.256  10.201  1.00  0.00    -0.345 OA
ATOM     22  H6  UNL     1     -12.942  -2.518   9.990  1.00  0.00     0.219 HD
ENDBRANCH  14  21
BRANCH  16  23
HETATM   23  N9  UNL     1     -17.319  -0.852  10.976  1.00  0.00    -0.234 N 
ATOM     24  H92 UNL     1     -17.208   0.064  11.411  1.00  0.00     0.174 HD
ATOM     25  H91 UNL     1     -18.036  -0.943  10.255  1.00  0.00     0.174 HD
ENDBRANCH  16  23
BRANCH  19  26
HETATM   26  N11 UNL     1     -16.623  -4.653  13.545  1.00  0.00    -0.384 N 
ATOM     27 2H11 UNL     1     -17.552  -5.073  13.539  1.00  0.00     0.157 HD
ATOM     28 1H11 UNL     1     -15.970  -4.883  14.294  1.00  0.00     0.157 HD
ENDBRANCH  19  26
ENDBRANCH  10  13
ENDBRANCH   9  10
ENDBRANCH   8   9
BRANCH   1  29
HETATM   29  C7  UNL     1     -13.980  -9.739  11.054  1.00  0.00     0.126 A 
HETATM   30  N3  UNL     1     -15.250 -10.087  10.656  1.00  0.00    -0.266 N 
HETATM   31  C4  UNL     1     -15.590 -11.289  11.099  1.00  0.00     0.186 A 
HETATM   32  C5  UNL     1     -14.554 -11.810  11.822  1.00  0.00     0.153 A 
HETATM   33  C6  UNL     1     -13.535 -10.787  11.773  1.00  0.00     0.135 A 
BRANCH  30  34
HETATM   34  C3  UNL     1     -16.148  -9.297   9.883  1.00  0.00     0.161 A 
HETATM   35  C2  UNL     1     -16.443  -9.582   8.564  1.00  0.00     0.077 A 
HETATM   36  C1  UNL     1     -15.887 -10.708   7.777  1.00  0.00     0.074 C 
HETATM   37  N1  UNL     1     -17.315  -8.627   8.178  1.00  0.00    -0.242 N 
HETATM   38  O1  UNL     1     -17.529  -7.823   9.191  1.00  0.00    -0.155 OA
ATOM     39  H1  UNL     1     -17.737  -8.544   7.253  1.00  0.00     0.196 HD
HETATM   40  N2  UNL     1     -16.846  -8.192  10.234  1.00  0.00    -0.223 N 
ATOM     41  H2  UNL     1     -16.838  -7.733  11.145  1.00  0.00     0.198 HD
ENDBRANCH  30  34
BRANCH  31  42
HETATM   42  O2  UNL     1     -16.795 -11.974  10.899  1.00  0.00    -0.344 OA
ATOM     43  H2  UNL     1     -17.327 -12.425  11.544  1.00  0.00     0.219 HD
ENDBRANCH  31  42
BRANCH  32  44
HETATM   44  O3  UNL     1     -14.468 -13.020  12.461  1.00  0.00    -0.354 OA
ATOM     45  H3  UNL     1     -13.993 -13.802  12.204  1.00  0.00     0.218 HD
ENDBRANCH  32  44
BRANCH  33  46
HETATM   46  O4  UNL     1     -12.397 -11.061  12.416  1.00  0.00    -0.356 OA
ATOM     47  H4  UNL     1     -11.596 -10.831  11.961  1.00  0.00     0.218 HD
ENDBRANCH  33  46
ENDBRANCH   1  29
TORSDOF 12
ENDMDL
