MODEL 1
REMARK VINA RESULT: -8.309059554      0.000      0.000
REMARK  12 active torsions:
REMARK  status: ('A' for Active; 'I' for Inactive)
REMARK    1  A    between atoms: C2_3  and  O1_4 
REMARK    2  A    between atoms: C3_8  and  N3_9 
REMARK    3  A    between atoms: N4_11  and  C4_13 
REMARK    4  A    between atoms: C4_13  and  C5_14 
REMARK    5  A    between atoms: C4_13  and  C10_32 
REMARK    6  A    between atoms: C5_14  and  O2_15 
REMARK    7  A    between atoms: O2_15  and  C6_16 
REMARK    8  A    between atoms: C6_16  and  C7_18 
REMARK    9  A    between atoms: C7_18  and  N5_19 
REMARK   10  A    between atoms: C8_22  and  N7_23 
REMARK   11  A    between atoms: C12_34  and  O4_35 
REMARK   12  A    between atoms: C13_37  and  O5_38 
ROOT
HETATM    1  N1  UNL     1      -9.303 -10.574  11.150  1.00  0.00    -0.190 NA
HETATM    2  C1  UNL     1      -9.922  -9.608  10.925  1.00  0.00     0.142 C 
HETATM    3  C2  UNL     1     -10.708  -8.423  10.638  1.00  0.00     0.324 C 
HETATM    4  N2  UNL     1     -12.102  -8.807  10.636  1.00  0.00    -0.300 N 
ATOM      5  H2  UNL     1     -12.556  -9.345  11.374  1.00  0.00     0.168 HD
HETATM    6  C3  UNL     1     -12.693  -8.376   9.576  1.00  0.00     0.210 C 
HETATM    7  N10 UNL     1     -11.737  -7.673   8.791  1.00  0.00    -0.269 N 
ATOM      8  H10 UNL     1     -11.951  -7.099   7.976  1.00  0.00     0.185 HD
HETATM    9  N11 UNL     1     -10.442  -7.892   9.317  1.00  0.00    -0.062 NA
ENDROOT
BRANCH   3  10
HETATM   10  O1  UNL     1     -10.418  -7.444  11.562  1.00  0.00    -0.344 OA
ATOM     11  H1  UNL     1     -10.055  -6.686  11.118  1.00  0.00     0.215 HD
ENDBRANCH   3  10
BRANCH   6  12
HETATM   12  N3  UNL     1     -14.058  -8.548   9.210  1.00  0.00    -0.274 N 
HETATM   13  N4  UNL     1     -14.941  -9.003   9.997  1.00  0.00    -0.322 N 
ATOM     14  H4  UNL     1     -15.893  -9.089   9.644  1.00  0.00     0.181 HD
ATOM     15  H3  UNL     1     -14.340  -8.291   8.263  1.00  0.00     0.189 HD
BRANCH  13  16
HETATM   16  C4  UNL     1     -14.697  -9.401  11.335  1.00  0.00     0.163 C 
BRANCH  16  17
HETATM   17  C5  UNL     1     -15.501  -8.781  12.407  1.00  0.00     0.210 C 
BRANCH  17  18
HETATM   18  O2  UNL     1     -15.366  -7.448  12.689  1.00  0.00    -0.318 OA
BRANCH  18  19
HETATM   19  C6  UNL     1     -15.764  -6.322  12.065  1.00  0.00     0.279 C 
HETATM   20  O3  UNL     1     -16.421  -6.433  11.006  1.00  0.00    -0.263 OA
BRANCH  19  21
HETATM   21  C7  UNL     1     -15.474  -4.933  12.549  1.00  0.00     0.279 C 
BRANCH  21  22
HETATM   22  N5  UNL     1     -14.215  -4.451  12.050  1.00  0.00    -0.100 N 
HETATM   23  N6  UNL     1     -13.262  -5.189  11.514  1.00  0.00    -0.115 N 
HETATM   24  C8  UNL     1     -12.219  -4.392  11.158  1.00  0.00     0.705 A 
ATOM     25  H6  UNL     1     -13.301  -6.200  11.387  1.00  0.00     0.206 HD
HETATM   26  N8  UNL     1     -12.533  -3.139  11.479  1.00  0.00    -0.020 N 
HETATM   27  C9  UNL     1     -13.768  -3.187  12.030  1.00  0.00     0.708 A 
ATOM     28  H8  UNL     1     -11.958  -2.308  11.338  1.00  0.00     0.203 HD
HETATM   29  N9  UNL     1     -14.398  -2.132  12.465  1.00  0.00    -0.233 N 
ATOM     30  H92 UNL     1     -15.329  -2.169  12.880  1.00  0.00     0.174 HD
ATOM     31  H91 UNL     1     -14.057  -1.171  12.450  1.00  0.00     0.174 HD
BRANCH  24  32
HETATM   32  N7  UNL     1     -11.127  -4.772  10.611  1.00  0.00    -0.233 N 
ATOM     33  H72 UNL     1     -10.916  -4.734   9.615  1.00  0.00     0.174 HD
ATOM     34  H71 UNL     1     -10.317  -5.165  11.090  1.00  0.00     0.174 HD
ENDBRANCH  24  32
ENDBRANCH  21  22
ENDBRANCH  19  21
ENDBRANCH  18  19
ENDBRANCH  17  18
ENDBRANCH  16  17
BRANCH  16  35
HETATM   35  C10 UNL     1     -14.641 -10.905  11.471  1.00  0.00     0.014 A 
HETATM   36  C11 UNL     1     -15.261 -11.852  10.711  1.00  0.00     0.056 A 
HETATM   37  C12 UNL     1     -15.058 -13.136  11.028  1.00  0.00     0.107 A 
HETATM   38  C13 UNL     1     -14.239 -13.398  12.095  1.00  0.00     0.141 A 
HETATM   39  S1  UNL     1     -13.786 -11.838  12.613  1.00  0.00    -0.065 SA
BRANCH  37  40
HETATM   40  O4  UNL     1     -15.633 -14.234  10.336  1.00  0.00    -0.357 OA
ATOM     41  H4  UNL     1     -15.242 -14.657   9.580  1.00  0.00     0.217 HD
ENDBRANCH  37  40
BRANCH  38  42
HETATM   42  O5  UNL     1     -13.855 -14.615  12.643  1.00  0.00    -0.352 OA
ATOM     43  H5  UNL     1     -13.010 -14.892  12.978  1.00  0.00     0.218 HD
ENDBRANCH  38  42
ENDBRANCH  16  35
ENDBRANCH  13  16
ENDBRANCH   6  12
TORSDOF 12
ENDMDL
MODEL 2
REMARK VINA RESULT: -8.288264721      1.471      1.865
REMARK  12 active torsions:
REMARK  status: ('A' for Active; 'I' for Inactive)
REMARK    1  A    between atoms: C2_3  and  O1_4 
REMARK    2  A    between atoms: C3_8  and  N3_9 
REMARK    3  A    between atoms: N4_11  and  C4_13 
REMARK    4  A    between atoms: C4_13  and  C5_14 
REMARK    5  A    between atoms: C4_13  and  C10_32 
REMARK    6  A    between atoms: C5_14  and  O2_15 
REMARK    7  A    between atoms: O2_15  and  C6_16 
REMARK    8  A    between atoms: C6_16  and  C7_18 
REMARK    9  A    between atoms: C7_18  and  N5_19 
REMARK   10  A    between atoms: C8_22  and  N7_23 
REMARK   11  A    between atoms: C12_34  and  O4_35 
REMARK   12  A    between atoms: C13_37  and  O5_38 
ROOT
HETATM    1  N1  UNL     1      -7.465 -10.584  10.684  1.00  0.00    -0.190 NA
HETATM    2  C1  UNL     1      -8.428 -10.034  11.054  1.00  0.00     0.142 C 
HETATM    3  C2  UNL     1      -9.631  -9.351  11.492  1.00  0.00     0.324 C 
HETATM    4  N2  UNL     1     -10.655  -9.578  10.496  1.00  0.00    -0.300 N 
ATOM      5  H2  UNL     1     -10.901 -10.493  10.116  1.00  0.00     0.168 HD
HETATM    6  C3  UNL     1     -11.213  -8.469  10.154  1.00  0.00     0.210 C 
HETATM    7  N10 UNL     1     -10.604  -7.420  10.897  1.00  0.00    -0.269 N 
ATOM      8  H10 UNL     1     -10.941  -6.459  10.944  1.00  0.00     0.185 HD
HETATM    9  N11 UNL     1      -9.456  -7.915  11.560  1.00  0.00    -0.062 NA
ENDROOT
BRANCH   3  10
HETATM   10  O1  UNL     1      -9.985  -9.802  12.744  1.00  0.00    -0.344 OA
ATOM     11  H1  UNL     1     -10.581  -9.181  13.147  1.00  0.00     0.215 HD
ENDBRANCH   3  10
BRANCH   6  12
HETATM   12  N3  UNL     1     -12.259  -8.277   9.207  1.00  0.00    -0.274 N 
HETATM   13  N4  UNL     1     -13.488  -8.272   9.515  1.00  0.00    -0.322 N 
ATOM     14  H4  UNL     1     -14.164  -8.125   8.766  1.00  0.00     0.181 HD
ATOM     15  H3  UNL     1     -12.004  -8.136   8.229  1.00  0.00     0.189 HD
BRANCH  13  16
HETATM   16  C4  UNL     1     -13.989  -8.455  10.827  1.00  0.00     0.163 C 
BRANCH  16  17
HETATM   17  C5  UNL     1     -15.083  -7.577  11.288  1.00  0.00     0.210 C 
BRANCH  17  18
HETATM   18  O2  UNL     1     -14.834  -6.580  12.192  1.00  0.00    -0.318 OA
BRANCH  18  19
HETATM   19  C6  UNL     1     -15.596  -5.612  12.740  1.00  0.00     0.279 C 
HETATM   20  O3  UNL     1     -16.839  -5.711  12.642  1.00  0.00    -0.263 OA
BRANCH  19  21
HETATM   21  C7  UNL     1     -15.059  -4.415  13.465  1.00  0.00     0.279 C 
BRANCH  21  22
HETATM   22  N5  UNL     1     -14.230  -3.608  12.611  1.00  0.00    -0.100 N 
HETATM   23  N6  UNL     1     -13.327  -4.058  11.760  1.00  0.00    -0.115 N 
HETATM   24  C8  UNL     1     -12.740  -3.008  11.127  1.00  0.00     0.705 A 
ATOM     25  H6  UNL     1     -13.105  -5.041  11.601  1.00  0.00     0.206 HD
HETATM   26  N8  UNL     1     -13.288  -1.888  11.594  1.00  0.00    -0.020 N 
HETATM   27  C9  UNL     1     -14.207  -2.271  12.511  1.00  0.00     0.708 A 
ATOM     28  H8  UNL     1     -13.062  -0.933  11.317  1.00  0.00     0.203 HD
HETATM   29  N9  UNL     1     -14.945  -1.429  13.178  1.00  0.00    -0.233 N 
ATOM     30  H92 UNL     1     -15.638  -1.718  13.869  1.00  0.00     0.174 HD
ATOM     31  H91 UNL     1     -14.927  -0.412  13.102  1.00  0.00     0.174 HD
BRANCH  24  32
HETATM   32  N7  UNL     1     -11.822  -3.076  10.238  1.00  0.00    -0.233 N 
ATOM     33  H72 UNL     1     -11.017  -2.454  10.166  1.00  0.00     0.174 HD
ATOM     34  H71 UNL     1     -11.763  -3.756   9.481  1.00  0.00     0.174 HD
ENDBRANCH  24  32
ENDBRANCH  21  22
ENDBRANCH  19  21
ENDBRANCH  18  19
ENDBRANCH  17  18
ENDBRANCH  16  17
BRANCH  16  35
HETATM   35  C10 UNL     1     -14.275  -9.910  11.120  1.00  0.00     0.014 A 
HETATM   36  C11 UNL     1     -13.678 -10.729  12.032  1.00  0.00     0.056 A 
HETATM   37  C12 UNL     1     -14.107 -11.994  12.109  1.00  0.00     0.107 A 
HETATM   38  C13 UNL     1     -15.118 -12.368  11.262  1.00  0.00     0.141 A 
HETATM   39  S1  UNL     1     -15.427 -10.935  10.391  1.00  0.00    -0.065 SA
BRANCH  37  40
HETATM   40  O4  UNL     1     -13.587 -12.965  13.004  1.00  0.00    -0.357 OA
ATOM     41  H4  UNL     1     -13.466 -13.883  12.791  1.00  0.00     0.217 HD
ENDBRANCH  37  40
BRANCH  38  42
HETATM   42  O5  UNL     1     -15.752 -13.595  11.122  1.00  0.00    -0.352 OA
ATOM     43  H5  UNL     1     -16.445 -13.858  10.528  1.00  0.00     0.218 HD
ENDBRANCH  38  42
ENDBRANCH  16  35
ENDBRANCH  13  16
ENDBRANCH   6  12
TORSDOF 12
ENDMDL
MODEL 3
REMARK VINA RESULT: -8.274877281      2.024      2.671
REMARK  12 active torsions:
REMARK  status: ('A' for Active; 'I' for Inactive)
REMARK    1  A    between atoms: C2_3  and  O1_4 
REMARK    2  A    between atoms: C3_8  and  N3_9 
REMARK    3  A    between atoms: N4_11  and  C4_13 
REMARK    4  A    between atoms: C4_13  and  C5_14 
REMARK    5  A    between atoms: C4_13  and  C10_32 
REMARK    6  A    between atoms: C5_14  and  O2_15 
REMARK    7  A    between atoms: O2_15  and  C6_16 
REMARK    8  A    between atoms: C6_16  and  C7_18 
REMARK    9  A    between atoms: C7_18  and  N5_19 
REMARK   10  A    between atoms: C8_22  and  N7_23 
REMARK   11  A    between atoms: C12_34  and  O4_35 
REMARK   12  A    between atoms: C13_37  and  O5_38 
ROOT
HETATM    1  N1  UNL     1      -7.342 -10.632  10.633  1.00  0.00    -0.190 NA
HETATM    2  C1  UNL     1      -8.282 -10.060  11.029  1.00  0.00     0.142 C 
HETATM    3  C2  UNL     1      -9.457  -9.350  11.497  1.00  0.00     0.324 C 
HETATM    4  N2  UNL     1     -10.501  -9.523  10.511  1.00  0.00    -0.300 N 
ATOM      5  H2  UNL     1     -10.781 -10.421  10.115  1.00  0.00     0.168 HD
HETATM    6  C3  UNL     1     -11.029  -8.390  10.201  1.00  0.00     0.210 C 
HETATM    7  N10 UNL     1     -10.377  -7.377  10.957  1.00  0.00    -0.269 N 
ATOM      8  H10 UNL     1     -10.683  -6.407  11.029  1.00  0.00     0.185 HD
HETATM    9  N11 UNL     1      -9.237  -7.922  11.593  1.00  0.00    -0.062 NA
ENDROOT
BRANCH   3  10
HETATM   10  O1  UNL     1      -9.809  -9.816  12.744  1.00  0.00    -0.344 OA
ATOM     11  H1  UNL     1     -10.314 -10.616  12.653  1.00  0.00     0.215 HD
ENDBRANCH   3  10
BRANCH   6  12
HETATM   12  N3  UNL     1     -12.080  -8.145   9.273  1.00  0.00    -0.274 N 
HETATM   13  N4  UNL     1     -13.307  -8.134   9.593  1.00  0.00    -0.322 N 
ATOM     14  H4  UNL     1     -13.987  -7.947   8.857  1.00  0.00     0.181 HD
ATOM     15  H3  UNL     1     -11.833  -7.970   8.299  1.00  0.00     0.189 HD
BRANCH  13  16
HETATM   16  C4  UNL     1     -13.798  -8.361  10.901  1.00  0.00     0.163 C 
BRANCH  16  17
HETATM   17  C5  UNL     1     -14.767  -7.399  11.462  1.00  0.00     0.210 C 
BRANCH  17  18
HETATM   18  O2  UNL     1     -14.331  -6.304  12.156  1.00  0.00    -0.318 OA
BRANCH  18  19
HETATM   19  C6  UNL     1     -13.585  -5.230  11.826  1.00  0.00     0.279 C 
HETATM   20  O3  UNL     1     -12.576  -5.410  11.109  1.00  0.00    -0.263 OA
BRANCH  19  21
HETATM   21  C7  UNL     1     -13.879  -3.825  12.257  1.00  0.00     0.279 C 
BRANCH  21  22
HETATM   22  N5  UNL     1     -14.731  -3.151  11.315  1.00  0.00    -0.100 N 
HETATM   23  N6  UNL     1     -14.414  -2.830  10.076  1.00  0.00    -0.115 N 
HETATM   24  C8  UNL     1     -15.467  -2.204   9.487  1.00  0.00     0.705 A 
ATOM     25  H6  UNL     1     -13.517  -3.022   9.629  1.00  0.00     0.206 HD
HETATM   26  N8  UNL     1     -16.454  -2.135  10.378  1.00  0.00    -0.020 N 
HETATM   27  C9  UNL     1     -15.988  -2.723  11.504  1.00  0.00     0.708 A 
ATOM     28  H8  UNL     1     -17.376  -1.723  10.239  1.00  0.00     0.203 HD
HETATM   29  N9  UNL     1     -16.693  -2.838  12.594  1.00  0.00    -0.233 N 
ATOM     30  H92 UNL     1     -16.342  -3.282  13.443  1.00  0.00     0.174 HD
ATOM     31  H91 UNL     1     -17.649  -2.513  12.737  1.00  0.00     0.174 HD
BRANCH  24  32
HETATM   32  N7  UNL     1     -15.509  -1.756   8.289  1.00  0.00    -0.233 N 
ATOM     33  H72 UNL     1     -15.695  -0.790   8.021  1.00  0.00     0.174 HD
ATOM     34  H71 UNL     1     -15.363  -2.296   7.437  1.00  0.00     0.174 HD
ENDBRANCH  24  32
ENDBRANCH  21  22
ENDBRANCH  19  21
ENDBRANCH  18  19
ENDBRANCH  17  18
ENDBRANCH  16  17
BRANCH  16  35
HETATM   35  C10 UNL     1     -14.251  -9.791  11.089  1.00  0.00     0.014 A 
HETATM   36  C11 UNL     1     -13.732 -10.747  11.911  1.00  0.00     0.056 A 
HETATM   37  C12 UNL     1     -14.310 -11.955  11.904  1.00  0.00     0.107 A 
HETATM   38  C13 UNL     1     -15.383 -12.133  11.070  1.00  0.00     0.141 A 
HETATM   39  S1  UNL     1     -15.540 -10.607  10.328  1.00  0.00    -0.065 SA
BRANCH  37  40
HETATM   40  O4  UNL     1     -13.887 -13.051  12.700  1.00  0.00    -0.357 OA
ATOM     41  H4  UNL     1     -13.443 -13.821  12.362  1.00  0.00     0.217 HD
ENDBRANCH  37  40
BRANCH  38  42
HETATM   42  O5  UNL     1     -16.167 -13.260  10.859  1.00  0.00    -0.352 OA
ATOM     43  H5  UNL     1     -15.908 -14.167  10.738  1.00  0.00     0.218 HD
ENDBRANCH  38  42
ENDBRANCH  16  35
ENDBRANCH  13  16
ENDBRANCH   6  12
TORSDOF 12
ENDMDL
MODEL 4
REMARK VINA RESULT: -8.243209607      1.684      2.409
REMARK  12 active torsions:
REMARK  status: ('A' for Active; 'I' for Inactive)
REMARK    1  A    between atoms: C2_3  and  O1_4 
REMARK    2  A    between atoms: C3_8  and  N3_9 
REMARK    3  A    between atoms: N4_11  and  C4_13 
REMARK    4  A    between atoms: C4_13  and  C5_14 
REMARK    5  A    between atoms: C4_13  and  C10_32 
REMARK    6  A    between atoms: C5_14  and  O2_15 
REMARK    7  A    between atoms: O2_15  and  C6_16 
REMARK    8  A    between atoms: C6_16  and  C7_18 
REMARK    9  A    between atoms: C7_18  and  N5_19 
REMARK   10  A    between atoms: C8_22  and  N7_23 
REMARK   11  A    between atoms: C12_34  and  O4_35 
REMARK   12  A    between atoms: C13_37  and  O5_38 
ROOT
HETATM    1  N1  UNL     1      -7.490 -10.612  10.685  1.00  0.00    -0.190 NA
HETATM    2  C1  UNL     1      -8.454 -10.059  11.050  1.00  0.00     0.142 C 
HETATM    3  C2  UNL     1      -9.658  -9.373  11.481  1.00  0.00     0.324 C 
HETATM    4  N2  UNL     1     -10.680  -9.608  10.484  1.00  0.00    -0.300 N 
ATOM      5  H2  UNL     1     -10.926 -10.525  10.111  1.00  0.00     0.168 HD
HETATM    6  C3  UNL     1     -11.238  -8.501  10.133  1.00  0.00     0.210 C 
HETATM    7  N10 UNL     1     -10.630  -7.447  10.869  1.00  0.00    -0.269 N 
ATOM      8  H10 UNL     1     -10.967  -6.485  10.909  1.00  0.00     0.185 HD
HETATM    9  N11 UNL     1      -9.483  -7.937  11.538  1.00  0.00    -0.062 NA
ENDROOT
BRANCH   3  10
HETATM   10  O1  UNL     1     -10.014  -9.815  12.735  1.00  0.00    -0.344 OA
ATOM     11  H1  UNL     1     -10.814  -9.380  13.009  1.00  0.00     0.215 HD
ENDBRANCH   3  10
BRANCH   6  12
HETATM   12  N3  UNL     1     -12.282  -8.316   9.183  1.00  0.00    -0.274 N 
HETATM   13  N4  UNL     1     -13.513  -8.327   9.486  1.00  0.00    -0.322 N 
ATOM     14  H4  UNL     1     -14.187  -8.185   8.734  1.00  0.00     0.181 HD
ATOM     15  H3  UNL     1     -12.025  -8.167   8.207  1.00  0.00     0.189 HD
BRANCH  13  16
HETATM   16  C4  UNL     1     -14.017  -8.524  10.794  1.00  0.00     0.163 C 
BRANCH  16  17
HETATM   17  C5  UNL     1     -15.107  -7.646  11.263  1.00  0.00     0.210 C 
BRANCH  17  18
HETATM   18  O2  UNL     1     -14.986  -6.962  12.442  1.00  0.00    -0.318 OA
BRANCH  18  19
HETATM   19  C6  UNL     1     -14.882  -5.654  12.752  1.00  0.00     0.279 C 
HETATM   20  O3  UNL     1     -15.780  -5.139  13.453  1.00  0.00    -0.263 OA
BRANCH  19  21
HETATM   21  C7  UNL     1     -13.758  -4.763  12.314  1.00  0.00     0.279 C 
BRANCH  21  22
HETATM   22  N5  UNL     1     -14.240  -3.636  11.563  1.00  0.00    -0.100 N 
HETATM   23  N6  UNL     1     -15.485  -3.442  11.171  1.00  0.00    -0.115 N 
HETATM   24  C8  UNL     1     -15.566  -2.271  10.486  1.00  0.00     0.705 A 
ATOM     25  H6  UNL     1     -16.265  -4.074  11.353  1.00  0.00     0.206 HD
HETATM   26  N8  UNL     1     -14.351  -1.729  10.454  1.00  0.00    -0.020 N 
HETATM   27  C9  UNL     1     -13.539  -2.581  11.123  1.00  0.00     0.708 A 
ATOM     28  H8  UNL     1     -14.084  -0.848  10.014  1.00  0.00     0.203 HD
HETATM   29  N9  UNL     1     -12.264  -2.369  11.292  1.00  0.00    -0.233 N 
ATOM     30  H92 UNL     1     -11.653  -3.011  11.796  1.00  0.00     0.174 HD
ATOM     31  H91 UNL     1     -11.732  -1.567  10.956  1.00  0.00     0.174 HD
BRANCH  24  32
HETATM   32  N7  UNL     1     -16.621  -1.771   9.962  1.00  0.00    -0.233 N 
ATOM     33  H72 UNL     1     -17.256  -1.114  10.413  1.00  0.00     0.174 HD
ATOM     34  H71 UNL     1     -16.975  -1.957   9.024  1.00  0.00     0.174 HD
ENDBRANCH  24  32
ENDBRANCH  21  22
ENDBRANCH  19  21
ENDBRANCH  18  19
ENDBRANCH  17  18
ENDBRANCH  16  17
BRANCH  16  35
HETATM   35  C10 UNL     1     -14.310  -9.981  11.069  1.00  0.00     0.014 A 
HETATM   36  C11 UNL     1     -13.736 -10.805  11.991  1.00  0.00     0.056 A 
HETATM   37  C12 UNL     1     -14.167 -12.071  12.049  1.00  0.00     0.107 A 
HETATM   38  C13 UNL     1     -15.155 -12.439  11.173  1.00  0.00     0.141 A 
HETATM   39  S1  UNL     1     -15.442 -11.001  10.304  1.00  0.00    -0.065 SA
BRANCH  37  40
HETATM   40  O4  UNL     1     -13.669 -13.048  12.951  1.00  0.00    -0.357 OA
ATOM     41  H4  UNL     1     -13.520 -12.898  13.877  1.00  0.00     0.217 HD
ENDBRANCH  37  40
BRANCH  38  42
HETATM   42  O5  UNL     1     -15.785 -13.666  11.009  1.00  0.00    -0.352 OA
ATOM     43  H5  UNL     1     -16.183 -14.236  11.656  1.00  0.00     0.218 HD
ENDBRANCH  38  42
ENDBRANCH  16  35
ENDBRANCH  13  16
ENDBRANCH   6  12
TORSDOF 12
ENDMDL
MODEL 5
REMARK VINA RESULT: -8.196447305      1.939      2.996
REMARK  12 active torsions:
REMARK  status: ('A' for Active; 'I' for Inactive)
REMARK    1  A    between atoms: C2_3  and  O1_4 
REMARK    2  A    between atoms: C3_8  and  N3_9 
REMARK    3  A    between atoms: N4_11  and  C4_13 
REMARK    4  A    between atoms: C4_13  and  C5_14 
REMARK    5  A    between atoms: C4_13  and  C10_32 
REMARK    6  A    between atoms: C5_14  and  O2_15 
REMARK    7  A    between atoms: O2_15  and  C6_16 
REMARK    8  A    between atoms: C6_16  and  C7_18 
REMARK    9  A    between atoms: C7_18  and  N5_19 
REMARK   10  A    between atoms: C8_22  and  N7_23 
REMARK   11  A    between atoms: C12_34  and  O4_35 
REMARK   12  A    between atoms: C13_37  and  O5_38 
ROOT
HETATM    1  N1  UNL     1      -7.199 -10.620  10.675  1.00  0.00    -0.190 NA
HETATM    2  C1  UNL     1      -8.126 -10.012  11.051  1.00  0.00     0.142 C 
HETATM    3  C2  UNL     1      -9.284  -9.259  11.494  1.00  0.00     0.324 C 
HETATM    4  N2  UNL     1     -10.339  -9.460  10.524  1.00  0.00    -0.300 N 
ATOM      5  H2  UNL     1     -10.638 -10.370  10.174  1.00  0.00     0.168 HD
HETATM    6  C3  UNL     1     -10.848  -8.333  10.164  1.00  0.00     0.210 C 
HETATM    7  N10 UNL     1     -10.171  -7.297  10.866  1.00  0.00    -0.269 N 
ATOM      8  H10 UNL     1     -10.459  -6.319  10.894  1.00  0.00     0.185 HD
HETATM    9  N11 UNL     1      -9.036  -7.833  11.519  1.00  0.00    -0.062 NA
ENDROOT
BRANCH   3  10
HETATM   10  O1  UNL     1      -9.633  -9.659  12.764  1.00  0.00    -0.344 OA
ATOM     11  H1  UNL     1     -10.215 -10.409  12.711  1.00  0.00     0.215 HD
ENDBRANCH   3  10
BRANCH   6  12
HETATM   12  N3  UNL     1     -11.902  -8.113   9.233  1.00  0.00    -0.274 N 
HETATM   13  N4  UNL     1     -13.126  -8.068   9.561  1.00  0.00    -0.322 N 
ATOM     14  H4  UNL     1     -13.809  -7.904   8.822  1.00  0.00     0.181 HD
ATOM     15  H3  UNL     1     -11.659  -7.984   8.251  1.00  0.00     0.189 HD
BRANCH  13  16
HETATM   16  C4  UNL     1     -13.611  -8.231  10.882  1.00  0.00     0.163 C 
BRANCH  16  17
HETATM   17  C5  UNL     1     -14.593  -7.253  11.391  1.00  0.00     0.210 C 
BRANCH  17  18
HETATM   18  O2  UNL     1     -14.178  -6.171  12.119  1.00  0.00    -0.318 OA
BRANCH  18  19
HETATM   19  C6  UNL     1     -13.456  -5.073  11.821  1.00  0.00     0.279 C 
HETATM   20  O3  UNL     1     -12.224  -5.203  11.649  1.00  0.00    -0.263 OA
BRANCH  19  21
HETATM   21  C7  UNL     1     -14.025  -3.693  11.679  1.00  0.00     0.279 C 
BRANCH  21  22
HETATM   22  N5  UNL     1     -15.160  -3.499  12.540  1.00  0.00    -0.100 N 
HETATM   23  N6  UNL     1     -16.218  -4.283  12.616  1.00  0.00    -0.115 N 
HETATM   24  C8  UNL     1     -17.085  -3.786  13.536  1.00  0.00     0.705 A 
ATOM     25  H6  UNL     1     -16.362  -5.132  12.067  1.00  0.00     0.206 HD
HETATM   26  N8  UNL     1     -16.555  -2.674  14.040  1.00  0.00    -0.020 N 
HETATM   27  C9  UNL     1     -15.366  -2.506  13.418  1.00  0.00     0.708 A 
ATOM     28  H8  UNL     1     -16.964  -2.070  14.753  1.00  0.00     0.203 HD
HETATM   29  N9  UNL     1     -14.565  -1.508  13.665  1.00  0.00    -0.233 N 
ATOM     30  H92 UNL     1     -13.668  -1.381  13.195  1.00  0.00     0.174 HD
ATOM     31  H91 UNL     1     -14.722  -0.753  14.332  1.00  0.00     0.174 HD
BRANCH  24  32
HETATM   32  N7  UNL     1     -18.213  -4.292  13.865  1.00  0.00    -0.233 N 
ATOM     33  H72 UNL     1     -18.996  -4.463  13.234  1.00  0.00     0.174 HD
ATOM     34  H71 UNL     1     -18.490  -4.595  14.799  1.00  0.00     0.174 HD
ENDBRANCH  24  32
ENDBRANCH  21  22
ENDBRANCH  19  21
ENDBRANCH  18  19
ENDBRANCH  17  18
ENDBRANCH  16  17
BRANCH  16  35
HETATM   35  C10 UNL     1     -14.043  -9.654  11.149  1.00  0.00     0.014 A 
HETATM   36  C11 UNL     1     -13.488 -10.567  11.996  1.00  0.00     0.056 A 
HETATM   37  C12 UNL     1     -14.053 -11.778  12.064  1.00  0.00     0.107 A 
HETATM   38  C13 UNL     1     -15.150 -12.005  11.275  1.00  0.00     0.141 A 
HETATM   39  S1  UNL     1     -15.347 -10.515  10.469  1.00  0.00    -0.065 SA
BRANCH  37  40
HETATM   40  O4  UNL     1     -13.592 -12.833  12.894  1.00  0.00    -0.357 OA
ATOM     41  H4  UNL     1     -14.137 -13.543  13.214  1.00  0.00     0.217 HD
ENDBRANCH  37  40
BRANCH  38  42
HETATM   42  O5  UNL     1     -15.928 -13.148  11.141  1.00  0.00    -0.352 OA
ATOM     43  H5  UNL     1     -16.873 -13.239  11.107  1.00  0.00     0.218 HD
ENDBRANCH  38  42
ENDBRANCH  16  35
ENDBRANCH  13  16
ENDBRANCH   6  12
TORSDOF 12
ENDMDL
