MODEL 1
REMARK VINA RESULT: -8.924484502      0.000      0.000
REMARK  9 active torsions:
REMARK  status: ('A' for Active; 'I' for Inactive)
REMARK    1  A    between atoms: N1_1  and  N2_4 
REMARK    2  A    between atoms: N2_4  and  C1_6 
REMARK    3  A    between atoms: C3_8  and  N3_9 
REMARK    4  A    between atoms: N3_9  and  C4_11 
REMARK    5  A    between atoms: C4_11  and  C5_12 
REMARK    6  A    between atoms: C5_12  and  N4_13 
REMARK    7  A    between atoms: N4_13  and  C6_15 
REMARK    8  A    between atoms: C6_15  and  C7_16 
REMARK    9  A    between atoms: C8_17  and  O1_18 
ROOT
HETATM    1  C1  UNL     1     -17.028 -10.480   8.381  1.00  0.00     0.052 C 
HETATM    2  C2  UNL     1     -16.761  -9.375   9.182  1.00  0.00     0.079 C 
HETATM    3  C3  UNL     1     -15.864  -9.201  10.204  1.00  0.00     0.104 C 
HETATM    4  N7  UNL     1     -15.379 -10.159  11.039  1.00  0.00    -0.328 N 
ATOM      5  H7  UNL     1     -15.001  -9.814  11.921  1.00  0.00     0.169 HD
HETATM    6  C11 UNL     1     -15.321 -11.495  10.875  1.00  0.00     0.121 A 
HETATM    7  N8  UNL     1     -14.705 -12.385  11.676  1.00  0.00    -0.325 N 
ATOM      8  H8  UNL     1     -14.194 -12.153  12.527  1.00  0.00     0.169 HD
HETATM    9  C12 UNL     1     -14.868 -13.634  11.180  1.00  0.00     0.152 A 
HETATM   10  C13 UNL     1     -15.620 -13.563  10.009  1.00  0.00     0.108 A 
HETATM   11  C14 UNL     1     -15.928 -12.236   9.775  1.00  0.00     0.041 A 
HETATM   12  C15 UNL     1     -16.668 -11.773   8.696  1.00  0.00     0.048 C 
HETATM   13  N9  UNL     1     -15.948 -14.730   9.268  1.00  0.00    -0.182 N 
ATOM     14  H9  UNL     1     -16.498 -14.664   8.412  1.00  0.00     0.184 HD
HETATM   15  C16 UNL     1     -15.494 -15.992   9.742  1.00  0.00     0.736 A 
HETATM   16  N10 UNL     1     -15.634 -17.268   9.278  1.00  0.00    -0.113 N 
ATOM     17  H10 UNL     1     -16.135 -17.551   8.436  1.00  0.00     0.207 HD
HETATM   18  N11 UNL     1     -15.010 -18.064  10.112  1.00  0.00    -0.212 N 
ATOM     19  H11 UNL     1     -14.936 -19.079  10.033  1.00  0.00     0.210 HD
HETATM   20  N12 UNL     1     -14.496 -17.323  11.065  1.00  0.00    -0.191 N 
ATOM     21  H12 UNL     1     -13.955 -17.685  11.850  1.00  0.00     0.212 HD
HETATM   22  N13 UNL     1     -14.771 -16.042  10.874  1.00  0.00    -0.001 N 
HETATM   23  N14 UNL     1     -14.432 -14.914  11.626  1.00  0.00    -0.246 N 
ATOM     24  H14 UNL     1     -13.881 -15.006  12.479  1.00  0.00     0.191 HD
ENDROOT
BRANCH   3  25
HETATM   25  N3  UNL     1     -15.366  -7.918  10.455  1.00  0.00    -0.375 N 
ATOM     26  H3  UNL     1     -15.818  -7.124  10.003  1.00  0.00     0.161 HD
BRANCH  25  27
HETATM   27  C4  UNL     1     -14.244  -7.666  11.320  1.00  0.00     0.141 C 
BRANCH  27  28
HETATM   28  C5  UNL     1     -12.939  -7.533  10.608  1.00  0.00     0.138 C 
BRANCH  28  29
HETATM   29  N4  UNL     1     -12.542  -6.153  10.573  1.00  0.00    -0.396 N 
ATOM     30  H4  UNL     1     -12.400  -5.717   9.662  1.00  0.00     0.158 HD
BRANCH  29  31
HETATM   31  C6  UNL     1     -12.358  -5.448  11.607  1.00  0.00     0.104 C 
BRANCH  31  32
HETATM   32  C7  UNL     1     -13.137  -4.195  11.731  1.00  0.00     0.098 A 
HETATM   33  C8  UNL     1     -12.905  -3.166  10.827  1.00  0.00     0.158 A 
HETATM   34  N5  UNL     1     -13.622  -2.037  10.958  1.00  0.00    -0.332 N 
HETATM   35  C9  UNL     1     -14.540  -1.897  11.930  1.00  0.00     0.185 A 
ATOM     36  H5  UNL     1     -13.466  -1.270  10.305  1.00  0.00     0.168 HD
HETATM   37  N6  UNL     1     -14.754  -2.896  12.795  1.00  0.00    -0.319 N 
HETATM   38  C10 UNL     1     -14.080  -4.034  12.721  1.00  0.00     0.262 A 
ATOM     39  H6  UNL     1     -15.453  -2.778  13.529  1.00  0.00     0.169 HD
HETATM   40  O2  UNL     1     -14.296  -4.963  13.545  1.00  0.00    -0.267 OA
BRANCH  33  41
HETATM   41  O1  UNL     1     -11.959  -3.327   9.835  1.00  0.00    -0.345 OA
ATOM     42  H1  UNL     1     -11.784  -4.194   9.489  1.00  0.00     0.219 HD
ENDBRANCH  33  41
ENDBRANCH  31  32
ENDBRANCH  29  31
ENDBRANCH  28  29
ENDBRANCH  27  28
ENDBRANCH  25  27
ENDBRANCH   3  25
BRANCH   1  43
HETATM   43  N2  UNL     1     -17.715 -10.247   7.166  1.00  0.00    -0.307 N 
ATOM     44  H2  UNL     1     -18.433 -10.906   6.865  1.00  0.00     0.186 HD
BRANCH  43  45
HETATM   45  N1  UNL     1     -17.434  -9.140   6.374  1.00  0.00    -0.345 N 
ATOM     46  H12 UNL     1     -16.550  -9.124   5.864  1.00  0.00     0.176 HD
ATOM     47  H11 UNL     1     -18.086  -8.360   6.298  1.00  0.00     0.176 HD
ENDBRANCH  43  45
ENDBRANCH   1  43
TORSDOF 9
ENDMDL
MODEL 2
REMARK VINA RESULT: -8.907728461      2.681      5.498
REMARK  9 active torsions:
REMARK  status: ('A' for Active; 'I' for Inactive)
REMARK    1  A    between atoms: N1_1  and  N2_4 
REMARK    2  A    between atoms: N2_4  and  C1_6 
REMARK    3  A    between atoms: C3_8  and  N3_9 
REMARK    4  A    between atoms: N3_9  and  C4_11 
REMARK    5  A    between atoms: C4_11  and  C5_12 
REMARK    6  A    between atoms: C5_12  and  N4_13 
REMARK    7  A    between atoms: N4_13  and  C6_15 
REMARK    8  A    between atoms: C6_15  and  C7_16 
REMARK    9  A    between atoms: C8_17  and  O1_18 
ROOT
HETATM    1  C1  UNL     1     -10.712  -7.543  10.843  1.00  0.00     0.052 C 
HETATM    2  C2  UNL     1     -10.923  -6.168  10.814  1.00  0.00     0.079 C 
HETATM    3  C3  UNL     1     -12.030  -5.422  11.126  1.00  0.00     0.104 C 
HETATM    4  N7  UNL     1     -13.330  -5.812  11.045  1.00  0.00    -0.328 N 
ATOM      5  H7  UNL     1     -14.008  -5.051  10.989  1.00  0.00     0.169 HD
HETATM    6  C11 UNL     1     -13.858  -7.051  11.026  1.00  0.00     0.121 A 
HETATM    7  N8  UNL     1     -15.162  -7.379  11.082  1.00  0.00    -0.325 N 
ATOM      8  H8  UNL     1     -15.932  -6.713  11.146  1.00  0.00     0.169 HD
HETATM    9  C12 UNL     1     -15.297  -8.725  11.040  1.00  0.00     0.152 A 
HETATM   10  C13 UNL     1     -14.033  -9.305  10.953  1.00  0.00     0.108 A 
HETATM   11  C14 UNL     1     -13.093  -8.292  10.942  1.00  0.00     0.041 A 
HETATM   12  C15 UNL     1     -11.721  -8.483  10.864  1.00  0.00     0.048 C 
HETATM   13  N9  UNL     1     -13.868 -10.715  10.893  1.00  0.00    -0.182 N 
ATOM     14  H9  UNL     1     -12.937 -11.126  10.830  1.00  0.00     0.184 HD
HETATM   15  C16 UNL     1     -15.025 -11.542  10.923  1.00  0.00     0.736 A 
HETATM   16  N10 UNL     1     -15.206 -12.894  10.883  1.00  0.00    -0.113 N 
ATOM     17  H10 UNL     1     -14.472 -13.599  10.818  1.00  0.00     0.207 HD
HETATM   18  N11 UNL     1     -16.496 -13.123  10.941  1.00  0.00    -0.212 N 
ATOM     19  H11 UNL     1     -16.945 -14.039  10.931  1.00  0.00     0.210 HD
HETATM   20  N12 UNL     1     -17.106 -11.963  11.014  1.00  0.00    -0.191 N 
ATOM     21  H12 UNL     1     -18.118 -11.845  11.070  1.00  0.00     0.212 HD
HETATM   22  N13 UNL     1     -16.236 -10.965  11.006  1.00  0.00    -0.001 N 
HETATM   23  N14 UNL     1     -16.433  -9.583  11.066  1.00  0.00    -0.246 N 
ATOM     24  H14 UNL     1     -17.374  -9.195  11.127  1.00  0.00     0.191 HD
ENDROOT
BRANCH   3  25
HETATM   25  N3  UNL     1     -11.853  -4.111  11.581  1.00  0.00    -0.375 N 
ATOM     26  H3  UNL     1     -11.198  -3.946  12.345  1.00  0.00     0.161 HD
BRANCH  25  27
HETATM   27  C4  UNL     1     -12.553  -2.985  11.023  1.00  0.00     0.141 C 
BRANCH  27  28
HETATM   28  C5  UNL     1     -12.583  -1.782  11.908  1.00  0.00     0.138 C 
BRANCH  28  29
HETATM   29  N4  UNL     1     -13.939  -1.473  12.264  1.00  0.00    -0.396 N 
ATOM     30  H4  UNL     1     -14.545  -1.074  11.548  1.00  0.00     0.158 HD
BRANCH  29  31
HETATM   31  C6  UNL     1     -14.425  -1.668  13.415  1.00  0.00     0.104 C 
BRANCH  31  32
HETATM   32  C7  UNL     1     -15.678  -2.451  13.509  1.00  0.00     0.098 A 
HETATM   33  C8  UNL     1     -15.603  -3.837  13.567  1.00  0.00     0.158 A 
HETATM   34  N5  UNL     1     -16.751  -4.528  13.650  1.00  0.00    -0.332 N 
HETATM   35  C9  UNL     1     -17.944  -3.909  13.679  1.00  0.00     0.185 A 
ATOM     36  H5  UNL     1     -16.718  -5.547  13.692  1.00  0.00     0.168 HD
HETATM   37  N6  UNL     1     -18.004  -2.573  13.623  1.00  0.00    -0.319 N 
HETATM   38  C10 UNL     1     -16.907  -1.833  13.539  1.00  0.00     0.262 A 
ATOM     39  H6  UNL     1     -18.914  -2.114  13.645  1.00  0.00     0.169 HD
HETATM   40  O2  UNL     1     -16.984  -0.576  13.486  1.00  0.00    -0.267 OA
BRANCH  33  41
HETATM   41  O1  UNL     1     -14.370  -4.457  13.536  1.00  0.00    -0.345 OA
ATOM     42  H1  UNL     1     -13.579  -3.931  13.504  1.00  0.00     0.219 HD
ENDBRANCH  33  41
ENDBRANCH  31  32
ENDBRANCH  29  31
ENDBRANCH  28  29
ENDBRANCH  27  28
ENDBRANCH  25  27
ENDBRANCH   3  25
BRANCH   1  43
HETATM   43  N2  UNL     1      -9.370  -7.992  10.851  1.00  0.00    -0.307 N 
ATOM     44  H2  UNL     1      -8.663  -7.457  10.348  1.00  0.00     0.186 HD
BRANCH  43  45
HETATM   45  N1  UNL     1      -8.996  -9.146  11.529  1.00  0.00    -0.345 N 
ATOM     46  H12 UNL     1      -9.727  -9.711  11.960  1.00  0.00     0.176 HD
ATOM     47  H11 UNL     1      -8.018  -9.428  11.601  1.00  0.00     0.176 HD
ENDBRANCH  43  45
ENDBRANCH   1  43
TORSDOF 9
ENDMDL
MODEL 3
REMARK VINA RESULT: -8.872505917      1.617      2.062
REMARK  9 active torsions:
REMARK  status: ('A' for Active; 'I' for Inactive)
REMARK    1  A    between atoms: N1_1  and  N2_4 
REMARK    2  A    between atoms: N2_4  and  C1_6 
REMARK    3  A    between atoms: C3_8  and  N3_9 
REMARK    4  A    between atoms: N3_9  and  C4_11 
REMARK    5  A    between atoms: C4_11  and  C5_12 
REMARK    6  A    between atoms: C5_12  and  N4_13 
REMARK    7  A    between atoms: N4_13  and  C6_15 
REMARK    8  A    between atoms: C6_15  and  C7_16 
REMARK    9  A    between atoms: C8_17  and  O1_18 
ROOT
HETATM    1  C1  UNL     1     -16.408  -9.686   9.160  1.00  0.00     0.052 C 
HETATM    2  C2  UNL     1     -16.058  -8.587   9.939  1.00  0.00     0.079 C 
HETATM    3  C3  UNL     1     -15.125  -8.452  10.934  1.00  0.00     0.104 C 
HETATM    4  N7  UNL     1     -14.671  -9.425  11.768  1.00  0.00    -0.328 N 
ATOM      5  H7  UNL     1     -14.251  -9.090  12.636  1.00  0.00     0.169 HD
HETATM    6  C11 UNL     1     -14.692 -10.764  11.622  1.00  0.00     0.121 A 
HETATM    7  N8  UNL     1     -14.104 -11.676  12.418  1.00  0.00    -0.325 N 
ATOM      8  H8  UNL     1     -13.557 -11.463  13.251  1.00  0.00     0.169 HD
HETATM    9  C12 UNL     1     -14.350 -12.921  11.944  1.00  0.00     0.152 A 
HETATM   10  C13 UNL     1     -15.128 -12.822  10.793  1.00  0.00     0.108 A 
HETATM   11  C14 UNL     1     -15.369 -11.484  10.548  1.00  0.00     0.041 A 
HETATM   12  C15 UNL     1     -16.111 -10.993   9.483  1.00  0.00     0.048 C 
HETATM   13  N9  UNL     1     -15.540 -13.978  10.076  1.00  0.00    -0.182 N 
ATOM     14  H9  UNL     1     -16.109 -13.892   9.235  1.00  0.00     0.184 HD
HETATM   15  C16 UNL     1     -15.144 -15.258  10.555  1.00  0.00     0.736 A 
HETATM   16  N10 UNL     1     -15.367 -16.529  10.113  1.00  0.00    -0.113 N 
ATOM     17  H10 UNL     1     -15.905 -16.794   9.288  1.00  0.00     0.207 HD
HETATM   18  N11 UNL     1     -14.764 -17.349  10.940  1.00  0.00    -0.212 N 
ATOM     19  H11 UNL     1     -14.749 -18.367  10.873  1.00  0.00     0.210 HD
HETATM   20  N12 UNL     1     -14.184 -16.625  11.869  1.00  0.00    -0.191 N 
ATOM     21  H12 UNL     1     -13.643 -17.008  12.645  1.00  0.00     0.212 HD
HETATM   22  N13 UNL     1     -14.394 -15.334  11.668  1.00  0.00    -0.001 N 
HETATM   23  N14 UNL     1     -13.972 -14.217  12.395  1.00  0.00    -0.246 N 
ATOM     24  H14 UNL     1     -13.404 -14.329  13.235  1.00  0.00     0.191 HD
ENDROOT
BRANCH   3  25
HETATM   25  N3  UNL     1     -14.550  -7.196  11.154  1.00  0.00    -0.375 N 
ATOM     26  H3  UNL     1     -15.166  -6.406  11.349  1.00  0.00     0.161 HD
BRANCH  25  27
HETATM   27  C4  UNL     1     -13.131  -6.964  11.118  1.00  0.00     0.141 C 
BRANCH  27  28
HETATM   28  C5  UNL     1     -12.744  -5.523  11.185  1.00  0.00     0.138 C 
BRANCH  28  29
HETATM   29  N4  UNL     1     -13.876  -4.732  11.576  1.00  0.00    -0.396 N 
ATOM     30  H4  UNL     1     -14.708  -4.759  10.988  1.00  0.00     0.158 HD
BRANCH  29  31
HETATM   31  C6  UNL     1     -13.900  -4.003  12.610  1.00  0.00     0.104 C 
BRANCH  31  32
HETATM   32  C7  UNL     1     -15.219  -3.525  13.082  1.00  0.00     0.098 A 
HETATM   33  C8  UNL     1     -15.381  -2.177  13.377  1.00  0.00     0.158 A 
HETATM   34  N5  UNL     1     -16.586  -1.765  13.805  1.00  0.00    -0.332 N 
HETATM   35  C9  UNL     1     -17.613  -2.621  13.946  1.00  0.00     0.185 A 
ATOM     36  H5  UNL     1     -16.725  -0.779  14.028  1.00  0.00     0.168 HD
HETATM   37  N6  UNL     1     -17.445  -3.917  13.658  1.00  0.00    -0.319 N 
HETATM   38  C10 UNL     1     -16.281  -4.388  13.233  1.00  0.00     0.262 A 
ATOM     39  H6  UNL     1     -18.231  -4.558  13.769  1.00  0.00     0.169 HD
HETATM   40  O2  UNL     1     -16.143  -5.613  12.967  1.00  0.00    -0.267 OA
BRANCH  33  41
HETATM   41  O1  UNL     1     -14.316  -1.311  13.227  1.00  0.00    -0.345 OA
ATOM     42  H1  UNL     1     -14.478  -0.381  13.117  1.00  0.00     0.219 HD
ENDBRANCH  33  41
ENDBRANCH  31  32
ENDBRANCH  29  31
ENDBRANCH  28  29
ENDBRANCH  27  28
ENDBRANCH  25  27
ENDBRANCH   3  25
BRANCH   1  43
HETATM   43  N2  UNL     1     -17.114  -9.430   7.961  1.00  0.00    -0.307 N 
ATOM     44  H2  UNL     1     -18.085  -9.119   8.010  1.00  0.00     0.186 HD
BRANCH  43  45
HETATM   45  N1  UNL     1     -16.515  -9.593   6.718  1.00  0.00    -0.345 N 
ATOM     46  H12 UNL     1     -15.650 -10.130   6.666  1.00  0.00     0.176 HD
ATOM     47  H11 UNL     1     -16.921  -9.189   5.874  1.00  0.00     0.176 HD
ENDBRANCH  43  45
ENDBRANCH   1  43
TORSDOF 9
ENDMDL
MODEL 4
REMARK VINA RESULT: -8.843545460      1.782      2.243
REMARK  9 active torsions:
REMARK  status: ('A' for Active; 'I' for Inactive)
REMARK    1  A    between atoms: N1_1  and  N2_4 
REMARK    2  A    between atoms: N2_4  and  C1_6 
REMARK    3  A    between atoms: C3_8  and  N3_9 
REMARK    4  A    between atoms: N3_9  and  C4_11 
REMARK    5  A    between atoms: C4_11  and  C5_12 
REMARK    6  A    between atoms: C5_12  and  N4_13 
REMARK    7  A    between atoms: N4_13  and  C6_15 
REMARK    8  A    between atoms: C6_15  and  C7_16 
REMARK    9  A    between atoms: C8_17  and  O1_18 
ROOT
HETATM    1  C1  UNL     1     -16.435  -9.580   9.238  1.00  0.00     0.052 C 
HETATM    2  C2  UNL     1     -16.135  -8.475  10.028  1.00  0.00     0.079 C 
HETATM    3  C3  UNL     1     -15.231  -8.316  11.045  1.00  0.00     0.104 C 
HETATM    4  N7  UNL     1     -14.771  -9.279  11.889  1.00  0.00    -0.328 N 
ATOM      5  H7  UNL     1     -14.382  -8.935  12.767  1.00  0.00     0.169 HD
HETATM    6  C11 UNL     1     -14.751 -10.618  11.738  1.00  0.00     0.121 A 
HETATM    7  N8  UNL     1     -14.158 -11.516  12.546  1.00  0.00    -0.325 N 
ATOM      8  H8  UNL     1     -13.638 -11.290  13.394  1.00  0.00     0.169 HD
HETATM    9  C12 UNL     1     -14.357 -12.765  12.064  1.00  0.00     0.152 A 
HETATM   10  C13 UNL     1     -15.109 -12.685  10.894  1.00  0.00     0.108 A 
HETATM   11  C14 UNL     1     -15.381 -11.353  10.647  1.00  0.00     0.041 A 
HETATM   12  C15 UNL     1     -16.110 -10.880   9.564  1.00  0.00     0.048 C 
HETATM   13  N9  UNL     1     -15.471 -13.850  10.165  1.00  0.00    -0.182 N 
ATOM     14  H9  UNL     1     -16.021 -13.777   9.309  1.00  0.00     0.184 HD
HETATM   15  C16 UNL     1     -15.051 -15.119  10.650  1.00  0.00     0.736 A 
HETATM   16  N10 UNL     1     -15.228 -16.395  10.199  1.00  0.00    -0.113 N 
ATOM     17  H10 UNL     1     -15.738 -16.672   9.361  1.00  0.00     0.207 HD
HETATM   18  N11 UNL     1     -14.623 -17.200  11.040  1.00  0.00    -0.212 N 
ATOM     19  H11 UNL     1     -14.578 -18.217  10.971  1.00  0.00     0.210 HD
HETATM   20  N12 UNL     1     -14.087 -16.463  11.985  1.00  0.00    -0.191 N 
ATOM     21  H12 UNL     1     -13.554 -16.833  12.772  1.00  0.00     0.212 HD
HETATM   22  N13 UNL     1     -14.327 -15.178  11.781  1.00  0.00    -0.001 N 
HETATM   23  N14 UNL     1     -13.955 -14.052  12.521  1.00  0.00    -0.246 N 
ATOM     24  H14 UNL     1     -13.405 -14.151  13.374  1.00  0.00     0.191 HD
ENDROOT
BRANCH   3  25
HETATM   25  N3  UNL     1     -14.697  -7.045  11.282  1.00  0.00    -0.375 N 
ATOM     26  H3  UNL     1     -13.924  -6.727  10.699  1.00  0.00     0.161 HD
BRANCH  25  27
HETATM   27  C4  UNL     1     -15.187  -6.166  12.311  1.00  0.00     0.141 C 
BRANCH  27  28
HETATM   28  C5  UNL     1     -14.207  -5.127  12.746  1.00  0.00     0.138 C 
BRANCH  28  29
HETATM   29  N4  UNL     1     -13.928  -4.234  11.656  1.00  0.00    -0.396 N 
ATOM     30  H4  UNL     1     -13.692  -4.639  10.751  1.00  0.00     0.158 HD
BRANCH  29  31
HETATM   31  C6  UNL     1     -13.958  -2.973  11.755  1.00  0.00     0.104 C 
BRANCH  31  32
HETATM   32  C7  UNL     1     -15.238  -2.346  12.154  1.00  0.00     0.098 A 
HETATM   33  C8  UNL     1     -16.358  -2.532  11.352  1.00  0.00     0.158 A 
HETATM   34  N5  UNL     1     -17.509  -1.953  11.732  1.00  0.00    -0.332 N 
HETATM   35  C9  UNL     1     -17.589  -1.215  12.853  1.00  0.00     0.185 A 
ATOM     36  H5  UNL     1     -18.342  -2.077  11.156  1.00  0.00     0.168 HD
HETATM   37  N6  UNL     1     -16.503  -1.044  13.617  1.00  0.00    -0.319 N 
HETATM   38  C10 UNL     1     -15.337  -1.587  13.298  1.00  0.00     0.262 A 
ATOM     39  H6  UNL     1     -16.575  -0.482  14.465  1.00  0.00     0.169 HD
HETATM   40  O2  UNL     1     -14.326  -1.413  14.030  1.00  0.00    -0.267 OA
BRANCH  33  41
HETATM   41  O1  UNL     1     -16.259  -3.293  10.204  1.00  0.00    -0.345 OA
ATOM     42  H1  UNL     1     -15.435  -3.325   9.731  1.00  0.00     0.219 HD
ENDBRANCH  33  41
ENDBRANCH  31  32
ENDBRANCH  29  31
ENDBRANCH  28  29
ENDBRANCH  27  28
ENDBRANCH  25  27
ENDBRANCH   3  25
BRANCH   1  43
HETATM   43  N2  UNL     1     -17.119  -9.340   8.022  1.00  0.00    -0.307 N 
ATOM     44  H2  UNL     1     -18.040  -8.904   8.045  1.00  0.00     0.186 HD
BRANCH  43  45
HETATM   45  N1  UNL     1     -16.561  -9.686   6.796  1.00  0.00    -0.345 N 
ATOM     46  H12 UNL     1     -16.951 -10.485   6.297  1.00  0.00     0.176 HD
ATOM     47  H11 UNL     1     -15.783  -9.161   6.398  1.00  0.00     0.176 HD
ENDBRANCH  43  45
ENDBRANCH   1  43
TORSDOF 9
ENDMDL
MODEL 5
REMARK VINA RESULT: -8.838277446      2.929      4.576
REMARK  9 active torsions:
REMARK  status: ('A' for Active; 'I' for Inactive)
REMARK    1  A    between atoms: N1_1  and  N2_4 
REMARK    2  A    between atoms: N2_4  and  C1_6 
REMARK    3  A    between atoms: C3_8  and  N3_9 
REMARK    4  A    between atoms: N3_9  and  C4_11 
REMARK    5  A    between atoms: C4_11  and  C5_12 
REMARK    6  A    between atoms: C5_12  and  N4_13 
REMARK    7  A    between atoms: N4_13  and  C6_15 
REMARK    8  A    between atoms: C6_15  and  C7_16 
REMARK    9  A    between atoms: C8_17  and  O1_18 
ROOT
HETATM    1  C1  UNL     1     -14.315 -12.770  12.174  1.00  0.00     0.052 C 
HETATM    2  C2  UNL     1     -14.787 -11.620  11.548  1.00  0.00     0.079 C 
HETATM    3  C3  UNL     1     -15.747 -11.451  10.586  1.00  0.00     0.104 C 
HETATM    4  N7  UNL     1     -16.119 -12.348   9.633  1.00  0.00    -0.328 N 
ATOM      5  H7  UNL     1     -16.586 -11.947   8.820  1.00  0.00     0.169 HD
HETATM    6  C11 UNL     1     -15.963 -13.686   9.603  1.00  0.00     0.121 A 
HETATM    7  N8  UNL     1     -16.472 -14.541   8.697  1.00  0.00    -0.325 N 
ATOM      8  H8  UNL     1     -17.053 -14.277   7.902  1.00  0.00     0.169 HD
HETATM    9  C12 UNL     1     -16.096 -15.806   9.002  1.00  0.00     0.152 A 
HETATM   10  C13 UNL     1     -15.309 -15.780  10.151  1.00  0.00     0.108 A 
HETATM   11  C14 UNL     1     -15.197 -14.467  10.568  1.00  0.00     0.041 A 
HETATM   12  C15 UNL     1     -14.487 -14.047  11.684  1.00  0.00     0.048 C 
HETATM   13  N9  UNL     1     -14.771 -16.972  10.707  1.00  0.00    -0.182 N 
ATOM     14  H9  UNL     1     -14.197 -16.939  11.549  1.00  0.00     0.184 HD
HETATM   15  C16 UNL     1     -15.047 -18.211  10.067  1.00  0.00     0.736 A 
HETATM   16  N10 UNL     1     -14.691 -19.501  10.337  1.00  0.00    -0.113 N 
ATOM     17  H10 UNL     1     -14.113 -19.816  11.116  1.00  0.00     0.207 HD
HETATM   18  N11 UNL     1     -15.225 -20.262   9.412  1.00  0.00    -0.212 N 
ATOM     19  H11 UNL     1     -15.138 -21.276   9.345  1.00  0.00     0.210 HD
HETATM   20  N12 UNL     1     -15.892 -19.486   8.590  1.00  0.00    -0.191 N 
ATOM     21  H12 UNL     1     -16.407 -19.817   7.774  1.00  0.00     0.212 HD
HETATM   22  N13 UNL     1     -15.807 -18.217   8.958  1.00  0.00    -0.001 N 
HETATM   23  N14 UNL     1     -16.351 -17.064   8.386  1.00  0.00    -0.246 N 
ATOM     24  H14 UNL     1     -16.921 -17.122   7.543  1.00  0.00     0.191 HD
ENDROOT
BRANCH   3  25
HETATM   25  N3  UNL     1     -16.448 -10.241  10.537  1.00  0.00    -0.375 N 
ATOM     26  H3  UNL     1     -17.394 -10.212  10.915  1.00  0.00     0.161 HD
BRANCH  25  27
HETATM   27  C4  UNL     1     -15.896  -9.036   9.977  1.00  0.00     0.141 C 
BRANCH  27  28
HETATM   28  C5  UNL     1     -15.434  -8.044  10.994  1.00  0.00     0.138 C 
BRANCH  28  29
HETATM   29  N4  UNL     1     -14.019  -7.838  10.865  1.00  0.00    -0.396 N 
ATOM     30  H4  UNL     1     -13.641  -6.926  11.120  1.00  0.00     0.158 HD
BRANCH  29  31
HETATM   31  C6  UNL     1     -13.215  -8.723  10.454  1.00  0.00     0.104 C 
BRANCH  31  32
HETATM   32  C7  UNL     1     -11.769  -8.493  10.675  1.00  0.00     0.098 A 
HETATM   33  C8  UNL     1     -11.181  -7.349  10.150  1.00  0.00     0.158 A 
HETATM   34  N5  UNL     1      -9.868  -7.161  10.362  1.00  0.00    -0.332 N 
HETATM   35  C9  UNL     1      -9.135  -8.044  11.061  1.00  0.00     0.185 A 
ATOM     36  H5  UNL     1      -9.417  -6.328   9.983  1.00  0.00     0.168 HD
HETATM   37  N6  UNL     1      -9.713  -9.142  11.562  1.00  0.00    -0.319 N 
HETATM   38  C10 UNL     1     -11.004  -9.388  11.388  1.00  0.00     0.262 A 
ATOM     39  H6  UNL     1      -9.147  -9.806  12.091  1.00  0.00     0.169 HD
HETATM   40  O2  UNL     1     -11.529 -10.428  11.868  1.00  0.00    -0.267 OA
BRANCH  33  41
HETATM   41  O1  UNL     1     -11.949  -6.452   9.435  1.00  0.00    -0.345 OA
ATOM     42  H1  UNL     1     -11.548  -5.666   9.082  1.00  0.00     0.219 HD
ENDBRANCH  33  41
ENDBRANCH  31  32
ENDBRANCH  29  31
ENDBRANCH  28  29
ENDBRANCH  27  28
ENDBRANCH  25  27
ENDBRANCH   3  25
BRANCH   1  43
HETATM   43  N2  UNL     1     -13.614 -12.602  13.393  1.00  0.00    -0.307 N 
ATOM     44  H2  UNL     1     -13.132 -13.401  13.804  1.00  0.00     0.186 HD
BRANCH  43  45
HETATM   45  N1  UNL     1     -13.569 -11.374  14.040  1.00  0.00    -0.345 N 
ATOM     46  H12 UNL     1     -13.219 -11.345  14.998  1.00  0.00     0.176 HD
ATOM     47  H11 UNL     1     -13.876 -10.517  13.579  1.00  0.00     0.176 HD
ENDBRANCH  43  45
ENDBRANCH   1  43
TORSDOF 9
ENDMDL
