MODEL 1
REMARK VINA RESULT: -7.233979576      0.000      0.000
REMARK  4 active torsions:
REMARK  status: ('A' for Active; 'I' for Inactive)
REMARK    1  A    between atoms: C2_2  and  C4_4 
REMARK    2  A    between atoms: C4_4  and  N1_5 
REMARK       I    between atoms: N1_5  and  C5_7 
REMARK    3  A    between atoms: C5_7  and  C6_9 
REMARK       I    between atoms: C6_9  and  N2_11 
REMARK    4  A    between atoms: N2_11  and  C7_13 
ROOT
HETATM    1  C6  UNL     1     -36.842 -71.812   1.678  1.00  0.00     0.309 C 
HETATM    2  O2  UNL     1     -35.883 -71.060   1.985  1.00  0.00    -0.262 OA
HETATM    3  N2  UNL     1     -38.024 -71.309   1.043  1.00  0.00    -0.348 N 
ATOM      4  H2  UNL     1     -38.763 -71.976   0.821  1.00  0.00     0.163 HD
ENDROOT
BRANCH   3   5
HETATM    5  C7  UNL     1     -38.241 -69.940   0.699  1.00  0.00     0.093 C 
HETATM    6  C8  UNL     1     -37.441 -69.602  -0.536  1.00  0.00     0.010 C 
HETATM    7  C9  UNL     1     -37.511 -68.130  -0.874  1.00  0.00     0.011 C 
HETATM    8  C16 UNL     1     -37.932 -70.362  -1.744  1.00  0.00     0.027 C 
HETATM    9  C10 UNL     1     -38.962 -67.740  -1.109  1.00  0.00    -0.012 C 
HETATM   10  C11 UNL     1     -39.738 -68.113   0.117  1.00  0.00     0.011 C 
HETATM   11  C15 UNL     1     -39.507 -68.493  -2.284  1.00  0.00     0.025 C 
HETATM   12  C12 UNL     1     -39.679 -69.598   0.416  1.00  0.00     0.010 C 
HETATM   13  C13 UNL     1     -40.171 -70.358  -0.782  1.00  0.00     0.027 C 
HETATM   14  C14 UNL     1     -39.367 -69.971  -2.004  1.00  0.00     0.019 C 
HETATM   15 BR1  UNL     1     -40.006 -71.040  -3.481  1.00  0.00    -0.086 Br
ENDBRANCH   3   5
BRANCH   1  16
HETATM   16  C5  UNL     1     -36.686 -73.222   2.001  1.00  0.00     0.309 C 
HETATM   17  N1  UNL     1     -36.535 -73.632   3.320  1.00  0.00    -0.353 N 
ATOM     18  H1  UNL     1     -36.533 -72.915   4.046  1.00  0.00     0.162 HD
HETATM   19  O1  UNL     1     -36.692 -74.041   1.060  1.00  0.00    -0.262 OA
BRANCH  17  20
HETATM   20  C4  UNL     1     -36.384 -74.994   3.726  1.00  0.00     0.127 C 
BRANCH  20  21
HETATM   21  C2  UNL     1     -36.892 -75.170   5.133  1.00  0.00    -0.005 C 
HETATM   22  C1  UNL     1     -36.060 -76.202   5.876  1.00  0.00     0.011 C 
HETATM   23  C3  UNL     1     -36.677 -73.821   5.833  1.00  0.00     0.011 C 
ENDBRANCH  20  21
ENDBRANCH  17  20
ENDBRANCH   1  16
TORSDOF 4
ENDMDL
MODEL 2
REMARK VINA RESULT: -7.223762121      2.159      2.979
REMARK  4 active torsions:
REMARK  status: ('A' for Active; 'I' for Inactive)
REMARK    1  A    between atoms: C2_2  and  C4_4 
REMARK    2  A    between atoms: C4_4  and  N1_5 
REMARK       I    between atoms: N1_5  and  C5_7 
REMARK    3  A    between atoms: C5_7  and  C6_9 
REMARK       I    between atoms: C6_9  and  N2_11 
REMARK    4  A    between atoms: N2_11  and  C7_13 
ROOT
HETATM    1  C6  UNL     1     -37.004 -74.063   2.503  1.00  0.00     0.309 C 
HETATM    2  O2  UNL     1     -37.475 -73.500   3.523  1.00  0.00    -0.262 OA
HETATM    3  N2  UNL     1     -37.164 -73.507   1.192  1.00  0.00    -0.348 N 
ATOM      4  H2  UNL     1     -36.755 -74.016   0.408  1.00  0.00     0.163 HD
ENDROOT
BRANCH   3   5
HETATM    5  C7  UNL     1     -37.853 -72.289   0.904  1.00  0.00     0.093 C 
HETATM    6  C8  UNL     1     -36.955 -71.118   1.221  1.00  0.00     0.010 C 
HETATM    7  C9  UNL     1     -37.671 -69.795   1.076  1.00  0.00     0.011 C 
HETATM    8  C16 UNL     1     -35.751 -71.077   0.313  1.00  0.00     0.027 C 
HETATM    9  C10 UNL     1     -38.174 -69.654  -0.352  1.00  0.00    -0.012 C 
HETATM   10  C11 UNL     1     -39.036 -70.841  -0.651  1.00  0.00     0.011 C 
HETATM   11  C15 UNL     1     -37.013 -69.638  -1.300  1.00  0.00     0.025 C 
HETATM   12  C12 UNL     1     -38.287 -72.153  -0.531  1.00  0.00     0.010 C 
HETATM   13  C13 UNL     1     -37.090 -72.118  -1.437  1.00  0.00     0.027 C 
HETATM   14  C14 UNL     1     -36.231 -70.916  -1.110  1.00  0.00     0.019 C 
HETATM   15 BR1  UNL     1     -34.681 -70.981  -2.262  1.00  0.00    -0.086 Br
ENDBRANCH   3   5
BRANCH   1  16
HETATM   16  C5  UNL     1     -36.289 -75.309   2.726  1.00  0.00     0.309 C 
HETATM   17  N1  UNL     1     -36.306 -75.921   3.973  1.00  0.00    -0.353 N 
ATOM     18  H1  UNL     1     -36.829 -75.466   4.721  1.00  0.00     0.162 HD
HETATM   19  O1  UNL     1     -35.666 -75.804   1.765  1.00  0.00    -0.262 OA
BRANCH  17  20
HETATM   20  C4  UNL     1     -35.639 -77.147   4.276  1.00  0.00     0.127 C 
BRANCH  20  21
HETATM   21  C2  UNL     1     -35.160 -77.133   5.704  1.00  0.00    -0.005 C 
HETATM   22  C1  UNL     1     -35.791 -75.981   6.468  1.00  0.00     0.011 C 
HETATM   23  C3  UNL     1     -35.672 -78.435   6.336  1.00  0.00     0.011 C 
ENDBRANCH  20  21
ENDBRANCH  17  20
ENDBRANCH   1  16
TORSDOF 4
ENDMDL
MODEL 3
REMARK VINA RESULT: -7.131866360      1.612      2.041
REMARK  4 active torsions:
REMARK  status: ('A' for Active; 'I' for Inactive)
REMARK    1  A    between atoms: C2_2  and  C4_4 
REMARK    2  A    between atoms: C4_4  and  N1_5 
REMARK       I    between atoms: N1_5  and  C5_7 
REMARK    3  A    between atoms: C5_7  and  C6_9 
REMARK       I    between atoms: C6_9  and  N2_11 
REMARK    4  A    between atoms: N2_11  and  C7_13 
ROOT
HETATM    1  C6  UNL     1     -36.837 -73.494   2.467  1.00  0.00     0.309 C 
HETATM    2  O2  UNL     1     -37.583 -73.014   3.357  1.00  0.00    -0.262 OA
HETATM    3  N2  UNL     1     -36.410 -72.720   1.340  1.00  0.00    -0.348 N 
ATOM      4  H2  UNL     1     -35.803 -73.173   0.656  1.00  0.00     0.163 HD
ENDROOT
BRANCH   3   5
HETATM    5  C7  UNL     1     -36.772 -71.358   1.105  1.00  0.00     0.093 C 
HETATM    6  C8  UNL     1     -36.046 -70.851  -0.118  1.00  0.00     0.010 C 
HETATM    7  C9  UNL     1     -36.272 -69.374  -0.342  1.00  0.00     0.011 C 
HETATM    8  C16 UNL     1     -36.492 -71.567  -1.369  1.00  0.00     0.027 C 
HETATM    9  C10 UNL     1     -37.760 -69.117  -0.516  1.00  0.00    -0.012 C 
HETATM   10  C11 UNL     1     -38.460 -69.656   0.694  1.00  0.00     0.011 C 
HETATM   11  C15 UNL     1     -38.260 -69.834  -1.733  1.00  0.00     0.025 C 
HETATM   12  C12 UNL     1     -38.245 -71.144   0.879  1.00  0.00     0.010 C 
HETATM   13  C13 UNL     1     -38.693 -71.861  -0.363  1.00  0.00     0.027 C 
HETATM   14  C14 UNL     1     -37.966 -71.306  -1.568  1.00  0.00     0.019 C 
HETATM   15 BR1  UNL     1     -38.538 -72.324  -3.109  1.00  0.00    -0.086 Br
ENDBRANCH   3   5
BRANCH   1  16
HETATM   16  C5  UNL     1     -36.429 -74.879   2.646  1.00  0.00     0.309 C 
HETATM   17  N1  UNL     1     -36.262 -75.408   3.919  1.00  0.00    -0.353 N 
ATOM     18  H1  UNL     1     -36.428 -74.795   4.717  1.00  0.00     0.162 HD
HETATM   19  O1  UNL     1     -36.238 -75.567   1.623  1.00  0.00    -0.262 OA
BRANCH  17  20
HETATM   20  C4  UNL     1     -35.872 -76.757   4.184  1.00  0.00     0.127 C 
BRANCH  20  21
HETATM   21  C2  UNL     1     -36.465 -77.216   5.490  1.00  0.00    -0.005 C 
HETATM   22  C1  UNL     1     -35.511 -78.156   6.209  1.00  0.00     0.011 C 
HETATM   23  C3  UNL     1     -36.606 -75.958   6.357  1.00  0.00     0.011 C 
ENDBRANCH  20  21
ENDBRANCH  17  20
ENDBRANCH   1  16
TORSDOF 4
ENDMDL
MODEL 4
REMARK VINA RESULT: -7.054090241      1.726      2.366
REMARK  4 active torsions:
REMARK  status: ('A' for Active; 'I' for Inactive)
REMARK    1  A    between atoms: C2_2  and  C4_4 
REMARK    2  A    between atoms: C4_4  and  N1_5 
REMARK       I    between atoms: N1_5  and  C5_7 
REMARK    3  A    between atoms: C5_7  and  C6_9 
REMARK       I    between atoms: C6_9  and  N2_11 
REMARK    4  A    between atoms: N2_11  and  C7_13 
ROOT
HETATM    1  C6  UNL     1     -37.902 -72.325   1.250  1.00  0.00     0.309 C 
HETATM    2  O2  UNL     1     -38.517 -73.089   0.465  1.00  0.00    -0.262 OA
HETATM    3  N2  UNL     1     -38.028 -70.900   1.170  1.00  0.00    -0.348 N 
ATOM      4  H2  UNL     1     -37.500 -70.339   1.840  1.00  0.00     0.163 HD
ENDROOT
BRANCH   3   5
HETATM    5  C7  UNL     1     -38.839 -70.207   0.220  1.00  0.00     0.093 C 
HETATM    6  C8  UNL     1     -38.791 -68.726   0.507  1.00  0.00     0.010 C 
HETATM    7  C9  UNL     1     -39.741 -67.945  -0.371  1.00  0.00     0.011 C 
HETATM    8  C16 UNL     1     -37.410 -68.160   0.286  1.00  0.00     0.027 C 
HETATM    9  C10 UNL     1     -39.376 -68.173  -1.828  1.00  0.00    -0.012 C 
HETATM   10  C11 UNL     1     -39.401 -69.649  -2.079  1.00  0.00     0.011 C 
HETATM   11  C15 UNL     1     -37.996 -67.652  -2.094  1.00  0.00     0.025 C 
HETATM   12  C12 UNL     1     -38.417 -70.406  -1.211  1.00  0.00     0.010 C 
HETATM   13  C13 UNL     1     -37.040 -69.849  -1.431  1.00  0.00     0.027 C 
HETATM   14  C14 UNL     1     -37.038 -68.360  -1.164  1.00  0.00     0.019 C 
HETATM   15 BR1  UNL     1     -35.225 -67.731  -1.395  1.00  0.00    -0.086 Br
ENDBRANCH   3   5
BRANCH   1  16
HETATM   16  C5  UNL     1     -37.056 -72.966   2.244  1.00  0.00     0.309 C 
HETATM   17  N1  UNL     1     -37.359 -72.873   3.597  1.00  0.00    -0.353 N 
ATOM     18  H1  UNL     1     -38.185 -72.338   3.865  1.00  0.00     0.162 HD
HETATM   19  O1  UNL     1     -36.058 -73.598   1.841  1.00  0.00    -0.262 OA
BRANCH  17  20
HETATM   20  C4  UNL     1     -36.587 -73.477   4.636  1.00  0.00     0.127 C 
BRANCH  20  21
HETATM   21  C2  UNL     1     -37.160 -74.826   4.983  1.00  0.00    -0.005 C 
HETATM   22  C1  UNL     1     -36.249 -75.937   4.487  1.00  0.00     0.011 C 
HETATM   23  C3  UNL     1     -37.176 -74.899   6.516  1.00  0.00     0.011 C 
ENDBRANCH  20  21
ENDBRANCH  17  20
ENDBRANCH   1  16
TORSDOF 4
ENDMDL
MODEL 5
REMARK VINA RESULT: -7.000787358      1.069      1.430
REMARK  4 active torsions:
REMARK  status: ('A' for Active; 'I' for Inactive)
REMARK    1  A    between atoms: C2_2  and  C4_4 
REMARK    2  A    between atoms: C4_4  and  N1_5 
REMARK       I    between atoms: N1_5  and  C5_7 
REMARK    3  A    between atoms: C5_7  and  C6_9 
REMARK       I    between atoms: C6_9  and  N2_11 
REMARK    4  A    between atoms: N2_11  and  C7_13 
ROOT
HETATM    1  C6  UNL     1     -36.924 -72.002   1.888  1.00  0.00     0.309 C 
HETATM    2  O2  UNL     1     -35.933 -71.324   2.258  1.00  0.00    -0.262 OA
HETATM    3  N2  UNL     1     -37.787 -71.564   0.831  1.00  0.00    -0.348 N 
ATOM      4  H2  UNL     1     -38.573 -72.165   0.581  1.00  0.00     0.163 HD
ENDROOT
BRANCH   3   5
HETATM    5  C7  UNL     1     -37.626 -70.347   0.102  1.00  0.00     0.093 C 
HETATM    6  C8  UNL     1     -37.871 -70.607  -1.365  1.00  0.00     0.010 C 
HETATM    7  C9  UNL     1     -37.576 -69.392  -2.215  1.00  0.00     0.011 C 
HETATM    8  C16 UNL     1     -39.303 -71.001  -1.630  1.00  0.00     0.027 C 
HETATM    9  C10 UNL     1     -38.463 -68.242  -1.767  1.00  0.00    -0.012 C 
HETATM   10  C11 UNL     1     -38.224 -68.025  -0.304  1.00  0.00     0.011 C 
HETATM   11  C15 UNL     1     -39.904 -68.597  -1.982  1.00  0.00     0.025 C 
HETATM   12  C12 UNL     1     -38.557 -69.245   0.530  1.00  0.00     0.010 C 
HETATM   13  C13 UNL     1     -39.984 -69.638   0.273  1.00  0.00     0.027 C 
HETATM   14  C14 UNL     1     -40.199 -69.860  -1.208  1.00  0.00     0.019 C 
HETATM   15 BR1  UNL     1     -42.028 -70.433  -1.450  1.00  0.00    -0.086 Br
ENDBRANCH   3   5
BRANCH   1  16
HETATM   16  C5  UNL     1     -37.147 -73.256   2.591  1.00  0.00     0.309 C 
HETATM   17  N1  UNL     1     -37.173 -73.293   3.980  1.00  0.00    -0.353 N 
ATOM     18  H1  UNL     1     -37.026 -72.418   4.483  1.00  0.00     0.162 HD
HETATM   19  O1  UNL     1     -37.312 -74.286   1.907  1.00  0.00    -0.262 OA
BRANCH  17  20
HETATM   20  C4  UNL     1     -37.392 -74.477   4.748  1.00  0.00     0.127 C 
BRANCH  20  21
HETATM   21  C2  UNL     1     -36.224 -74.718   5.666  1.00  0.00    -0.005 C 
HETATM   22  C1  UNL     1     -36.591 -74.377   7.101  1.00  0.00     0.011 C 
HETATM   23  C3  UNL     1     -35.947 -76.227   5.613  1.00  0.00     0.011 C 
ENDBRANCH  20  21
ENDBRANCH  17  20
ENDBRANCH   1  16
TORSDOF 4
ENDMDL
