MODEL 1
REMARK VINA RESULT: -6.553094476      0.000      0.000
REMARK  4 active torsions:
REMARK  status: ('A' for Active; 'I' for Inactive)
REMARK    1  A    between atoms: C2_2  and  N1_5 
REMARK       I    between atoms: N1_5  and  C5_7 
REMARK       I    between atoms: C5_7  and  N2_9 
REMARK    2  A    between atoms: N2_9  and  S1_11 
REMARK    3  A    between atoms: S1_11  and  C6_14 
REMARK    4  A    between atoms: C10_19  and  C12_21 
ROOT
HETATM    1  S1  UNL     1     -36.832 -72.628   1.493  1.00  0.00     0.246 S 
HETATM    2  O2  UNL     1     -38.192 -73.127   1.112  1.00  0.00    -0.205 OA
HETATM    3  O3  UNL     1     -35.866 -73.731   1.063  1.00  0.00    -0.205 OA
ENDROOT
BRANCH   1   4
HETATM    4  N2  UNL     1     -36.729 -72.529   3.187  1.00  0.00    -0.235 N 
HETATM    5  C5  UNL     1     -36.673 -73.647   4.062  1.00  0.00     0.330 C 
HETATM    6  N1  UNL     1     -36.591 -73.487   5.468  1.00  0.00    -0.334 N 
HETATM    7  O1  UNL     1     -36.694 -74.837   3.644  1.00  0.00    -0.246 OA
ATOM      8  H1  UNL     1     -36.573 -72.538   5.841  1.00  0.00     0.165 HD
ATOM      9  H2  UNL     1     -36.706 -71.600   3.606  1.00  0.00     0.183 HD
BRANCH   6  10
HETATM   10  C2  UNL     1     -36.532 -74.578   6.397  1.00  0.00     0.023 C 
HETATM   11  C1  UNL     1     -37.913 -75.210   6.597  1.00  0.00     0.037 C 
HETATM   12  C3  UNL     1     -35.604 -75.694   5.967  1.00  0.00     0.037 C 
HETATM   13  C4  UNL     1     -36.135 -74.019   7.746  1.00  0.00     0.037 C 
ENDBRANCH   6  10
ENDBRANCH   1   4
BRANCH   1  14
HETATM   14  C6  UNL     1     -36.399 -71.142   0.663  1.00  0.00     0.207 C 
HETATM   15  C7  UNL     1     -35.506 -71.544  -0.493  1.00  0.00     0.147 C 
HETATM   16  O4  UNL     1     -34.310 -71.527  -0.565  1.00  0.00    -0.296 OA
HETATM   17  C8  UNL     1     -36.455 -71.979  -1.556  1.00  0.00     0.080 C 
HETATM   18  C9  UNL     1     -37.782 -71.375  -1.220  1.00  0.00     0.019 C 
HETATM   19  C10 UNL     1     -37.499 -70.468  -0.067  1.00  0.00    -0.009 C 
HETATM   20  C11 UNL     1     -36.907 -69.181  -0.659  1.00  0.00     0.018 C 
BRANCH  19  21
HETATM   21  C12 UNL     1     -38.700 -70.094   0.734  1.00  0.00     0.096 C 
HETATM   22 BR1  UNL     1     -39.444 -68.414   0.133  1.00  0.00    -0.096 Br
ENDBRANCH  19  21
ENDBRANCH   1  14
TORSDOF 4
ENDMDL
MODEL 2
REMARK VINA RESULT: -6.408094962      2.313      3.207
REMARK  4 active torsions:
REMARK  status: ('A' for Active; 'I' for Inactive)
REMARK    1  A    between atoms: C2_2  and  N1_5 
REMARK       I    between atoms: N1_5  and  C5_7 
REMARK       I    between atoms: C5_7  and  N2_9 
REMARK    2  A    between atoms: N2_9  and  S1_11 
REMARK    3  A    between atoms: S1_11  and  C6_14 
REMARK    4  A    between atoms: C10_19  and  C12_21 
ROOT
HETATM    1  S1  UNL     1     -36.898 -72.634   1.723  1.00  0.00     0.246 S 
HETATM    2  O2  UNL     1     -35.999 -71.531   2.192  1.00  0.00    -0.205 OA
HETATM    3  O3  UNL     1     -38.282 -72.278   2.262  1.00  0.00    -0.205 OA
ENDROOT
BRANCH   1   4
HETATM    4  N2  UNL     1     -36.442 -74.085   2.482  1.00  0.00    -0.235 N 
HETATM    5  C5  UNL     1     -36.627 -74.371   3.862  1.00  0.00     0.330 C 
HETATM    6  N1  UNL     1     -36.219 -75.605   4.426  1.00  0.00    -0.334 N 
HETATM    7  O1  UNL     1     -37.160 -73.551   4.659  1.00  0.00    -0.246 OA
ATOM      8  H1  UNL     1     -35.783 -76.291   3.810  1.00  0.00     0.165 HD
ATOM      9  H2  UNL     1     -36.004 -74.803   1.906  1.00  0.00     0.183 HD
BRANCH   6  10
HETATM   10  C2  UNL     1     -36.381 -75.947   5.810  1.00  0.00     0.023 C 
HETATM   11  C1  UNL     1     -35.129 -75.589   6.617  1.00  0.00     0.037 C 
HETATM   12  C3  UNL     1     -37.542 -75.243   6.478  1.00  0.00     0.037 C 
HETATM   13  C4  UNL     1     -36.517 -77.451   5.904  1.00  0.00     0.037 C 
ENDBRANCH   6  10
ENDBRANCH   1   4
BRANCH   1  14
HETATM   14  C6  UNL     1     -36.983 -72.739  -0.028  1.00  0.00     0.207 C 
HETATM   15  C7  UNL     1     -38.295 -72.100  -0.431  1.00  0.00     0.147 C 
HETATM   16  O4  UNL     1     -39.341 -72.622  -0.693  1.00  0.00    -0.296 OA
HETATM   17  C8  UNL     1     -38.006 -70.638  -0.433  1.00  0.00     0.080 C 
HETATM   18  C9  UNL     1     -36.521 -70.494  -0.539  1.00  0.00     0.019 C 
HETATM   19  C10 UNL     1     -36.026 -71.885  -0.771  1.00  0.00    -0.009 C 
HETATM   20  C11 UNL     1     -36.243 -72.180  -2.262  1.00  0.00     0.018 C 
BRANCH  19  21
HETATM   21  C12 UNL     1     -34.579 -72.084  -0.470  1.00  0.00     0.096 C 
HETATM   22 BR1  UNL     1     -33.988 -73.841  -1.020  1.00  0.00    -0.096 Br
ENDBRANCH  19  21
ENDBRANCH   1  14
TORSDOF 4
ENDMDL
MODEL 3
REMARK VINA RESULT: -6.216918165      4.401      6.335
REMARK  4 active torsions:
REMARK  status: ('A' for Active; 'I' for Inactive)
REMARK    1  A    between atoms: C2_2  and  N1_5 
REMARK       I    between atoms: N1_5  and  C5_7 
REMARK       I    between atoms: C5_7  and  N2_9 
REMARK    2  A    between atoms: N2_9  and  S1_11 
REMARK    3  A    between atoms: S1_11  and  C6_14 
REMARK    4  A    between atoms: C10_19  and  C12_21 
ROOT
HETATM    1  S1  UNL     1     -41.442 -71.507  -2.011  1.00  0.00     0.246 S 
HETATM    2  O2  UNL     1     -41.841 -70.953  -0.678  1.00  0.00    -0.205 OA
HETATM    3  O3  UNL     1     -42.459 -72.608  -2.307  1.00  0.00    -0.205 OA
ENDROOT
BRANCH   1   4
HETATM    4  N2  UNL     1     -39.931 -72.273  -1.865  1.00  0.00    -0.235 N 
HETATM    5  C5  UNL     1     -38.996 -72.030  -0.822  1.00  0.00     0.330 C 
HETATM    6  N1  UNL     1     -37.752 -72.706  -0.767  1.00  0.00    -0.334 N 
HETATM    7  O1  UNL     1     -39.216 -71.205   0.107  1.00  0.00    -0.246 OA
ATOM      8  H1  UNL     1     -37.541 -73.380  -1.503  1.00  0.00     0.165 HD
ATOM      9  H2  UNL     1     -39.676 -72.957  -2.577  1.00  0.00     0.183 HD
BRANCH   6  10
HETATM   10  C2  UNL     1     -36.773 -72.501   0.260  1.00  0.00     0.023 C 
HETATM   11  C1  UNL     1     -36.184 -71.089   0.189  1.00  0.00     0.037 C 
HETATM   12  C3  UNL     1     -37.317 -72.672   1.662  1.00  0.00     0.037 C 
HETATM   13  C4  UNL     1     -35.619 -73.443  -0.003  1.00  0.00     0.037 C 
ENDBRANCH   6  10
ENDBRANCH   1   4
BRANCH   1  14
HETATM   14  C6  UNL     1     -41.515 -70.309  -3.292  1.00  0.00     0.207 C 
HETATM   15  C7  UNL     1     -41.916 -69.005  -2.634  1.00  0.00     0.147 C 
HETATM   16  O4  UNL     1     -42.998 -68.495  -2.565  1.00  0.00    -0.296 OA
HETATM   17  C8  UNL     1     -40.644 -68.471  -2.070  1.00  0.00     0.080 C 
HETATM   18  C9  UNL     1     -39.531 -69.150  -2.804  1.00  0.00     0.019 C 
HETATM   19  C10 UNL     1     -40.213 -69.922  -3.887  1.00  0.00    -0.009 C 
HETATM   20  C11 UNL     1     -40.525 -68.919  -5.006  1.00  0.00     0.018 C 
BRANCH  19  21
HETATM   21  C12 UNL     1     -39.394 -71.022  -4.472  1.00  0.00     0.096 C 
HETATM   22 BR1  UNL     1     -40.397 -72.011  -5.795  1.00  0.00    -0.096 Br
ENDBRANCH  19  21
ENDBRANCH   1  14
TORSDOF 4
ENDMDL
MODEL 4
REMARK VINA RESULT: -6.059215311      4.358      6.077
REMARK  4 active torsions:
REMARK  status: ('A' for Active; 'I' for Inactive)
REMARK    1  A    between atoms: C2_2  and  N1_5 
REMARK       I    between atoms: N1_5  and  C5_7 
REMARK       I    between atoms: C5_7  and  N2_9 
REMARK    2  A    between atoms: N2_9  and  S1_11 
REMARK    3  A    between atoms: S1_11  and  C6_14 
REMARK    4  A    between atoms: C10_19  and  C12_21 
ROOT
HETATM    1  S1  UNL     1     -40.340 -72.834  -2.636  1.00  0.00     0.246 S 
HETATM    2  O2  UNL     1     -40.765 -73.679  -1.474  1.00  0.00    -0.205 OA
HETATM    3  O3  UNL     1     -40.438 -73.751  -3.854  1.00  0.00    -0.205 OA
ENDROOT
BRANCH   1   4
HETATM    4  N2  UNL     1     -38.697 -72.435  -2.463  1.00  0.00    -0.235 N 
HETATM    5  C5  UNL     1     -37.975 -72.488  -1.240  1.00  0.00     0.330 C 
HETATM    6  N1  UNL     1     -36.603 -72.137  -1.172  1.00  0.00    -0.334 N 
HETATM    7  O1  UNL     1     -38.506 -72.845  -0.154  1.00  0.00    -0.246 OA
ATOM      8  H1  UNL     1     -36.142 -71.842  -2.032  1.00  0.00     0.165 HD
ATOM      9  H2  UNL     1     -38.192 -72.137  -3.297  1.00  0.00     0.183 HD
BRANCH   6  10
HETATM   10  C2  UNL     1     -35.826 -72.172   0.032  1.00  0.00     0.023 C 
HETATM   11  C1  UNL     1     -36.277 -71.084   1.013  1.00  0.00     0.037 C 
HETATM   12  C3  UNL     1     -35.913 -73.487   0.776  1.00  0.00     0.037 C 
HETATM   13  C4  UNL     1     -34.395 -71.834  -0.327  1.00  0.00     0.037 C 
ENDBRANCH   6  10
ENDBRANCH   1   4
BRANCH   1  14
HETATM   14  C6  UNL     1     -41.390 -71.449  -2.885  1.00  0.00     0.207 C 
HETATM   15  C7  UNL     1     -41.959 -71.095  -1.527  1.00  0.00     0.147 C 
HETATM   16  O4  UNL     1     -43.022 -71.381  -1.055  1.00  0.00    -0.296 OA
HETATM   17  C8  UNL     1     -40.885 -70.291  -0.877  1.00  0.00     0.080 C 
HETATM   18  C9  UNL     1     -40.003 -69.787  -1.975  1.00  0.00     0.019 C 
HETATM   19  C10 UNL     1     -40.709 -70.179  -3.233  1.00  0.00    -0.009 C 
HETATM   20  C11 UNL     1     -41.813 -69.136  -3.454  1.00  0.00     0.018 C 
BRANCH  19  21
HETATM   21  C12 UNL     1     -39.844 -70.196  -4.447  1.00  0.00     0.096 C 
HETATM   22 BR1  UNL     1     -40.823 -70.822  -5.992  1.00  0.00    -0.096 Br
ENDBRANCH  19  21
ENDBRANCH   1  14
TORSDOF 4
ENDMDL
MODEL 5
REMARK VINA RESULT: -6.042945348      2.851      3.531
REMARK  4 active torsions:
REMARK  status: ('A' for Active; 'I' for Inactive)
REMARK    1  A    between atoms: C2_2  and  N1_5 
REMARK       I    between atoms: N1_5  and  C5_7 
REMARK       I    between atoms: C5_7  and  N2_9 
REMARK    2  A    between atoms: N2_9  and  S1_11 
REMARK    3  A    between atoms: S1_11  and  C6_14 
REMARK    4  A    between atoms: C10_19  and  C12_21 
ROOT
HETATM    1  S1  UNL     1     -36.711 -73.242   1.430  1.00  0.00     0.246 S 
HETATM    2  O2  UNL     1     -36.725 -73.244   2.928  1.00  0.00    -0.205 OA
HETATM    3  O3  UNL     1     -38.173 -73.399   1.016  1.00  0.00    -0.205 OA
ENDROOT
BRANCH   1   4
HETATM    4  N2  UNL     1     -35.901 -74.632   0.879  1.00  0.00    -0.235 N 
HETATM    5  C5  UNL     1     -35.695 -75.808   1.649  1.00  0.00     0.330 C 
HETATM    6  N1  UNL     1     -35.006 -76.929   1.122  1.00  0.00    -0.334 N 
HETATM    7  O1  UNL     1     -36.107 -75.924   2.835  1.00  0.00    -0.246 OA
ATOM      8  H1  UNL     1     -34.658 -76.871   0.166  1.00  0.00     0.165 HD
ATOM      9  H2  UNL     1     -35.536 -74.621  -0.073  1.00  0.00     0.183 HD
BRANCH   6  10
HETATM   10  C2  UNL     1     -34.770 -78.141   1.852  1.00  0.00     0.023 C 
HETATM   11  C1  UNL     1     -33.324 -78.617   1.680  1.00  0.00     0.037 C 
HETATM   12  C3  UNL     1     -35.007 -78.011   3.341  1.00  0.00     0.037 C 
HETATM   13  C4  UNL     1     -35.635 -79.225   1.247  1.00  0.00     0.037 C 
ENDBRANCH   6  10
ENDBRANCH   1   4
BRANCH   1  14
HETATM   14  C6  UNL     1     -36.092 -71.742   0.761  1.00  0.00     0.207 C 
HETATM   15  C7  UNL     1     -35.327 -72.116  -0.492  1.00  0.00     0.147 C 
HETATM   16  O4  UNL     1     -34.148 -72.268  -0.641  1.00  0.00    -0.296 OA
HETATM   17  C8  UNL     1     -36.381 -72.263  -1.535  1.00  0.00     0.080 C 
HETATM   18  C9  UNL     1     -37.581 -71.518  -1.041  1.00  0.00     0.019 C 
HETATM   19  C10 UNL     1     -37.107 -70.822   0.193  1.00  0.00    -0.009 C 
HETATM   20  C11 UNL     1     -36.351 -69.571  -0.276  1.00  0.00     0.018 C 
BRANCH  19  21
HETATM   21  C12 UNL     1     -38.197 -70.382   1.112  1.00  0.00     0.096 C 
HETATM   22 BR1  UNL     1     -39.783 -69.888   0.125  1.00  0.00    -0.096 Br
ENDBRANCH  19  21
ENDBRANCH   1  14
TORSDOF 4
ENDMDL
