MODEL 1
REMARK VINA RESULT: -6.806195813      0.000      0.000
REMARK  4 active torsions:
REMARK  status: ('A' for Active; 'I' for Inactive)
REMARK    1  A    between atoms: C2_2  and  C4_4 
REMARK    2  A    between atoms: C4_4  and  C5_5 
REMARK    3  A    between atoms: C7_9  and  C8_10 
REMARK       I    between atoms: C8_10  and  N2_12 
REMARK    4  A    between atoms: N2_12  and  C9_14 
ROOT
HETATM    1  C5  UNL     1     -37.850 -69.790   0.450  1.00  0.00     0.106 C 
HETATM    2  C6  UNL     1     -37.903 -68.283   0.603  1.00  0.00     0.063 C 
HETATM    3  N1  UNL     1     -37.133 -70.249   1.611  1.00  0.00    -0.381 N 
ATOM      4  H1  UNL     1     -37.200 -69.747   2.496  1.00  0.00     0.156 HD
HETATM    5  C7  UNL     1     -36.343 -71.399   1.499  1.00  0.00     0.197 C 
HETATM    6  C12 UNL     1     -35.950 -71.799   0.138  1.00  0.00     0.034 C 
HETATM    7  C13 UNL     1     -36.298 -71.161  -0.942  1.00  0.00     0.039 C 
HETATM    8  C14 UNL     1     -36.273 -71.012  -2.431  1.00  0.00     0.200 C 
HETATM    9 BR1  UNL     1     -37.553 -72.191  -3.231  1.00  0.00    -0.074 Br
HETATM   10  C15 UNL     1     -36.714 -69.655  -2.116  1.00  0.00     0.246 C 
HETATM   11  O2  UNL     1     -36.748 -68.566  -2.733  1.00  0.00    -0.271 OA
HETATM   12  N3  UNL     1     -37.114 -70.007  -0.799  1.00  0.00    -0.292 N 
ENDROOT
BRANCH   5  13
HETATM   13  C8  UNL     1     -36.896 -72.598   2.185  1.00  0.00     0.244 C 
HETATM   14  O1  UNL     1     -37.706 -73.360   1.595  1.00  0.00    -0.271 OA
HETATM   15  N2  UNL     1     -36.540 -72.933   3.517  1.00  0.00    -0.355 N 
ATOM     16  H2  UNL     1     -35.886 -72.332   4.016  1.00  0.00     0.162 HD
BRANCH  15  17
HETATM   17  C9  UNL     1     -37.069 -74.092   4.190  1.00  0.00     0.076 C 
HETATM   18  C10 UNL     1     -36.880 -73.853   5.687  1.00  0.00     0.032 C 
HETATM   19  C11 UNL     1     -36.327 -75.353   3.843  1.00  0.00     0.032 C 
ENDBRANCH  15  17
ENDBRANCH   5  13
BRANCH   1  20
HETATM   20  C4  UNL     1     -39.188 -70.432   0.431  1.00  0.00     0.057 C 
BRANCH  20  21
HETATM   21  C2  UNL     1     -40.268 -69.782  -0.344  1.00  0.00    -0.019 C 
HETATM   22  C1  UNL     1     -40.662 -70.795  -1.444  1.00  0.00     0.009 C 
HETATM   23  C3  UNL     1     -41.544 -69.502   0.389  1.00  0.00     0.009 C 
ENDBRANCH  20  21
ENDBRANCH   1  20
TORSDOF 4
ENDMDL
MODEL 2
REMARK VINA RESULT: -6.362736496      1.644      1.873
REMARK  4 active torsions:
REMARK  status: ('A' for Active; 'I' for Inactive)
REMARK    1  A    between atoms: C2_2  and  C4_4 
REMARK    2  A    between atoms: C4_4  and  C5_5 
REMARK    3  A    between atoms: C7_9  and  C8_10 
REMARK       I    between atoms: C8_10  and  N2_12 
REMARK    4  A    between atoms: N2_12  and  C9_14 
ROOT
HETATM    1  C5  UNL     1     -37.645 -69.516  -0.528  1.00  0.00     0.106 C 
HETATM    2  C6  UNL     1     -36.938 -68.175  -0.523  1.00  0.00     0.063 C 
HETATM    3  N1  UNL     1     -36.694 -70.430   0.049  1.00  0.00    -0.381 N 
ATOM      4  H1  UNL     1     -36.030 -70.114   0.756  1.00  0.00     0.156 HD
HETATM    5  C7  UNL     1     -36.700 -71.762  -0.382  1.00  0.00     0.197 C 
HETATM    6  C12 UNL     1     -37.351 -72.035  -1.672  1.00  0.00     0.034 C 
HETATM    7  C13 UNL     1     -37.918 -71.126  -2.414  1.00  0.00     0.039 C 
HETATM    8  C14 UNL     1     -38.661 -70.735  -3.652  1.00  0.00     0.200 C 
HETATM    9 BR1  UNL     1     -40.526 -71.118  -3.449  1.00  0.00    -0.074 Br
HETATM   10  C15 UNL     1     -38.204 -69.397  -3.278  1.00  0.00     0.246 C 
HETATM   11  O2  UNL     1     -38.094 -68.299  -3.869  1.00  0.00    -0.271 OA
HETATM   12  N3  UNL     1     -37.911 -69.786  -1.944  1.00  0.00    -0.292 N 
ENDROOT
BRANCH   5  13
HETATM   13  C8  UNL     1     -37.235 -72.731   0.613  1.00  0.00     0.244 C 
HETATM   14  O1  UNL     1     -38.455 -73.042   0.615  1.00  0.00    -0.271 OA
HETATM   15  N2  UNL     1     -36.408 -73.340   1.591  1.00  0.00    -0.355 N 
ATOM     16  H2  UNL     1     -35.416 -73.104   1.611  1.00  0.00     0.162 HD
BRANCH  15  17
HETATM   17  C9  UNL     1     -36.916 -74.278   2.558  1.00  0.00     0.076 C 
HETATM   18  C10 UNL     1     -36.644 -73.678   3.936  1.00  0.00     0.032 C 
HETATM   19  C11 UNL     1     -36.210 -75.606   2.504  1.00  0.00     0.032 C 
ENDBRANCH  15  17
ENDBRANCH   5  13
BRANCH   1  20
HETATM   20  C4  UNL     1     -38.883 -69.537   0.290  1.00  0.00     0.057 C 
BRANCH  20  21
HETATM   21  C2  UNL     1     -40.106 -68.922  -0.273  1.00  0.00    -0.019 C 
HETATM   22  C1  UNL     1     -41.289 -69.712   0.334  1.00  0.00     0.009 C 
HETATM   23  C3  UNL     1     -40.372 -67.495   0.100  1.00  0.00     0.009 C 
ENDBRANCH  20  21
ENDBRANCH   1  20
TORSDOF 4
ENDMDL
MODEL 3
REMARK VINA RESULT: -6.360981150      4.598      6.327
REMARK  4 active torsions:
REMARK  status: ('A' for Active; 'I' for Inactive)
REMARK    1  A    between atoms: C2_2  and  C4_4 
REMARK    2  A    between atoms: C4_4  and  C5_5 
REMARK    3  A    between atoms: C7_9  and  C8_10 
REMARK       I    between atoms: C8_10  and  N2_12 
REMARK    4  A    between atoms: N2_12  and  C9_14 
ROOT
HETATM    1  C5  UNL     1     -41.961 -69.342  -1.980  1.00  0.00     0.106 C 
HETATM    2  C6  UNL     1     -43.022 -68.536  -1.257  1.00  0.00     0.063 C 
HETATM    3  N1  UNL     1     -42.339 -70.715  -1.764  1.00  0.00    -0.381 N 
ATOM      4  H1  UNL     1     -43.320 -70.977  -1.671  1.00  0.00     0.156 HD
HETATM    5  C7  UNL     1     -41.329 -71.682  -1.684  1.00  0.00     0.197 C 
HETATM    6  C12 UNL     1     -39.972 -71.196  -1.388  1.00  0.00     0.034 C 
HETATM    7  C13 UNL     1     -39.666 -69.942  -1.209  1.00  0.00     0.039 C 
HETATM    8  C14 UNL     1     -38.654 -68.879  -0.920  1.00  0.00     0.200 C 
HETATM    9 BR1  UNL     1     -37.682 -68.445  -2.512  1.00  0.00    -0.074 Br
HETATM   10  C15 UNL     1     -39.846 -68.087  -0.623  1.00  0.00     0.246 C 
HETATM   11  O2  UNL     1     -40.075 -67.024  -0.003  1.00  0.00    -0.271 OA
HETATM   12  N3  UNL     1     -40.707 -68.982  -1.312  1.00  0.00    -0.292 N 
ENDROOT
BRANCH   5  13
HETATM   13  C8  UNL     1     -41.243 -72.583  -2.865  1.00  0.00     0.244 C 
HETATM   14  O1  UNL     1     -41.869 -73.675  -2.887  1.00  0.00    -0.271 OA
HETATM   15  N2  UNL     1     -40.462 -72.259  -4.004  1.00  0.00    -0.355 N 
ATOM     16  H2  UNL     1     -39.946 -71.380  -4.011  1.00  0.00     0.162 HD
BRANCH  15  17
HETATM   17  C9  UNL     1     -40.373 -73.125  -5.152  1.00  0.00     0.076 C 
HETATM   18  C10 UNL     1     -38.933 -73.633  -5.205  1.00  0.00     0.032 C 
HETATM   19  C11 UNL     1     -40.638 -72.403  -6.445  1.00  0.00     0.032 C 
ENDBRANCH  15  17
ENDBRANCH   5  13
BRANCH   1  20
HETATM   20  C4  UNL     1     -41.913 -69.085  -3.440  1.00  0.00     0.057 C 
BRANCH  20  21
HETATM   21  C2  UNL     1     -41.566 -67.722  -3.902  1.00  0.00    -0.019 C 
HETATM   22  C1  UNL     1     -40.443 -67.909  -4.949  1.00  0.00     0.009 C 
HETATM   23  C3  UNL     1     -42.638 -66.966  -4.627  1.00  0.00     0.009 C 
ENDBRANCH  20  21
ENDBRANCH   1  20
TORSDOF 4
ENDMDL
MODEL 4
REMARK VINA RESULT: -6.223144297      1.473      1.722
REMARK  4 active torsions:
REMARK  status: ('A' for Active; 'I' for Inactive)
REMARK    1  A    between atoms: C2_2  and  C4_4 
REMARK    2  A    between atoms: C4_4  and  C5_5 
REMARK    3  A    between atoms: C7_9  and  C8_10 
REMARK       I    between atoms: C8_10  and  N2_12 
REMARK    4  A    between atoms: N2_12  and  C9_14 
ROOT
HETATM    1  C5  UNL     1     -38.758 -69.782   0.044  1.00  0.00     0.106 C 
HETATM    2  C6  UNL     1     -39.614 -68.569   0.351  1.00  0.00     0.063 C 
HETATM    3  N1  UNL     1     -38.524 -70.395   1.326  1.00  0.00    -0.381 N 
ATOM      4  H1  UNL     1     -39.222 -70.336   2.067  1.00  0.00     0.156 HD
HETATM    5  C7  UNL     1     -37.317 -71.073   1.533  1.00  0.00     0.197 C 
HETATM    6  C12 UNL     1     -36.212 -70.749   0.616  1.00  0.00     0.034 C 
HETATM    7  C13 UNL     1     -36.299 -69.891  -0.360  1.00  0.00     0.039 C 
HETATM    8  C14 UNL     1     -35.681 -69.168  -1.516  1.00  0.00     0.200 C 
HETATM    9 BR1  UNL     1     -35.685 -70.288  -3.070  1.00  0.00    -0.074 Br
HETATM   10  C15 UNL     1     -36.824 -68.276  -1.327  1.00  0.00     0.246 C 
HETATM   11  O2  UNL     1     -37.110 -67.111  -1.685  1.00  0.00    -0.271 OA
HETATM   12  N3  UNL     1     -37.540 -69.230  -0.557  1.00  0.00    -0.292 N 
ENDROOT
BRANCH   5  13
HETATM   13  C8  UNL     1     -37.442 -72.555   1.589  1.00  0.00     0.244 C 
HETATM   14  O1  UNL     1     -38.233 -73.162   0.820  1.00  0.00    -0.271 OA
HETATM   15  N2  UNL     1     -36.688 -73.340   2.498  1.00  0.00    -0.355 N 
ATOM     16  H2  UNL     1     -36.040 -72.871   3.131  1.00  0.00     0.162 HD
BRANCH  15  17
HETATM   17  C9  UNL     1     -36.802 -74.774   2.560  1.00  0.00     0.076 C 
HETATM   18  C10 UNL     1     -36.382 -75.186   3.970  1.00  0.00     0.032 C 
HETATM   19  C11 UNL     1     -35.877 -75.472   1.599  1.00  0.00     0.032 C 
ENDBRANCH  15  17
ENDBRANCH   5  13
BRANCH   1  20
HETATM   20  C4  UNL     1     -39.423 -70.769  -0.842  1.00  0.00     0.057 C 
BRANCH  20  21
HETATM   21  C2  UNL     1     -40.276 -70.263  -1.940  1.00  0.00    -0.019 C 
HETATM   22  C1  UNL     1     -39.538 -70.634  -3.248  1.00  0.00     0.009 C 
HETATM   23  C3  UNL     1     -41.632 -70.888  -2.079  1.00  0.00     0.009 C 
ENDBRANCH  20  21
ENDBRANCH   1  20
TORSDOF 4
ENDMDL
MODEL 5
REMARK VINA RESULT: -6.160185306      1.481      1.865
REMARK  4 active torsions:
REMARK  status: ('A' for Active; 'I' for Inactive)
REMARK    1  A    between atoms: C2_2  and  C4_4 
REMARK    2  A    between atoms: C4_4  and  C5_5 
REMARK    3  A    between atoms: C7_9  and  C8_10 
REMARK       I    between atoms: C8_10  and  N2_12 
REMARK    4  A    between atoms: N2_12  and  C9_14 
ROOT
HETATM    1  C5  UNL     1     -38.276 -70.931  -0.559  1.00  0.00     0.106 C 
HETATM    2  C6  UNL     1     -39.141 -69.748  -0.945  1.00  0.00     0.063 C 
HETATM    3  N1  UNL     1     -38.261 -70.915   0.881  1.00  0.00    -0.381 N 
ATOM      4  H1  UNL     1     -39.066 -70.575   1.407  1.00  0.00     0.156 HD
HETATM    5  C7  UNL     1     -37.118 -71.378   1.543  1.00  0.00     0.197 C 
HETATM    6  C12 UNL     1     -35.875 -71.431   0.756  1.00  0.00     0.034 C 
HETATM    7  C13 UNL     1     -35.787 -71.086  -0.497  1.00  0.00     0.039 C 
HETATM    8  C14 UNL     1     -34.979 -70.908  -1.743  1.00  0.00     0.200 C 
HETATM    9 BR1  UNL     1     -34.763 -72.588  -2.634  1.00  0.00    -0.074 Br
HETATM   10  C15 UNL     1     -36.115 -70.078  -2.138  1.00  0.00     0.246 C 
HETATM   11  O2  UNL     1     -36.314 -69.198  -3.006  1.00  0.00    -0.271 OA
HETATM   12  N3  UNL     1     -36.966 -70.636  -1.147  1.00  0.00    -0.292 N 
ENDROOT
BRANCH   5  13
HETATM   13  C8  UNL     1     -37.285 -72.693   2.219  1.00  0.00     0.244 C 
HETATM   14  O1  UNL     1     -37.710 -73.693   1.584  1.00  0.00    -0.271 OA
HETATM   15  N2  UNL     1     -36.977 -72.879   3.592  1.00  0.00    -0.355 N 
ATOM     16  H2  UNL     1     -36.630 -72.084   4.128  1.00  0.00     0.162 HD
BRANCH  15  17
HETATM   17  C9  UNL     1     -37.135 -74.147   4.255  1.00  0.00     0.076 C 
HETATM   18  C10 UNL     1     -36.820 -73.911   5.731  1.00  0.00     0.032 C 
HETATM   19  C11 UNL     1     -36.169 -75.187   3.755  1.00  0.00     0.032 C 
ENDBRANCH  15  17
ENDBRANCH   5  13
BRANCH   1  20
HETATM   20  C4  UNL     1     -38.816 -72.235  -1.016  1.00  0.00     0.057 C 
BRANCH  20  21
HETATM   21  C2  UNL     1     -39.696 -72.253  -2.206  1.00  0.00    -0.019 C 
HETATM   22  C1  UNL     1     -38.780 -72.618  -3.398  1.00  0.00     0.009 C 
HETATM   23  C3  UNL     1     -40.777 -73.290  -2.226  1.00  0.00     0.009 C 
ENDBRANCH  20  21
ENDBRANCH   1  20
TORSDOF 4
ENDMDL
