MODEL 1
REMARK VINA RESULT: -6.228097912      0.000      0.000
REMARK  3 active torsions:
REMARK  status: ('A' for Active; 'I' for Inactive)
REMARK       I    between atoms: N1_2  and  C2_4 
REMARK    1  A    between atoms: C2_4  and  C3_6 
REMARK    2  A    between atoms: C11_15  and  N2_16 
REMARK    3  A    between atoms: N2_16  and  S1_18 
ROOT
HETATM    1  C3  UNL     1     -32.666 -75.788  -1.947  1.00  0.00     0.048 C 
HETATM    2  C4  UNL     1     -33.210 -75.482  -3.320  1.00  0.00     0.024 C 
HETATM    3  C5  UNL     1     -32.240 -75.673  -4.429  1.00  0.00    -0.010 C 
HETATM    4  C6  UNL     1     -31.891 -77.161  -4.623  1.00  0.00     0.026 C 
HETATM    5  C7  UNL     1     -30.970 -76.939  -3.429  1.00  0.00     0.024 C 
HETATM    6 BR1  UNL     1     -29.345 -77.938  -3.449  1.00  0.00    -0.085 Br
HETATM    7  C8  UNL     1     -30.797 -75.574  -4.094  1.00  0.00     0.026 C 
HETATM    8  C9  UNL     1     -31.691 -76.886  -2.122  1.00  0.00     0.024 C 
HETATM    9  C10 UNL     1     -32.515 -78.131  -1.860  1.00  0.00     0.033 C 
HETATM   10  C11 UNL     1     -33.447 -77.752  -0.721  1.00  0.00     0.094 C 
HETATM   11  C13 UNL     1     -33.726 -76.304  -0.998  1.00  0.00     0.045 C 
ENDROOT
BRANCH  10  12
HETATM   12  N2  UNL     1     -32.888 -78.020   0.556  1.00  0.00    -0.315 N 
ATOM     13  H2  UNL     1     -31.963 -77.732   0.875  1.00  0.00     0.172 HD
BRANCH  12  14
HETATM   14  S1  UNL     1     -34.037 -78.915   1.478  1.00  0.00     0.223 S 
HETATM   15  C12 UNL     1     -34.909 -77.825   2.584  1.00  0.00     0.185 C 
HETATM   16  O2  UNL     1     -35.061 -79.572   0.596  1.00  0.00    -0.206 OA
HETATM   17  O3  UNL     1     -33.367 -80.029   2.254  1.00  0.00    -0.206 OA
ENDBRANCH  12  14
ENDBRANCH  10  12
BRANCH   1  18
HETATM   18  C2  UNL     1     -32.147 -74.549  -1.310  1.00  0.00     0.226 C 
HETATM   19  N1  UNL     1     -32.792 -73.314  -1.386  1.00  0.00    -0.365 N 
HETATM   20  C1  UNL     1     -32.216 -72.161  -0.739  1.00  0.00     0.149 C 
ATOM     21  H1  UNL     1     -33.670 -73.227  -1.898  1.00  0.00     0.161 HD
HETATM   22  O1  UNL     1     -31.051 -74.625  -0.662  1.00  0.00    -0.273 OA
ENDBRANCH   1  18
TORSDOF 3
ENDMDL
MODEL 2
REMARK VINA RESULT: -6.178101385      7.119      8.892
REMARK  3 active torsions:
REMARK  status: ('A' for Active; 'I' for Inactive)
REMARK       I    between atoms: N1_2  and  C2_4 
REMARK    1  A    between atoms: C2_4  and  C3_6 
REMARK    2  A    between atoms: C11_15  and  N2_16 
REMARK    3  A    between atoms: N2_16  and  S1_18 
ROOT
HETATM    1  C3  UNL     1     -37.519 -70.586  -0.220  1.00  0.00     0.048 C 
HETATM    2  C4  UNL     1     -37.643 -69.317   0.585  1.00  0.00     0.024 C 
HETATM    3  C5  UNL     1     -37.269 -68.079  -0.146  1.00  0.00    -0.010 C 
HETATM    4  C6  UNL     1     -38.274 -67.762  -1.270  1.00  0.00     0.026 C 
HETATM    5  C7  UNL     1     -37.509 -68.831  -2.041  1.00  0.00     0.024 C 
HETATM    6 BR1  UNL     1     -37.361 -68.540  -3.921  1.00  0.00    -0.085 Br
HETATM    7  C8  UNL     1     -36.329 -68.221  -1.286  1.00  0.00     0.026 C 
HETATM    8  C9  UNL     1     -37.840 -70.224  -1.617  1.00  0.00     0.024 C 
HETATM    9  C10 UNL     1     -39.321 -70.530  -1.727  1.00  0.00     0.033 C 
HETATM   10  C11 UNL     1     -39.519 -71.802  -0.920  1.00  0.00     0.094 C 
HETATM   11  C13 UNL     1     -38.523 -71.642   0.191  1.00  0.00     0.045 C 
ENDROOT
BRANCH  10  12
HETATM   12  N2  UNL     1     -39.360 -72.977  -1.702  1.00  0.00    -0.315 N 
ATOM     13  H2  UNL     1     -38.474 -73.441  -1.906  1.00  0.00     0.172 HD
BRANCH  12  14
HETATM   14  S1  UNL     1     -40.914 -73.487  -2.247  1.00  0.00     0.223 S 
HETATM   15  C12 UNL     1     -41.031 -73.291  -4.012  1.00  0.00     0.185 C 
HETATM   16  O2  UNL     1     -41.157 -74.937  -1.938  1.00  0.00    -0.206 OA
HETATM   17  O3  UNL     1     -42.016 -72.713  -1.554  1.00  0.00    -0.206 OA
ENDBRANCH  12  14
ENDBRANCH  10  12
BRANCH   1  18
HETATM   18  C2  UNL     1     -36.189 -71.211   0.003  1.00  0.00     0.226 C 
HETATM   19  N1  UNL     1     -35.512 -71.951  -0.967  1.00  0.00    -0.365 N 
HETATM   20  C1  UNL     1     -34.223 -72.525  -0.665  1.00  0.00     0.149 C 
ATOM     21  H1  UNL     1     -35.928 -72.087  -1.888  1.00  0.00     0.161 HD
HETATM   22  O1  UNL     1     -35.641 -71.060   1.145  1.00  0.00    -0.273 OA
ENDBRANCH   1  18
TORSDOF 3
ENDMDL
MODEL 3
REMARK VINA RESULT: -6.107967944      8.127      9.077
REMARK  3 active torsions:
REMARK  status: ('A' for Active; 'I' for Inactive)
REMARK       I    between atoms: N1_2  and  C2_4 
REMARK    1  A    between atoms: C2_4  and  C3_6 
REMARK    2  A    between atoms: C11_15  and  N2_16 
REMARK    3  A    between atoms: N2_16  and  S1_18 
ROOT
HETATM    1  C3  UNL     1     -40.173 -71.912  -3.500  1.00  0.00     0.048 C 
HETATM    2  C4  UNL     1     -40.803 -73.033  -4.289  1.00  0.00     0.024 C 
HETATM    3  C5  UNL     1     -40.443 -73.057  -5.729  1.00  0.00    -0.010 C 
HETATM    4  C6  UNL     1     -38.957 -73.411  -5.934  1.00  0.00     0.026 C 
HETATM    5  C7  UNL     1     -38.722 -71.949  -5.571  1.00  0.00     0.024 C 
HETATM    6 BR1  UNL     1     -37.260 -71.107  -6.462  1.00  0.00    -0.085 Br
HETATM    7  C8  UNL     1     -40.026 -71.773  -6.348  1.00  0.00     0.026 C 
HETATM    8  C9  UNL     1     -38.848 -71.670  -4.110  1.00  0.00     0.024 C 
HETATM    9  C10 UNL     1     -37.915 -72.522  -3.271  1.00  0.00     0.033 C 
HETATM   10  C11 UNL     1     -38.436 -72.390  -1.850  1.00  0.00     0.094 C 
HETATM   11  C13 UNL     1     -39.919 -72.282  -2.055  1.00  0.00     0.045 C 
ENDROOT
BRANCH  10  12
HETATM   12  N2  UNL     1     -37.848 -71.304  -1.150  1.00  0.00    -0.315 N 
ATOM     13  H2  UNL     1     -37.413 -70.486  -1.576  1.00  0.00     0.172 HD
BRANCH  12  14
HETATM   14  S1  UNL     1     -37.994 -71.601   0.542  1.00  0.00     0.223 S 
HETATM   15  C12 UNL     1     -36.551 -70.996   1.390  1.00  0.00     0.185 C 
HETATM   16  O2  UNL     1     -39.186 -70.896   1.124  1.00  0.00    -0.206 OA
HETATM   17  O3  UNL     1     -38.192 -73.075   0.823  1.00  0.00    -0.206 OA
ENDBRANCH  12  14
ENDBRANCH  10  12
BRANCH   1  18
HETATM   18  C2  UNL     1     -41.089 -70.743  -3.444  1.00  0.00     0.226 C 
HETATM   19  N1  UNL     1     -40.691 -69.437  -3.735  1.00  0.00    -0.365 N 
HETATM   20  C1  UNL     1     -41.646 -68.359  -3.654  1.00  0.00     0.149 C 
ATOM     21  H1  UNL     1     -39.726 -69.246  -4.005  1.00  0.00     0.161 HD
HETATM   22  O1  UNL     1     -42.302 -70.949  -3.110  1.00  0.00    -0.273 OA
ENDBRANCH   1  18
TORSDOF 3
ENDMDL
MODEL 4
REMARK VINA RESULT: -6.086678887      6.055      7.691
REMARK  3 active torsions:
REMARK  status: ('A' for Active; 'I' for Inactive)
REMARK       I    between atoms: N1_2  and  C2_4 
REMARK    1  A    between atoms: C2_4  and  C3_6 
REMARK    2  A    between atoms: C11_15  and  N2_16 
REMARK    3  A    between atoms: N2_16  and  S1_18 
ROOT
HETATM    1  C3  UNL     1     -36.774 -70.536   0.279  1.00  0.00     0.048 C 
HETATM    2  C4  UNL     1     -37.457 -69.279   0.757  1.00  0.00     0.024 C 
HETATM    3  C5  UNL     1     -38.687 -68.917   0.007  1.00  0.00    -0.010 C 
HETATM    4  C6  UNL     1     -39.820 -69.930   0.258  1.00  0.00     0.026 C 
HETATM    5  C7  UNL     1     -39.069 -70.784  -0.756  1.00  0.00     0.024 C 
HETATM    6 BR1  UNL     1     -40.159 -71.873  -1.882  1.00  0.00    -0.085 Br
HETATM    7  C8  UNL     1     -38.806 -69.416  -1.386  1.00  0.00     0.026 C 
HETATM    8  C9  UNL     1     -37.846 -71.435  -0.198  1.00  0.00     0.024 C 
HETATM    9  C10 UNL     1     -38.147 -72.294   1.014  1.00  0.00     0.033 C 
HETATM   10  C11 UNL     1     -36.794 -72.553   1.657  1.00  0.00     0.094 C 
HETATM   11  C13 UNL     1     -36.057 -71.273   1.388  1.00  0.00     0.045 C 
ENDROOT
BRANCH  10  12
HETATM   12  N2  UNL     1     -36.164 -73.722   1.156  1.00  0.00    -0.315 N 
ATOM     13  H2  UNL     1     -35.640 -73.790   0.283  1.00  0.00     0.172 HD
BRANCH  12  14
HETATM   14  S1  UNL     1     -36.432 -75.008   2.272  1.00  0.00     0.223 S 
HETATM   15  C12 UNL     1     -36.383 -74.385   3.938  1.00  0.00     0.185 C 
HETATM   16  O2  UNL     1     -37.779 -75.642   2.069  1.00  0.00    -0.206 OA
HETATM   17  O3  UNL     1     -35.411 -76.111   2.090  1.00  0.00    -0.206 OA
ENDBRANCH  12  14
ENDBRANCH  10  12
BRANCH   1  18
HETATM   18  C2  UNL     1     -35.715 -70.201  -0.710  1.00  0.00     0.226 C 
HETATM   19  N1  UNL     1     -35.182 -71.125  -1.610  1.00  0.00    -0.365 N 
HETATM   20  C1  UNL     1     -34.154 -70.716  -2.537  1.00  0.00     0.149 C 
ATOM     21  H1  UNL     1     -35.518 -72.088  -1.613  1.00  0.00     0.161 HD
HETATM   22  O1  UNL     1     -35.274 -69.006  -0.733  1.00  0.00    -0.273 OA
ENDBRANCH   1  18
TORSDOF 3
ENDMDL
MODEL 5
REMARK VINA RESULT: -6.071375879      7.385      9.186
REMARK  3 active torsions:
REMARK  status: ('A' for Active; 'I' for Inactive)
REMARK       I    between atoms: N1_2  and  C2_4 
REMARK    1  A    between atoms: C2_4  and  C3_6 
REMARK    2  A    between atoms: C11_15  and  N2_16 
REMARK    3  A    between atoms: N2_16  and  S1_18 
ROOT
HETATM    1  C3  UNL     1     -36.966 -71.259   0.722  1.00  0.00     0.048 C 
HETATM    2  C4  UNL     1     -35.474 -71.052   0.641  1.00  0.00     0.024 C 
HETATM    3  C5  UNL     1     -34.820 -71.695  -0.527  1.00  0.00    -0.010 C 
HETATM    4  C6  UNL     1     -35.239 -71.024  -1.849  1.00  0.00     0.026 C 
HETATM    5  C7  UNL     1     -36.504 -71.860  -1.691  1.00  0.00     0.024 C 
HETATM    6 BR1  UNL     1     -37.284 -72.484  -3.316  1.00  0.00    -0.085 Br
HETATM    7  C8  UNL     1     -35.504 -72.869  -1.128  1.00  0.00     0.026 C 
HETATM    8  C9  UNL     1     -37.453 -71.319  -0.673  1.00  0.00     0.024 C 
HETATM    9  C10 UNL     1     -37.864 -69.889  -0.962  1.00  0.00     0.033 C 
HETATM   10  C11 UNL     1     -38.494 -69.393   0.329  1.00  0.00     0.094 C 
HETATM   11  C13 UNL     1     -37.685 -70.100   1.377  1.00  0.00     0.045 C 
ENDROOT
BRANCH  10  12
HETATM   12  N2  UNL     1     -39.891 -69.638   0.386  1.00  0.00    -0.315 N 
ATOM     13  H2  UNL     1     -40.334 -70.483   0.746  1.00  0.00     0.172 HD
BRANCH  12  14
HETATM   14  S1  UNL     1     -40.713 -68.264  -0.254  1.00  0.00     0.223 S 
HETATM   15  C12 UNL     1     -40.717 -68.335  -2.033  1.00  0.00     0.185 C 
HETATM   16  O2  UNL     1     -42.146 -68.220   0.197  1.00  0.00    -0.206 OA
HETATM   17  O3  UNL     1     -40.077 -66.976   0.222  1.00  0.00    -0.206 OA
ENDBRANCH  12  14
ENDBRANCH  10  12
BRANCH   1  18
HETATM   18  C2  UNL     1     -37.277 -72.438   1.573  1.00  0.00     0.226 C 
HETATM   19  N1  UNL     1     -36.686 -72.669   2.815  1.00  0.00    -0.365 N 
HETATM   20  C1  UNL     1     -37.045 -73.841   3.576  1.00  0.00     0.149 C 
ATOM     21  H1  UNL     1     -36.000 -72.011   3.185  1.00  0.00     0.161 HD
HETATM   22  O1  UNL     1     -38.130 -73.280   1.139  1.00  0.00    -0.273 OA
ENDBRANCH   1  18
TORSDOF 3
ENDMDL
