MODEL 1
REMARK VINA RESULT: -8.660893659      0.000      0.000
REMARK  3 active torsions:
REMARK  status: ('A' for Active; 'I' for Inactive)
REMARK    1  A    between atoms: N1_2  and  C2_3 
REMARK       I    between atoms: N1_2  and  C4_6 
REMARK    2  A    between atoms: C2_3  and  C3_4 
REMARK       I    between atoms: C4_6  and  N2_8 
REMARK       I    between atoms: N2_8  and  C5_10 
REMARK       I    between atoms: C5_10  and  N3_12 
REMARK    3  A    between atoms: N3_12  and  C6_14 
ROOT
HETATM    1  C6  UNL     1     -37.517 -70.931   1.504  1.00  0.00     0.050 A 
HETATM    2  C7  UNL     1     -36.264 -70.352   0.748  1.00  0.00     0.022 A 
HETATM    3  C8  UNL     1     -36.327 -70.434  -0.764  1.00  0.00     0.008 C 
HETATM    4  C9  UNL     1     -36.932 -69.201  -1.404  1.00  0.00     0.006 C 
HETATM    5  C10 UNL     1     -37.833 -69.238  -2.498  1.00  0.00    -0.003 A 
HETATM    6  C11 UNL     1     -39.104 -68.482  -2.210  1.00  0.00     0.019 A 
HETATM    7  C12 UNL     1     -39.449 -68.028  -0.903  1.00  0.00     0.173 C 
HETATM    8  O3  UNL     1     -39.558 -68.619   0.259  1.00  0.00    -0.385 OA
HETATM    9  C13 UNL     1     -39.771 -70.014   0.367  1.00  0.00     0.133 C 
HETATM   10  C14 UNL     1     -40.453 -70.352  -0.901  1.00  0.00     0.020 A 
HETATM   11  C15 UNL     1     -40.832 -71.546  -1.528  1.00  0.00     0.013 A 
HETATM   12  C16 UNL     1     -39.558 -70.940  -1.829  1.00  0.00    -0.003 A 
HETATM   13  C17 UNL     1     -39.103 -69.827  -2.662  1.00  0.00     0.001 A 
HETATM   14  C18 UNL     1     -38.564 -70.685   0.624  1.00  0.00     0.051 A 
HETATM   15  C19 UNL     1     -37.487 -69.693   1.168  1.00  0.00     0.030 A 
ENDROOT
BRANCH   1  16
HETATM   16  N3  UNL     1     -37.283 -71.879   2.514  1.00  0.00    -0.332 N 
HETATM   17  C5  UNL     1     -36.979 -73.218   2.208  1.00  0.00     0.324 C 
HETATM   18  N2  UNL     1     -36.721 -74.280   3.090  1.00  0.00    -0.261 N 
HETATM   19  O2  UNL     1     -36.933 -73.509   0.946  1.00  0.00    -0.247 OA
HETATM   20  C4  UNL     1     -36.703 -74.248   4.481  1.00  0.00     0.326 C 
ATOM     21  H2  UNL     1     -36.523 -75.184   2.660  1.00  0.00     0.175 HD
HETATM   22  N1  UNL     1     -36.419 -75.430   5.218  1.00  0.00    -0.336 N 
HETATM   23  O1  UNL     1     -36.929 -73.196   5.112  1.00  0.00    -0.247 OA
HETATM   24  C1  UNL     1     -36.402 -75.325   6.682  1.00  0.00     0.154 C 
ATOM     25  H3  UNL     1     -37.336 -71.590   3.491  1.00  0.00     0.165 HD
BRANCH  22  26
HETATM   26  C2  UNL     1     -36.159 -76.716   4.602  1.00  0.00     0.158 C 
BRANCH  26  27
HETATM   27  C3  UNL     1     -36.328 -77.825   5.628  1.00  0.00     0.242 C 
HETATM   28  F1  UNL     1     -35.192 -78.591   5.711  1.00  0.00    -0.254 F 
ENDBRANCH  26  27
ENDBRANCH  22  26
ENDBRANCH   1  16
TORSDOF 3
ENDMDL
MODEL 2
REMARK VINA RESULT: -8.607602016      1.892      3.140
REMARK  3 active torsions:
REMARK  status: ('A' for Active; 'I' for Inactive)
REMARK    1  A    between atoms: N1_2  and  C2_3 
REMARK       I    between atoms: N1_2  and  C4_6 
REMARK    2  A    between atoms: C2_3  and  C3_4 
REMARK       I    between atoms: C4_6  and  N2_8 
REMARK       I    between atoms: N2_8  and  C5_10 
REMARK       I    between atoms: C5_10  and  N3_12 
REMARK    3  A    between atoms: N3_12  and  C6_14 
ROOT
HETATM    1  C6  UNL     1     -38.543 -71.701  -0.770  1.00  0.00     0.050 A 
HETATM    2  C7  UNL     1     -39.462 -72.405  -1.836  1.00  0.00     0.022 A 
HETATM    3  C8  UNL     1     -40.780 -71.711  -2.113  1.00  0.00     0.008 C 
HETATM    4  C9  UNL     1     -40.701 -70.714  -3.252  1.00  0.00     0.006 C 
HETATM    5  C10 UNL     1     -41.336 -69.446  -3.240  1.00  0.00    -0.003 A 
HETATM    6  C11 UNL     1     -40.368 -68.327  -3.526  1.00  0.00     0.019 A 
HETATM    7  C12 UNL     1     -38.955 -68.516  -3.533  1.00  0.00     0.173 C 
HETATM    8  O3  UNL     1     -38.104 -69.006  -2.670  1.00  0.00    -0.385 OA
HETATM    9  C13 UNL     1     -38.401 -69.069  -1.287  1.00  0.00     0.133 C 
HETATM   10  C14 UNL     1     -39.367 -67.965  -1.098  1.00  0.00     0.020 A 
HETATM   11  C15 UNL     1     -40.174 -67.535  -0.036  1.00  0.00     0.013 A 
HETATM   12  C16 UNL     1     -40.697 -68.450  -1.022  1.00  0.00    -0.003 A 
HETATM   13  C17 UNL     1     -41.213 -68.332  -2.386  1.00  0.00     0.001 A 
HETATM   14  C18 UNL     1     -38.843 -70.354  -0.929  1.00  0.00     0.051 A 
HETATM   15  C19 UNL     1     -38.430 -71.401  -2.013  1.00  0.00     0.030 A 
ENDROOT
BRANCH   1  16
HETATM   16  N3  UNL     1     -38.069 -72.484   0.295  1.00  0.00    -0.332 N 
HETATM   17  C5  UNL     1     -37.944 -71.957   1.594  1.00  0.00     0.324 C 
HETATM   18  N2  UNL     1     -37.492 -72.599   2.758  1.00  0.00    -0.261 N 
HETATM   19  O2  UNL     1     -38.291 -70.716   1.733  1.00  0.00    -0.247 OA
HETATM   20  C4  UNL     1     -37.064 -73.916   2.894  1.00  0.00     0.326 C 
ATOM     21  H2  UNL     1     -37.475 -72.032   3.606  1.00  0.00     0.175 HD
HETATM   22  N1  UNL     1     -36.637 -74.400   4.161  1.00  0.00    -0.336 N 
HETATM   23  O1  UNL     1     -37.045 -74.700   1.924  1.00  0.00    -0.247 OA
HETATM   24  C1  UNL     1     -36.211 -75.803   4.240  1.00  0.00     0.154 C 
ATOM     25  H3  UNL     1     -37.810 -73.456   0.124  1.00  0.00     0.165 HD
BRANCH  22  26
HETATM   26  C2  UNL     1     -36.594 -73.584   5.359  1.00  0.00     0.158 C 
BRANCH  26  27
HETATM   27  C3  UNL     1     -36.757 -74.462   6.589  1.00  0.00     0.242 C 
HETATM   28  F1  UNL     1     -35.574 -74.561   7.278  1.00  0.00    -0.254 F 
ENDBRANCH  26  27
ENDBRANCH  22  26
ENDBRANCH   1  16
TORSDOF 3
ENDMDL
MODEL 3
REMARK VINA RESULT: -8.551909156      1.822      2.907
REMARK  3 active torsions:
REMARK  status: ('A' for Active; 'I' for Inactive)
REMARK    1  A    between atoms: N1_2  and  C2_3 
REMARK       I    between atoms: N1_2  and  C4_6 
REMARK    2  A    between atoms: C2_3  and  C3_4 
REMARK       I    between atoms: C4_6  and  N2_8 
REMARK       I    between atoms: N2_8  and  C5_10 
REMARK       I    between atoms: C5_10  and  N3_12 
REMARK    3  A    between atoms: N3_12  and  C6_14 
ROOT
HETATM    1  C6  UNL     1     -37.342 -71.989   1.461  1.00  0.00     0.050 A 
HETATM    2  C7  UNL     1     -38.223 -70.686   1.409  1.00  0.00     0.022 A 
HETATM    3  C8  UNL     1     -37.587 -69.503   0.707  1.00  0.00     0.008 C 
HETATM    4  C9  UNL     1     -37.908 -69.444  -0.772  1.00  0.00     0.006 C 
HETATM    5  C10 UNL     1     -36.967 -69.095  -1.775  1.00  0.00    -0.003 A 
HETATM    6  C11 UNL     1     -36.885 -70.138  -2.860  1.00  0.00     0.019 A 
HETATM    7  C12 UNL     1     -37.484 -71.425  -2.735  1.00  0.00     0.173 C 
HETATM    8  O3  UNL     1     -37.403 -72.377  -1.842  1.00  0.00    -0.385 OA
HETATM    9  C13 UNL     1     -36.298 -72.481  -0.964  1.00  0.00     0.133 C 
HETATM   10  C14 UNL     1     -35.202 -71.841  -1.723  1.00  0.00     0.020 A 
HETATM   11  C15 UNL     1     -33.884 -71.470  -1.424  1.00  0.00     0.013 A 
HETATM   12  C16 UNL     1     -34.959 -70.521  -1.266  1.00  0.00    -0.003 A 
HETATM   13  C17 UNL     1     -35.740 -69.669  -2.164  1.00  0.00     0.001 A 
HETATM   14  C18 UNL     1     -36.600 -71.921   0.289  1.00  0.00     0.051 A 
HETATM   15  C19 UNL     1     -38.146 -71.798   0.479  1.00  0.00     0.030 A 
ENDROOT
BRANCH   1  16
HETATM   16  N3  UNL     1     -37.146 -72.588   2.716  1.00  0.00    -0.332 N 
HETATM   17  C5  UNL     1     -37.079 -73.987   2.860  1.00  0.00     0.324 C 
HETATM   18  N2  UNL     1     -36.888 -74.737   4.031  1.00  0.00    -0.261 N 
HETATM   19  O2  UNL     1     -37.211 -74.670   1.767  1.00  0.00    -0.247 OA
HETATM   20  C4  UNL     1     -36.717 -74.265   5.328  1.00  0.00     0.326 C 
ATOM     21  H2  UNL     1     -36.873 -75.751   3.917  1.00  0.00     0.175 HD
HETATM   22  N1  UNL     1     -36.535 -75.179   6.402  1.00  0.00    -0.336 N 
HETATM   23  O1  UNL     1     -36.716 -73.044   5.583  1.00  0.00    -0.247 OA
HETATM   24  C1  UNL     1     -36.347 -74.615   7.744  1.00  0.00     0.154 C 
ATOM     25  H3  UNL     1     -37.050 -71.997   3.542  1.00  0.00     0.165 HD
BRANCH  22  26
HETATM   26  C2  UNL     1     -36.537 -76.619   6.239  1.00  0.00     0.158 C 
BRANCH  26  27
HETATM   27  C3  UNL     1     -35.113 -77.123   6.074  1.00  0.00     0.242 C 
HETATM   28  F1  UNL     1     -35.084 -78.493   5.998  1.00  0.00    -0.254 F 
ENDBRANCH  26  27
ENDBRANCH  22  26
ENDBRANCH   1  16
TORSDOF 3
ENDMDL
MODEL 4
REMARK VINA RESULT: -8.434368998      2.215      2.963
REMARK  3 active torsions:
REMARK  status: ('A' for Active; 'I' for Inactive)
REMARK    1  A    between atoms: N1_2  and  C2_3 
REMARK       I    between atoms: N1_2  and  C4_6 
REMARK    2  A    between atoms: C2_3  and  C3_4 
REMARK       I    between atoms: C4_6  and  N2_8 
REMARK       I    between atoms: N2_8  and  C5_10 
REMARK       I    between atoms: C5_10  and  N3_12 
REMARK    3  A    between atoms: N3_12  and  C6_14 
ROOT
HETATM    1  C6  UNL     1     -38.154 -72.200  -0.839  1.00  0.00     0.050 A 
HETATM    2  C7  UNL     1     -37.028 -71.815  -1.870  1.00  0.00     0.022 A 
HETATM    3  C8  UNL     1     -37.298 -72.225  -3.303  1.00  0.00     0.008 C 
HETATM    4  C9  UNL     1     -38.009 -71.154  -4.106  1.00  0.00     0.006 C 
HETATM    5  C10 UNL     1     -39.052 -71.417  -5.030  1.00  0.00    -0.003 A 
HETATM    6  C11 UNL     1     -40.284 -70.600  -4.739  1.00  0.00     0.019 A 
HETATM    7  C12 UNL     1     -40.452 -69.868  -3.528  1.00  0.00     0.173 C 
HETATM    8  O3  UNL     1     -40.389 -70.189  -2.262  1.00  0.00    -0.385 OA
HETATM    9  C13 UNL     1     -40.560 -71.524  -1.824  1.00  0.00     0.133 C 
HETATM   10  C14 UNL     1     -41.405 -72.122  -2.880  1.00  0.00     0.020 A 
HETATM   11  C15 UNL     1     -41.845 -73.420  -3.172  1.00  0.00     0.013 A 
HETATM   12  C16 UNL     1     -40.636 -72.910  -3.772  1.00  0.00    -0.003 A 
HETATM   13  C17 UNL     1     -40.321 -72.012  -4.883  1.00  0.00     0.001 A 
HETATM   14  C18 UNL     1     -39.317 -72.138  -1.597  1.00  0.00     0.051 A 
HETATM   15  C19 UNL     1     -38.193 -71.065  -1.437  1.00  0.00     0.030 A 
ENDROOT
BRANCH   1  16
HETATM   16  N3  UNL     1     -37.766 -72.907   0.311  1.00  0.00    -0.332 N 
HETATM   17  C5  UNL     1     -37.720 -72.286   1.574  1.00  0.00     0.324 C 
HETATM   18  N2  UNL     1     -37.358 -72.846   2.810  1.00  0.00    -0.261 N 
HETATM   19  O2  UNL     1     -38.055 -71.035   1.597  1.00  0.00    -0.247 OA
HETATM   20  C4  UNL     1     -36.962 -74.153   3.071  1.00  0.00     0.326 C 
ATOM     21  H2  UNL     1     -37.389 -72.217   3.613  1.00  0.00     0.175 HD
HETATM   22  N1  UNL     1     -36.630 -74.547   4.397  1.00  0.00    -0.336 N 
HETATM   23  O1  UNL     1     -36.891 -75.007   2.164  1.00  0.00    -0.247 OA
HETATM   24  C1  UNL     1     -36.233 -75.944   4.607  1.00  0.00     0.154 C 
ATOM     25  H3  UNL     1     -37.511 -73.891   0.230  1.00  0.00     0.165 HD
BRANCH  22  26
HETATM   26  C2  UNL     1     -36.654 -73.645   5.531  1.00  0.00     0.158 C 
BRANCH  26  27
HETATM   27  C3  UNL     1     -36.736 -74.440   6.823  1.00  0.00     0.242 C 
HETATM   28  F1  UNL     1     -35.540 -74.408   7.495  1.00  0.00    -0.254 F 
ENDBRANCH  26  27
ENDBRANCH  22  26
ENDBRANCH   1  16
TORSDOF 3
ENDMDL
MODEL 5
REMARK VINA RESULT: -8.267970577      1.554      1.878
REMARK  3 active torsions:
REMARK  status: ('A' for Active; 'I' for Inactive)
REMARK    1  A    between atoms: N1_2  and  C2_3 
REMARK       I    between atoms: N1_2  and  C4_6 
REMARK    2  A    between atoms: C2_3  and  C3_4 
REMARK       I    between atoms: C4_6  and  N2_8 
REMARK       I    between atoms: N2_8  and  C5_10 
REMARK       I    between atoms: C5_10  and  N3_12 
REMARK    3  A    between atoms: N3_12  and  C6_14 
ROOT
HETATM    1  C6  UNL     1     -38.653 -70.697   0.565  1.00  0.00     0.050 A 
HETATM    2  C7  UNL     1     -37.669 -69.524   0.200  1.00  0.00     0.022 A 
HETATM    3  C8  UNL     1     -37.579 -69.193  -1.276  1.00  0.00     0.008 C 
HETATM    4  C9  UNL     1     -38.565 -68.128  -1.710  1.00  0.00     0.006 C 
HETATM    5  C10 UNL     1     -39.293 -68.170  -2.926  1.00  0.00    -0.003 A 
HETATM    6  C11 UNL     1     -40.776 -68.027  -2.701  1.00  0.00     0.019 A 
HETATM    7  C12 UNL     1     -41.369 -68.114  -1.407  1.00  0.00     0.173 C 
HETATM    8  O3  UNL     1     -41.330 -69.007  -0.453  1.00  0.00    -0.385 OA
HETATM    9  C13 UNL     1     -40.991 -70.356  -0.711  1.00  0.00     0.133 C 
HETATM   10  C14 UNL     1     -41.389 -70.541  -2.123  1.00  0.00     0.020 A 
HETATM   11  C15 UNL     1     -41.224 -71.564  -3.067  1.00  0.00     0.013 A 
HETATM   12  C16 UNL     1     -40.267 -70.488  -2.987  1.00  0.00    -0.003 A 
HETATM   13  C17 UNL     1     -40.217 -69.099  -3.445  1.00  0.00     0.001 A 
HETATM   14  C18 UNL     1     -39.642 -70.600  -0.406  1.00  0.00     0.051 A 
HETATM   15  C19 UNL     1     -39.080 -69.488   0.537  1.00  0.00     0.030 A 
ENDROOT
BRANCH   1  16
HETATM   16  N3  UNL     1     -38.148 -71.745   1.353  1.00  0.00    -0.332 N 
HETATM   17  C5  UNL     1     -37.521 -72.864   0.773  1.00  0.00     0.324 C 
HETATM   18  N2  UNL     1     -36.968 -73.985   1.413  1.00  0.00    -0.261 N 
HETATM   19  O2  UNL     1     -37.447 -72.858  -0.520  1.00  0.00    -0.247 OA
HETATM   20  C4  UNL     1     -36.909 -74.245   2.778  1.00  0.00     0.326 C 
ATOM     21  H2  UNL     1     -36.559 -74.694   0.803  1.00  0.00     0.175 HD
HETATM   22  N1  UNL     1     -36.305 -75.443   3.250  1.00  0.00    -0.336 N 
HETATM   23  O1  UNL     1     -37.375 -73.447   3.615  1.00  0.00    -0.247 OA
HETATM   24  C1  UNL     1     -36.263 -75.651   4.702  1.00  0.00     0.154 C 
ATOM     25  H3  UNL     1     -38.238 -71.694   2.368  1.00  0.00     0.165 HD
BRANCH  22  26
HETATM   26  C2  UNL     1     -35.746 -76.457   2.378  1.00  0.00     0.158 C 
BRANCH  26  27
HETATM   27  C3  UNL     1     -35.191 -77.603   3.207  1.00  0.00     0.242 C 
HETATM   28  F1  UNL     1     -34.300 -78.349   2.476  1.00  0.00    -0.254 F 
ENDBRANCH  26  27
ENDBRANCH  22  26
ENDBRANCH   1  16
TORSDOF 3
ENDMDL
