MODEL 1
REMARK VINA RESULT: -4.243411156      0.000      0.000
REMARK  1 active torsions:
REMARK  status: ('A' for Active; 'I' for Inactive)
REMARK    1  A    between atoms: C7_11  and  C8_12 
ROOT
HETATM    1  O1  UNL     1      12.992  -0.189 -10.276  1.00  0.00    -0.291 OA
HETATM    2  C1  UNL     1      12.578   1.007 -10.225  1.00  0.00     0.186 C 
HETATM    3  C2  UNL     1      13.647   1.975 -10.020  1.00  0.00     0.049 C 
HETATM    4  C3  UNL     1      13.783   3.292 -10.216  1.00  0.00    -0.023 C 
HETATM    5  C4  UNL     1      12.875   4.347 -10.741  1.00  0.00     0.029 C 
HETATM    6  C5  UNL     1      12.103   3.843 -11.957  1.00  0.00     0.031 C 
HETATM    7  C6  UNL     1      10.814   3.183 -11.574  1.00  0.00     0.234 C 
HETATM    8  N1  UNL     1      10.874   1.730 -11.695  1.00  0.00    -0.058 N 
ATOM      9  H11 UNL     1      11.566   1.424 -12.379  1.00  0.00     0.278 HD
ATOM     10  H12 UNL     1      10.046   1.343 -12.147  1.00  0.00     0.278 HD
HETATM   11  C7  UNL     1      11.105   1.162 -10.383  1.00  0.00     0.315 C 
ENDROOT
BRANCH  11  12
HETATM   12  C8  UNL     1      10.397  -0.124 -10.189  1.00  0.00     0.090 A 
HETATM   13  C9  UNL     1       9.812  -0.881 -11.184  1.00  0.00     0.037 A 
HETATM   14  C10 UNL     1       9.268  -1.989 -10.579  1.00  0.00     0.027 A 
HETATM   15  C11 UNL     1       9.546  -1.861  -9.221  1.00  0.00     0.142 A 
HETATM   16  O2  UNL     1      10.218  -0.740  -9.032  1.00  0.00    -0.324 OA
ENDBRANCH  11  12
TORSDOF 1
ENDMDL
MODEL 2
REMARK VINA RESULT: -4.241308023      2.821      5.599
REMARK  1 active torsions:
REMARK  status: ('A' for Active; 'I' for Inactive)
REMARK    1  A    between atoms: C7_11  and  C8_12 
ROOT
HETATM    1  O1  UNL     1      13.978   4.570 -10.670  1.00  0.00    -0.291 OA
HETATM    2  C1  UNL     1      13.473   3.488 -11.094  1.00  0.00     0.186 C 
HETATM    3  C2  UNL     1      14.076   2.304 -10.498  1.00  0.00     0.049 C 
HETATM    4  C3  UNL     1      13.710   1.024 -10.355  1.00  0.00    -0.023 C 
HETATM    5  C4  UNL     1      12.501   0.255 -10.756  1.00  0.00     0.029 C 
HETATM    6  C5  UNL     1      11.233   1.062 -10.491  1.00  0.00     0.031 C 
HETATM    7  C6  UNL     1      10.851   1.917 -11.661  1.00  0.00     0.234 C 
HETATM    8  N1  UNL     1      11.140   3.329 -11.438  1.00  0.00    -0.058 N 
ATOM      9  H11 UNL     1      11.147   3.574 -10.448  1.00  0.00     0.278 HD
ATOM     10  H12 UNL     1      10.373   3.934 -11.729  1.00  0.00     0.278 HD
HETATM   11  C7  UNL     1      12.386   3.661 -12.098  1.00  0.00     0.315 C 
ENDROOT
BRANCH  11  12
HETATM   12  C8  UNL     1      12.381   5.028 -12.667  1.00  0.00     0.090 A 
HETATM   13  C9  UNL     1      11.371   5.957 -12.525  1.00  0.00     0.037 A 
HETATM   14  C10 UNL     1      11.763   7.085 -13.204  1.00  0.00     0.027 A 
HETATM   15  C11 UNL     1      13.014   6.794 -13.741  1.00  0.00     0.142 A 
HETATM   16  O2  UNL     1      13.344   5.563 -13.398  1.00  0.00    -0.324 OA
ENDBRANCH  11  12
TORSDOF 1
ENDMDL
MODEL 3
REMARK VINA RESULT: -4.235334380     11.714     13.914
REMARK  1 active torsions:
REMARK  status: ('A' for Active; 'I' for Inactive)
REMARK    1  A    between atoms: C7_11  and  C8_12 
ROOT
HETATM    1  O1  UNL     1      21.610   5.824 -16.995  1.00  0.00    -0.291 OA
HETATM    2  C1  UNL     1      20.466   5.862 -17.538  1.00  0.00     0.186 C 
HETATM    3  C2  UNL     1      19.382   5.584 -16.606  1.00  0.00     0.049 C 
HETATM    4  C3  UNL     1      18.064   5.815 -16.590  1.00  0.00    -0.023 C 
HETATM    5  C4  UNL     1      17.128   6.471 -17.544  1.00  0.00     0.029 C 
HETATM    6  C5  UNL     1      17.747   7.741 -18.122  1.00  0.00     0.031 C 
HETATM    7  C6  UNL     1      18.535   7.471 -19.367  1.00  0.00     0.234 C 
HETATM    8  N1  UNL     1      19.974   7.528 -19.140  1.00  0.00    -0.058 N 
ATOM      9  H11 UNL     1      20.221   8.124 -18.349  1.00  0.00     0.278 HD
ATOM     10  H12 UNL     1      20.462   8.049 -19.868  1.00  0.00     0.278 HD
HETATM   11  C7  UNL     1      20.479   6.179 -18.993  1.00  0.00     0.315 C 
ENDROOT
BRANCH  11  12
HETATM   12  C8  UNL     1      21.829   6.011 -19.577  1.00  0.00     0.090 A 
HETATM   13  C9  UNL     1      22.724   7.026 -19.845  1.00  0.00     0.037 A 
HETATM   14  C10 UNL     1      23.848   6.442 -20.378  1.00  0.00     0.027 A 
HETATM   15  C11 UNL     1      23.589   5.075 -20.415  1.00  0.00     0.142 A 
HETATM   16  O2  UNL     1      22.380   4.861 -19.930  1.00  0.00    -0.324 OA
ENDBRANCH  11  12
TORSDOF 1
ENDMDL
MODEL 4
REMARK VINA RESULT: -4.067317345      3.812      5.382
REMARK  1 active torsions:
REMARK  status: ('A' for Active; 'I' for Inactive)
REMARK    1  A    between atoms: C7_11  and  C8_12 
ROOT
HETATM    1  O1  UNL     1      16.122   3.093 -12.973  1.00  0.00    -0.291 OA
HETATM    2  C1  UNL     1      15.137   3.097 -13.769  1.00  0.00     0.186 C 
HETATM    3  C2  UNL     1      15.494   3.512 -15.119  1.00  0.00     0.049 C 
HETATM    4  C3  UNL     1      14.941   3.374 -16.330  1.00  0.00    -0.023 C 
HETATM    5  C4  UNL     1      13.697   2.720 -16.818  1.00  0.00     0.029 C 
HETATM    6  C5  UNL     1      13.486   1.374 -16.130  1.00  0.00     0.031 C 
HETATM    7  C6  UNL     1      12.701   1.504 -14.862  1.00  0.00     0.234 C 
HETATM    8  N1  UNL     1      13.534   1.363 -13.673  1.00  0.00    -0.058 N 
ATOM      9  H11 UNL     1      14.372   0.807 -13.847  1.00  0.00     0.278 HD
ATOM     10  H12 UNL     1      13.108   0.761 -12.969  1.00  0.00     0.278 HD
HETATM   11  C7  UNL     1      13.843   2.681 -13.159  1.00  0.00     0.315 C 
ENDROOT
BRANCH  11  12
HETATM   12  C8  UNL     1      13.901   2.715 -11.680  1.00  0.00     0.090 A 
HETATM   13  C9  UNL     1      13.924   1.615 -10.848  1.00  0.00     0.037 A 
HETATM   14  C10 UNL     1      13.978   2.086  -9.558  1.00  0.00     0.027 A 
HETATM   15  C11 UNL     1      13.985   3.474  -9.657  1.00  0.00     0.142 A 
HETATM   16  O2  UNL     1      13.939   3.806 -10.934  1.00  0.00    -0.324 OA
ENDBRANCH  11  12
TORSDOF 1
ENDMDL
MODEL 5
REMARK VINA RESULT: -4.046839434      3.719      6.001
REMARK  1 active torsions:
REMARK  status: ('A' for Active; 'I' for Inactive)
REMARK    1  A    between atoms: C7_11  and  C8_12 
ROOT
HETATM    1  O1  UNL     1      15.790   2.812 -12.590  1.00  0.00    -0.291 OA
HETATM    2  C1  UNL     1      14.557   2.755 -12.306  1.00  0.00     0.186 C 
HETATM    3  C2  UNL     1      14.283   1.987 -11.099  1.00  0.00     0.049 C 
HETATM    4  C3  UNL     1      13.261   1.909 -10.238  1.00  0.00    -0.023 C 
HETATM    5  C4  UNL     1      11.942   2.592 -10.150  1.00  0.00     0.029 C 
HETATM    6  C5  UNL     1      12.079   4.079 -10.469  1.00  0.00     0.031 C 
HETATM    7  C6  UNL     1      11.922   4.361 -11.931  1.00  0.00     0.234 C 
HETATM    8  N1  UNL     1      13.192   4.664 -12.581  1.00  0.00    -0.058 N 
ATOM      9  H11 UNL     1      13.881   5.044 -11.932  1.00  0.00     0.278 HD
ATOM     10  H12 UNL     1      13.127   5.468 -13.205  1.00  0.00     0.278 HD
HETATM   11  C7  UNL     1      13.666   3.475 -13.258  1.00  0.00     0.315 C 
ENDROOT
BRANCH  11  12
HETATM   12  C8  UNL     1      14.361   3.785 -14.529  1.00  0.00     0.090 A 
HETATM   13  C9  UNL     1      14.374   2.989 -15.656  1.00  0.00     0.037 A 
HETATM   14  C10 UNL     1      15.129   3.641 -16.600  1.00  0.00     0.027 A 
HETATM   15  C11 UNL     1      15.553   4.825 -16.003  1.00  0.00     0.142 A 
HETATM   16  O2  UNL     1      15.075   4.871 -14.773  1.00  0.00    -0.324 OA
ENDBRANCH  11  12
TORSDOF 1
ENDMDL
