MODEL 1
REMARK VINA RESULT: -3.948075734      0.000      0.000
REMARK  4 active torsions:
REMARK  status: ('A' for Active; 'I' for Inactive)
REMARK    1  A    between atoms: O1_2  and  C2_3 
REMARK    2  A    between atoms: C5_6  and  C6_7 
REMARK    3  A    between atoms: C7_8  and  C8_9 
REMARK    4  A    between atoms: C8_9  and  N1_10 
ROOT
HETATM    1  C2  UNL     1      14.557   2.419 -12.250  1.00  0.00     0.068 A 
HETATM    2  C3  UNL     1      14.631   2.164 -10.900  1.00  0.00     0.038 A 
HETATM    3  C4  UNL     1      13.662   1.407 -10.257  1.00  0.00     0.023 A 
HETATM    4  C5  UNL     1      12.614   0.908 -10.997  1.00  0.00     0.018 A 
HETATM    5  C9  UNL     1      12.553   1.168 -12.340  1.00  0.00     0.023 A 
HETATM    6  C10 UNL     1      13.507   1.917 -12.985  1.00  0.00     0.038 A 
ENDROOT
BRANCH   4   7
HETATM    7  C6  UNL     1      11.560   0.113 -10.428  1.00  0.00    -0.064 C 
HETATM    8  C7  UNL     1      10.667  -0.542  -9.934  1.00  0.00    -0.056 C 
BRANCH   8   9
HETATM    9  C8  UNL     1       9.570  -1.318  -9.323  1.00  0.00     0.334 C 
HETATM   10  S1  UNL     1       8.174  -1.483 -10.474  1.00  0.00    -0.049 SA
BRANCH   9  11
HETATM   11  N1  UNL     1       9.142  -0.726  -8.071  1.00  0.00    -0.055 N 
ATOM     12  H13 UNL     1       9.196  -1.395  -7.302  1.00  0.00     0.276 HD
ATOM     13  H12 UNL     1       9.816  -0.041  -7.730  1.00  0.00     0.276 HD
ATOM     14  H11 UNL     1       8.208  -0.324  -8.151  1.00  0.00     0.276 HD
ENDBRANCH   9  11
ENDBRANCH   8   9
ENDBRANCH   4   7
BRANCH   1  15
HETATM   15  O1  UNL     1      15.527   3.177 -12.892  1.00  0.00    -0.356 OA
HETATM   16  C1  UNL     1      15.510   3.337 -14.301  1.00  0.00     0.210 C 
ENDBRANCH   1  15
TORSDOF 4
ENDMDL
MODEL 2
REMARK VINA RESULT: -3.929616090      4.933      6.740
REMARK  4 active torsions:
REMARK  status: ('A' for Active; 'I' for Inactive)
REMARK    1  A    between atoms: O1_2  and  C2_3 
REMARK    2  A    between atoms: C5_6  and  C6_7 
REMARK    3  A    between atoms: C7_8  and  C8_9 
REMARK    4  A    between atoms: C8_9  and  N1_10 
ROOT
HETATM    1  C2  UNL     1      12.981   0.570 -10.863  1.00  0.00     0.068 A 
HETATM    2  C3  UNL     1      13.899   1.511 -10.459  1.00  0.00     0.038 A 
HETATM    3  C4  UNL     1      14.481   2.385 -11.366  1.00  0.00     0.023 A 
HETATM    4  C5  UNL     1      14.123   2.296 -12.693  1.00  0.00     0.018 A 
HETATM    5  C9  UNL     1      13.208   1.355 -13.082  1.00  0.00     0.023 A 
HETATM    6  C10 UNL     1      12.626   0.486 -12.191  1.00  0.00     0.038 A 
ENDROOT
BRANCH   4   7
HETATM    7  C6  UNL     1      14.667   3.151 -13.712  1.00  0.00    -0.064 C 
HETATM    8  C7  UNL     1      15.107   3.882 -14.574  1.00  0.00    -0.056 C 
BRANCH   8   9
HETATM    9  C8  UNL     1      15.623   4.787 -15.618  1.00  0.00     0.334 C 
HETATM   10  S1  UNL     1      15.283   4.126 -17.276  1.00  0.00    -0.049 SA
BRANCH   9  11
HETATM   11  N1  UNL     1      17.040   5.040 -15.442  1.00  0.00    -0.055 N 
ATOM     12  H13 UNL     1      17.227   6.029 -15.276  1.00  0.00     0.276 HD
ATOM     13  H12 UNL     1      17.380   4.666 -14.557  1.00  0.00     0.276 HD
ATOM     14  H11 UNL     1      17.580   4.685 -16.231  1.00  0.00     0.276 HD
ENDBRANCH   9  11
ENDBRANCH   8   9
ENDBRANCH   4   7
BRANCH   1  15
HETATM   15  O1  UNL     1      12.399  -0.303  -9.954  1.00  0.00    -0.356 OA
HETATM   16  C1  UNL     1      10.989  -0.374  -9.815  1.00  0.00     0.210 C 
ENDBRANCH   1  15
TORSDOF 4
ENDMDL
MODEL 3
REMARK VINA RESULT: -3.911517768      4.233      4.879
REMARK  4 active torsions:
REMARK  status: ('A' for Active; 'I' for Inactive)
REMARK    1  A    between atoms: O1_2  and  C2_3 
REMARK    2  A    between atoms: C5_6  and  C6_7 
REMARK    3  A    between atoms: C7_8  and  C8_9 
REMARK    4  A    between atoms: C8_9  and  N1_10 
ROOT
HETATM    1  C2  UNL     1      13.809  -1.784 -16.433  1.00  0.00     0.068 A 
HETATM    2  C3  UNL     1      13.883  -0.442 -16.143  1.00  0.00     0.038 A 
HETATM    3  C4  UNL     1      13.493   0.050 -14.905  1.00  0.00     0.023 A 
HETATM    4  C5  UNL     1      13.025  -0.836 -13.960  1.00  0.00     0.018 A 
HETATM    5  C9  UNL     1      12.958  -2.170 -14.261  1.00  0.00     0.023 A 
HETATM    6  C10 UNL     1      13.342  -2.665 -15.484  1.00  0.00     0.038 A 
ENDROOT
BRANCH   4   7
HETATM    7  C6  UNL     1      12.596  -0.431 -12.649  1.00  0.00    -0.064 C 
HETATM    8  C7  UNL     1      12.239  -0.108 -11.537  1.00  0.00    -0.056 C 
BRANCH   8   9
HETATM    9  C8  UNL     1      11.821   0.267 -10.172  1.00  0.00     0.334 C 
HETATM   10  S1  UNL     1      10.192  -0.433  -9.777  1.00  0.00    -0.049 SA
BRANCH   9  11
HETATM   11  N1  UNL     1      11.821   1.707  -9.999  1.00  0.00    -0.055 N 
ATOM     12  H13 UNL     1      12.250   1.978  -9.114  1.00  0.00     0.276 HD
ATOM     13  H12 UNL     1      12.477   2.161 -10.635  1.00  0.00     0.276 HD
ATOM     14  H11 UNL     1      10.882   2.092 -10.094  1.00  0.00     0.276 HD
ENDBRANCH   9  11
ENDBRANCH   8   9
ENDBRANCH   4   7
BRANCH   1  15
HETATM   15  O1  UNL     1      14.201  -2.274 -17.672  1.00  0.00    -0.356 OA
HETATM   16  C1  UNL     1      14.056  -3.649 -17.989  1.00  0.00     0.210 C 
ENDBRANCH   1  15
TORSDOF 4
ENDMDL
MODEL 4
REMARK VINA RESULT: -3.907211858      0.163      1.328
REMARK  4 active torsions:
REMARK  status: ('A' for Active; 'I' for Inactive)
REMARK    1  A    between atoms: O1_2  and  C2_3 
REMARK    2  A    between atoms: C5_6  and  C6_7 
REMARK    3  A    between atoms: C7_8  and  C8_9 
REMARK    4  A    between atoms: C8_9  and  N1_10 
ROOT
HETATM    1  C2  UNL     1      14.437   2.412 -12.271  1.00  0.00     0.068 A 
HETATM    2  C3  UNL     1      13.406   1.924 -13.040  1.00  0.00     0.038 A 
HETATM    3  C4  UNL     1      12.390   1.161 -12.481  1.00  0.00     0.023 A 
HETATM    4  C5  UNL     1      12.429   0.895 -11.131  1.00  0.00     0.018 A 
HETATM    5  C9  UNL     1      13.461   1.387 -10.377  1.00  0.00     0.023 A 
HETATM    6  C10 UNL     1      14.470   2.144 -10.921  1.00  0.00     0.038 A 
ENDROOT
BRANCH   4   7
HETATM    7  C6  UNL     1      11.429   0.116 -10.455  1.00  0.00    -0.064 C 
HETATM    8  C7  UNL     1      10.580  -0.552  -9.904  1.00  0.00    -0.056 C 
BRANCH   8   9
HETATM    9  C8  UNL     1       9.549  -1.382  -9.251  1.00  0.00     0.334 C 
HETATM   10  S1  UNL     1       8.103  -1.588 -10.330  1.00  0.00    -0.049 SA
BRANCH   9  11
HETATM   11  N1  UNL     1       9.163  -0.828  -7.967  1.00  0.00    -0.055 N 
ATOM     12  H13 UNL     1       9.439   0.151  -7.883  1.00  0.00     0.276 HD
ATOM     13  H12 UNL     1       8.153  -0.712  -7.898  1.00  0.00     0.276 HD
ATOM     14  H11 UNL     1       9.529  -1.388  -7.197  1.00  0.00     0.276 HD
ENDBRANCH   9  11
ENDBRANCH   8   9
ENDBRANCH   4   7
BRANCH   1  15
HETATM   15  O1  UNL     1      15.452   3.176 -12.831  1.00  0.00    -0.356 OA
HETATM   16  C1  UNL     1      15.633   3.225 -14.237  1.00  0.00     0.210 C 
ENDBRANCH   1  15
TORSDOF 4
ENDMDL
MODEL 5
REMARK VINA RESULT: -3.905746872      4.956      6.882
REMARK  4 active torsions:
REMARK  status: ('A' for Active; 'I' for Inactive)
REMARK    1  A    between atoms: O1_2  and  C2_3 
REMARK    2  A    between atoms: C5_6  and  C6_7 
REMARK    3  A    between atoms: C7_8  and  C8_9 
REMARK    4  A    between atoms: C8_9  and  N1_10 
ROOT
HETATM    1  C2  UNL     1      12.936   0.571 -10.888  1.00  0.00     0.068 A 
HETATM    2  C3  UNL     1      12.616   0.402 -12.215  1.00  0.00     0.038 A 
HETATM    3  C4  UNL     1      13.166   1.214 -13.197  1.00  0.00     0.023 A 
HETATM    4  C5  UNL     1      14.048   2.203 -12.820  1.00  0.00     0.018 A 
HETATM    5  C9  UNL     1      14.359   2.359 -11.496  1.00  0.00     0.023 A 
HETATM    6  C10 UNL     1      13.819   1.560 -10.517  1.00  0.00     0.038 A 
ENDROOT
BRANCH   4   7
HETATM    7  C6  UNL     1      14.673   3.096 -13.756  1.00  0.00    -0.064 C 
HETATM    8  C7  UNL     1      15.181   3.853 -14.555  1.00  0.00    -0.056 C 
BRANCH   8   9
HETATM    9  C8  UNL     1      15.776   4.787 -15.530  1.00  0.00     0.334 C 
HETATM   10  S1  UNL     1      15.486   4.221 -17.232  1.00  0.00    -0.049 SA
BRANCH   9  11
HETATM   11  N1  UNL     1      17.193   4.975 -15.281  1.00  0.00    -0.055 N 
ATOM     12  H13 UNL     1      17.760   4.355 -15.860  1.00  0.00     0.276 HD
ATOM     13  H12 UNL     1      17.521   5.870 -15.642  1.00  0.00     0.276 HD
ATOM     14  H11 UNL     1      17.412   4.867 -14.291  1.00  0.00     0.276 HD
ENDBRANCH   9  11
ENDBRANCH   8   9
ENDBRANCH   4   7
BRANCH   1  15
HETATM   15  O1  UNL     1      12.385  -0.243  -9.907  1.00  0.00    -0.356 OA
HETATM   16  C1  UNL     1      10.980  -0.396  -9.795  1.00  0.00     0.210 C 
ENDBRANCH   1  15
TORSDOF 4
ENDMDL
