MODEL 1
REMARK VINA RESULT: -4.697400520      0.000      0.000
REMARK  2 active torsions:
REMARK  status: ('A' for Active; 'I' for Inactive)
REMARK    1  A    between atoms: O1_1  and  C1_3 
REMARK    2  A    between atoms: C1_3  and  C2_4 
ROOT
HETATM    1  C1  UNL     1      14.191   2.718 -11.655  1.00  0.00     0.235 C 
HETATM    2  C8  UNL     1      12.979   2.061 -10.974  1.00  0.00     0.184 C 
HETATM    3  S1  UNL     1      12.994   3.154  -9.495  1.00  0.00     0.034 SA
HETATM    4  O2  UNL     1      14.098   4.318 -10.187  1.00  0.00    -0.159 OA
HETATM    5  O3  UNL     1      14.033   4.073 -11.470  1.00  0.00    -0.182 OA
ENDROOT
BRANCH   1   6
HETATM    6  O1  UNL     1      15.342   2.204 -11.037  1.00  0.00    -0.359 OA
ATOM      7  H1  UNL     1      15.501   1.361 -11.445  1.00  0.00     0.213 HD
ENDBRANCH   1   6
BRANCH   1   8
HETATM    8  C2  UNL     1      14.311   2.379 -13.064  1.00  0.00     0.007 A 
HETATM    9  C3  UNL     1      15.113   3.035 -13.958  1.00  0.00     0.013 A 
HETATM   10  C4  UNL     1      15.121   2.661 -15.267  1.00  0.00     0.001 A 
HETATM   11  C5  UNL     1      14.330   1.627 -15.714  1.00  0.00     0.000 A 
HETATM   12  C6  UNL     1      13.524   0.958 -14.842  1.00  0.00     0.001 A 
HETATM   13  C7  UNL     1      13.518   1.336 -13.522  1.00  0.00     0.013 A 
ENDBRANCH   1   8
TORSDOF 2
ENDMDL
MODEL 2
REMARK VINA RESULT: -4.620001835      0.216      1.381
REMARK  2 active torsions:
REMARK  status: ('A' for Active; 'I' for Inactive)
REMARK    1  A    between atoms: O1_1  and  C1_3 
REMARK    2  A    between atoms: C1_3  and  C2_4 
ROOT
HETATM    1  C1  UNL     1      14.138   2.756 -11.766  1.00  0.00     0.235 C 
HETATM    2  C8  UNL     1      12.961   2.089 -11.036  1.00  0.00     0.184 C 
HETATM    3  S1  UNL     1      13.023   3.188  -9.563  1.00  0.00     0.034 SA
HETATM    4  O2  UNL     1      14.086   4.360 -10.301  1.00  0.00    -0.159 OA
HETATM    5  O3  UNL     1      13.974   4.110 -11.580  1.00  0.00    -0.182 OA
ENDROOT
BRANCH   1   6
HETATM    6  O1  UNL     1      15.318   2.257 -11.193  1.00  0.00    -0.359 OA
ATOM      7  H1  UNL     1      15.184   2.287 -10.253  1.00  0.00     0.213 HD
ENDBRANCH   1   6
BRANCH   1   8
HETATM    8  C2  UNL     1      14.207   2.414 -13.179  1.00  0.00     0.007 A 
HETATM    9  C3  UNL     1      13.563   1.354 -13.756  1.00  0.00     0.013 A 
HETATM   10  C4  UNL     1      13.727   1.099 -15.083  1.00  0.00     0.001 A 
HETATM   11  C5  UNL     1      14.537   1.893 -15.863  1.00  0.00     0.000 A 
HETATM   12  C6  UNL     1      15.187   2.955 -15.311  1.00  0.00     0.001 A 
HETATM   13  C7  UNL     1      15.020   3.212 -13.972  1.00  0.00     0.013 A 
ENDBRANCH   1   8
TORSDOF 2
ENDMDL
MODEL 3
REMARK VINA RESULT: -4.277427216      2.587      3.889
REMARK  2 active torsions:
REMARK  status: ('A' for Active; 'I' for Inactive)
REMARK    1  A    between atoms: O1_1  and  C1_3 
REMARK    2  A    between atoms: C1_3  and  C2_4 
ROOT
HETATM    1  C1  UNL     1      14.517   3.232 -13.456  1.00  0.00     0.235 C 
HETATM    2  C8  UNL     1      13.973   2.970 -14.870  1.00  0.00     0.184 C 
HETATM    3  S1  UNL     1      15.231   3.996 -15.734  1.00  0.00     0.034 SA
HETATM    4  O2  UNL     1      16.279   4.142 -14.344  1.00  0.00    -0.159 OA
HETATM    5  O3  UNL     1      15.887   3.167 -13.565  1.00  0.00    -0.182 OA
ENDROOT
BRANCH   1   6
HETATM    6  O1  UNL     1      14.051   4.496 -13.060  1.00  0.00    -0.359 OA
ATOM      7  H1  UNL     1      13.350   4.715 -13.663  1.00  0.00     0.213 HD
ENDBRANCH   1   6
BRANCH   1   8
HETATM    8  C2  UNL     1      14.013   2.294 -12.464  1.00  0.00     0.007 A 
HETATM    9  C3  UNL     1      14.351   2.305 -11.138  1.00  0.00     0.013 A 
HETATM   10  C4  UNL     1      13.851   1.354 -10.301  1.00  0.00     0.001 A 
HETATM   11  C5  UNL     1      13.006   0.373 -10.767  1.00  0.00     0.000 A 
HETATM   12  C6  UNL     1      12.653   0.343 -12.082  1.00  0.00     0.001 A 
HETATM   13  C7  UNL     1      13.157   1.303 -12.926  1.00  0.00     0.013 A 
ENDBRANCH   1   8
TORSDOF 2
ENDMDL
MODEL 4
REMARK VINA RESULT: -4.229281954      1.451      2.387
REMARK  2 active torsions:
REMARK  status: ('A' for Active; 'I' for Inactive)
REMARK    1  A    between atoms: O1_1  and  C1_3 
REMARK    2  A    between atoms: C1_3  and  C2_4 
ROOT
HETATM    1  C1  UNL     1      13.445   1.414 -10.987  1.00  0.00     0.235 C 
HETATM    2  C8  UNL     1      12.237   2.223 -10.486  1.00  0.00     0.184 C 
HETATM    3  S1  UNL     1      13.154   3.100  -9.155  1.00  0.00     0.034 SA
HETATM    4  O2  UNL     1      14.734   2.640  -9.740  1.00  0.00    -0.159 OA
HETATM    5  O3  UNL     1      14.509   2.286 -10.979  1.00  0.00    -0.182 OA
ENDROOT
BRANCH   1   6
HETATM    6  O1  UNL     1      13.609   0.330 -10.110  1.00  0.00    -0.359 OA
ATOM      7  H1  UNL     1      14.537   0.298  -9.908  1.00  0.00     0.213 HD
ENDBRANCH   1   6
BRANCH   1   8
HETATM    8  C2  UNL     1      13.239   0.831 -12.304  1.00  0.00     0.007 A 
HETATM    9  C3  UNL     1      12.749  -0.425 -12.533  1.00  0.00     0.013 A 
HETATM   10  C4  UNL     1      12.633  -0.888 -13.808  1.00  0.00     0.001 A 
HETATM   11  C5  UNL     1      13.004  -0.111 -14.882  1.00  0.00     0.000 A 
HETATM   12  C6  UNL     1      13.494   1.144 -14.679  1.00  0.00     0.001 A 
HETATM   13  C7  UNL     1      13.610   1.610 -13.392  1.00  0.00     0.013 A 
ENDBRANCH   1   8
TORSDOF 2
ENDMDL
MODEL 5
REMARK VINA RESULT: -4.216377833      1.508      2.075
REMARK  2 active torsions:
REMARK  status: ('A' for Active; 'I' for Inactive)
REMARK    1  A    between atoms: O1_1  and  C1_3 
REMARK    2  A    between atoms: C1_3  and  C2_4 
ROOT
HETATM    1  C1  UNL     1      13.428   1.469 -11.059  1.00  0.00     0.235 C 
HETATM    2  C8  UNL     1      12.217   2.314 -10.627  1.00  0.00     0.184 C 
HETATM    3  S1  UNL     1      13.090   3.191  -9.268  1.00  0.00     0.034 SA
HETATM    4  O2  UNL     1      14.685   2.686  -9.771  1.00  0.00    -0.159 OA
HETATM    5  O3  UNL     1      14.510   2.318 -11.014  1.00  0.00    -0.182 OA
ENDROOT
BRANCH   1   6
HETATM    6  O1  UNL     1      13.526   0.396 -10.159  1.00  0.00    -0.359 OA
ATOM      7  H1  UNL     1      13.870   0.764  -9.353  1.00  0.00     0.213 HD
ENDBRANCH   1   6
BRANCH   1   8
HETATM    8  C2  UNL     1      13.271   0.870 -12.375  1.00  0.00     0.007 A 
HETATM    9  C3  UNL     1      13.567   1.494 -13.556  1.00  0.00     0.013 A 
HETATM   10  C4  UNL     1      13.344   0.854 -14.737  1.00  0.00     0.001 A 
HETATM   11  C5  UNL     1      12.821  -0.418 -14.768  1.00  0.00     0.000 A 
HETATM   12  C6  UNL     1      12.520  -1.060 -13.605  1.00  0.00     0.001 A 
HETATM   13  C7  UNL     1      12.745  -0.415 -12.414  1.00  0.00     0.013 A 
ENDBRANCH   1   8
TORSDOF 2
ENDMDL
