MODEL 1
REMARK VINA RESULT: -5.542990359      0.000      0.000
REMARK  7 active torsions:
REMARK  status: ('A' for Active; 'I' for Inactive)
REMARK    1  A    between atoms: O1_2  and  C2_3 
REMARK    2  A    between atoms: C2_3  and  C3_5 
REMARK    3  A    between atoms: C3_5  and  C4_6 
REMARK    4  A    between atoms: C3_5  and  C8_23 
REMARK       I    between atoms: C4_6  and  N1_8 
REMARK    5  A    between atoms: N1_8  and  N2_10 
REMARK    6  A    between atoms: N2_10  and  C5_12 
REMARK    7  A    between atoms: C9_26  and  N7_27 
ROOT
HETATM    1  C4  UNL     1      28.260  28.270  38.283  1.00  0.00     0.257 C 
HETATM    2  O3  UNL     1      27.386  27.473  38.688  1.00  0.00    -0.270 OA
HETATM    3  N1  UNL     1      28.296  29.589  38.759  1.00  0.00    -0.267 N 
ATOM      4  H1  UNL     1      29.023  30.211  38.406  1.00  0.00     0.190 HD
ENDROOT
BRANCH   1   5
HETATM    5  C3  UNL     1      29.256  27.812  37.299  1.00  0.00     0.248 C 
BRANCH   5   6
HETATM    6  C2  UNL     1      30.571  27.499  37.913  1.00  0.00     0.279 C 
HETATM    7  O2  UNL     1      31.039  28.142  38.886  1.00  0.00    -0.264 OA
BRANCH   6   8
HETATM    8  O1  UNL     1      31.362  26.461  37.433  1.00  0.00    -0.325 OA
HETATM    9  C1  UNL     1      31.963  25.493  38.267  1.00  0.00     0.213 C 
ENDBRANCH   6   8
ENDBRANCH   5   6
BRANCH   5  10
HETATM   10  C8  UNL     1      28.758  26.694  36.450  1.00  0.00     0.135 A 
HETATM   11  N6  UNL     1      28.369  26.757  35.163  1.00  0.00    -0.177 N 
HETATM   12  C9  UNL     1      27.978  25.534  34.732  1.00  0.00     0.691 A 
ATOM     13  H6  UNL     1      28.369  27.604  34.595  1.00  0.00     0.185 HD
HETATM   14  N8  UNL     1      28.134  24.707  35.785  1.00  0.00    -0.131 N 
HETATM   15  N9  UNL     1      28.600  25.407  36.807  1.00  0.00    -0.273 N 
ATOM     16  H8  UNL     1      27.927  23.708  35.792  1.00  0.00     0.205 HD
ATOM     17  H9  UNL     1      28.809  25.027  37.730  1.00  0.00     0.189 HD
BRANCH  12  18
HETATM   18  N7  UNL     1      27.559  25.292  33.549  1.00  0.00    -0.233 N 
ATOM     19  H72 UNL     1      27.985  24.748  32.798  1.00  0.00     0.174 HD
ATOM     20  H71 UNL     1      26.677  25.640  33.171  1.00  0.00     0.174 HD
ENDBRANCH  12  18
ENDBRANCH   5  10
ENDBRANCH   1   5
BRANCH   3  21
HETATM   21  N2  UNL     1      27.380  30.099  39.701  1.00  0.00    -0.277 N 
ATOM     22  H2  UNL     1      26.441  29.712  39.796  1.00  0.00     0.189 HD
BRANCH  21  23
HETATM   23  C5  UNL     1      27.783  31.076  40.436  1.00  0.00     0.167 A 
HETATM   24  N3  UNL     1      28.046  30.946  41.743  1.00  0.00    -0.331 N 
HETATM   25  C6  UNL     1      28.464  31.934  42.537  1.00  0.00     0.184 A 
ATOM     26  H3  UNL     1      27.918  30.026  42.162  1.00  0.00     0.168 HD
HETATM   27  N4  UNL     1      28.696  33.198  42.203  1.00  0.00    -0.333 N 
HETATM   28  C7  UNL     1      28.558  33.742  41.006  1.00  0.00     0.146 A 
ATOM     29  H4  UNL     1      29.014  33.815  42.950  1.00  0.00     0.168 HD
HETATM   30  N5  UNL     1      28.815  34.986  40.806  1.00  0.00    -0.380 N 
HETATM   31  S1  UNL     1      28.023  32.641  39.817  1.00  0.00    -0.017 SA
ATOM     32  H52 UNL     1      29.134  35.644  41.517  1.00  0.00     0.158 HD
ATOM     33  H51 UNL     1      28.708  35.406  39.882  1.00  0.00     0.158 HD
ENDBRANCH  21  23
ENDBRANCH   3  21
TORSDOF 7
ENDMDL
MODEL 2
REMARK VINA RESULT: -5.510853346      1.134      1.761
REMARK  7 active torsions:
REMARK  status: ('A' for Active; 'I' for Inactive)
REMARK    1  A    between atoms: O1_2  and  C2_3 
REMARK    2  A    between atoms: C2_3  and  C3_5 
REMARK    3  A    between atoms: C3_5  and  C4_6 
REMARK    4  A    between atoms: C3_5  and  C8_23 
REMARK       I    between atoms: C4_6  and  N1_8 
REMARK    5  A    between atoms: N1_8  and  N2_10 
REMARK    6  A    between atoms: N2_10  and  C5_12 
REMARK    7  A    between atoms: C9_26  and  N7_27 
ROOT
HETATM    1  C4  UNL     1      28.254  28.175  38.310  1.00  0.00     0.257 C 
HETATM    2  O3  UNL     1      27.374  27.389  38.724  1.00  0.00    -0.270 OA
HETATM    3  N1  UNL     1      28.285  29.505  38.755  1.00  0.00    -0.267 N 
ATOM      4  H1  UNL     1      29.017  30.119  38.395  1.00  0.00     0.190 HD
ENDROOT
BRANCH   1   5
HETATM    5  C3  UNL     1      29.260  27.694  37.348  1.00  0.00     0.248 C 
BRANCH   5   6
HETATM    6  C2  UNL     1      30.652  27.955  37.792  1.00  0.00     0.279 C 
HETATM    7  O2  UNL     1      31.652  27.750  37.059  1.00  0.00    -0.264 OA
BRANCH   6   8
HETATM    8  O1  UNL     1      30.923  28.448  39.064  1.00  0.00    -0.325 OA
HETATM    9  C1  UNL     1      31.900  29.435  39.323  1.00  0.00     0.213 C 
ENDBRANCH   6   8
ENDBRANCH   5   6
BRANCH   5  10
HETATM   10  C8  UNL     1      29.057  26.269  36.963  1.00  0.00     0.135 A 
HETATM   11  N6  UNL     1      29.831  25.218  37.287  1.00  0.00    -0.177 N 
HETATM   12  C9  UNL     1      29.324  24.081  36.753  1.00  0.00     0.691 A 
ATOM     13  H6  UNL     1      30.677  25.270  37.853  1.00  0.00     0.185 HD
HETATM   14  N8  UNL     1      28.213  24.453  36.087  1.00  0.00    -0.131 N 
HETATM   15  N9  UNL     1      28.059  25.762  36.217  1.00  0.00    -0.273 N 
ATOM     16  H8  UNL     1      27.593  23.830  35.569  1.00  0.00     0.205 HD
ATOM     17  H9  UNL     1      27.297  26.305  35.813  1.00  0.00     0.189 HD
BRANCH  12  18
HETATM   18  N7  UNL     1      29.851  22.925  36.897  1.00  0.00    -0.233 N 
ATOM     19  H72 UNL     1      30.642  22.498  36.413  1.00  0.00     0.174 HD
ATOM     20  H71 UNL     1      29.524  22.226  37.563  1.00  0.00     0.174 HD
ENDBRANCH  12  18
ENDBRANCH   5  10
ENDBRANCH   1   5
BRANCH   3  21
HETATM   21  N2  UNL     1      27.359  30.038  39.674  1.00  0.00    -0.277 N 
ATOM     22  H2  UNL     1      26.416  29.660  39.761  1.00  0.00     0.189 HD
BRANCH  21  23
HETATM   23  C5  UNL     1      27.758  31.024  40.399  1.00  0.00     0.167 A 
HETATM   24  N3  UNL     1      28.042  30.904  41.703  1.00  0.00    -0.331 N 
HETATM   25  C6  UNL     1      28.457  31.901  42.486  1.00  0.00     0.184 A 
ATOM     26  H3  UNL     1      27.932  29.984  42.128  1.00  0.00     0.168 HD
HETATM   27  N4  UNL     1      28.666  33.167  42.144  1.00  0.00    -0.333 N 
HETATM   28  C7  UNL     1      28.504  33.703  40.947  1.00  0.00     0.146 A 
ATOM     29  H4  UNL     1      28.986  33.791  42.883  1.00  0.00     0.168 HD
HETATM   30  N5  UNL     1      28.740  34.950  40.737  1.00  0.00    -0.380 N 
HETATM   31  S1  UNL     1      27.967  32.590  39.770  1.00  0.00    -0.017 SA
ATOM     32  H52 UNL     1      29.060  35.616  41.440  1.00  0.00     0.158 HD
ATOM     33  H51 UNL     1      28.614  35.364  39.814  1.00  0.00     0.158 HD
ENDBRANCH  21  23
ENDBRANCH   3  21
TORSDOF 7
ENDMDL
MODEL 3
REMARK VINA RESULT: -5.499449766      1.692      2.301
REMARK  7 active torsions:
REMARK  status: ('A' for Active; 'I' for Inactive)
REMARK    1  A    between atoms: O1_2  and  C2_3 
REMARK    2  A    between atoms: C2_3  and  C3_5 
REMARK    3  A    between atoms: C3_5  and  C4_6 
REMARK    4  A    between atoms: C3_5  and  C8_23 
REMARK       I    between atoms: C4_6  and  N1_8 
REMARK    5  A    between atoms: N1_8  and  N2_10 
REMARK    6  A    between atoms: N2_10  and  C5_12 
REMARK    7  A    between atoms: C9_26  and  N7_27 
ROOT
HETATM    1  C4  UNL     1      28.602  27.871  37.650  1.00  0.00     0.257 C 
HETATM    2  O3  UNL     1      27.774  27.168  38.267  1.00  0.00    -0.270 OA
HETATM    3  N1  UNL     1      28.744  29.233  37.950  1.00  0.00    -0.267 N 
ATOM      4  H1  UNL     1      29.430  29.776  37.425  1.00  0.00     0.190 HD
ENDROOT
BRANCH   1   5
HETATM    5  C3  UNL     1      29.433  27.256  36.599  1.00  0.00     0.248 C 
BRANCH   5   6
HETATM    6  C2  UNL     1      30.870  27.603  36.725  1.00  0.00     0.279 C 
HETATM    7  O2  UNL     1      31.715  27.346  35.831  1.00  0.00    -0.264 OA
BRANCH   6   8
HETATM    8  O1  UNL     1      31.361  28.242  37.858  1.00  0.00    -0.325 OA
HETATM    9  C1  UNL     1      32.068  27.573  38.882  1.00  0.00     0.213 C 
ENDBRANCH   6   8
ENDBRANCH   5   6
BRANCH   5  10
HETATM   10  C8  UNL     1      29.223  25.786  36.483  1.00  0.00     0.135 A 
HETATM   11  N6  UNL     1      30.080  24.809  36.832  1.00  0.00    -0.177 N 
HETATM   12  C9  UNL     1      29.537  23.596  36.578  1.00  0.00     0.691 A 
ATOM     13  H6  UNL     1      31.007  24.962  37.231  1.00  0.00     0.185 HD
HETATM   14  N8  UNL     1      28.316  23.842  36.061  1.00  0.00    -0.131 N 
HETATM   15  N9  UNL     1      28.136  25.153  36.008  1.00  0.00    -0.273 N 
ATOM     16  H8  UNL     1      27.644  23.137  35.761  1.00  0.00     0.205 HD
ATOM     17  H9  UNL     1      27.297  25.615  35.658  1.00  0.00     0.189 HD
BRANCH  12  18
HETATM   18  N7  UNL     1      30.124  22.484  36.810  1.00  0.00    -0.233 N 
ATOM     19  H72 UNL     1      29.757  21.533  36.808  1.00  0.00     0.174 HD
ATOM     20  H71 UNL     1      31.113  22.398  37.047  1.00  0.00     0.174 HD
ENDBRANCH  12  18
ENDBRANCH   5  10
ENDBRANCH   1   5
BRANCH   3  21
HETATM   21  N2  UNL     1      27.988  29.891  38.941  1.00  0.00    -0.277 N 
ATOM     22  H2  UNL     1      26.971  29.950  38.886  1.00  0.00     0.189 HD
BRANCH  21  23
HETATM   23  C5  UNL     1      28.640  30.416  39.919  1.00  0.00     0.167 A 
HETATM   24  N3  UNL     1      29.977  30.401  39.998  1.00  0.00    -0.331 N 
HETATM   25  C6  UNL     1      30.688  30.932  40.994  1.00  0.00     0.184 A 
ATOM     26  H3  UNL     1      30.490  29.950  39.240  1.00  0.00     0.168 HD
HETATM   27  N4  UNL     1      30.229  31.561  42.070  1.00  0.00    -0.333 N 
HETATM   28  C7  UNL     1      28.964  31.791  42.377  1.00  0.00     0.146 A 
ATOM     29  H4  UNL     1      30.927  31.903  42.730  1.00  0.00     0.168 HD
HETATM   30  N5  UNL     1      28.642  32.414  43.455  1.00  0.00    -0.380 N 
HETATM   31  S1  UNL     1      27.863  31.186  41.222  1.00  0.00    -0.017 SA
ATOM     32  H52 UNL     1      29.300  32.775  44.146  1.00  0.00     0.158 HD
ATOM     33  H51 UNL     1      27.666  32.591  43.692  1.00  0.00     0.158 HD
ENDBRANCH  21  23
ENDBRANCH   3  21
TORSDOF 7
ENDMDL
MODEL 4
REMARK VINA RESULT: -5.449248003      0.903      1.253
REMARK  7 active torsions:
REMARK  status: ('A' for Active; 'I' for Inactive)
REMARK    1  A    between atoms: O1_2  and  C2_3 
REMARK    2  A    between atoms: C2_3  and  C3_5 
REMARK    3  A    between atoms: C3_5  and  C4_6 
REMARK    4  A    between atoms: C3_5  and  C8_23 
REMARK       I    between atoms: C4_6  and  N1_8 
REMARK    5  A    between atoms: N1_8  and  N2_10 
REMARK    6  A    between atoms: N2_10  and  C5_12 
REMARK    7  A    between atoms: C9_26  and  N7_27 
ROOT
HETATM    1  C4  UNL     1      28.292  28.138  38.193  1.00  0.00     0.257 C 
HETATM    2  O3  UNL     1      27.402  27.351  38.583  1.00  0.00    -0.270 OA
HETATM    3  N1  UNL     1      28.366  29.441  38.707  1.00  0.00    -0.267 N 
ATOM      4  H1  UNL     1      29.104  30.055  38.365  1.00  0.00     0.190 HD
ENDROOT
BRANCH   1   5
HETATM    5  C3  UNL     1      29.267  27.686  37.184  1.00  0.00     0.248 C 
BRANCH   5   6
HETATM    6  C2  UNL     1      30.586  27.344  37.772  1.00  0.00     0.279 C 
HETATM    7  O2  UNL     1      31.072  27.954  38.758  1.00  0.00    -0.264 OA
BRANCH   6   8
HETATM    8  O1  UNL     1      31.363  26.316  37.251  1.00  0.00    -0.325 OA
HETATM    9  C1  UNL     1      31.926  25.289  38.042  1.00  0.00     0.213 C 
ENDBRANCH   6   8
ENDBRANCH   5   6
BRANCH   5  10
HETATM   10  C8  UNL     1      28.740  26.591  36.323  1.00  0.00     0.135 A 
HETATM   11  N6  UNL     1      28.357  26.677  35.036  1.00  0.00    -0.177 N 
HETATM   12  C9  UNL     1      27.934  25.471  34.591  1.00  0.00     0.691 A 
ATOM     13  H6  UNL     1      28.381  27.530  34.477  1.00  0.00     0.185 HD
HETATM   14  N8  UNL     1      28.065  24.629  35.635  1.00  0.00    -0.131 N 
HETATM   15  N9  UNL     1      28.547  25.305  36.666  1.00  0.00    -0.273 N 
ATOM     16  H8  UNL     1      27.831  23.636  35.632  1.00  0.00     0.205 HD
ATOM     17  H9  UNL     1      28.744  24.910  37.586  1.00  0.00     0.189 HD
BRANCH  12  18
HETATM   18  N7  UNL     1      27.512  25.253  33.404  1.00  0.00    -0.233 N 
ATOM     19  H72 UNL     1      26.633  25.519  32.959  1.00  0.00     0.174 HD
ATOM     20  H71 UNL     1      28.038  24.743  32.694  1.00  0.00     0.174 HD
ENDBRANCH  12  18
ENDBRANCH   5  10
ENDBRANCH   1   5
BRANCH   3  21
HETATM   21  N2  UNL     1      27.471  29.944  39.673  1.00  0.00    -0.277 N 
ATOM     22  H2  UNL     1      26.648  29.418  39.965  1.00  0.00     0.189 HD
BRANCH  21  23
HETATM   23  C5  UNL     1      27.741  31.101  40.171  1.00  0.00     0.167 A 
HETATM   24  N3  UNL     1      27.500  32.249  39.524  1.00  0.00    -0.331 N 
HETATM   25  C6  UNL     1      27.766  33.464  40.005  1.00  0.00     0.184 A 
ATOM     26  H3  UNL     1      27.082  32.189  38.595  1.00  0.00     0.168 HD
HETATM   27  N4  UNL     1      28.304  33.770  41.179  1.00  0.00    -0.333 N 
HETATM   28  C7  UNL     1      28.690  32.926  42.121  1.00  0.00     0.146 A 
ATOM     29  H4  UNL     1      28.433  34.762  41.376  1.00  0.00     0.168 HD
HETATM   30  N5  UNL     1      29.200  33.346  43.224  1.00  0.00    -0.380 N 
HETATM   31  S1  UNL     1      28.438  31.289  41.710  1.00  0.00    -0.017 SA
ATOM     32  H52 UNL     1      29.351  34.324  43.470  1.00  0.00     0.158 HD
ATOM     33  H51 UNL     1      29.498  32.695  43.950  1.00  0.00     0.158 HD
ENDBRANCH  21  23
ENDBRANCH   3  21
TORSDOF 7
ENDMDL
MODEL 5
REMARK VINA RESULT: -5.438393292      1.867      2.601
REMARK  7 active torsions:
REMARK  status: ('A' for Active; 'I' for Inactive)
REMARK    1  A    between atoms: O1_2  and  C2_3 
REMARK    2  A    between atoms: C2_3  and  C3_5 
REMARK    3  A    between atoms: C3_5  and  C4_6 
REMARK    4  A    between atoms: C3_5  and  C8_23 
REMARK       I    between atoms: C4_6  and  N1_8 
REMARK    5  A    between atoms: N1_8  and  N2_10 
REMARK    6  A    between atoms: N2_10  and  C5_12 
REMARK    7  A    between atoms: C9_26  and  N7_27 
ROOT
HETATM    1  C4  UNL     1      28.087  28.138  38.066  1.00  0.00     0.257 C 
HETATM    2  O3  UNL     1      27.414  27.328  38.739  1.00  0.00    -0.270 OA
HETATM    3  N1  UNL     1      28.219  29.472  38.479  1.00  0.00    -0.267 N 
ATOM      4  H1  UNL     1      28.775  30.104  37.904  1.00  0.00     0.190 HD
ENDROOT
BRANCH   1   5
HETATM    5  C3  UNL     1      28.745  27.679  36.829  1.00  0.00     0.248 C 
BRANCH   5   6
HETATM    6  C2  UNL     1      30.058  28.333  36.599  1.00  0.00     0.279 C 
HETATM    7  O2  UNL     1      31.152  27.786  36.889  1.00  0.00    -0.264 OA
BRANCH   6   8
HETATM    8  O1  UNL     1      30.143  29.604  36.044  1.00  0.00    -0.325 OA
HETATM    9  C1  UNL     1      29.260  30.079  35.049  1.00  0.00     0.213 C 
ENDBRANCH   6   8
ENDBRANCH   5   6
BRANCH   5  10
HETATM   10  C8  UNL     1      28.838  26.196  36.740  1.00  0.00     0.135 A 
HETATM   11  N6  UNL     1      29.723  25.395  37.360  1.00  0.00    -0.177 N 
HETATM   12  C9  UNL     1      29.494  24.101  37.034  1.00  0.00     0.691 A 
ATOM     13  H6  UNL     1      30.462  25.717  37.986  1.00  0.00     0.185 HD
HETATM   14  N8  UNL     1      28.441  24.117  36.193  1.00  0.00    -0.131 N 
HETATM   15  N9  UNL     1      28.054  25.372  36.023  1.00  0.00    -0.273 N 
ATOM     16  H8  UNL     1      28.012  23.298  35.760  1.00  0.00     0.205 HD
ATOM     17  H9  UNL     1      27.276  25.670  35.434  1.00  0.00     0.189 HD
BRANCH  12  18
HETATM   18  N7  UNL     1      30.181  23.118  37.476  1.00  0.00    -0.233 N 
ATOM     19  H72 UNL     1      31.192  22.995  37.534  1.00  0.00     0.174 HD
ATOM     20  H71 UNL     1      29.776  22.262  37.857  1.00  0.00     0.174 HD
ENDBRANCH  12  18
ENDBRANCH   5  10
ENDBRANCH   1   5
BRANCH   3  21
HETATM   21  N2  UNL     1      27.621  29.983  39.649  1.00  0.00    -0.277 N 
ATOM     22  H2  UNL     1      26.625  29.871  39.832  1.00  0.00     0.189 HD
BRANCH  21  23
HETATM   23  C5  UNL     1      28.392  30.600  40.475  1.00  0.00     0.167 A 
HETATM   24  N3  UNL     1      27.952  31.146  41.617  1.00  0.00    -0.331 N 
HETATM   25  C6  UNL     1      28.719  31.793  42.497  1.00  0.00     0.184 A 
ATOM     26  H3  UNL     1      26.958  31.062  41.829  1.00  0.00     0.168 HD
HETATM   27  N4  UNL     1      30.026  32.016  42.421  1.00  0.00    -0.333 N 
HETATM   28  C7  UNL     1      30.842  31.641  41.451  1.00  0.00     0.146 A 
ATOM     29  H4  UNL     1      30.444  32.532  43.195  1.00  0.00     0.168 HD
HETATM   30  N5  UNL     1      32.097  31.919  41.491  1.00  0.00    -0.380 N 
HETATM   31  S1  UNL     1      30.060  30.786  40.199  1.00  0.00    -0.017 SA
ATOM     32  H52 UNL     1      32.564  32.431  42.239  1.00  0.00     0.158 HD
ATOM     33  H51 UNL     1      32.726  31.630  40.742  1.00  0.00     0.158 HD
ENDBRANCH  21  23
ENDBRANCH   3  21
TORSDOF 7
ENDMDL
