MODEL 1
REMARK VINA RESULT: -5.482282488      0.000      0.000
REMARK  9 active torsions:
REMARK  status: ('A' for Active; 'I' for Inactive)
REMARK    1  A    between atoms: C2_2  and  O1_3 
REMARK    2  A    between atoms: O1_3  and  C3_4 
REMARK       I    between atoms: C3_4  and  N1_6 
REMARK    3  A    between atoms: N1_6  and  S1_8 
REMARK    4  A    between atoms: S1_8  and  O5_11 
REMARK    5  A    between atoms: O5_11  and  C4_12 
REMARK    6  A    between atoms: C5_15  and  N3_16 
REMARK    7  A    between atoms: C6_21  and  N5_22 
REMARK    8  A    between atoms: C7_25  and  S2_26 
REMARK    9  A    between atoms: S2_26  and  N6_27 
ROOT
HETATM    1  C4  UNL     1      31.221  34.870  42.866  1.00  0.00     0.201 A 
HETATM    2  N2  UNL     1      30.413  35.971  42.771  1.00  0.00    -0.168 N 
ATOM      3  H2  UNL     1      29.422  35.833  42.574  1.00  0.00     0.186 HD
HETATM    4  C5  UNL     1      30.868  37.223  42.925  1.00  0.00     0.679 A 
HETATM    5  N4  UNL     1      32.176  37.381  43.183  1.00  0.00    -0.176 N 
ATOM      6  H4  UNL     1      32.534  38.328  43.302  1.00  0.00     0.186 HD
HETATM    7  C6  UNL     1      33.033  36.362  43.293  1.00  0.00     0.140 A 
HETATM    8  C7  UNL     1      32.547  35.058  43.132  1.00  0.00     0.148 A 
ENDROOT
BRANCH   1   9
HETATM    9  O5  UNL     1      30.684  33.617  42.693  1.00  0.00    -0.196 OA
BRANCH   9  10
HETATM   10  S1  UNL     1      29.047  33.213  42.791  1.00  0.00     0.372 S 
HETATM   11  O3  UNL     1      28.263  34.332  43.465  1.00  0.00    -0.175 OA
HETATM   12  O4  UNL     1      28.793  31.999  43.626  1.00  0.00    -0.175 OA
BRANCH  10  13
HETATM   13  N1  UNL     1      28.309  32.979  41.247  1.00  0.00    -0.206 N 
HETATM   14  C3  UNL     1      28.141  34.114  40.411  1.00  0.00     0.375 C 
HETATM   15  O2  UNL     1      28.505  35.261  40.756  1.00  0.00    -0.237 OA
ATOM     16  H1  UNL     1      28.004  32.054  40.945  1.00  0.00     0.186 HD
BRANCH  14  17
HETATM   17  O1  UNL     1      27.552  33.938  39.171  1.00  0.00    -0.304 OA
BRANCH  17  18
HETATM   18  C2  UNL     1      26.268  33.413  38.996  1.00  0.00     0.176 C 
HETATM   19  C1  UNL     1      25.372  34.270  38.131  1.00  0.00     0.034 C 
ENDBRANCH  17  18
ENDBRANCH  14  17
ENDBRANCH  10  13
ENDBRANCH   9  10
ENDBRANCH   1   9
BRANCH   8  20
HETATM   20  S2  UNL     1      33.720  33.763  43.322  1.00  0.00     0.152 S 
HETATM   21  O6  UNL     1      34.318  33.660  44.693  1.00  0.00    -0.230 OA
BRANCH  20  22
HETATM   22  N6  UNL     1      34.974  33.803  42.124  1.00  0.00    -0.345 NA
ATOM     23  H62 UNL     1      35.148  34.764  41.827  1.00  0.00     0.166 HD
ATOM     24  H61 UNL     1      34.816  33.146  41.360  1.00  0.00     0.166 HD
ENDBRANCH  20  22
ENDBRANCH   8  20
BRANCH   4  25
HETATM   25  N3  UNL     1      30.098  38.259  42.831  1.00  0.00    -0.234 N 
ATOM     26  H32 UNL     1      29.085  38.145  42.855  1.00  0.00     0.174 HD
ATOM     27  H31 UNL     1      30.463  39.207  42.734  1.00  0.00     0.174 HD
ENDBRANCH   4  25
BRANCH   7  28
HETATM   28  N5  UNL     1      34.289  36.540  43.543  1.00  0.00    -0.384 N 
ATOM     29  H52 UNL     1      34.919  36.782  42.778  1.00  0.00     0.157 HD
ATOM     30  H51 UNL     1      34.677  36.446  44.482  1.00  0.00     0.157 HD
ENDBRANCH   7  28
TORSDOF 9
ENDMDL
MODEL 2
REMARK VINA RESULT: -5.177559030      3.307      4.583
REMARK  9 active torsions:
REMARK  status: ('A' for Active; 'I' for Inactive)
REMARK    1  A    between atoms: C2_2  and  O1_3 
REMARK    2  A    between atoms: O1_3  and  C3_4 
REMARK       I    between atoms: C3_4  and  N1_6 
REMARK    3  A    between atoms: N1_6  and  S1_8 
REMARK    4  A    between atoms: S1_8  and  O5_11 
REMARK    5  A    between atoms: O5_11  and  C4_12 
REMARK    6  A    between atoms: C5_15  and  N3_16 
REMARK    7  A    between atoms: C6_21  and  N5_22 
REMARK    8  A    between atoms: C7_25  and  S2_26 
REMARK    9  A    between atoms: S2_26  and  N6_27 
ROOT
HETATM    1  C4  UNL     1      28.959  34.206  40.626  1.00  0.00     0.201 A 
HETATM    2  N2  UNL     1      28.375  33.481  41.629  1.00  0.00    -0.168 N 
ATOM      3  H2  UNL     1      27.405  33.187  41.518  1.00  0.00     0.186 HD
HETATM    4  C5  UNL     1      29.024  33.138  42.752  1.00  0.00     0.679 A 
HETATM    5  N4  UNL     1      30.300  33.535  42.877  1.00  0.00    -0.176 N 
ATOM      6  H4  UNL     1      30.804  33.281  43.726  1.00  0.00     0.186 HD
HETATM    7  C6  UNL     1      30.946  34.244  41.947  1.00  0.00     0.140 A 
HETATM    8  C7  UNL     1      30.259  34.595  40.777  1.00  0.00     0.148 A 
ENDROOT
BRANCH   1   9
HETATM    9  O5  UNL     1      28.230  34.524  39.504  1.00  0.00    -0.196 OA
BRANCH   9  10
HETATM   10  S1  UNL     1      27.573  33.427  38.401  1.00  0.00     0.372 S 
HETATM   11  O3  UNL     1      26.736  32.381  39.126  1.00  0.00    -0.175 OA
HETATM   12  O4  UNL     1      28.614  32.651  37.658  1.00  0.00    -0.175 OA
BRANCH  10  13
HETATM   13  N1  UNL     1      26.518  34.167  37.251  1.00  0.00    -0.206 N 
HETATM   14  C3  UNL     1      25.304  34.728  37.726  1.00  0.00     0.375 C 
HETATM   15  O2  UNL     1      24.982  34.702  38.936  1.00  0.00    -0.237 OA
ATOM     16  H1  UNL     1      26.760  34.200  36.261  1.00  0.00     0.186 HD
BRANCH  14  17
HETATM   17  O1  UNL     1      24.452  35.325  36.814  1.00  0.00    -0.304 OA
BRANCH  17  18
HETATM   18  C2  UNL     1      24.883  35.880  35.606  1.00  0.00     0.176 C 
HETATM   19  C1  UNL     1      23.905  35.699  34.468  1.00  0.00     0.034 C 
ENDBRANCH  17  18
ENDBRANCH  14  17
ENDBRANCH  10  13
ENDBRANCH   9  10
ENDBRANCH   1   9
BRANCH   8  20
HETATM   20  S2  UNL     1      31.176  35.500  39.581  1.00  0.00     0.152 S 
HETATM   21  O6  UNL     1      31.313  36.963  39.876  1.00  0.00    -0.230 OA
BRANCH  20  22
HETATM   22  N6  UNL     1      30.593  35.267  37.963  1.00  0.00    -0.345 NA
ATOM     23  H62 UNL     1      30.900  34.362  37.605  1.00  0.00     0.166 HD
ATOM     24  H61 UNL     1      30.796  36.056  37.349  1.00  0.00     0.166 HD
ENDBRANCH  20  22
ENDBRANCH   8  20
BRANCH   4  25
HETATM   25  N3  UNL     1      28.464  32.453  43.696  1.00  0.00    -0.234 N 
ATOM     26  H32 UNL     1      28.168  32.916  44.555  1.00  0.00     0.174 HD
ATOM     27  H31 UNL     1      28.300  31.449  43.622  1.00  0.00     0.174 HD
ENDBRANCH   4  25
BRANCH   7  28
HETATM   28  N5  UNL     1      32.176  34.614  42.090  1.00  0.00    -0.384 N 
ATOM     29  H52 UNL     1      32.862  34.341  41.388  1.00  0.00     0.157 HD
ATOM     30  H51 UNL     1      32.488  35.173  42.885  1.00  0.00     0.157 HD
ENDBRANCH   7  28
TORSDOF 9
ENDMDL
MODEL 3
REMARK VINA RESULT: -5.076149606      1.863      2.384
REMARK  9 active torsions:
REMARK  status: ('A' for Active; 'I' for Inactive)
REMARK    1  A    between atoms: C2_2  and  O1_3 
REMARK    2  A    between atoms: O1_3  and  C3_4 
REMARK       I    between atoms: C3_4  and  N1_6 
REMARK    3  A    between atoms: N1_6  and  S1_8 
REMARK    4  A    between atoms: S1_8  and  O5_11 
REMARK    5  A    between atoms: O5_11  and  C4_12 
REMARK    6  A    between atoms: C5_15  and  N3_16 
REMARK    7  A    between atoms: C6_21  and  N5_22 
REMARK    8  A    between atoms: C7_25  and  S2_26 
REMARK    9  A    between atoms: S2_26  and  N6_27 
ROOT
HETATM    1  C4  UNL     1      31.069  35.858  43.042  1.00  0.00     0.201 A 
HETATM    2  N2  UNL     1      30.616  37.096  42.675  1.00  0.00    -0.168 N 
ATOM      3  H2  UNL     1      29.610  37.244  42.597  1.00  0.00     0.186 HD
HETATM    4  C5  UNL     1      31.437  38.125  42.415  1.00  0.00     0.679 A 
HETATM    5  N4  UNL     1      32.758  37.908  42.525  1.00  0.00    -0.176 N 
ATOM      6  H4  UNL     1      33.392  38.682  42.329  1.00  0.00     0.186 HD
HETATM    7  C6  UNL     1      33.284  36.732  42.878  1.00  0.00     0.140 A 
HETATM    8  C7  UNL     1      32.417  35.665  43.149  1.00  0.00     0.148 A 
ENDROOT
BRANCH   1   9
HETATM    9  O5  UNL     1      30.168  34.851  43.290  1.00  0.00    -0.196 OA
BRANCH   9  10
HETATM   10  S1  UNL     1      28.635  34.695  42.598  1.00  0.00     0.372 S 
HETATM   11  O3  UNL     1      28.419  35.768  41.538  1.00  0.00    -0.175 OA
HETATM   12  O4  UNL     1      27.527  34.886  43.583  1.00  0.00    -0.175 OA
BRANCH  10  13
HETATM   13  N1  UNL     1      28.400  33.182  41.797  1.00  0.00    -0.206 N 
HETATM   14  C3  UNL     1      28.508  31.997  42.570  1.00  0.00     0.375 C 
HETATM   15  O2  UNL     1      28.764  32.016  43.795  1.00  0.00    -0.237 OA
ATOM     16  H1  UNL     1      28.191  33.143  40.800  1.00  0.00     0.186 HD
BRANCH  14  17
HETATM   17  O1  UNL     1      28.321  30.779  41.939  1.00  0.00    -0.304 OA
BRANCH  17  18
HETATM   18  C2  UNL     1      27.521  30.615  40.805  1.00  0.00     0.176 C 
HETATM   19  C1  UNL     1      28.257  30.036  39.618  1.00  0.00     0.034 C 
ENDBRANCH  17  18
ENDBRANCH  14  17
ENDBRANCH  10  13
ENDBRANCH   9  10
ENDBRANCH   1   9
BRANCH   8  20
HETATM   20  S2  UNL     1      33.173  34.156  43.639  1.00  0.00     0.152 S 
HETATM   21  O6  UNL     1      33.808  34.190  44.997  1.00  0.00    -0.230 OA
BRANCH  20  22
HETATM   22  N6  UNL     1      34.298  33.549  42.466  1.00  0.00    -0.345 NA
ATOM     23  H62 UNL     1      35.036  34.233  42.298  1.00  0.00     0.166 HD
ATOM     24  H61 UNL     1      33.844  33.199  41.622  1.00  0.00     0.166 HD
ENDBRANCH  20  22
ENDBRANCH   8  20
BRANCH   4  25
HETATM   25  N3  UNL     1      31.000  39.292  42.067  1.00  0.00    -0.234 N 
ATOM     26  H32 UNL     1      30.336  39.786  42.663  1.00  0.00     0.174 HD
ATOM     27  H31 UNL     1      31.295  39.754  41.206  1.00  0.00     0.174 HD
ENDBRANCH   4  25
BRANCH   7  28
HETATM   28  N5  UNL     1      34.560  36.548  42.977  1.00  0.00    -0.384 N 
ATOM     29  H52 UNL     1      35.140  36.629  42.142  1.00  0.00     0.157 HD
ATOM     30  H51 UNL     1      35.011  36.323  43.864  1.00  0.00     0.157 HD
ENDBRANCH   7  28
TORSDOF 9
ENDMDL
MODEL 4
REMARK VINA RESULT: -5.062351102      3.154      6.761
REMARK  9 active torsions:
REMARK  status: ('A' for Active; 'I' for Inactive)
REMARK    1  A    between atoms: C2_2  and  O1_3 
REMARK    2  A    between atoms: O1_3  and  C3_4 
REMARK       I    between atoms: C3_4  and  N1_6 
REMARK    3  A    between atoms: N1_6  and  S1_8 
REMARK    4  A    between atoms: S1_8  and  O5_11 
REMARK    5  A    between atoms: O5_11  and  C4_12 
REMARK    6  A    between atoms: C5_15  and  N3_16 
REMARK    7  A    between atoms: C6_21  and  N5_22 
REMARK    8  A    between atoms: C7_25  and  S2_26 
REMARK    9  A    between atoms: S2_26  and  N6_27 
ROOT
HETATM    1  C4  UNL     1      28.424  31.262  39.922  1.00  0.00     0.201 A 
HETATM    2  N2  UNL     1      28.487  29.898  39.844  1.00  0.00    -0.168 N 
ATOM      3  H2  UNL     1      28.356  29.354  40.697  1.00  0.00     0.186 HD
HETATM    4  C5  UNL     1      28.713  29.243  38.696  1.00  0.00     0.679 A 
HETATM    5  N4  UNL     1      28.882  29.978  37.585  1.00  0.00    -0.176 N 
ATOM      6  H4  UNL     1      29.054  29.492  36.705  1.00  0.00     0.186 HD
HETATM    7  C6  UNL     1      28.835  31.313  37.572  1.00  0.00     0.140 A 
HETATM    8  C7  UNL     1      28.598  31.986  38.777  1.00  0.00     0.148 A 
ENDROOT
BRANCH   1   9
HETATM    9  O5  UNL     1      28.194  31.864  41.136  1.00  0.00    -0.196 OA
BRANCH   9  10
HETATM   10  S1  UNL     1      29.345  32.155  42.337  1.00  0.00     0.372 S 
HETATM   11  O3  UNL     1      30.507  31.179  42.208  1.00  0.00    -0.175 OA
HETATM   12  O4  UNL     1      28.812  31.952  43.719  1.00  0.00    -0.175 OA
BRANCH  10  13
HETATM   13  N1  UNL     1      30.039  33.734  42.245  1.00  0.00    -0.206 N 
HETATM   14  C3  UNL     1      29.180  34.850  42.419  1.00  0.00     0.375 C 
HETATM   15  O2  UNL     1      27.952  34.724  42.633  1.00  0.00    -0.237 OA
ATOM     16  H1  UNL     1      31.036  33.861  42.071  1.00  0.00     0.186 HD
BRANCH  14  17
HETATM   17  O1  UNL     1      29.725  36.120  42.349  1.00  0.00    -0.304 OA
BRANCH  17  18
HETATM   18  C2  UNL     1      31.086  36.385  42.529  1.00  0.00     0.176 C 
HETATM   19  C1  UNL     1      31.461  36.701  43.959  1.00  0.00     0.034 C 
ENDBRANCH  17  18
ENDBRANCH  14  17
ENDBRANCH  10  13
ENDBRANCH   9  10
ENDBRANCH   1   9
BRANCH   8  20
HETATM   20  S2  UNL     1      28.516  33.740  38.684  1.00  0.00     0.152 S 
HETATM   21  O6  UNL     1      29.781  34.444  39.073  1.00  0.00    -0.230 OA
BRANCH  20  22
HETATM   22  N6  UNL     1      27.169  34.403  39.553  1.00  0.00    -0.345 NA
ATOM     23  H62 UNL     1      27.342  35.384  39.777  1.00  0.00     0.166 HD
ATOM     24  H61 UNL     1      26.887  33.831  40.349  1.00  0.00     0.166 HD
ENDBRANCH  20  22
ENDBRANCH   8  20
BRANCH   4  25
HETATM   25  N3  UNL     1      28.772  27.951  38.631  1.00  0.00    -0.234 N 
ATOM     26  H32 UNL     1      29.661  27.474  38.776  1.00  0.00     0.174 HD
ATOM     27  H31 UNL     1      27.953  27.374  38.439  1.00  0.00     0.174 HD
ENDBRANCH   4  25
BRANCH   7  28
HETATM   28  N5  UNL     1      29.001  31.999  36.489  1.00  0.00    -0.384 N 
ATOM     29  H52 UNL     1      28.512  31.715  35.640  1.00  0.00     0.157 HD
ATOM     30  H51 UNL     1      29.606  32.820  36.450  1.00  0.00     0.157 HD
ENDBRANCH   7  28
TORSDOF 9
ENDMDL
MODEL 5
REMARK VINA RESULT: -4.990874367      1.767      2.086
REMARK  9 active torsions:
REMARK  status: ('A' for Active; 'I' for Inactive)
REMARK    1  A    between atoms: C2_2  and  O1_3 
REMARK    2  A    between atoms: O1_3  and  C3_4 
REMARK       I    between atoms: C3_4  and  N1_6 
REMARK    3  A    between atoms: N1_6  and  S1_8 
REMARK    4  A    between atoms: S1_8  and  O5_11 
REMARK    5  A    between atoms: O5_11  and  C4_12 
REMARK    6  A    between atoms: C5_15  and  N3_16 
REMARK    7  A    between atoms: C6_21  and  N5_22 
REMARK    8  A    between atoms: C7_25  and  S2_26 
REMARK    9  A    between atoms: S2_26  and  N6_27 
ROOT
HETATM    1  C4  UNL     1      31.215  34.829  42.864  1.00  0.00     0.201 A 
HETATM    2  N2  UNL     1      30.400  35.925  42.773  1.00  0.00    -0.168 N 
ATOM      3  H2  UNL     1      29.410  35.782  42.576  1.00  0.00     0.186 HD
HETATM    4  C5  UNL     1      30.846  37.180  42.934  1.00  0.00     0.679 A 
HETATM    5  N4  UNL     1      32.153  37.345  43.193  1.00  0.00    -0.176 N 
ATOM      6  H4  UNL     1      32.505  38.294  43.317  1.00  0.00     0.186 HD
HETATM    7  C6  UNL     1      33.017  36.332  43.299  1.00  0.00     0.140 A 
HETATM    8  C7  UNL     1      32.539  35.025  43.131  1.00  0.00     0.148 A 
ENDROOT
BRANCH   1   9
HETATM    9  O5  UNL     1      30.687  33.573  42.684  1.00  0.00    -0.196 OA
BRANCH   9  10
HETATM   10  S1  UNL     1      29.071  33.132  42.904  1.00  0.00     0.372 S 
HETATM   11  O3  UNL     1      28.257  34.322  43.395  1.00  0.00    -0.175 OA
HETATM   12  O4  UNL     1      28.890  32.075  43.946  1.00  0.00    -0.175 OA
BRANCH  10  13
HETATM   13  N1  UNL     1      28.306  32.601  41.449  1.00  0.00    -0.206 N 
HETATM   14  C3  UNL     1      28.891  31.515  40.748  1.00  0.00     0.375 C 
HETATM   15  O2  UNL     1      29.930  30.940  41.148  1.00  0.00    -0.237 OA
ATOM     16  H1  UNL     1      27.461  33.055  41.104  1.00  0.00     0.186 HD
BRANCH  14  17
HETATM   17  O1  UNL     1      28.287  31.080  39.581  1.00  0.00    -0.304 OA
BRANCH  17  18
HETATM   18  C2  UNL     1      27.602  29.866  39.475  1.00  0.00     0.176 C 
HETATM   19  C1  UNL     1      28.367  28.798  38.728  1.00  0.00     0.034 C 
ENDBRANCH  17  18
ENDBRANCH  14  17
ENDBRANCH  10  13
ENDBRANCH   9  10
ENDBRANCH   1   9
BRANCH   8  20
HETATM   20  S2  UNL     1      33.722  33.737  43.315  1.00  0.00     0.152 S 
HETATM   21  O6  UNL     1      34.319  33.631  44.686  1.00  0.00    -0.230 OA
BRANCH  20  22
HETATM   22  N6  UNL     1      34.976  33.792  42.118  1.00  0.00    -0.345 NA
ATOM     23  H62 UNL     1      34.840  33.049  41.431  1.00  0.00     0.166 HD
ATOM     24  H61 UNL     1      35.911  33.830  42.521  1.00  0.00     0.166 HD
ENDBRANCH  20  22
ENDBRANCH   8  20
BRANCH   4  25
HETATM   25  N3  UNL     1      30.069  38.211  42.845  1.00  0.00    -0.234 N 
ATOM     26  H32 UNL     1      29.597  38.419  41.966  1.00  0.00     0.174 HD
ATOM     27  H31 UNL     1      29.900  38.840  43.631  1.00  0.00     0.174 HD
ENDBRANCH   4  25
BRANCH   7  28
HETATM   28  N5  UNL     1      34.271  36.517  43.550  1.00  0.00    -0.384 N 
ATOM     29  H52 UNL     1      34.568  36.671  44.513  1.00  0.00     0.157 HD
ATOM     30  H51 UNL     1      34.981  36.515  42.816  1.00  0.00     0.157 HD
ENDBRANCH   7  28
TORSDOF 9
ENDMDL
