MODEL 1
REMARK VINA RESULT: -5.234104164      0.000      0.000
REMARK  8 active torsions:
REMARK  status: ('A' for Active; 'I' for Inactive)
REMARK    1  A    between atoms: O1_2  and  C2_3 
REMARK    2  A    between atoms: C2_3  and  O2_5 
REMARK    3  A    between atoms: O2_5  and  N1_6 
REMARK    4  A    between atoms: N1_6  and  C4_8 
REMARK    5  A    between atoms: C7_18  and  N5_19 
REMARK    6  A    between atoms: N5_19  and  N6_21 
REMARK    7  A    between atoms: C8_24  and  C9_25 
REMARK       I    between atoms: C9_25  and  N7_27 
REMARK    8  A    between atoms: N7_27  and  N8_29 
ROOT
HETATM    1  C4  UNL     1      28.355  25.019  35.984  1.00  0.00     0.160 A 
HETATM    2  N2  UNL     1      28.692  23.726  36.172  1.00  0.00    -0.291 N 
ATOM      3  H2  UNL     1      28.261  23.021  35.575  1.00  0.00     0.172 HD
HETATM    4  C5  UNL     1      29.567  23.324  37.105  1.00  0.00     0.327 A 
HETATM    5  O3  UNL     1      29.865  22.105  37.259  1.00  0.00    -0.247 OA
HETATM    6  N3  UNL     1      30.130  24.286  37.890  1.00  0.00    -0.292 N 
ATOM      7  H3  UNL     1      30.799  24.009  38.609  1.00  0.00     0.172 HD
HETATM    8  C6  UNL     1      29.829  25.590  37.746  1.00  0.00     0.142 A 
HETATM    9  N4  UNL     1      30.420  26.513  38.556  1.00  0.00    -0.323 N 
ATOM     10  H4  UNL     1      31.087  26.212  39.267  1.00  0.00     0.169 HD
HETATM   11  C7  UNL     1      30.126  27.827  38.421  1.00  0.00     0.154 A 
HETATM   12  C8  UNL     1      29.224  28.201  37.453  1.00  0.00     0.149 A 
HETATM   13  N9  UNL     1      28.631  27.308  36.643  1.00  0.00    -0.343 N 
ATOM     14  H9  UNL     1      27.966  27.616  35.933  1.00  0.00     0.166 HD
HETATM   15  C10 UNL     1      28.928  25.983  36.781  1.00  0.00     0.124 A 
ENDROOT
BRANCH   1  16
HETATM   16  N1  UNL     1      27.516  25.406  35.089  1.00  0.00    -0.245 N 
ATOM     17  H1  UNL     1      26.543  25.102  35.141  1.00  0.00     0.196 HD
BRANCH  16  18
HETATM   18  O2  UNL     1      27.920  26.226  34.064  1.00  0.00    -0.246 OA
BRANCH  18  19
HETATM   19  C2  UNL     1      27.423  26.044  32.737  1.00  0.00     0.283 C 
HETATM   20  C3  UNL     1      27.532  27.392  32.058  1.00  0.00     0.073 C 
BRANCH  19  21
HETATM   21  O1  UNL     1      26.126  25.605  32.848  1.00  0.00    -0.364 OA
HETATM   22  C1  UNL     1      25.758  24.691  31.884  1.00  0.00     0.204 C 
ENDBRANCH  19  21
ENDBRANCH  18  19
ENDBRANCH  16  18
ENDBRANCH   1  16
BRANCH  12  23
HETATM   23  C9  UNL     1      28.920  29.642  37.324  1.00  0.00     0.290 C 
HETATM   24  O4  UNL     1      28.438  30.288  38.286  1.00  0.00    -0.264 OA
HETATM   25  N7  UNL     1      29.165  30.329  36.107  1.00  0.00    -0.271 N 
ATOM     26  H7  UNL     1      29.555  29.837  35.303  1.00  0.00     0.189 HD
BRANCH  25  27
HETATM   27  N8  UNL     1      28.862  31.686  36.030  1.00  0.00    -0.342 N 
ATOM     28  H82 UNL     1      28.085  32.062  36.574  1.00  0.00     0.176 HD
ATOM     29  H81 UNL     1      29.429  32.282  35.426  1.00  0.00     0.176 HD
ENDBRANCH  25  27
ENDBRANCH  12  23
BRANCH  11  30
HETATM   30  N5  UNL     1      30.659  28.735  39.163  1.00  0.00    -0.290 N 
ATOM     31  H5  UNL     1      30.059  29.310  39.755  1.00  0.00     0.188 HD
BRANCH  30  32
HETATM   32  N6  UNL     1      32.027  28.951  39.177  1.00  0.00    -0.344 N 
ATOM     33  H62 UNL     1      32.642  28.138  39.210  1.00  0.00     0.176 HD
ATOM     34  H61 UNL     1      32.420  29.891  39.155  1.00  0.00     0.176 HD
ENDBRANCH  30  32
ENDBRANCH  11  30
TORSDOF 8
ENDMDL
MODEL 2
REMARK VINA RESULT: -5.200585649      5.400      7.616
REMARK  8 active torsions:
REMARK  status: ('A' for Active; 'I' for Inactive)
REMARK    1  A    between atoms: O1_2  and  C2_3 
REMARK    2  A    between atoms: C2_3  and  O2_5 
REMARK    3  A    between atoms: O2_5  and  N1_6 
REMARK    4  A    between atoms: N1_6  and  C4_8 
REMARK    5  A    between atoms: C7_18  and  N5_19 
REMARK    6  A    between atoms: N5_19  and  N6_21 
REMARK    7  A    between atoms: C8_24  and  C9_25 
REMARK       I    between atoms: C9_25  and  N7_27 
REMARK    8  A    between atoms: N7_27  and  N8_29 
ROOT
HETATM    1  C4  UNL     1      30.465  31.799  40.717  1.00  0.00     0.160 A 
HETATM    2  N2  UNL     1      30.257  31.581  42.032  1.00  0.00    -0.291 N 
ATOM      3  H2  UNL     1      31.012  31.171  42.581  1.00  0.00     0.172 HD
HETATM    4  C5  UNL     1      29.106  31.877  42.652  1.00  0.00     0.327 A 
HETATM    5  O3  UNL     1      28.938  31.662  43.887  1.00  0.00    -0.247 OA
HETATM    6  N3  UNL     1      28.111  32.424  41.897  1.00  0.00    -0.292 N 
ATOM      7  H3  UNL     1      27.224  32.659  42.342  1.00  0.00     0.172 HD
HETATM    8  C6  UNL     1      28.265  32.662  40.581  1.00  0.00     0.142 A 
HETATM    9  N4  UNL     1      27.240  33.211  39.870  1.00  0.00    -0.323 N 
ATOM     10  H4  UNL     1      26.362  33.439  40.337  1.00  0.00     0.169 HD
HETATM   11  C7  UNL     1      27.382  33.455  38.546  1.00  0.00     0.154 A 
HETATM   12  C8  UNL     1      28.578  33.138  37.945  1.00  0.00     0.149 A 
HETATM   13  N9  UNL     1      29.601  32.598  38.627  1.00  0.00    -0.343 N 
ATOM     14  H9  UNL     1      30.476  32.374  38.154  1.00  0.00     0.166 HD
HETATM   15  C10 UNL     1      29.456  32.351  39.962  1.00  0.00     0.124 A 
ENDROOT
BRANCH   1  16
HETATM   16  N1  UNL     1      31.570  31.515  40.121  1.00  0.00    -0.245 N 
ATOM     17  H1  UNL     1      32.435  31.967  40.416  1.00  0.00     0.196 HD
BRANCH  16  18
HETATM   18  O2  UNL     1      31.591  30.608  39.090  1.00  0.00    -0.246 OA
BRANCH  18  19
HETATM   19  C2  UNL     1      30.943  29.341  39.213  1.00  0.00     0.283 C 
HETATM   20  C3  UNL     1      32.005  28.297  38.944  1.00  0.00     0.073 C 
BRANCH  19  21
HETATM   21  O1  UNL     1      29.924  29.316  38.292  1.00  0.00    -0.364 OA
HETATM   22  C1  UNL     1      28.709  28.921  38.808  1.00  0.00     0.204 C 
ENDBRANCH  19  21
ENDBRANCH  18  19
ENDBRANCH  16  18
ENDBRANCH   1  16
BRANCH  12  23
HETATM   23  C9  UNL     1      28.709  33.415  36.499  1.00  0.00     0.290 C 
HETATM   24  O4  UNL     1      28.726  34.594  36.067  1.00  0.00    -0.264 OA
HETATM   25  N7  UNL     1      28.817  32.354  35.564  1.00  0.00    -0.271 N 
ATOM     26  H7  UNL     1      28.806  31.383  35.878  1.00  0.00     0.189 HD
BRANCH  25  27
HETATM   27  N8  UNL     1      28.938  32.661  34.211  1.00  0.00    -0.342 N 
ATOM     28  H82 UNL     1      29.619  33.359  33.910  1.00  0.00     0.176 HD
ATOM     29  H81 UNL     1      28.338  32.178  33.542  1.00  0.00     0.176 HD
ENDBRANCH  25  27
ENDBRANCH  12  23
BRANCH  11  30
HETATM   30  N5  UNL     1      26.442  33.973  37.833  1.00  0.00    -0.290 N 
ATOM     31  H5  UNL     1      26.672  34.381  36.927  1.00  0.00     0.188 HD
BRANCH  30  32
HETATM   32  N6  UNL     1      25.127  33.988  38.266  1.00  0.00    -0.344 N 
ATOM     33  H62 UNL     1      24.588  34.844  38.139  1.00  0.00     0.176 HD
ATOM     34  H61 UNL     1      24.698  33.172  38.702  1.00  0.00     0.176 HD
ENDBRANCH  30  32
ENDBRANCH  11  30
TORSDOF 8
ENDMDL
MODEL 3
REMARK VINA RESULT: -5.126241408      5.918      9.618
REMARK  8 active torsions:
REMARK  status: ('A' for Active; 'I' for Inactive)
REMARK    1  A    between atoms: O1_2  and  C2_3 
REMARK    2  A    between atoms: C2_3  and  O2_5 
REMARK    3  A    between atoms: O2_5  and  N1_6 
REMARK    4  A    between atoms: N1_6  and  C4_8 
REMARK    5  A    between atoms: C7_18  and  N5_19 
REMARK    6  A    between atoms: N5_19  and  N6_21 
REMARK    7  A    between atoms: C8_24  and  C9_25 
REMARK       I    between atoms: C9_25  and  N7_27 
REMARK    8  A    between atoms: N7_27  and  N8_29 
ROOT
HETATM    1  C4  UNL     1      28.881  34.025  41.469  1.00  0.00     0.160 A 
HETATM    2  N2  UNL     1      28.816  33.541  42.726  1.00  0.00    -0.291 N 
ATOM      3  H2  UNL     1      28.813  34.204  43.501  1.00  0.00     0.172 HD
HETATM    4  C5  UNL     1      28.754  32.231  43.007  1.00  0.00     0.327 A 
HETATM    5  O3  UNL     1      28.693  31.806  44.197  1.00  0.00    -0.247 OA
HETATM    6  N3  UNL     1      28.759  31.365  41.955  1.00  0.00    -0.292 N 
ATOM      7  H3  UNL     1      28.713  30.363  42.138  1.00  0.00     0.172 HD
HETATM    8  C6  UNL     1      28.823  31.793  40.680  1.00  0.00     0.142 A 
HETATM    9  N4  UNL     1      28.825  30.886  39.662  1.00  0.00    -0.323 N 
ATOM     10  H4  UNL     1      28.777  29.889  39.871  1.00  0.00     0.169 HD
HETATM   11  C7  UNL     1      28.889  31.304  38.376  1.00  0.00     0.154 A 
HETATM   12  C8  UNL     1      28.951  32.656  38.128  1.00  0.00     0.149 A 
HETATM   13  N9  UNL     1      28.949  33.566  39.116  1.00  0.00    -0.343 N 
ATOM     14  H9  UNL     1      28.996  34.562  38.900  1.00  0.00     0.166 HD
HETATM   15  C10 UNL     1      28.885  33.144  40.412  1.00  0.00     0.124 A 
ENDROOT
BRANCH   1  16
HETATM   16  N1  UNL     1      28.940  35.281  41.198  1.00  0.00    -0.245 N 
ATOM     17  H1  UNL     1      28.125  35.754  40.809  1.00  0.00     0.196 HD
BRANCH  16  18
HETATM   18  O2  UNL     1      30.094  35.989  41.430  1.00  0.00    -0.246 OA
BRANCH  18  19
HETATM   19  C2  UNL     1      30.230  36.814  42.588  1.00  0.00     0.283 C 
HETATM   20  C3  UNL     1      31.144  37.953  42.189  1.00  0.00     0.073 C 
BRANCH  19  21
HETATM   21  O1  UNL     1      30.758  36.029  43.584  1.00  0.00    -0.364 OA
HETATM   22  C1  UNL     1      31.950  35.422  43.248  1.00  0.00     0.204 C 
ENDBRANCH  19  21
ENDBRANCH  18  19
ENDBRANCH  16  18
ENDBRANCH   1  16
BRANCH  12  23
HETATM   23  C9  UNL     1      29.019  33.087  36.716  1.00  0.00     0.290 C 
HETATM   24  O4  UNL     1      29.928  32.669  35.957  1.00  0.00    -0.264 OA
HETATM   25  N7  UNL     1      28.059  33.986  36.186  1.00  0.00    -0.271 N 
ATOM     26  H7  UNL     1      27.307  34.348  36.772  1.00  0.00     0.189 HD
BRANCH  25  27
HETATM   27  N8  UNL     1      28.163  34.367  34.849  1.00  0.00    -0.342 N 
ATOM     28  H82 UNL     1      29.071  34.338  34.385  1.00  0.00     0.176 HD
ATOM     29  H81 UNL     1      27.321  34.670  34.359  1.00  0.00     0.176 HD
ENDBRANCH  25  27
ENDBRANCH  12  23
BRANCH  11  30
HETATM   30  N5  UNL     1      28.893  30.485  37.383  1.00  0.00    -0.290 N 
ATOM     31  H5  UNL     1      28.054  30.395  36.809  1.00  0.00     0.188 HD
BRANCH  30  32
HETATM   32  N6  UNL     1      30.007  29.724  37.073  1.00  0.00    -0.344 N 
ATOM     33  H62 UNL     1      30.626  30.055  36.333  1.00  0.00     0.176 HD
ATOM     34  H61 UNL     1      30.215  28.855  37.565  1.00  0.00     0.176 HD
ENDBRANCH  30  32
ENDBRANCH  11  30
TORSDOF 8
ENDMDL
MODEL 4
REMARK VINA RESULT: -5.026561297      8.941     12.423
REMARK  8 active torsions:
REMARK  status: ('A' for Active; 'I' for Inactive)
REMARK    1  A    between atoms: O1_2  and  C2_3 
REMARK    2  A    between atoms: C2_3  and  O2_5 
REMARK    3  A    between atoms: O2_5  and  N1_6 
REMARK    4  A    between atoms: N1_6  and  C4_8 
REMARK    5  A    between atoms: C7_18  and  N5_19 
REMARK    6  A    between atoms: N5_19  and  N6_21 
REMARK    7  A    between atoms: C8_24  and  C9_25 
REMARK       I    between atoms: C9_25  and  N7_27 
REMARK    8  A    between atoms: N7_27  and  N8_29 
ROOT
HETATM    1  C4  UNL     1      33.298  34.873  42.593  1.00  0.00     0.160 A 
HETATM    2  N2  UNL     1      33.960  36.048  42.557  1.00  0.00    -0.291 N 
ATOM      3  H2  UNL     1      34.980  36.030  42.550  1.00  0.00     0.172 HD
HETATM    4  C5  UNL     1      33.343  37.238  42.530  1.00  0.00     0.327 A 
HETATM    5  O3  UNL     1      33.990  38.324  42.496  1.00  0.00    -0.247 OA
HETATM    6  N3  UNL     1      31.980  37.236  42.541  1.00  0.00    -0.292 N 
ATOM      7  H3  UNL     1      31.484  38.127  42.521  1.00  0.00     0.172 HD
HETATM    8  C6  UNL     1      31.269  36.093  42.577  1.00  0.00     0.142 A 
HETATM    9  N4  UNL     1      29.907  36.145  42.586  1.00  0.00    -0.323 N 
ATOM     10  H4  UNL     1      29.433  37.048  42.565  1.00  0.00     0.169 HD
HETATM   11  C7  UNL     1      29.181  35.004  42.622  1.00  0.00     0.154 A 
HETATM   12  C8  UNL     1      29.850  33.802  42.649  1.00  0.00     0.149 A 
HETATM   13  N9  UNL     1      31.192  33.728  42.640  1.00  0.00    -0.343 N 
ATOM     14  H9  UNL     1      31.659  32.822  42.660  1.00  0.00     0.166 HD
HETATM   15  C10 UNL     1      31.922  34.880  42.604  1.00  0.00     0.124 A 
ENDROOT
BRANCH   1  16
HETATM   16  N1  UNL     1      33.889  33.730  42.620  1.00  0.00    -0.245 N 
ATOM     17  H1  UNL     1      34.162  33.281  41.745  1.00  0.00     0.196 HD
BRANCH  16  18
HETATM   18  O2  UNL     1      34.155  33.112  43.816  1.00  0.00    -0.246 OA
BRANCH  18  19
HETATM   19  C2  UNL     1      35.167  33.610  44.692  1.00  0.00     0.283 C 
HETATM   20  C3  UNL     1      36.190  32.501  44.827  1.00  0.00     0.073 C 
BRANCH  19  21
HETATM   21  O1  UNL     1      34.556  33.921  45.882  1.00  0.00    -0.364 OA
HETATM   22  C1  UNL     1      34.502  35.272  46.150  1.00  0.00     0.204 C 
ENDBRANCH  19  21
ENDBRANCH  18  19
ENDBRANCH  16  18
ENDBRANCH   1  16
BRANCH  12  23
HETATM   23  C9  UNL     1      29.035  32.569  42.688  1.00  0.00     0.290 C 
HETATM   24  O4  UNL     1      28.796  31.988  43.774  1.00  0.00    -0.264 OA
HETATM   25  N7  UNL     1      28.506  32.012  41.495  1.00  0.00    -0.271 N 
ATOM     26  H7  UNL     1      28.680  32.456  40.593  1.00  0.00     0.189 HD
BRANCH  25  27
HETATM   27  N8  UNL     1      27.745  30.848  41.578  1.00  0.00    -0.342 N 
ATOM     28  H82 UNL     1      27.509  30.463  42.493  1.00  0.00     0.176 HD
ATOM     29  H81 UNL     1      27.436  30.402  40.715  1.00  0.00     0.176 HD
ENDBRANCH  25  27
ENDBRANCH  12  23
BRANCH  11  30
HETATM   30  N5  UNL     1      27.894  35.002  42.632  1.00  0.00    -0.290 N 
ATOM     31  H5  UNL     1      27.389  35.221  41.772  1.00  0.00     0.188 HD
BRANCH  30  32
HETATM   32  N6  UNL     1      27.176  34.713  43.780  1.00  0.00    -0.344 N 
ATOM     33  H62 UNL     1      26.656  33.836  43.814  1.00  0.00     0.176 HD
ATOM     34  H61 UNL     1      27.160  35.350  44.576  1.00  0.00     0.176 HD
ENDBRANCH  30  32
ENDBRANCH  11  30
TORSDOF 8
ENDMDL
MODEL 5
REMARK VINA RESULT: -5.008229932      4.945      7.286
REMARK  8 active torsions:
REMARK  status: ('A' for Active; 'I' for Inactive)
REMARK    1  A    between atoms: O1_2  and  C2_3 
REMARK    2  A    between atoms: C2_3  and  O2_5 
REMARK    3  A    between atoms: O2_5  and  N1_6 
REMARK    4  A    between atoms: N1_6  and  C4_8 
REMARK    5  A    between atoms: C7_18  and  N5_19 
REMARK    6  A    between atoms: N5_19  and  N6_21 
REMARK    7  A    between atoms: C8_24  and  C9_25 
REMARK       I    between atoms: C9_25  and  N7_27 
REMARK    8  A    between atoms: N7_27  and  N8_29 
ROOT
HETATM    1  C4  UNL     1      28.094  31.287  40.626  1.00  0.00     0.160 A 
HETATM    2  N2  UNL     1      28.092  31.208  41.972  1.00  0.00    -0.291 N 
ATOM      3  H2  UNL     1      27.538  30.475  42.414  1.00  0.00     0.172 HD
HETATM    4  C5  UNL     1      28.784  32.046  42.758  1.00  0.00     0.327 A 
HETATM    5  O3  UNL     1      28.765  31.947  44.019  1.00  0.00    -0.247 OA
HETATM    6  N3  UNL     1      29.517  33.017  42.144  1.00  0.00    -0.292 N 
ATOM      7  H3  UNL     1      30.053  33.669  42.716  1.00  0.00     0.172 HD
HETATM    8  C6  UNL     1      29.554  33.142  40.804  1.00  0.00     0.142 A 
HETATM    9  N4  UNL     1      30.302  34.131  40.238  1.00  0.00    -0.323 N 
ATOM     10  H4  UNL     1      30.831  34.770  40.831  1.00  0.00     0.169 HD
HETATM   11  C7  UNL     1      30.348  34.267  38.892  1.00  0.00     0.154 A 
HETATM   12  C8  UNL     1      29.625  33.388  38.120  1.00  0.00     0.149 A 
HETATM   13  N9  UNL     1      28.881  32.407  38.657  1.00  0.00    -0.343 N 
ATOM     14  H9  UNL     1      28.356  31.770  38.057  1.00  0.00     0.166 HD
HETATM   15  C10 UNL     1      28.836  32.271  40.014  1.00  0.00     0.124 A 
ENDROOT
BRANCH   1  16
HETATM   16  N1  UNL     1      27.430  30.484  39.871  1.00  0.00    -0.245 N 
ATOM     17  H1  UNL     1      26.496  30.743  39.552  1.00  0.00     0.196 HD
BRANCH  16  18
HETATM   18  O2  UNL     1      27.970  29.280  39.492  1.00  0.00    -0.246 OA
BRANCH  18  19
HETATM   19  C2  UNL     1      28.409  29.061  38.150  1.00  0.00     0.283 C 
HETATM   20  C3  UNL     1      28.265  27.576  37.896  1.00  0.00     0.073 C 
BRANCH  19  21
HETATM   21  O1  UNL     1      29.711  29.492  38.075  1.00  0.00    -0.364 OA
HETATM   22  C1  UNL     1      30.558  28.881  38.974  1.00  0.00     0.204 C 
ENDBRANCH  19  21
ENDBRANCH  18  19
ENDBRANCH  16  18
ENDBRANCH   1  16
BRANCH  12  23
HETATM   23  C9  UNL     1      29.691  33.557  36.652  1.00  0.00     0.290 C 
HETATM   24  O4  UNL     1      30.792  33.543  36.051  1.00  0.00    -0.264 OA
HETATM   25  N7  UNL     1      28.509  33.740  35.890  1.00  0.00    -0.271 N 
ATOM     26  H7  UNL     1      27.595  33.757  36.344  1.00  0.00     0.189 HD
BRANCH  25  27
HETATM   27  N8  UNL     1      28.618  33.896  34.510  1.00  0.00    -0.342 N 
ATOM     28  H82 UNL     1      29.494  34.228  34.107  1.00  0.00     0.176 HD
ATOM     29  H81 UNL     1      27.813  33.672  33.925  1.00  0.00     0.176 HD
ENDBRANCH  25  27
ENDBRANCH  12  23
BRANCH  11  30
HETATM   30  N5  UNL     1      31.041  35.185  38.313  1.00  0.00    -0.290 N 
ATOM     31  H5  UNL     1      30.559  35.973  37.878  1.00  0.00     0.188 HD
BRANCH  30  32
HETATM   32  N6  UNL     1      32.423  35.129  38.265  1.00  0.00    -0.344 N 
ATOM     33  H62 UNL     1      32.881  34.266  38.558  1.00  0.00     0.176 HD
ATOM     34  H61 UNL     1      32.980  35.922  37.947  1.00  0.00     0.176 HD
ENDBRANCH  30  32
ENDBRANCH  11  30
TORSDOF 8
ENDMDL
