MODEL 1
REMARK VINA RESULT: -5.432469679      0.000      0.000
REMARK  6 active torsions:
REMARK  status: ('A' for Active; 'I' for Inactive)
REMARK    1  A    between atoms: N2_5  and  C3_6 
REMARK    2  A    between atoms: C3_6  and  C4_7 
REMARK    3  A    between atoms: N4_9  and  N5_11 
REMARK       I    between atoms: N5_11  and  C5_13 
REMARK    4  A    between atoms: C5_13  and  C6_15 
REMARK    5  A    between atoms: C7_18  and  N7_19 
REMARK    6  A    between atoms: N9_24  and  N10_25 
ROOT
HETATM    1  N5  UNL     1      28.508  32.487  41.552  1.00  0.00    -0.262 N 
ATOM      2  H5  UNL     1      28.654  33.093  40.745  1.00  0.00     0.190 HD
HETATM    3  C5  UNL     1      29.089  32.812  42.795  1.00  0.00     0.308 C 
HETATM    4  O1  UNL     1      28.922  32.082  43.801  1.00  0.00    -0.262 OA
ENDROOT
BRANCH   1   5
HETATM    5  N4  UNL     1      27.738  31.346  41.431  1.00  0.00    -0.287 N 
HETATM    6  C4  UNL     1      27.760  30.673  40.338  1.00  0.00     0.127 C 
HETATM    7  N3  UNL     1      26.979  29.494  40.218  1.00  0.00    -0.084 NA
ATOM      8  H4  UNL     1      27.154  31.039  42.209  1.00  0.00     0.188 HD
BRANCH   6   9
HETATM    9  C3  UNL     1      28.603  31.106  39.198  1.00  0.00     0.228 C 
BRANCH   9  10
HETATM   10  N2  UNL     1      29.840  30.312  39.260  1.00  0.00    -0.235 N 
HETATM   11  N1  UNL     1      29.707  29.023  38.969  1.00  0.00    -0.293 N 
HETATM   12  C2  UNL     1      30.733  28.176  38.976  1.00  0.00     0.090 A 
ATOM     13  H1  UNL     1      28.780  28.669  38.730  1.00  0.00     0.187 HD
HETATM   14  C1  UNL     1      30.500  26.760  38.641  1.00  0.00     0.076 C 
HETATM   15  C9  UNL     1      31.972  28.681  39.301  1.00  0.00     0.273 A 
HETATM   16  N11 UNL     1      32.098  29.987  39.595  1.00  0.00    -0.273 N 
HETATM   17  O3  UNL     1      32.975  27.919  39.322  1.00  0.00    -0.266 OA
HETATM   18  C8  UNL     1      31.027  30.807  39.574  1.00  0.00     0.344 A 
ATOM     19  H11 UNL     1      33.015  30.363  39.836  1.00  0.00     0.173 HD
HETATM   20  O2  UNL     1      31.130  32.030  39.846  1.00  0.00    -0.245 OA
ENDBRANCH   9  10
ENDBRANCH   6   9
ENDBRANCH   1   5
BRANCH   3  21
HETATM   21  C6  UNL     1      29.901  34.012  42.930  1.00  0.00     0.229 A 
HETATM   22  N6  UNL     1      29.449  35.253  43.231  1.00  0.00    -0.167 N 
HETATM   23  C7  UNL     1      30.532  36.046  43.253  1.00  0.00     0.694 A 
ATOM     24  H6  UNL     1      28.483  35.528  43.404  1.00  0.00     0.186 HD
HETATM   25  N8  UNL     1      31.606  35.293  42.971  1.00  0.00    -0.110 N 
HETATM   26  N9  UNL     1      31.239  34.041  42.770  1.00  0.00    -0.166 N 
ATOM     27  H8  UNL     1      32.565  35.637  42.919  1.00  0.00     0.208 HD
BRANCH  23  28
HETATM   28  N7  UNL     1      30.456  37.311  43.512  1.00  0.00    -0.233 N 
ATOM     29  H72 UNL     1      29.665  37.860  43.852  1.00  0.00     0.174 HD
ATOM     30  H71 UNL     1      31.249  37.941  43.391  1.00  0.00     0.174 HD
ENDBRANCH  23  28
BRANCH  26  31
HETATM   31  N10 UNL     1      32.088  32.967  42.454  1.00  0.00    -0.322 N 
ATOM     32 2H10 UNL     1      31.813  32.094  42.004  1.00  0.00     0.179 HD
ATOM     33 1H10 UNL     1      33.091  32.897  42.623  1.00  0.00     0.179 HD
ENDBRANCH  26  31
ENDBRANCH   3  21
TORSDOF 6
ENDMDL
MODEL 2
REMARK VINA RESULT: -5.395719693      3.144      6.235
REMARK  6 active torsions:
REMARK  status: ('A' for Active; 'I' for Inactive)
REMARK    1  A    between atoms: N2_5  and  C3_6 
REMARK    2  A    between atoms: C3_6  and  C4_7 
REMARK    3  A    between atoms: N4_9  and  N5_11 
REMARK       I    between atoms: N5_11  and  C5_13 
REMARK    4  A    between atoms: C5_13  and  C6_15 
REMARK    5  A    between atoms: C7_18  and  N7_19 
REMARK    6  A    between atoms: N9_24  and  N10_25 
ROOT
HETATM    1  N5  UNL     1      28.540  32.146  40.449  1.00  0.00    -0.262 N 
ATOM      2  H5  UNL     1      29.045  31.377  40.008  1.00  0.00     0.190 HD
HETATM    3  C5  UNL     1      28.130  33.255  39.682  1.00  0.00     0.308 C 
HETATM    4  O1  UNL     1      27.508  34.211  40.203  1.00  0.00    -0.262 OA
ENDROOT
BRANCH   1   5
HETATM    5  N4  UNL     1      28.255  32.103  41.800  1.00  0.00    -0.287 N 
HETATM    6  C4  UNL     1      29.213  32.073  42.655  1.00  0.00     0.127 C 
HETATM    7  N3  UNL     1      28.920  32.041  44.044  1.00  0.00    -0.084 NA
ATOM      8  H4  UNL     1      27.286  32.094  42.118  1.00  0.00     0.188 HD
BRANCH   6   9
HETATM    9  C3  UNL     1      30.627  32.085  42.210  1.00  0.00     0.228 C 
BRANCH   9  10
HETATM   10  N2  UNL     1      30.946  33.475  41.850  1.00  0.00    -0.235 N 
HETATM   11  N1  UNL     1      30.712  34.378  42.795  1.00  0.00    -0.293 N 
HETATM   12  C2  UNL     1      30.954  35.675  42.624  1.00  0.00     0.090 A 
ATOM     13  H1  UNL     1      30.332  34.064  43.688  1.00  0.00     0.187 HD
HETATM   14  C1  UNL     1      30.665  36.613  43.724  1.00  0.00     0.076 C 
HETATM   15  C9  UNL     1      31.469  36.072  41.410  1.00  0.00     0.273 A 
HETATM   16  N11 UNL     1      31.703  35.150  40.459  1.00  0.00    -0.273 N 
HETATM   17  O3  UNL     1      31.715  37.289  41.198  1.00  0.00    -0.266 OA
HETATM   18  C8  UNL     1      31.441  33.846  40.679  1.00  0.00     0.344 A 
ATOM     19  H11 UNL     1      32.084  35.442  39.558  1.00  0.00     0.173 HD
HETATM   20  O2  UNL     1      31.655  32.974  39.799  1.00  0.00    -0.245 OA
ENDBRANCH   9  10
ENDBRANCH   6   9
ENDBRANCH   1   5
BRANCH   3  21
HETATM   21  C6  UNL     1      28.426  33.308  38.258  1.00  0.00     0.229 A 
HETATM   22  N6  UNL     1      29.529  32.808  37.653  1.00  0.00    -0.167 N 
HETATM   23  C7  UNL     1      29.388  33.078  36.344  1.00  0.00     0.694 A 
ATOM     24  H6  UNL     1      30.309  32.326  38.099  1.00  0.00     0.186 HD
HETATM   25  N8  UNL     1      28.225  33.725  36.176  1.00  0.00    -0.110 N 
HETATM   26  N9  UNL     1      27.619  33.876  37.339  1.00  0.00    -0.166 N 
ATOM     27  H8  UNL     1      27.861  34.053  35.281  1.00  0.00     0.208 HD
BRANCH  23  28
HETATM   28  N7  UNL     1      30.276  32.733  35.469  1.00  0.00    -0.233 N 
ATOM     29  H72 UNL     1      31.178  33.158  35.253  1.00  0.00     0.174 HD
ATOM     30  H71 UNL     1      30.149  31.929  34.853  1.00  0.00     0.174 HD
ENDBRANCH  23  28
BRANCH  26  31
HETATM   31  N10 UNL     1      26.382  34.504  37.556  1.00  0.00    -0.322 N 
ATOM     32 2H10 UNL     1      26.026  35.321  37.060  1.00  0.00     0.179 HD
ATOM     33 1H10 UNL     1      25.663  34.246  38.232  1.00  0.00     0.179 HD
ENDBRANCH  26  31
ENDBRANCH   3  21
TORSDOF 6
ENDMDL
MODEL 3
REMARK VINA RESULT: -5.378056233      2.623      6.889
REMARK  6 active torsions:
REMARK  status: ('A' for Active; 'I' for Inactive)
REMARK    1  A    between atoms: N2_5  and  C3_6 
REMARK    2  A    between atoms: C3_6  and  C4_7 
REMARK    3  A    between atoms: N4_9  and  N5_11 
REMARK       I    between atoms: N5_11  and  C5_13 
REMARK    4  A    between atoms: C5_13  and  C6_15 
REMARK    5  A    between atoms: C7_18  and  N7_19 
REMARK    6  A    between atoms: N9_24  and  N10_25 
ROOT
HETATM    1  N5  UNL     1      28.822  31.371  40.443  1.00  0.00    -0.262 N 
ATOM      2  H5  UNL     1      29.596  31.900  40.043  1.00  0.00     0.190 HD
HETATM    3  C5  UNL     1      28.120  30.437  39.654  1.00  0.00     0.308 C 
HETATM    4  O1  UNL     1      27.165  29.775  40.126  1.00  0.00    -0.262 OA
ENDROOT
BRANCH   1   5
HETATM    5  N4  UNL     1      28.458  31.567  41.762  1.00  0.00    -0.287 N 
HETATM    6  C4  UNL     1      29.323  31.998  42.607  1.00  0.00     0.127 C 
HETATM    7  N3  UNL     1      28.946  32.212  43.958  1.00  0.00    -0.084 NA
ATOM      8  H4  UNL     1      27.504  31.370  42.063  1.00  0.00     0.188 HD
BRANCH   6   9
HETATM    9  C3  UNL     1      30.715  32.289  42.185  1.00  0.00     0.228 C 
BRANCH   9  10
HETATM   10  N2  UNL     1      30.901  33.742  42.314  1.00  0.00    -0.235 N 
HETATM   11  N1  UNL     1      31.727  34.129  43.280  1.00  0.00    -0.293 N 
HETATM   12  C2  UNL     1      32.002  35.409  43.519  1.00  0.00     0.090 A 
ATOM     13  H1  UNL     1      32.168  33.416  43.861  1.00  0.00     0.187 HD
HETATM   14  C1  UNL     1      32.930  35.754  44.611  1.00  0.00     0.076 C 
HETATM   15  C9  UNL     1      31.395  36.351  42.719  1.00  0.00     0.273 A 
HETATM   16  N11 UNL     1      30.560  35.950  41.743  1.00  0.00    -0.273 N 
HETATM   17  O3  UNL     1      31.623  37.575  42.905  1.00  0.00    -0.266 OA
HETATM   18  C8  UNL     1      30.312  34.640  41.540  1.00  0.00     0.344 A 
ATOM     19  H11 UNL     1      30.109  36.646  41.150  1.00  0.00     0.173 HD
HETATM   20  O2  UNL     1      29.534  34.252  40.632  1.00  0.00    -0.245 OA
ENDBRANCH   9  10
ENDBRANCH   6   9
ENDBRANCH   1   5
BRANCH   3  21
HETATM   21  C6  UNL     1      28.497  30.225  38.265  1.00  0.00     0.229 A 
HETATM   22  N6  UNL     1      28.858  31.184  37.380  1.00  0.00    -0.167 N 
HETATM   23  C7  UNL     1      29.120  30.545  36.228  1.00  0.00     0.694 A 
ATOM     24  H6  UNL     1      28.918  32.187  37.553  1.00  0.00     0.186 HD
HETATM   25  N8  UNL     1      28.919  29.233  36.424  1.00  0.00    -0.110 N 
HETATM   26  N9  UNL     1      28.537  29.017  37.669  1.00  0.00    -0.166 N 
ATOM     27  H8  UNL     1      29.043  28.509  35.716  1.00  0.00     0.208 HD
BRANCH  23  28
HETATM   28  N7  UNL     1      29.498  31.173  35.161  1.00  0.00    -0.233 N 
ATOM     29  H72 UNL     1      29.359  32.149  34.896  1.00  0.00     0.174 HD
ATOM     30  H71 UNL     1      30.017  30.712  34.414  1.00  0.00     0.174 HD
ENDBRANCH  23  28
BRANCH  26  31
HETATM   31  N10 UNL     1      28.235  27.769  38.239  1.00  0.00    -0.322 N 
ATOM     32 2H10 UNL     1      27.867  27.609  39.177  1.00  0.00     0.179 HD
ATOM     33 1H10 UNL     1      28.336  26.848  37.812  1.00  0.00     0.179 HD
ENDBRANCH  26  31
ENDBRANCH   3  21
TORSDOF 6
ENDMDL
MODEL 4
REMARK VINA RESULT: -5.375599514      2.981      7.520
REMARK  6 active torsions:
REMARK  status: ('A' for Active; 'I' for Inactive)
REMARK    1  A    between atoms: N2_5  and  C3_6 
REMARK    2  A    between atoms: C3_6  and  C4_7 
REMARK    3  A    between atoms: N4_9  and  N5_11 
REMARK       I    between atoms: N5_11  and  C5_13 
REMARK    4  A    between atoms: C5_13  and  C6_15 
REMARK    5  A    between atoms: C7_18  and  N7_19 
REMARK    6  A    between atoms: N9_24  and  N10_25 
ROOT
HETATM    1  N5  UNL     1      28.824  30.730  37.235  1.00  0.00    -0.262 N 
ATOM      2  H5  UNL     1      27.882  30.541  37.579  1.00  0.00     0.190 HD
HETATM    3  C5  UNL     1      29.597  29.688  36.683  1.00  0.00     0.308 C 
HETATM    4  O1  UNL     1      30.757  29.898  36.255  1.00  0.00    -0.262 OA
ENDROOT
BRANCH   1   5
HETATM    5  N4  UNL     1      29.345  32.007  37.309  1.00  0.00    -0.287 N 
HETATM    6  C4  UNL     1      28.752  32.899  38.019  1.00  0.00     0.127 C 
HETATM    7  N3  UNL     1      29.295  34.207  38.106  1.00  0.00    -0.084 NA
ATOM      8  H4  UNL     1      30.197  32.242  36.802  1.00  0.00     0.188 HD
BRANCH   6   9
HETATM    9  C3  UNL     1      27.512  32.575  38.763  1.00  0.00     0.228 C 
BRANCH   9  10
HETATM   10  N2  UNL     1      27.903  32.355  40.164  1.00  0.00    -0.235 N 
HETATM   11  N1  UNL     1      28.277  33.442  40.830  1.00  0.00    -0.293 N 
HETATM   12  C2  UNL     1      28.654  33.408  42.105  1.00  0.00     0.090 A 
ATOM     13  H1  UNL     1      28.275  34.339  40.343  1.00  0.00     0.187 HD
HETATM   14  C1  UNL     1      29.056  34.660  42.772  1.00  0.00     0.076 C 
HETATM   15  C9  UNL     1      28.646  32.185  42.739  1.00  0.00     0.273 A 
HETATM   16  N11 UNL     1      28.265  31.090  42.057  1.00  0.00    -0.273 N 
HETATM   17  O3  UNL     1      28.995  32.100  43.946  1.00  0.00    -0.266 OA
HETATM   18  C8  UNL     1      27.892  31.175  40.764  1.00  0.00     0.344 A 
ATOM     19  H11 UNL     1      28.259  30.183  42.524  1.00  0.00     0.173 HD
HETATM   20  O2  UNL     1      27.534  30.160  40.115  1.00  0.00    -0.245 OA
ENDBRANCH   9  10
ENDBRANCH   6   9
ENDBRANCH   1   5
BRANCH   3  21
HETATM   21  C6  UNL     1      29.056  28.341  36.601  1.00  0.00     0.229 A 
HETATM   22  N6  UNL     1      28.727  27.679  35.466  1.00  0.00    -0.167 N 
HETATM   23  C7  UNL     1      28.271  26.477  35.856  1.00  0.00     0.694 A 
ATOM     24  H6  UNL     1      28.807  28.024  34.510  1.00  0.00     0.186 HD
HETATM   25  N8  UNL     1      28.328  26.425  37.196  1.00  0.00    -0.110 N 
HETATM   26  N9  UNL     1      28.808  27.560  37.672  1.00  0.00    -0.166 N 
ATOM     27  H8  UNL     1      28.044  25.627  37.764  1.00  0.00     0.208 HD
BRANCH  23  28
HETATM   28  N7  UNL     1      27.868  25.585  35.012  1.00  0.00    -0.233 N 
ATOM     29  H72 UNL     1      28.411  24.968  34.406  1.00  0.00     0.174 HD
ATOM     30  H71 UNL     1      26.878  25.392  34.854  1.00  0.00     0.174 HD
ENDBRANCH  23  28
BRANCH  26  31
HETATM   31  N10 UNL     1      29.011  27.872  39.026  1.00  0.00    -0.322 N 
ATOM     32 2H10 UNL     1      28.488  28.556  39.572  1.00  0.00     0.179 HD
ATOM     33 1H10 UNL     1      29.702  27.471  39.660  1.00  0.00     0.179 HD
ENDBRANCH  26  31
ENDBRANCH   3  21
TORSDOF 6
ENDMDL
MODEL 5
REMARK VINA RESULT: -5.336679897      2.574      6.523
REMARK  6 active torsions:
REMARK  status: ('A' for Active; 'I' for Inactive)
REMARK    1  A    between atoms: N2_5  and  C3_6 
REMARK    2  A    between atoms: C3_6  and  C4_7 
REMARK    3  A    between atoms: N4_9  and  N5_11 
REMARK       I    between atoms: N5_11  and  C5_13 
REMARK    4  A    between atoms: C5_13  and  C6_15 
REMARK    5  A    between atoms: C7_18  and  N7_19 
REMARK    6  A    between atoms: N9_24  and  N10_25 
ROOT
HETATM    1  N5  UNL     1      28.693  30.871  40.629  1.00  0.00    -0.262 N 
ATOM      2  H5  UNL     1      29.406  30.147  40.549  1.00  0.00     0.190 HD
HETATM    3  C5  UNL     1      28.102  31.414  39.470  1.00  0.00     0.308 C 
HETATM    4  O1  UNL     1      27.224  32.306  39.546  1.00  0.00    -0.262 OA
ENDROOT
BRANCH   1   5
HETATM    5  N4  UNL     1      28.302  31.323  41.875  1.00  0.00    -0.287 N 
HETATM    6  C4  UNL     1      29.172  31.820  42.678  1.00  0.00     0.127 C 
HETATM    7  N3  UNL     1      28.768  32.295  43.952  1.00  0.00    -0.084 NA
ATOM      8  H4  UNL     1      27.324  31.261  42.157  1.00  0.00     0.188 HD
BRANCH   6   9
HETATM    9  C3  UNL     1      30.598  31.917  42.284  1.00  0.00     0.228 C 
BRANCH   9  10
HETATM   10  N2  UNL     1      30.803  33.279  41.767  1.00  0.00    -0.235 N 
HETATM   11  N1  UNL     1      30.687  34.253  42.662  1.00  0.00    -0.293 N 
HETATM   12  C2  UNL     1      30.849  35.536  42.351  1.00  0.00     0.090 A 
ATOM     13  H1  UNL     1      30.464  34.007  43.627  1.00  0.00     0.187 HD
HETATM   14  C1  UNL     1      30.701  36.557  43.404  1.00  0.00     0.076 C 
HETATM   15  C9  UNL     1      31.150  35.841  41.042  1.00  0.00     0.273 A 
HETATM   16  N11 UNL     1      31.267  34.848  40.143  1.00  0.00    -0.273 N 
HETATM   17  O3  UNL     1      31.313  37.041  40.697  1.00  0.00    -0.266 OA
HETATM   18  C8  UNL     1      31.093  33.561  40.507  1.00  0.00     0.344 A 
ATOM     19  H11 UNL     1      31.490  35.071  39.173  1.00  0.00     0.173 HD
HETATM   20  O2  UNL     1      31.199  32.623  39.676  1.00  0.00    -0.245 OA
ENDBRANCH   9  10
ENDBRANCH   6   9
ENDBRANCH   1   5
BRANCH   3  21
HETATM   21  C6  UNL     1      28.509  30.945  38.154  1.00  0.00     0.229 A 
HETATM   22  N6  UNL     1      28.514  29.658  37.732  1.00  0.00    -0.167 N 
HETATM   23  C7  UNL     1      28.958  29.686  36.465  1.00  0.00     0.694 A 
ATOM     24  H6  UNL     1      28.238  28.836  38.267  1.00  0.00     0.186 HD
HETATM   25  N8  UNL     1      29.212  30.963  36.140  1.00  0.00    -0.110 N 
HETATM   26  N9  UNL     1      28.942  31.751  37.165  1.00  0.00    -0.166 N 
ATOM     27  H8  UNL     1      29.563  31.279  35.236  1.00  0.00     0.208 HD
BRANCH  23  28
HETATM   28  N7  UNL     1      29.087  28.612  35.755  1.00  0.00    -0.233 N 
ATOM     29  H72 UNL     1      28.653  28.365  34.865  1.00  0.00     0.174 HD
ATOM     30  H71 UNL     1      29.688  27.839  36.040  1.00  0.00     0.174 HD
ENDBRANCH  23  28
BRANCH  26  31
HETATM   31  N10 UNL     1      29.084  33.148  37.198  1.00  0.00    -0.322 N 
ATOM     32 2H10 UNL     1      29.819  33.668  37.677  1.00  0.00     0.179 HD
ATOM     33 1H10 UNL     1      28.485  33.845  36.756  1.00  0.00     0.179 HD
ENDBRANCH  26  31
ENDBRANCH   3  21
TORSDOF 6
ENDMDL
