MODEL 1
REMARK VINA RESULT: -5.757516435      0.000      0.000
REMARK  6 active torsions:
REMARK  status: ('A' for Active; 'I' for Inactive)
REMARK    1  A    between atoms: N5_12  and  S1_13 
REMARK    2  A    between atoms: S1_13  and  C6_14 
REMARK    3  A    between atoms: C7_15  and  N6_16 
REMARK    4  A    between atoms: N6_16  and  N7_18 
REMARK    5  A    between atoms: N7_18  and  O1_20 
REMARK    6  A    between atoms: N9_26  and  N10_27 
ROOT
HETATM    1  S1  UNL     1      28.127  33.403  39.754  1.00  0.00     0.024 SA
ENDROOT
BRANCH   1   2
HETATM    2  N5  UNL     1      28.677  31.926  39.069  1.00  0.00    -0.203 N 
HETATM    3  C5  UNL     1      28.736  30.751  39.849  1.00  0.00     0.211 C 
HETATM    4  N3  UNL     1      28.657  29.458  39.550  1.00  0.00    -0.304 N 
HETATM    5  N4  UNL     1      28.929  31.007  41.213  1.00  0.00    -0.062 NA
HETATM    6  C4  UNL     1      28.472  28.748  38.334  1.00  0.00     0.192 C 
ATOM      7  H3  UNL     1      28.748  28.849  40.363  1.00  0.00     0.171 HD
HETATM    8  N1  UNL     1      28.876  28.981  37.137  1.00  0.00    -0.338 N 
HETATM    9  N2  UNL     1      27.706  27.556  38.413  1.00  0.00    -0.063 NA
HETATM   10  C2  UNL     1      29.617  29.888  36.333  1.00  0.00     0.102 C 
ATOM     11  H1  UNL     1      28.535  28.230  36.536  1.00  0.00     0.164 HD
HETATM   12  C1  UNL     1      29.088  29.736  34.896  1.00  0.00     0.062 C 
HETATM   13  C3  UNL     1      31.097  29.525  36.278  1.00  0.00     0.062 C 
HETATM   14  N11 UNL     1      29.491  31.276  36.643  1.00  0.00    -0.316 N 
HETATM   15  C9  UNL     1      29.023  32.138  37.671  1.00  0.00     0.337 C 
ATOM     16  H11 UNL     1      29.860  31.833  35.872  1.00  0.00     0.166 HD
HETATM   17  O3  UNL     1      28.873  33.331  37.302  1.00  0.00    -0.246 OA
ENDBRANCH   1   2
BRANCH   1  18
HETATM   18  C6  UNL     1      29.261  34.447  40.570  1.00  0.00     0.165 A 
HETATM   19  C7  UNL     1      29.266  34.740  41.947  1.00  0.00     0.158 A 
HETATM   20  C8  UNL     1      30.355  35.529  42.234  1.00  0.00     0.292 A 
HETATM   21  O2  UNL     1      30.707  36.002  43.359  1.00  0.00    -0.264 OA
HETATM   22  N8  UNL     1      30.977  35.698  41.068  1.00  0.00    -0.242 N 
HETATM   23  N9  UNL     1      30.337  35.059  40.073  1.00  0.00    -0.190 N 
ATOM     24  H8  UNL     1      31.830  36.244  40.946  1.00  0.00     0.192 HD
BRANCH  19  25
HETATM   25  N6  UNL     1      28.312  34.295  42.882  1.00  0.00    -0.274 N 
ATOM     26  H6  UNL     1      27.619  34.954  43.238  1.00  0.00     0.189 HD
BRANCH  25  27
HETATM   27  N7  UNL     1      28.289  32.984  43.330  1.00  0.00    -0.209 N 
ATOM     28  H7  UNL     1      27.421  32.449  43.364  1.00  0.00     0.215 HD
BRANCH  27  29
HETATM   29  O1  UNL     1      29.375  32.485  43.691  1.00  0.00    -0.274 OA
ATOM     30  H1  UNL     1      29.336  31.712  44.241  1.00  0.00     0.246 HD
ENDBRANCH  27  29
ENDBRANCH  25  27
ENDBRANCH  19  25
BRANCH  23  31
HETATM   31  N10 UNL     1      30.878  35.092  38.787  1.00  0.00    -0.323 N 
ATOM     32 2H10 UNL     1      30.367  35.572  38.047  1.00  0.00     0.179 HD
ATOM     33 1H10 UNL     1      31.757  34.738  38.410  1.00  0.00     0.179 HD
ENDBRANCH  23  31
ENDBRANCH   1  18
TORSDOF 6
ENDMDL
MODEL 2
REMARK VINA RESULT: -5.708630015      2.333      6.088
REMARK  6 active torsions:
REMARK  status: ('A' for Active; 'I' for Inactive)
REMARK    1  A    between atoms: N5_12  and  S1_13 
REMARK    2  A    between atoms: S1_13  and  C6_14 
REMARK    3  A    between atoms: C7_15  and  N6_16 
REMARK    4  A    between atoms: N6_16  and  N7_18 
REMARK    5  A    between atoms: N7_18  and  O1_20 
REMARK    6  A    between atoms: N9_26  and  N10_27 
ROOT
HETATM    1  S1  UNL     1      29.202  32.254  37.700  1.00  0.00     0.024 SA
ENDROOT
BRANCH   1   2
HETATM    2  N5  UNL     1      29.493  32.859  39.282  1.00  0.00    -0.203 N 
HETATM    3  C5  UNL     1      28.447  32.935  40.226  1.00  0.00     0.211 C 
HETATM    4  N3  UNL     1      28.417  32.898  41.554  1.00  0.00    -0.304 N 
HETATM    5  N4  UNL     1      27.185  33.093  39.635  1.00  0.00    -0.062 NA
HETATM    6  C4  UNL     1      29.423  32.758  42.548  1.00  0.00     0.192 C 
ATOM      7  H3  UNL     1      27.477  32.990  41.940  1.00  0.00     0.171 HD
HETATM    8  N1  UNL     1      30.634  33.180  42.605  1.00  0.00    -0.338 N 
HETATM    9  N2  UNL     1      29.060  32.024  43.708  1.00  0.00    -0.063 NA
HETATM   10  C2  UNL     1      31.628  33.912  41.901  1.00  0.00     0.102 C 
ATOM     11  H1  UNL     1      31.035  32.872  43.491  1.00  0.00     0.164 HD
HETATM   12  C1  UNL     1      32.989  33.416  42.420  1.00  0.00     0.062 C 
HETATM   13  C3  UNL     1      31.572  35.402  42.219  1.00  0.00     0.062 C 
HETATM   14  N11 UNL     1      31.672  33.741  40.484  1.00  0.00    -0.316 N 
HETATM   15  C9  UNL     1      30.896  33.227  39.411  1.00  0.00     0.337 C 
ATOM     16  H11 UNL     1      32.553  34.109  40.124  1.00  0.00     0.166 HD
HETATM   17  O3  UNL     1      31.551  33.052  38.351  1.00  0.00    -0.246 OA
ENDBRANCH   1   2
BRANCH   1  18
HETATM   18  C6  UNL     1      28.966  30.543  37.464  1.00  0.00     0.165 A 
HETATM   19  C7  UNL     1      28.591  29.619  38.459  1.00  0.00     0.158 A 
HETATM   20  C8  UNL     1      28.421  28.382  37.882  1.00  0.00     0.292 A 
HETATM   21  O2  UNL     1      28.086  27.294  38.444  1.00  0.00    -0.264 OA
HETATM   22  N8  UNL     1      28.685  28.565  36.589  1.00  0.00    -0.242 N 
HETATM   23  N9  UNL     1      29.008  29.844  36.329  1.00  0.00    -0.190 N 
ATOM     24  H8  UNL     1      28.647  27.828  35.885  1.00  0.00     0.192 HD
BRANCH  19  25
HETATM   25  N6  UNL     1      28.414  29.914  39.824  1.00  0.00    -0.274 N 
ATOM     26  H6  UNL     1      29.221  30.198  40.380  1.00  0.00     0.189 HD
BRANCH  25  27
HETATM   27  N7  UNL     1      27.172  29.830  40.432  1.00  0.00    -0.209 N 
ATOM     28  H7  UNL     1      26.377  29.403  39.957  1.00  0.00     0.215 HD
BRANCH  27  29
HETATM   29  O1  UNL     1      27.067  30.296  41.585  1.00  0.00    -0.274 OA
ATOM     30  H1  UNL     1      26.331  30.002  42.108  1.00  0.00     0.246 HD
ENDBRANCH  27  29
ENDBRANCH  25  27
ENDBRANCH  19  25
BRANCH  23  31
HETATM   31  N10 UNL     1      29.271  30.224  35.012  1.00  0.00    -0.323 N 
ATOM     32 2H10 UNL     1      28.670  29.875  34.266  1.00  0.00     0.179 HD
ATOM     33 1H10 UNL     1      29.970  30.851  34.612  1.00  0.00     0.179 HD
ENDBRANCH  23  31
ENDBRANCH   1  18
TORSDOF 6
ENDMDL
MODEL 3
REMARK VINA RESULT: -5.690640892      1.354      2.638
REMARK  6 active torsions:
REMARK  status: ('A' for Active; 'I' for Inactive)
REMARK    1  A    between atoms: N5_12  and  S1_13 
REMARK    2  A    between atoms: S1_13  and  C6_14 
REMARK    3  A    between atoms: C7_15  and  N6_16 
REMARK    4  A    between atoms: N6_16  and  N7_18 
REMARK    5  A    between atoms: N7_18  and  O1_20 
REMARK    6  A    between atoms: N9_26  and  N10_27 
ROOT
HETATM    1  S1  UNL     1      27.998  32.977  39.738  1.00  0.00     0.024 SA
ENDROOT
BRANCH   1   2
HETATM    2  N5  UNL     1      28.479  31.674  38.727  1.00  0.00    -0.203 N 
HETATM    3  C5  UNL     1      28.912  31.913  37.405  1.00  0.00     0.211 C 
HETATM    4  N3  UNL     1      29.734  31.262  36.587  1.00  0.00    -0.304 N 
HETATM    5  N4  UNL     1      28.349  33.067  36.843  1.00  0.00    -0.062 NA
HETATM    6  C4  UNL     1      30.506  30.078  36.721  1.00  0.00     0.192 C 
ATOM      7  H3  UNL     1      29.828  31.705  35.673  1.00  0.00     0.171 HD
HETATM    8  N1  UNL     1      30.284  28.977  37.344  1.00  0.00    -0.338 N 
HETATM    9  N2  UNL     1      31.761  30.069  36.057  1.00  0.00    -0.063 NA
HETATM   10  C2  UNL     1      29.345  28.290  38.159  1.00  0.00     0.102 C 
ATOM     11  H1  UNL     1      31.086  28.363  37.198  1.00  0.00     0.164 HD
HETATM   12  C1  UNL     1      30.142  27.251  38.968  1.00  0.00     0.062 C 
HETATM   13  C3  UNL     1      28.340  27.498  37.330  1.00  0.00     0.062 C 
HETATM   14  N11 UNL     1      28.638  29.068  39.124  1.00  0.00    -0.316 N 
HETATM   15  C9  UNL     1      28.355  30.421  39.457  1.00  0.00     0.337 C 
ATOM     16  H11 UNL     1      28.187  28.449  39.798  1.00  0.00     0.166 HD
HETATM   17  O3  UNL     1      27.907  30.572  40.623  1.00  0.00    -0.246 OA
ENDBRANCH   1   2
BRANCH   1  18
HETATM   18  C6  UNL     1      29.214  33.993  40.467  1.00  0.00     0.165 A 
HETATM   19  C7  UNL     1      29.355  34.250  41.844  1.00  0.00     0.158 A 
HETATM   20  C8  UNL     1      30.473  35.025  42.045  1.00  0.00     0.292 A 
HETATM   21  O2  UNL     1      30.935  35.466  43.142  1.00  0.00    -0.264 OA
HETATM   22  N8  UNL     1      30.979  35.222  40.829  1.00  0.00    -0.242 N 
HETATM   23  N9  UNL     1      30.241  34.613  39.884  1.00  0.00    -0.190 N 
ATOM     24  H8  UNL     1      31.821  35.766  40.638  1.00  0.00     0.192 HD
BRANCH  19  25
HETATM   25  N6  UNL     1      28.491  33.785  42.855  1.00  0.00    -0.274 N 
ATOM     26  H6  UNL     1      27.940  34.459  43.388  1.00  0.00     0.189 HD
BRANCH  25  27
HETATM   27  N7  UNL     1      28.370  32.436  43.145  1.00  0.00    -0.209 N 
ATOM     28  H7  UNL     1      27.626  31.870  42.737  1.00  0.00     0.215 HD
BRANCH  27  29
HETATM   29  O1  UNL     1      29.210  31.941  43.924  1.00  0.00    -0.274 OA
ATOM     30  H1  UNL     1      29.205  30.997  44.027  1.00  0.00     0.246 HD
ENDBRANCH  27  29
ENDBRANCH  25  27
ENDBRANCH  19  25
BRANCH  23  31
HETATM   31  N10 UNL     1      30.655  34.676  38.553  1.00  0.00    -0.323 N 
ATOM     32 2H10 UNL     1      30.417  35.498  37.998  1.00  0.00     0.179 HD
ATOM     33 1H10 UNL     1      31.216  34.041  37.984  1.00  0.00     0.179 HD
ENDBRANCH  23  31
ENDBRANCH   1  18
TORSDOF 6
ENDMDL
MODEL 4
REMARK VINA RESULT: -5.681608845      1.855      2.797
REMARK  6 active torsions:
REMARK  status: ('A' for Active; 'I' for Inactive)
REMARK    1  A    between atoms: N5_12  and  S1_13 
REMARK    2  A    between atoms: S1_13  and  C6_14 
REMARK    3  A    between atoms: C7_15  and  N6_16 
REMARK    4  A    between atoms: N6_16  and  N7_18 
REMARK    5  A    between atoms: N7_18  and  O1_20 
REMARK    6  A    between atoms: N9_26  and  N10_27 
ROOT
HETATM    1  S1  UNL     1      30.857  33.412  39.667  1.00  0.00     0.024 SA
ENDROOT
BRANCH   1   2
HETATM    2  N5  UNL     1      30.006  32.161  38.853  1.00  0.00    -0.203 N 
HETATM    3  C5  UNL     1      29.203  32.451  37.730  1.00  0.00     0.211 C 
HETATM    4  N3  UNL     1      28.830  31.739  36.671  1.00  0.00    -0.304 N 
HETATM    5  N4  UNL     1      28.687  33.754  37.746  1.00  0.00    -0.062 NA
HETATM    6  C4  UNL     1      29.099  30.410  36.246  1.00  0.00     0.192 C 
ATOM      7  H3  UNL     1      28.225  32.253  36.031  1.00  0.00     0.171 HD
HETATM    8  N1  UNL     1      29.258  29.318  36.902  1.00  0.00    -0.338 N 
HETATM    9  N2  UNL     1      29.220  30.212  34.846  1.00  0.00    -0.063 NA
HETATM   10  C2  UNL     1      29.282  28.757  38.207  1.00  0.00     0.102 C 
ATOM     11  H1  UNL     1      29.434  28.569  36.232  1.00  0.00     0.164 HD
HETATM   12  C1  UNL     1      30.150  27.488  38.124  1.00  0.00     0.062 C 
HETATM   13  C3  UNL     1      27.901  28.295  38.656  1.00  0.00     0.062 C 
HETATM   14  N11 UNL     1      29.864  29.552  39.240  1.00  0.00    -0.316 N 
HETATM   15  C9  UNL     1      30.274  30.887  39.506  1.00  0.00     0.337 C 
ATOM     16  H11 UNL     1      30.046  28.970  40.058  1.00  0.00     0.166 HD
HETATM   17  O3  UNL     1      31.024  30.996  40.510  1.00  0.00    -0.246 OA
ENDBRANCH   1   2
BRANCH   1  18
HETATM   18  C6  UNL     1      30.025  34.390  40.847  1.00  0.00     0.165 A 
HETATM   19  C7  UNL     1      29.038  33.938  41.744  1.00  0.00     0.158 A 
HETATM   20  C8  UNL     1      28.676  34.972  42.574  1.00  0.00     0.292 A 
HETATM   21  O2  UNL     1      27.820  34.964  43.511  1.00  0.00    -0.264 OA
HETATM   22  N8  UNL     1      29.423  36.005  42.185  1.00  0.00    -0.242 N 
HETATM   23  N9  UNL     1      30.228  35.671  41.161  1.00  0.00    -0.190 N 
ATOM     24  H8  UNL     1      29.388  36.932  42.609  1.00  0.00     0.192 HD
BRANCH  19  25
HETATM   25  N6  UNL     1      28.509  32.633  41.786  1.00  0.00    -0.274 N 
ATOM     26  H6  UNL     1      27.772  32.374  41.129  1.00  0.00     0.189 HD
BRANCH  25  27
HETATM   27  N7  UNL     1      28.962  31.693  42.697  1.00  0.00    -0.209 N 
ATOM     28  H7  UNL     1      29.216  30.749  42.404  1.00  0.00     0.215 HD
BRANCH  27  29
HETATM   29  O1  UNL     1      29.049  32.049  43.890  1.00  0.00    -0.274 OA
ATOM     30  H1  UNL     1      28.656  31.482  44.543  1.00  0.00     0.246 HD
ENDBRANCH  27  29
ENDBRANCH  25  27
ENDBRANCH  19  25
BRANCH  23  31
HETATM   31  N10 UNL     1      31.116  36.623  40.656  1.00  0.00    -0.323 N 
ATOM     32 2H10 UNL     1      31.699  36.381  39.855  1.00  0.00     0.179 HD
ATOM     33 1H10 UNL     1      31.294  37.592  40.919  1.00  0.00     0.179 HD
ENDBRANCH  23  31
ENDBRANCH   1  18
TORSDOF 6
ENDMDL
MODEL 5
REMARK VINA RESULT: -5.625811039      3.757      7.772
REMARK  6 active torsions:
REMARK  status: ('A' for Active; 'I' for Inactive)
REMARK    1  A    between atoms: N5_12  and  S1_13 
REMARK    2  A    between atoms: S1_13  and  C6_14 
REMARK    3  A    between atoms: C7_15  and  N6_16 
REMARK    4  A    between atoms: N6_16  and  N7_18 
REMARK    5  A    between atoms: N7_18  and  O1_20 
REMARK    6  A    between atoms: N9_26  and  N10_27 
ROOT
HETATM    1  S1  UNL     1      29.886  28.317  36.816  1.00  0.00     0.024 SA
ENDROOT
BRANCH   1   2
HETATM    2  N5  UNL     1      29.009  29.457  37.756  1.00  0.00    -0.203 N 
HETATM    3  C5  UNL     1      28.134  29.026  38.775  1.00  0.00     0.211 C 
HETATM    4  N3  UNL     1      27.710  29.584  39.905  1.00  0.00    -0.304 N 
HETATM    5  N4  UNL     1      27.598  27.753  38.537  1.00  0.00    -0.062 NA
HETATM    6  C4  UNL     1      27.976  30.828  40.537  1.00  0.00     0.192 C 
ATOM      7  H3  UNL     1      27.058  28.997  40.426  1.00  0.00     0.171 HD
HETATM    8  N1  UNL     1      28.193  32.001  40.060  1.00  0.00    -0.338 N 
HETATM    9  N2  UNL     1      28.014  30.816  41.955  1.00  0.00    -0.063 NA
HETATM   10  C2  UNL     1      28.306  32.747  38.856  1.00  0.00     0.102 C 
ATOM     11  H1  UNL     1      28.341  32.639  40.843  1.00  0.00     0.164 HD
HETATM   12  C1  UNL     1      29.188  33.966  39.175  1.00  0.00     0.062 C 
HETATM   13  C3  UNL     1      26.963  33.305  38.401  1.00  0.00     0.062 C 
HETATM   14  N11 UNL     1      28.936  32.096  37.752  1.00  0.00    -0.316 N 
HETATM   15  C9  UNL     1      29.338  30.805  37.315  1.00  0.00     0.337 C 
ATOM     16  H11 UNL     1      29.177  32.788  37.041  1.00  0.00     0.166 HD
HETATM   17  O3  UNL     1      30.146  30.825  36.351  1.00  0.00    -0.246 OA
ENDBRANCH   1   2
BRANCH   1  18
HETATM   18  C6  UNL     1      29.211  27.737  35.316  1.00  0.00     0.165 A 
HETATM   19  C7  UNL     1      28.521  26.522  35.139  1.00  0.00     0.158 A 
HETATM   20  C8  UNL     1      28.065  26.450  33.844  1.00  0.00     0.292 A 
HETATM   21  O2  UNL     1      27.403  25.514  33.297  1.00  0.00    -0.264 OA
HETATM   22  N8  UNL     1      28.469  27.582  33.271  1.00  0.00    -0.242 N 
HETATM   23  N9  UNL     1      29.148  28.356  34.136  1.00  0.00    -0.190 N 
ATOM     24  H8  UNL     1      28.285  27.832  32.299  1.00  0.00     0.192 HD
BRANCH  19  25
HETATM   25  N6  UNL     1      28.327  25.541  36.130  1.00  0.00    -0.274 N 
ATOM     26  H6  UNL     1      28.194  25.831  37.099  1.00  0.00     0.189 HD
BRANCH  25  27
HETATM   27  N7  UNL     1      28.311  24.190  35.822  1.00  0.00    -0.209 N 
ATOM     28  H7  UNL     1      28.024  23.859  34.901  1.00  0.00     0.215 HD
BRANCH  27  29
HETATM   29  O1  UNL     1      28.664  23.395  36.718  1.00  0.00    -0.274 OA
ATOM     30  H1  UNL     1      28.496  23.652  37.617  1.00  0.00     0.246 HD
ENDBRANCH  27  29
ENDBRANCH  25  27
ENDBRANCH  19  25
BRANCH  23  31
HETATM   31  N10 UNL     1      29.606  29.605  33.715  1.00  0.00    -0.323 N 
ATOM     32 2H10 UNL     1      29.254  29.994  32.841  1.00  0.00     0.179 HD
ATOM     33 1H10 UNL     1      30.243  30.276  34.146  1.00  0.00     0.179 HD
ENDBRANCH  23  31
ENDBRANCH   1  18
TORSDOF 6
ENDMDL
