MODEL 1
REMARK VINA RESULT: -6.313758682      0.000      0.000
REMARK  10 active torsions:
REMARK  status: ('A' for Active; 'I' for Inactive)
REMARK    1  A    between atoms: C3_5  and  N2_6 
REMARK    2  A    between atoms: C5_13  and  C6_14 
REMARK    3  A    between atoms: C6_14  and  O2_15 
REMARK    4  A    between atoms: O2_15  and  C7_16 
REMARK    5  A    between atoms: C7_16  and  N4_17 
REMARK    6  A    between atoms: N5_19  and  N6_21 
REMARK    7  A    between atoms: N8_23  and  N9_24 
REMARK    8  A    between atoms: N10_27  and  O3_28 
REMARK    9  A    between atoms: N11_32  and  N12_34 
REMARK   10  A    between atoms: N12_34  and  O5_36 
ROOT
HETATM    1  C7  UNL     1      28.705  34.206  40.322  1.00  0.00     0.256 C 
HETATM    2  N11 UNL     1      29.693  34.121  39.565  1.00  0.00    -0.244 N 
ATOM      3  H11 UNL     1      29.735  33.248  39.040  1.00  0.00     0.192 HD
ENDROOT
BRANCH   1   4
HETATM    4  O2  UNL     1      28.525  35.325  41.087  1.00  0.00    -0.315 OA
BRANCH   4   5
HETATM    5  C6  UNL     1      28.655  35.373  42.486  1.00  0.00     0.225 C 
BRANCH   5   6
HETATM    6  C5  UNL     1      30.113  35.297  42.864  1.00  0.00     0.057 A 
HETATM    7  C2  UNL     1      30.815  36.449  43.111  1.00  0.00     0.036 A 
HETATM    8  C1  UNL     1      30.153  37.764  43.008  1.00  0.00     0.069 C 
HETATM    9  N1  UNL     1      32.127  36.337  43.451  1.00  0.00    -0.195 N 
HETATM   10  C3  UNL     1      32.764  35.161  43.555  1.00  0.00     0.678 A 
ATOM     11  H1  UNL     1      32.654  37.190  43.636  1.00  0.00     0.184 HD
HETATM   12  N3  UNL     1      32.080  34.034  43.314  1.00  0.00    -0.156 N 
HETATM   13  C4  UNL     1      30.772  34.097  42.973  1.00  0.00     0.270 A 
ATOM     14  H3  UNL     1      32.546  33.129  43.387  1.00  0.00     0.187 HD
HETATM   15  O1  UNL     1      30.139  33.045  42.750  1.00  0.00    -0.267 OA
BRANCH  10  16
HETATM   16  N2  UNL     1      34.025  35.114  43.884  1.00  0.00    -0.234 N 
ATOM     17  H22 UNL     1      34.622  34.362  43.540  1.00  0.00     0.174 HD
ATOM     18  H21 UNL     1      34.432  35.827  44.490  1.00  0.00     0.174 HD
ENDBRANCH  10  16
ENDBRANCH   5   6
ENDBRANCH   4   5
ENDBRANCH   1   4
BRANCH   1  19
HETATM   19  N4  UNL     1      27.785  33.100  40.352  1.00  0.00    -0.248 N 
HETATM   20  N5  UNL     1      26.873  32.935  39.513  1.00  0.00    -0.216 N 
ATOM     21  H5  UNL     1      26.269  32.120  39.615  1.00  0.00     0.210 HD
ATOM     22  H4  UNL     1      27.882  32.413  41.099  1.00  0.00     0.192 HD
BRANCH  20  23
HETATM   23  N6  UNL     1      26.633  33.800  38.443  1.00  0.00    -0.110 N 
HETATM   24  N7  UNL     1      27.502  33.974  37.383  1.00  0.00     0.024 NA
HETATM   25  N8  UNL     1      26.867  34.720  36.416  1.00  0.00     0.002 NA
HETATM   26  N10 UNL     1      25.592  35.012  36.844  1.00  0.00    -0.089 N 
HETATM   27  C8  UNL     1      25.518  34.643  38.213  1.00  0.00     0.400 C 
HETATM   28  O4  UNL     1      24.664  34.978  39.043  1.00  0.00    -0.240 OA
BRANCH  25  29
HETATM   29  N9  UNL     1      27.632  35.857  36.137  1.00  0.00    -0.327 NA
ATOM     30  H92 UNL     1      27.148  36.535  35.549  1.00  0.00     0.174 HD
ATOM     31  H91 UNL     1      27.895  36.307  37.014  1.00  0.00     0.174 HD
ENDBRANCH  25  29
BRANCH  26  32
HETATM   32  O3  UNL     1      24.627  35.547  36.080  1.00  0.00    -0.265 OA
ATOM     33  H3  UNL     1      23.771  35.814  36.392  1.00  0.00     0.246 HD
ENDBRANCH  26  32
ENDBRANCH  20  23
ENDBRANCH   1  19
BRANCH   2  34
HETATM   34  N12 UNL     1      30.711  34.956  39.307  1.00  0.00    -0.207 N 
ATOM     35  H12 UNL     1      31.553  34.541  38.911  1.00  0.00     0.215 HD
BRANCH  34  36
HETATM   36  O5  UNL     1      30.732  36.186  39.503  1.00  0.00    -0.274 OA
ATOM     37  H5  UNL     1      31.058  36.633  40.277  1.00  0.00     0.246 HD
ENDBRANCH  34  36
ENDBRANCH   2  34
TORSDOF 10
ENDMDL
MODEL 2
REMARK VINA RESULT: -6.188376994      4.371      6.143
REMARK  10 active torsions:
REMARK  status: ('A' for Active; 'I' for Inactive)
REMARK    1  A    between atoms: C3_5  and  N2_6 
REMARK    2  A    between atoms: C5_13  and  C6_14 
REMARK    3  A    between atoms: C6_14  and  O2_15 
REMARK    4  A    between atoms: O2_15  and  C7_16 
REMARK    5  A    between atoms: C7_16  and  N4_17 
REMARK    6  A    between atoms: N5_19  and  N6_21 
REMARK    7  A    between atoms: N8_23  and  N9_24 
REMARK    8  A    between atoms: N10_27  and  O3_28 
REMARK    9  A    between atoms: N11_32  and  N12_34 
REMARK   10  A    between atoms: N12_34  and  O5_36 
ROOT
HETATM    1  C7  UNL     1      29.623  32.013  40.451  1.00  0.00     0.256 C 
HETATM    2  N11 UNL     1      29.440  32.374  41.632  1.00  0.00    -0.244 N 
ATOM      3  H11 UNL     1      29.954  33.217  41.888  1.00  0.00     0.192 HD
ENDROOT
BRANCH   1   4
HETATM    4  O2  UNL     1      28.996  30.895  39.974  1.00  0.00    -0.315 OA
BRANCH   4   5
HETATM    5  C6  UNL     1      29.167  30.366  38.683  1.00  0.00     0.225 C 
BRANCH   5   6
HETATM    6  C5  UNL     1      29.920  29.062  38.763  1.00  0.00     0.057 A 
HETATM    7  C2  UNL     1      29.232  27.876  38.779  1.00  0.00     0.036 A 
HETATM    8  C1  UNL     1      27.757  27.867  38.718  1.00  0.00     0.069 C 
HETATM    9  N1  UNL     1      29.949  26.722  38.850  1.00  0.00    -0.195 N 
HETATM   10  C3  UNL     1      31.288  26.690  38.906  1.00  0.00     0.678 A 
ATOM     11  H1  UNL     1      29.442  25.838  38.861  1.00  0.00     0.184 HD
HETATM   12  N3  UNL     1      31.963  27.847  38.892  1.00  0.00    -0.156 N 
HETATM   13  C4  UNL     1      31.292  29.020  38.820  1.00  0.00     0.270 A 
ATOM     14  H3  UNL     1      32.983  27.844  38.934  1.00  0.00     0.187 HD
HETATM   15  O1  UNL     1      31.924  30.095  38.807  1.00  0.00    -0.267 OA
BRANCH  10  16
HETATM   16  N2  UNL     1      31.924  25.553  38.974  1.00  0.00    -0.234 N 
ATOM     17  H22 UNL     1      31.453  24.681  38.731  1.00  0.00     0.174 HD
ATOM     18  H21 UNL     1      32.899  25.518  39.270  1.00  0.00     0.174 HD
ENDBRANCH  10  16
ENDBRANCH   5   6
ENDBRANCH   4   5
ENDBRANCH   1   4
BRANCH   1  19
HETATM   19  N4  UNL     1      30.502  32.808  39.634  1.00  0.00    -0.248 N 
HETATM   20  N5  UNL     1      30.101  33.667  38.820  1.00  0.00    -0.216 N 
ATOM     21  H5  UNL     1      30.799  34.183  38.284  1.00  0.00     0.210 HD
ATOM     22  H4  UNL     1      31.507  32.662  39.725  1.00  0.00     0.192 HD
BRANCH  20  23
HETATM   23  N6  UNL     1      28.754  33.965  38.601  1.00  0.00    -0.110 N 
HETATM   24  N7  UNL     1      28.130  33.854  37.374  1.00  0.00     0.024 NA
HETATM   25  N8  UNL     1      26.775  34.013  37.556  1.00  0.00     0.002 NA
HETATM   26  N10 UNL     1      26.526  34.211  38.896  1.00  0.00    -0.089 N 
HETATM   27  C8  UNL     1      27.781  34.420  39.525  1.00  0.00     0.400 C 
HETATM   28  O4  UNL     1      27.996  34.897  40.647  1.00  0.00    -0.240 OA
BRANCH  25  29
HETATM   29  N9  UNL     1      26.323  35.061  36.748  1.00  0.00    -0.327 NA
ATOM     30  H92 UNL     1      25.752  34.748  35.963  1.00  0.00     0.174 HD
ATOM     31  H91 UNL     1      25.777  35.710  37.315  1.00  0.00     0.174 HD
ENDBRANCH  25  29
BRANCH  26  32
HETATM   32  O3  UNL     1      25.310  34.202  39.462  1.00  0.00    -0.265 OA
ATOM     33  H3  UNL     1      25.144  34.239  40.396  1.00  0.00     0.246 HD
ENDBRANCH  26  32
ENDBRANCH  20  23
ENDBRANCH   1  19
BRANCH   2  34
HETATM   34  N12 UNL     1      28.699  31.868  42.629  1.00  0.00    -0.207 N 
ATOM     35  H12 UNL     1      27.783  31.500  42.376  1.00  0.00     0.215 HD
BRANCH  34  36
HETATM   36  O5  UNL     1      29.016  31.802  43.832  1.00  0.00    -0.274 OA
ATOM     37  H5  UNL     1      28.884  31.063  44.415  1.00  0.00     0.246 HD
ENDBRANCH  34  36
ENDBRANCH   2  34
TORSDOF 10
ENDMDL
MODEL 3
REMARK VINA RESULT: -6.144992796      3.534      5.117
REMARK  10 active torsions:
REMARK  status: ('A' for Active; 'I' for Inactive)
REMARK    1  A    between atoms: C3_5  and  N2_6 
REMARK    2  A    between atoms: C5_13  and  C6_14 
REMARK    3  A    between atoms: C6_14  and  O2_15 
REMARK    4  A    between atoms: O2_15  and  C7_16 
REMARK    5  A    between atoms: C7_16  and  N4_17 
REMARK    6  A    between atoms: N5_19  and  N6_21 
REMARK    7  A    between atoms: N8_23  and  N9_24 
REMARK    8  A    between atoms: N10_27  and  O3_28 
REMARK    9  A    between atoms: N11_32  and  N12_34 
REMARK   10  A    between atoms: N12_34  and  O5_36 
ROOT
HETATM    1  C7  UNL     1      29.949  31.285  36.780  1.00  0.00     0.256 C 
HETATM    2  N11 UNL     1      29.875  31.057  35.556  1.00  0.00    -0.244 N 
ATOM      3  H11 UNL     1      30.467  31.664  34.988  1.00  0.00     0.192 HD
ENDROOT
BRANCH   1   4
HETATM    4  O2  UNL     1      29.206  30.545  37.659  1.00  0.00    -0.315 OA
BRANCH   4   5
HETATM    5  C6  UNL     1      29.725  29.846  38.762  1.00  0.00     0.225 C 
BRANCH   5   6
HETATM    6  C5  UNL     1      29.438  30.610  40.030  1.00  0.00     0.057 A 
HETATM    7  C2  UNL     1      28.192  30.548  40.597  1.00  0.00     0.036 A 
HETATM    8  C1  UNL     1      27.127  29.737  39.974  1.00  0.00     0.069 C 
HETATM    9  N1  UNL     1      27.975  31.250  41.742  1.00  0.00    -0.195 N 
HETATM   10  C3  UNL     1      28.916  31.996  42.337  1.00  0.00     0.678 A 
ATOM     11  H1  UNL     1      27.049  31.206  42.168  1.00  0.00     0.184 HD
HETATM   12  N3  UNL     1      30.135  32.059  41.784  1.00  0.00    -0.156 N 
HETATM   13  C4  UNL     1      30.397  31.376  40.646  1.00  0.00     0.270 A 
ATOM     14  H3  UNL     1      30.865  32.622  42.222  1.00  0.00     0.187 HD
HETATM   15  O1  UNL     1      31.533  31.437  40.135  1.00  0.00    -0.267 OA
BRANCH  10  16
HETATM   16  N2  UNL     1      28.651  32.650  43.435  1.00  0.00    -0.234 N 
ATOM     17  H22 UNL     1      28.553  32.155  44.321  1.00  0.00     0.174 HD
ATOM     18  H21 UNL     1      28.538  33.663  43.422  1.00  0.00     0.174 HD
ENDBRANCH  10  16
ENDBRANCH   5   6
ENDBRANCH   4   5
ENDBRANCH   1   4
BRANCH   1  19
HETATM   19  N4  UNL     1      30.829  32.336  37.216  1.00  0.00    -0.248 N 
HETATM   20  N5  UNL     1      30.431  33.407  37.722  1.00  0.00    -0.216 N 
ATOM     21  H5  UNL     1      31.130  34.095  38.002  1.00  0.00     0.210 HD
ATOM     22  H4  UNL     1      31.834  32.200  37.105  1.00  0.00     0.192 HD
BRANCH  20  23
HETATM   23  N6  UNL     1      29.085  33.718  37.929  1.00  0.00    -0.110 N 
HETATM   24  N7  UNL     1      28.128  33.701  36.933  1.00  0.00     0.024 NA
HETATM   25  N8  UNL     1      26.889  33.843  37.515  1.00  0.00     0.002 NA
HETATM   26  N10 UNL     1      27.046  33.936  38.880  1.00  0.00    -0.089 N 
HETATM   27  C8  UNL     1      28.434  34.098  39.128  1.00  0.00     0.400 C 
HETATM   28  O4  UNL     1      28.976  34.488  40.170  1.00  0.00    -0.240 OA
BRANCH  25  29
HETATM   29  N9  UNL     1      26.243  34.949  36.954  1.00  0.00    -0.327 NA
ATOM     30  H92 UNL     1      25.228  34.850  36.922  1.00  0.00     0.174 HD
ATOM     31  H91 UNL     1      26.476  35.783  37.494  1.00  0.00     0.174 HD
ENDBRANCH  25  29
BRANCH  26  32
HETATM   32  O3  UNL     1      26.047  33.881  39.774  1.00  0.00    -0.265 OA
ATOM     33  H3  UNL     1      25.909  33.174  40.393  1.00  0.00     0.246 HD
ENDBRANCH  26  32
ENDBRANCH  20  23
ENDBRANCH   1  19
BRANCH   2  34
HETATM   34  N12 UNL     1      29.170  30.168  34.841  1.00  0.00    -0.207 N 
ATOM     35  H12 UNL     1      28.838  30.476  33.927  1.00  0.00     0.215 HD
BRANCH  34  36
HETATM   36  O5  UNL     1      28.878  29.004  35.179  1.00  0.00    -0.274 OA
ATOM     37  H5  UNL     1      29.414  28.228  35.063  1.00  0.00     0.246 HD
ENDBRANCH  34  36
ENDBRANCH   2  34
TORSDOF 10
ENDMDL
MODEL 4
REMARK VINA RESULT: -6.131640624      2.542      3.382
REMARK  10 active torsions:
REMARK  status: ('A' for Active; 'I' for Inactive)
REMARK    1  A    between atoms: C3_5  and  N2_6 
REMARK    2  A    between atoms: C5_13  and  C6_14 
REMARK    3  A    between atoms: C6_14  and  O2_15 
REMARK    4  A    between atoms: O2_15  and  C7_16 
REMARK    5  A    between atoms: C7_16  and  N4_17 
REMARK    6  A    between atoms: N5_19  and  N6_21 
REMARK    7  A    between atoms: N8_23  and  N9_24 
REMARK    8  A    between atoms: N10_27  and  O3_28 
REMARK    9  A    between atoms: N11_32  and  N12_34 
REMARK   10  A    between atoms: N12_34  and  O5_36 
ROOT
HETATM    1  C7  UNL     1      28.929  33.881  40.930  1.00  0.00     0.256 C 
HETATM    2  N11 UNL     1      28.337  33.910  42.028  1.00  0.00    -0.244 N 
ATOM      3  H11 UNL     1      27.880  33.031  42.272  1.00  0.00     0.192 HD
ENDROOT
BRANCH   1   4
HETATM    4  O2  UNL     1      29.584  34.994  40.478  1.00  0.00    -0.315 OA
BRANCH   4   5
HETATM    5  C6  UNL     1      30.975  35.185  40.527  1.00  0.00     0.225 C 
BRANCH   5   6
HETATM    6  C5  UNL     1      31.280  36.630  40.829  1.00  0.00     0.057 A 
HETATM    7  C2  UNL     1      31.684  37.468  39.821  1.00  0.00     0.036 A 
HETATM    8  C1  UNL     1      31.823  36.963  38.441  1.00  0.00     0.069 C 
HETATM    9  N1  UNL     1      31.947  38.765  40.135  1.00  0.00    -0.195 N 
HETATM   10  C3  UNL     1      31.833  39.261  41.375  1.00  0.00     0.678 A 
ATOM     11  H1  UNL     1      32.247  39.392  39.388  1.00  0.00     0.184 HD
HETATM   12  N3  UNL     1      31.439  38.444  42.362  1.00  0.00    -0.156 N 
HETATM   13  C4  UNL     1      31.165  37.146  42.097  1.00  0.00     0.270 A 
ATOM     14  H3  UNL     1      31.346  38.802  43.313  1.00  0.00     0.187 HD
HETATM   15  O1  UNL     1      30.798  36.390  43.018  1.00  0.00    -0.267 OA
BRANCH  10  16
HETATM   16  N2  UNL     1      32.099  40.514  41.618  1.00  0.00    -0.234 N 
ATOM     17  H22 UNL     1      32.979  40.927  41.305  1.00  0.00     0.174 HD
ATOM     18  H21 UNL     1      31.434  41.100  42.123  1.00  0.00     0.174 HD
ENDBRANCH  10  16
ENDBRANCH   5   6
ENDBRANCH   4   5
ENDBRANCH   1   4
BRANCH   1  19
HETATM   19  N4  UNL     1      28.894  32.654  40.180  1.00  0.00    -0.248 N 
HETATM   20  N5  UNL     1      28.091  32.435  39.248  1.00  0.00    -0.216 N 
ATOM     21  H5  UNL     1      28.141  31.534  38.773  1.00  0.00     0.210 HD
ATOM     22  H4  UNL     1      29.562  31.922  40.422  1.00  0.00     0.192 HD
BRANCH  20  23
HETATM   23  N6  UNL     1      27.128  33.351  38.818  1.00  0.00    -0.110 N 
HETATM   24  N7  UNL     1      26.030  33.725  39.569  1.00  0.00     0.024 NA
HETATM   25  N8  UNL     1      25.417  34.788  38.947  1.00  0.00     0.002 NA
HETATM   26  N10 UNL     1      26.124  35.107  37.808  1.00  0.00    -0.089 N 
HETATM   27  C8  UNL     1      27.059  34.061  37.594  1.00  0.00     0.400 C 
HETATM   28  O4  UNL     1      27.691  33.810  36.560  1.00  0.00    -0.240 OA
BRANCH  25  29
HETATM   29  N9  UNL     1      24.080  34.464  38.695  1.00  0.00    -0.327 NA
ATOM     30  H92 UNL     1      23.645  33.929  39.448  1.00  0.00     0.174 HD
ATOM     31  H91 UNL     1      23.548  35.323  38.550  1.00  0.00     0.174 HD
ENDBRANCH  25  29
BRANCH  26  32
HETATM   32  O3  UNL     1      25.933  36.209  37.068  1.00  0.00    -0.265 OA
ATOM     33  H3  UNL     1      26.392  37.032  37.190  1.00  0.00     0.246 HD
ENDBRANCH  26  32
ENDBRANCH  20  23
ENDBRANCH   1  19
BRANCH   2  34
HETATM   34  N12 UNL     1      28.183  34.873  42.949  1.00  0.00    -0.207 N 
ATOM     35  H12 UNL     1      28.262  34.588  43.925  1.00  0.00     0.215 HD
BRANCH  34  36
HETATM   36  O5  UNL     1      27.955  36.079  42.735  1.00  0.00    -0.274 OA
ATOM     37  H5  UNL     1      28.564  36.801  42.847  1.00  0.00     0.246 HD
ENDBRANCH  34  36
ENDBRANCH   2  34
TORSDOF 10
ENDMDL
MODEL 5
REMARK VINA RESULT: -6.128318730      4.086      6.588
REMARK  10 active torsions:
REMARK  status: ('A' for Active; 'I' for Inactive)
REMARK    1  A    between atoms: C3_5  and  N2_6 
REMARK    2  A    between atoms: C5_13  and  C6_14 
REMARK    3  A    between atoms: C6_14  and  O2_15 
REMARK    4  A    between atoms: O2_15  and  C7_16 
REMARK    5  A    between atoms: C7_16  and  N4_17 
REMARK    6  A    between atoms: N5_19  and  N6_21 
REMARK    7  A    between atoms: N8_23  and  N9_24 
REMARK    8  A    between atoms: N10_27  and  O3_28 
REMARK    9  A    between atoms: N11_32  and  N12_34 
REMARK   10  A    between atoms: N12_34  and  O5_36 
ROOT
HETATM    1  C7  UNL     1      28.594  32.918  38.421  1.00  0.00     0.256 C 
HETATM    2  N11 UNL     1      27.639  33.711  38.289  1.00  0.00    -0.244 N 
ATOM      3  H11 UNL     1      27.916  34.692  38.297  1.00  0.00     0.192 HD
ENDROOT
BRANCH   1   4
HETATM    4  O2  UNL     1      28.366  31.570  38.429  1.00  0.00    -0.315 OA
BRANCH   4   5
HETATM    5  C6  UNL     1      28.586  30.723  39.530  1.00  0.00     0.225 C 
BRANCH   5   6
HETATM    6  C5  UNL     1      29.583  29.655  39.159  1.00  0.00     0.057 A 
HETATM    7  C2  UNL     1      29.144  28.406  38.803  1.00  0.00     0.036 A 
HETATM    8  C1  UNL     1      27.701  28.099  38.779  1.00  0.00     0.069 C 
HETATM    9  N1  UNL     1      30.076  27.471  38.474  1.00  0.00    -0.195 N 
HETATM   10  C3  UNL     1      31.395  27.711  38.482  1.00  0.00     0.678 A 
ATOM     11  H1  UNL     1      29.755  26.541  38.207  1.00  0.00     0.184 HD
HETATM   12  N3  UNL     1      31.827  28.931  38.831  1.00  0.00    -0.156 N 
HETATM   13  C4  UNL     1      30.936  29.893  39.165  1.00  0.00     0.270 A 
ATOM     14  H3  UNL     1      32.827  29.134  38.845  1.00  0.00     0.187 HD
HETATM   15  O1  UNL     1      31.342  31.027  39.489  1.00  0.00    -0.267 OA
BRANCH  10  16
HETATM   16  N2  UNL     1      32.244  26.775  38.158  1.00  0.00    -0.234 N 
ATOM     17  H22 UNL     1      32.159  25.839  38.553  1.00  0.00     0.174 HD
ATOM     18  H21 UNL     1      33.004  26.965  37.504  1.00  0.00     0.174 HD
ENDBRANCH  10  16
ENDBRANCH   5   6
ENDBRANCH   4   5
ENDBRANCH   1   4
BRANCH   1  19
HETATM   19  N4  UNL     1      29.914  33.474  38.560  1.00  0.00    -0.248 N 
HETATM   20  N5  UNL     1      30.393  33.854  39.650  1.00  0.00    -0.216 N 
ATOM     21  H5  UNL     1      31.339  34.235  39.651  1.00  0.00     0.210 HD
ATOM     22  H4  UNL     1      30.490  33.563  37.723  1.00  0.00     0.192 HD
BRANCH  20  23
HETATM   23  N6  UNL     1      29.711  33.787  40.867  1.00  0.00    -0.110 N 
HETATM   24  N7  UNL     1      30.056  32.935  41.898  1.00  0.00     0.024 NA
HETATM   25  N8  UNL     1      29.323  33.278  43.011  1.00  0.00     0.002 NA
HETATM   26  N10 UNL     1      28.520  34.353  42.703  1.00  0.00    -0.089 N 
HETATM   27  C8  UNL     1      28.582  34.528  41.296  1.00  0.00     0.400 C 
HETATM   28  O4  UNL     1      27.817  35.187  40.580  1.00  0.00    -0.240 OA
BRANCH  25  29
HETATM   29  N9  UNL     1      28.607  32.160  43.451  1.00  0.00    -0.327 NA
ATOM     30  H92 UNL     1      29.168  31.512  44.005  1.00  0.00     0.174 HD
ATOM     31  H91 UNL     1      27.812  32.470  44.010  1.00  0.00     0.174 HD
ENDBRANCH  25  29
BRANCH  26  32
HETATM   32  O3  UNL     1      27.826  35.075  43.596  1.00  0.00    -0.265 OA
ATOM     33  H3  UNL     1      28.032  35.965  43.855  1.00  0.00     0.246 HD
ENDBRANCH  26  32
ENDBRANCH  20  23
ENDBRANCH   1  19
BRANCH   2  34
HETATM   34  N12 UNL     1      26.320  33.522  38.138  1.00  0.00    -0.207 N 
ATOM     35  H12 UNL     1      26.021  33.039  37.291  1.00  0.00     0.215 HD
BRANCH  34  36
HETATM   36  O5  UNL     1      25.422  33.876  38.926  1.00  0.00    -0.274 OA
ATOM     37  H5  UNL     1      24.677  34.431  38.726  1.00  0.00     0.246 HD
ENDBRANCH  34  36
ENDBRANCH   2  34
TORSDOF 10
ENDMDL
