MODEL 1
REMARK VINA RESULT: -5.920290048      0.000      0.000
REMARK  12 active torsions:
REMARK  status: ('A' for Active; 'I' for Inactive)
REMARK    1  A    between atoms: C2_2  and  O1_3 
REMARK    2  A    between atoms: C2_2  and  O2_5 
REMARK    3  A    between atoms: O2_5  and  C3_6 
REMARK       I    between atoms: C3_6  and  N1_8 
REMARK    4  A    between atoms: N3_12  and  N4_14 
REMARK    5  A    between atoms: N5_17  and  N6_18 
REMARK    6  A    between atoms: N6_18  and  C5_20 
REMARK    7  A    between atoms: C5_20  and  N7_21 
REMARK    8  A    between atoms: N7_21  and  O4_23 
REMARK    9  A    between atoms: O4_23  and  C6_24 
REMARK   10  A    between atoms: C6_24  and  O6_26 
REMARK   11  A    between atoms: O6_26  and  C7_27 
REMARK   12  A    between atoms: C11_31  and  N8_32 
ROOT
HETATM    1  C3  UNL     1      30.393  26.216  38.102  1.00  0.00     0.404 C 
HETATM    2  O3  UNL     1      31.573  25.794  38.021  1.00  0.00    -0.235 OA
HETATM    3  N1  UNL     1      30.112  27.550  38.499  1.00  0.00    -0.009 N 
HETATM    4  N2  UNL     1      31.034  28.438  38.808  1.00  0.00    -0.102 N 
ATOM      5  H2  UNL     1      32.041  28.277  38.800  1.00  0.00     0.207 HD
HETATM    6  C4  UNL     1      30.417  29.610  39.141  1.00  0.00     0.748 A 
HETATM    7  N3  UNL     1      31.049  30.679  39.494  1.00  0.00    -0.135 N 
ATOM      8  H3  UNL     1      30.520  31.519  39.730  1.00  0.00     0.205 HD
HETATM    9  N5  UNL     1      29.088  29.432  39.032  1.00  0.00     0.095 N 
HETATM   10  C11 UNL     1      28.941  28.157  38.637  1.00  0.00     0.739 A 
ENDROOT
BRANCH   9  11
HETATM   11  N6  UNL     1      28.101  30.390  39.285  1.00  0.00    -0.258 N 
ATOM     12  H6  UNL     1      27.783  30.990  38.524  1.00  0.00     0.189 HD
BRANCH  11  13
HETATM   13  C5  UNL     1      27.537  30.546  40.559  1.00  0.00     0.223 C 
BRANCH  13  14
HETATM   14  N7  UNL     1      27.922  31.505  41.327  1.00  0.00    -0.250 N 
ATOM     15  H7  UNL     1      27.228  32.195  41.615  1.00  0.00     0.195 HD
BRANCH  14  16
HETATM   16  O4  UNL     1      29.205  31.656  41.782  1.00  0.00    -0.174 OA
BRANCH  16  17
HETATM   17  C6  UNL     1      29.559  32.310  42.933  1.00  0.00     0.429 C 
HETATM   18  O5  UNL     1      29.115  31.883  44.022  1.00  0.00    -0.227 OA
BRANCH  17  19
HETATM   19  O6  UNL     1      30.385  33.426  42.967  1.00  0.00    -0.287 OA
BRANCH  19  20
HETATM   20  C7  UNL     1      30.061  34.671  42.421  1.00  0.00     0.062 C 
HETATM   21  C8  UNL     1      30.982  35.702  43.078  1.00  0.00     0.046 C 
HETATM   22  C9  UNL     1      28.634  35.098  42.728  1.00  0.00     0.046 C 
HETATM   23  C10 UNL     1      30.282  34.750  40.937  1.00  0.00     0.046 C 
ENDBRANCH  19  20
ENDBRANCH  17  19
ENDBRANCH  16  17
ENDBRANCH  14  16
ENDBRANCH  13  14
ENDBRANCH  11  13
ENDBRANCH   9  11
BRANCH  10  24
HETATM   24  N8  UNL     1      27.806  27.606  38.422  1.00  0.00    -0.230 N 
ATOM     25  H82 UNL     1      27.691  26.621  38.183  1.00  0.00     0.174 HD
ATOM     26  H81 UNL     1      26.909  28.089  38.468  1.00  0.00     0.174 HD
ENDBRANCH  10  24
BRANCH   7  27
HETATM   27  N4  UNL     1      32.442  30.707  39.559  1.00  0.00    -0.331 N 
ATOM     28  H42 UNL     1      32.972  30.269  38.804  1.00  0.00     0.177 HD
ATOM     29  H41 UNL     1      32.927  31.152  40.338  1.00  0.00     0.177 HD
ENDBRANCH   7  27
BRANCH   1  30
HETATM   30  O2  UNL     1      29.387  25.308  37.783  1.00  0.00    -0.271 OA
BRANCH  30  31
HETATM   31  C2  UNL     1      29.291  24.625  36.571  1.00  0.00     0.264 C 
HETATM   32  C1  UNL     1      28.458  25.495  35.623  1.00  0.00     0.071 C 
BRANCH  31  33
HETATM   33  O1  UNL     1      28.633  23.405  36.666  1.00  0.00    -0.371 OA
ATOM     34  H1  UNL     1      28.981  22.856  35.972  1.00  0.00     0.212 HD
ENDBRANCH  31  33
ENDBRANCH  30  31
ENDBRANCH   1  30
TORSDOF 12
ENDMDL
MODEL 2
REMARK VINA RESULT: -5.679640346      1.717      2.220
REMARK  12 active torsions:
REMARK  status: ('A' for Active; 'I' for Inactive)
REMARK    1  A    between atoms: C2_2  and  O1_3 
REMARK    2  A    between atoms: C2_2  and  O2_5 
REMARK    3  A    between atoms: O2_5  and  C3_6 
REMARK       I    between atoms: C3_6  and  N1_8 
REMARK    4  A    between atoms: N3_12  and  N4_14 
REMARK    5  A    between atoms: N5_17  and  N6_18 
REMARK    6  A    between atoms: N6_18  and  C5_20 
REMARK    7  A    between atoms: C5_20  and  N7_21 
REMARK    8  A    between atoms: N7_21  and  O4_23 
REMARK    9  A    between atoms: O4_23  and  C6_24 
REMARK   10  A    between atoms: C6_24  and  O6_26 
REMARK   11  A    between atoms: O6_26  and  C7_27 
REMARK   12  A    between atoms: C11_31  and  N8_32 
ROOT
HETATM    1  C3  UNL     1      28.623  26.741  35.996  1.00  0.00     0.404 C 
HETATM    2  O3  UNL     1      28.604  26.681  34.742  1.00  0.00    -0.235 OA
HETATM    3  N1  UNL     1      28.737  27.983  36.674  1.00  0.00    -0.009 N 
HETATM    4  N2  UNL     1      28.833  29.148  36.070  1.00  0.00    -0.102 N 
ATOM      5  H2  UNL     1      28.836  29.296  35.060  1.00  0.00     0.207 HD
HETATM    6  C4  UNL     1      28.928  30.126  37.018  1.00  0.00     0.748 A 
HETATM    7  N3  UNL     1      29.034  31.384  36.745  1.00  0.00    -0.135 N 
ATOM      8  H3  UNL     1      29.101  32.058  37.508  1.00  0.00     0.205 HD
HETATM    9  N5  UNL     1      28.889  29.543  38.230  1.00  0.00     0.095 N 
HETATM   10  C11 UNL     1      28.772  28.229  37.977  1.00  0.00     0.739 A 
ENDROOT
BRANCH   9  11
HETATM   11  N6  UNL     1      28.958  30.195  39.465  1.00  0.00    -0.258 N 
ATOM     12  H6  UNL     1      29.872  30.396  39.871  1.00  0.00     0.189 HD
BRANCH  11  13
HETATM   13  C5  UNL     1      27.803  30.579  40.160  1.00  0.00     0.223 C 
BRANCH  13  14
HETATM   14  N7  UNL     1      27.876  31.431  41.122  1.00  0.00    -0.250 N 
ATOM     15  H7  UNL     1      27.035  31.957  41.360  1.00  0.00     0.195 HD
BRANCH  14  16
HETATM   16  O4  UNL     1      29.011  31.674  41.848  1.00  0.00    -0.174 OA
BRANCH  16  17
HETATM   17  C6  UNL     1      29.064  32.409  43.002  1.00  0.00     0.429 C 
HETATM   18  O5  UNL     1      29.091  31.801  44.096  1.00  0.00    -0.227 OA
BRANCH  17  19
HETATM   19  O6  UNL     1      29.090  33.798  43.038  1.00  0.00    -0.287 OA
BRANCH  19  20
HETATM   20  C7  UNL     1      30.072  34.589  42.436  1.00  0.00     0.062 C 
HETATM   21  C8  UNL     1      29.992  35.973  43.086  1.00  0.00     0.046 C 
HETATM   22  C9  UNL     1      29.839  34.791  40.946  1.00  0.00     0.046 C 
HETATM   23  C10 UNL     1      31.468  34.074  42.642  1.00  0.00     0.046 C 
ENDBRANCH  19  20
ENDBRANCH  17  19
ENDBRANCH  16  17
ENDBRANCH  14  16
ENDBRANCH  13  14
ENDBRANCH  11  13
ENDBRANCH   9  11
BRANCH  10  24
HETATM   24  N8  UNL     1      28.704  27.334  38.889  1.00  0.00    -0.230 N 
ATOM     25  H82 UNL     1      27.875  26.766  39.064  1.00  0.00     0.174 HD
ATOM     26  H81 UNL     1      29.463  27.098  39.528  1.00  0.00     0.174 HD
ENDBRANCH  10  24
BRANCH   7  27
HETATM   27  N4  UNL     1      29.059  31.838  35.426  1.00  0.00    -0.331 N 
ATOM     28  H42 UNL     1      28.636  31.254  34.704  1.00  0.00     0.177 HD
ATOM     29  H41 UNL     1      29.489  32.730  35.181  1.00  0.00     0.177 HD
ENDBRANCH   7  27
BRANCH   1  30
HETATM   30  O2  UNL     1      28.524  25.529  36.675  1.00  0.00    -0.271 OA
BRANCH  30  31
HETATM   31  C2  UNL     1      29.595  24.674  36.929  1.00  0.00     0.264 C 
HETATM   32  C1  UNL     1      29.397  23.426  36.063  1.00  0.00     0.071 C 
BRANCH  31  33
HETATM   33  O1  UNL     1      29.659  24.233  38.246  1.00  0.00    -0.371 OA
ATOM     34  H1  UNL     1      29.523  24.998  38.793  1.00  0.00     0.212 HD
ENDBRANCH  31  33
ENDBRANCH  30  31
ENDBRANCH   1  30
TORSDOF 12
ENDMDL
MODEL 3
REMARK VINA RESULT: -5.665187195      4.099      7.749
REMARK  12 active torsions:
REMARK  status: ('A' for Active; 'I' for Inactive)
REMARK    1  A    between atoms: C2_2  and  O1_3 
REMARK    2  A    between atoms: C2_2  and  O2_5 
REMARK    3  A    between atoms: O2_5  and  C3_6 
REMARK       I    between atoms: C3_6  and  N1_8 
REMARK    4  A    between atoms: N3_12  and  N4_14 
REMARK    5  A    between atoms: N5_17  and  N6_18 
REMARK    6  A    between atoms: N6_18  and  C5_20 
REMARK    7  A    between atoms: C5_20  and  N7_21 
REMARK    8  A    between atoms: N7_21  and  O4_23 
REMARK    9  A    between atoms: O4_23  and  C6_24 
REMARK   10  A    between atoms: C6_24  and  O6_26 
REMARK   11  A    between atoms: O6_26  and  C7_27 
REMARK   12  A    between atoms: C11_31  and  N8_32 
ROOT
HETATM    1  C3  UNL     1      25.581  34.347  38.189  1.00  0.00     0.404 C 
HETATM    2  O3  UNL     1      24.647  34.541  39.005  1.00  0.00    -0.235 OA
HETATM    3  N1  UNL     1      26.848  33.869  38.616  1.00  0.00    -0.009 N 
HETATM    4  N2  UNL     1      27.150  33.596  39.868  1.00  0.00    -0.102 N 
ATOM      5  H2  UNL     1      26.521  33.693  40.666  1.00  0.00     0.207 HD
HETATM    6  C4  UNL     1      28.443  33.162  39.921  1.00  0.00     0.748 A 
HETATM    7  N3  UNL     1      29.039  32.814  41.012  1.00  0.00    -0.135 N 
ATOM      8  H3  UNL     1      30.010  32.499  40.974  1.00  0.00     0.205 HD
HETATM    9  N5  UNL     1      28.942  33.171  38.672  1.00  0.00     0.095 N 
HETATM   10  C11 UNL     1      27.934  33.611  37.900  1.00  0.00     0.739 A 
ENDROOT
BRANCH   9  11
HETATM   11  N6  UNL     1      30.236  32.796  38.294  1.00  0.00    -0.258 N 
ATOM     12  H6  UNL     1      30.970  33.504  38.267  1.00  0.00     0.189 HD
BRANCH  11  13
HETATM   13  C5  UNL     1      30.548  31.474  37.952  1.00  0.00     0.223 C 
BRANCH  13  14
HETATM   14  N7  UNL     1      30.811  30.610  38.870  1.00  0.00    -0.250 N 
ATOM     15  H7  UNL     1      31.789  30.387  39.051  1.00  0.00     0.195 HD
BRANCH  14  16
HETATM   16  O4  UNL     1      29.858  29.970  39.618  1.00  0.00    -0.174 OA
BRANCH  16  17
HETATM   17  C6  UNL     1      28.755  29.336  39.110  1.00  0.00     0.429 C 
HETATM   18  O5  UNL     1      27.646  29.909  39.192  1.00  0.00    -0.227 OA
BRANCH  17  19
HETATM   19  O6  UNL     1      28.790  28.085  38.507  1.00  0.00    -0.287 OA
BRANCH  19  20
HETATM   20  C7  UNL     1      29.211  27.847  37.196  1.00  0.00     0.062 C 
HETATM   21  C8  UNL     1      28.507  26.571  36.724  1.00  0.00     0.046 C 
HETATM   22  C9  UNL     1      30.706  27.587  37.092  1.00  0.00     0.046 C 
HETATM   23  C10 UNL     1      28.842  28.945  36.239  1.00  0.00     0.046 C 
ENDBRANCH  19  20
ENDBRANCH  17  19
ENDBRANCH  16  17
ENDBRANCH  14  16
ENDBRANCH  13  14
ENDBRANCH  11  13
ENDBRANCH   9  11
BRANCH  10  24
HETATM   24  N8  UNL     1      28.022  33.758  36.632  1.00  0.00    -0.230 N 
ATOM     25  H82 UNL     1      28.871  34.061  36.155  1.00  0.00     0.174 HD
ATOM     26  H81 UNL     1      27.262  33.589  35.975  1.00  0.00     0.174 HD
ENDBRANCH  10  24
BRANCH   7  27
HETATM   27  N4  UNL     1      28.382  32.859  42.242  1.00  0.00    -0.331 N 
ATOM     28  H42 UNL     1      27.966  32.000  42.601  1.00  0.00     0.177 HD
ATOM     29  H41 UNL     1      28.316  33.727  42.775  1.00  0.00     0.177 HD
ENDBRANCH   7  27
BRANCH   1  30
HETATM   30  O2  UNL     1      25.303  34.623  36.852  1.00  0.00    -0.271 OA
BRANCH  30  31
HETATM   31  C2  UNL     1      25.367  35.891  36.276  1.00  0.00     0.264 C 
HETATM   32  C1  UNL     1      24.561  35.841  34.974  1.00  0.00     0.071 C 
BRANCH  31  33
HETATM   33  O1  UNL     1      26.653  36.284  35.928  1.00  0.00    -0.371 OA
ATOM     34  H1  UNL     1      27.023  36.707  36.694  1.00  0.00     0.212 HD
ENDBRANCH  31  33
ENDBRANCH  30  31
ENDBRANCH   1  30
TORSDOF 12
ENDMDL
MODEL 4
REMARK VINA RESULT: -5.663687899      4.131      5.747
REMARK  12 active torsions:
REMARK  status: ('A' for Active; 'I' for Inactive)
REMARK    1  A    between atoms: C2_2  and  O1_3 
REMARK    2  A    between atoms: C2_2  and  O2_5 
REMARK    3  A    between atoms: O2_5  and  C3_6 
REMARK       I    between atoms: C3_6  and  N1_8 
REMARK    4  A    between atoms: N3_12  and  N4_14 
REMARK    5  A    between atoms: N5_17  and  N6_18 
REMARK    6  A    between atoms: N6_18  and  C5_20 
REMARK    7  A    between atoms: C5_20  and  N7_21 
REMARK    8  A    between atoms: N7_21  and  O4_23 
REMARK    9  A    between atoms: O4_23  and  C6_24 
REMARK   10  A    between atoms: C6_24  and  O6_26 
REMARK   11  A    between atoms: O6_26  and  C7_27 
REMARK   12  A    between atoms: C11_31  and  N8_32 
ROOT
HETATM    1  C3  UNL     1      27.896  33.559  37.334  1.00  0.00     0.404 C 
HETATM    2  O3  UNL     1      28.309  33.365  36.164  1.00  0.00    -0.235 OA
HETATM    3  N1  UNL     1      28.219  32.664  38.388  1.00  0.00    -0.009 N 
HETATM    4  N2  UNL     1      28.958  31.585  38.241  1.00  0.00    -0.102 N 
ATOM      5  H2  UNL     1      29.378  31.267  37.367  1.00  0.00     0.207 HD
HETATM    6  C4  UNL     1      29.067  30.960  39.451  1.00  0.00     0.748 A 
HETATM    7  N3  UNL     1      29.731  29.869  39.638  1.00  0.00    -0.135 N 
ATOM      8  H3  UNL     1      29.768  29.460  40.572  1.00  0.00     0.205 HD
HETATM    9  N5  UNL     1      28.379  31.677  40.358  1.00  0.00     0.095 N 
HETATM   10  C11 UNL     1      27.873  32.713  39.669  1.00  0.00     0.739 A 
ENDROOT
BRANCH   9  11
HETATM   11  N6  UNL     1      28.240  31.378  41.717  1.00  0.00    -0.258 N 
ATOM     12  H6  UNL     1      27.524  30.713  42.009  1.00  0.00     0.189 HD
BRANCH  11  13
HETATM   13  C5  UNL     1      29.061  31.968  42.687  1.00  0.00     0.223 C 
BRANCH  13  14
HETATM   14  N7  UNL     1      28.627  32.950  43.397  1.00  0.00    -0.250 N 
ATOM     15  H7  UNL     1      28.226  32.740  44.310  1.00  0.00     0.195 HD
BRANCH  14  16
HETATM   16  O4  UNL     1      28.669  34.261  43.000  1.00  0.00    -0.174 OA
BRANCH  16  17
HETATM   17  C6  UNL     1      29.711  34.846  42.331  1.00  0.00     0.429 C 
HETATM   18  O5  UNL     1      29.594  35.042  41.100  1.00  0.00    -0.227 OA
BRANCH  17  19
HETATM   19  O6  UNL     1      30.898  35.240  42.934  1.00  0.00    -0.287 OA
BRANCH  19  20
HETATM   20  C7  UNL     1      31.366  36.556  42.983  1.00  0.00     0.062 C 
HETATM   21  C8  UNL     1      32.306  36.653  44.188  1.00  0.00     0.046 C 
HETATM   22  C9  UNL     1      30.255  37.570  43.212  1.00  0.00     0.046 C 
HETATM   23  C10 UNL     1      32.148  36.961  41.766  1.00  0.00     0.046 C 
ENDBRANCH  19  20
ENDBRANCH  17  19
ENDBRANCH  16  17
ENDBRANCH  14  16
ENDBRANCH  13  14
ENDBRANCH  11  13
ENDBRANCH   9  11
BRANCH  10  24
HETATM   24  N8  UNL     1      27.149  33.629  40.192  1.00  0.00    -0.230 N 
ATOM     25  H82 UNL     1      26.480  34.191  39.666  1.00  0.00     0.174 HD
ATOM     26  H81 UNL     1      27.165  33.888  41.178  1.00  0.00     0.174 HD
ENDBRANCH  10  24
BRANCH   7  27
HETATM   27  N4  UNL     1      30.399  29.239  38.588  1.00  0.00    -0.331 N 
ATOM     28  H42 UNL     1      31.082  29.778  38.055  1.00  0.00     0.177 HD
ATOM     29  H41 UNL     1      30.215  28.264  38.352  1.00  0.00     0.177 HD
ENDBRANCH   7  27
BRANCH   1  30
HETATM   30  O2  UNL     1      27.111  34.691  37.535  1.00  0.00    -0.271 OA
BRANCH  30  31
HETATM   31  C2  UNL     1      25.723  34.726  37.407  1.00  0.00     0.264 C 
HETATM   32  C1  UNL     1      25.391  35.746  36.313  1.00  0.00     0.071 C 
BRANCH  31  33
HETATM   33  O1  UNL     1      25.065  35.151  38.555  1.00  0.00    -0.371 OA
ATOM     34  H1  UNL     1      25.596  34.867  39.290  1.00  0.00     0.212 HD
ENDBRANCH  31  33
ENDBRANCH  30  31
ENDBRANCH   1  30
TORSDOF 12
ENDMDL
MODEL 5
REMARK VINA RESULT: -5.511022970      2.060      2.684
REMARK  12 active torsions:
REMARK  status: ('A' for Active; 'I' for Inactive)
REMARK    1  A    between atoms: C2_2  and  O1_3 
REMARK    2  A    between atoms: C2_2  and  O2_5 
REMARK    3  A    between atoms: O2_5  and  C3_6 
REMARK       I    between atoms: C3_6  and  N1_8 
REMARK    4  A    between atoms: N3_12  and  N4_14 
REMARK    5  A    between atoms: N5_17  and  N6_18 
REMARK    6  A    between atoms: N6_18  and  C5_20 
REMARK    7  A    between atoms: C5_20  and  N7_21 
REMARK    8  A    between atoms: N7_21  and  O4_23 
REMARK    9  A    between atoms: O4_23  and  C6_24 
REMARK   10  A    between atoms: C6_24  and  O6_26 
REMARK   11  A    between atoms: O6_26  and  C7_27 
REMARK   12  A    between atoms: C11_31  and  N8_32 
ROOT
HETATM    1  C3  UNL     1      28.567  26.908  36.090  1.00  0.00     0.404 C 
HETATM    2  O3  UNL     1      28.506  26.915  34.836  1.00  0.00    -0.235 OA
HETATM    3  N1  UNL     1      28.718  28.111  36.829  1.00  0.00    -0.009 N 
HETATM    4  N2  UNL     1      28.807  29.306  36.283  1.00  0.00    -0.102 N 
ATOM      5  H2  UNL     1      28.778  29.507  35.284  1.00  0.00     0.207 HD
HETATM    6  C4  UNL     1      28.944  30.232  37.278  1.00  0.00     0.748 A 
HETATM    7  N3  UNL     1      29.056  31.501  37.068  1.00  0.00    -0.135 N 
ATOM      8  H3  UNL     1      29.156  32.133  37.862  1.00  0.00     0.205 HD
HETATM    9  N5  UNL     1      28.939  29.585  38.458  1.00  0.00     0.095 N 
HETATM   10  C11 UNL     1      28.799  28.288  38.141  1.00  0.00     0.739 A 
ENDROOT
BRANCH   9  11
HETATM   11  N6  UNL     1      29.057  30.171  39.723  1.00  0.00    -0.258 N 
ATOM     12  H6  UNL     1      29.982  30.271  40.140  1.00  0.00     0.189 HD
BRANCH  11  13
HETATM   13  C5  UNL     1      27.935  30.623  40.431  1.00  0.00     0.223 C 
BRANCH  13  14
HETATM   14  N7  UNL     1      27.658  31.879  40.478  1.00  0.00    -0.250 N 
ATOM     15  H7  UNL     1      26.858  32.172  41.038  1.00  0.00     0.195 HD
BRANCH  14  16
HETATM   16  O4  UNL     1      28.372  32.847  39.823  1.00  0.00    -0.174 OA
BRANCH  16  17
HETATM   17  C6  UNL     1      28.234  34.195  40.022  1.00  0.00     0.429 C 
HETATM   18  O5  UNL     1      27.144  34.734  39.728  1.00  0.00    -0.227 OA
BRANCH  17  19
HETATM   19  O6  UNL     1      29.237  35.010  40.533  1.00  0.00    -0.287 OA
BRANCH  19  20
HETATM   20  C7  UNL     1      29.689  34.978  41.856  1.00  0.00     0.062 C 
HETATM   21  C8  UNL     1      30.343  36.333  42.138  1.00  0.00     0.046 C 
HETATM   22  C9  UNL     1      30.755  33.919  42.091  1.00  0.00     0.046 C 
HETATM   23  C10 UNL     1      28.588  34.791  42.861  1.00  0.00     0.046 C 
ENDBRANCH  19  20
ENDBRANCH  17  19
ENDBRANCH  16  17
ENDBRANCH  14  16
ENDBRANCH  13  14
ENDBRANCH  11  13
ENDBRANCH   9  11
BRANCH  10  24
HETATM   24  N8  UNL     1      28.751  27.347  39.007  1.00  0.00    -0.230 N 
ATOM     25  H82 UNL     1      28.034  26.621  39.014  1.00  0.00     0.174 HD
ATOM     26  H81 UNL     1      29.417  27.225  39.769  1.00  0.00     0.174 HD
ENDBRANCH  10  24
BRANCH   7  27
HETATM   27  N4  UNL     1      29.043  32.023  35.774  1.00  0.00    -0.331 N 
ATOM     28  H42 UNL     1      29.920  32.053  35.255  1.00  0.00     0.177 HD
ATOM     29  H41 UNL     1      28.181  32.369  35.352  1.00  0.00     0.177 HD
ENDBRANCH   7  27
BRANCH   1  30
HETATM   30  O2  UNL     1      28.476  25.663  36.708  1.00  0.00    -0.271 OA
BRANCH  30  31
HETATM   31  C2  UNL     1      29.546  24.787  36.884  1.00  0.00     0.264 C 
HETATM   32  C1  UNL     1      29.303  23.580  35.972  1.00  0.00     0.071 C 
BRANCH  31  33
HETATM   33  O1  UNL     1      29.654  24.287  38.177  1.00  0.00    -0.371 OA
ATOM     34  H1  UNL     1      30.267  24.852  38.634  1.00  0.00     0.212 HD
ENDBRANCH  31  33
ENDBRANCH  30  31
ENDBRANCH   1  30
TORSDOF 12
ENDMDL
