MODEL 1
REMARK VINA RESULT: -5.422635410      0.000      0.000
REMARK  13 active torsions:
REMARK  status: ('A' for Active; 'I' for Inactive)
REMARK    1  A    between atoms: N1_2  and  O1_3 
REMARK    2  A    between atoms: N1_2  and  C2_5 
REMARK    3  A    between atoms: C3_8  and  N3_9 
REMARK    4  A    between atoms: C4_14  and  N5_15 
REMARK    5  A    between atoms: N5_15  and  C5_17 
REMARK    6  A    between atoms: C5_17  and  N6_18 
REMARK    7  A    between atoms: C5_17  and  S1_26 
REMARK    8  A    between atoms: N6_18  and  O2_19 
REMARK    9  A    between atoms: O2_19  and  C6_20 
REMARK   10  A    between atoms: C6_20  and  O4_22 
REMARK   11  A    between atoms: O4_22  and  C7_23 
REMARK   12  A    between atoms: S1_26  and  N8_27 
REMARK   13  A    between atoms: N8_27  and  N9_28 
ROOT
HETATM    1  C7  UNL     1      30.841  33.640  42.595  1.00  0.00     0.304 C 
HETATM    2  C8  UNL     1      29.837  32.722  43.115  1.00  0.00     0.086 C 
HETATM    3  N7  UNL     1      29.045  32.016  43.521  1.00  0.00    -0.195 NA
ENDROOT
BRANCH   1   4
HETATM    4  O4  UNL     1      30.318  34.314  41.457  1.00  0.00    -0.282 OA
BRANCH   4   5
HETATM    5  C6  UNL     1      29.354  35.288  41.539  1.00  0.00     0.440 C 
HETATM    6  O3  UNL     1      29.438  36.162  42.429  1.00  0.00    -0.226 OA
BRANCH   5   7
HETATM    7  O2  UNL     1      28.261  35.390  40.687  1.00  0.00    -0.095 OA
BRANCH   7   8
HETATM    8  N6  UNL     1      27.587  34.531  40.068  1.00  0.00    -0.242 NA
BRANCH   8   9
HETATM    9  C5  UNL     1      26.939  33.730  39.470  1.00  0.00     0.283 C 
BRANCH   9  10
HETATM   10  N5  UNL     1      26.890  32.296  39.728  1.00  0.00    -0.154 N 
ATOM     11  H5  UNL     1      26.027  31.865  40.058  1.00  0.00     0.187 HD
BRANCH  10  12
HETATM   12  C4  UNL     1      27.941  31.575  39.538  1.00  0.00     0.714 A 
HETATM   13  N4  UNL     1      29.156  32.160  39.586  1.00  0.00    -0.021 N 
HETATM   14  C3  UNL     1      30.250  31.400  39.386  1.00  0.00     0.705 A 
ATOM     15  H4  UNL     1      29.244  33.159  39.769  1.00  0.00     0.203 HD
HETATM   16  N2  UNL     1      30.138  30.082  39.143  1.00  0.00    -0.020 N 
HETATM   17  C2  UNL     1      28.920  29.472  39.091  1.00  0.00     0.732 A 
ATOM     18  H2  UNL     1      30.981  29.528  38.994  1.00  0.00     0.203 HD
HETATM   19  N10 UNL     1      27.848  30.257  39.294  1.00  0.00    -0.019 N 
ATOM     20  H10 UNL     1      26.921  29.832  39.261  1.00  0.00     0.203 HD
BRANCH  14  21
HETATM   21  N3  UNL     1      31.394  31.993  39.439  1.00  0.00    -0.234 N 
ATOM     22  H32 UNL     1      32.212  31.409  39.610  1.00  0.00     0.174 HD
ATOM     23  H31 UNL     1      31.488  33.001  39.316  1.00  0.00     0.174 HD
ENDBRANCH  14  21
BRANCH  17  24
HETATM   24  N1  UNL     1      28.811  28.081  38.834  1.00  0.00    -0.094 N 
HETATM   25  C1  UNL     1      29.977  27.227  38.816  1.00  0.00     0.205 C 
BRANCH  24  26
HETATM   26  O1  UNL     1      27.607  27.542  38.603  1.00  0.00    -0.274 OA
ATOM     27  H1  UNL     1      26.865  28.116  38.453  1.00  0.00     0.245 HD
ENDBRANCH  24  26
ENDBRANCH  17  24
ENDBRANCH  10  12
ENDBRANCH   9  10
BRANCH   9  28
HETATM   28  S1  UNL     1      25.885  34.258  38.095  1.00  0.00     0.054 SA
BRANCH  28  29
HETATM   29  N8  UNL     1      26.900  34.704  36.746  1.00  0.00    -0.064 NA
BRANCH  29  30
HETATM   30  N9  UNL     1      28.094  34.015  36.716  1.00  0.00    -0.337 N 
ATOM     31  H92 UNL     1      28.162  33.024  36.951  1.00  0.00     0.173 HD
ATOM     32  H91 UNL     1      28.884  34.597  36.439  1.00  0.00     0.173 HD
ENDBRANCH  29  30
ENDBRANCH  28  29
ENDBRANCH   9  28
ENDBRANCH   8   9
ENDBRANCH   7   8
ENDBRANCH   5   7
ENDBRANCH   4   5
ENDBRANCH   1   4
TORSDOF 13
ENDMDL
MODEL 2
REMARK VINA RESULT: -5.176260023      5.957      9.027
REMARK  13 active torsions:
REMARK  status: ('A' for Active; 'I' for Inactive)
REMARK    1  A    between atoms: N1_2  and  O1_3 
REMARK    2  A    between atoms: N1_2  and  C2_5 
REMARK    3  A    between atoms: C3_8  and  N3_9 
REMARK    4  A    between atoms: C4_14  and  N5_15 
REMARK    5  A    between atoms: N5_15  and  C5_17 
REMARK    6  A    between atoms: C5_17  and  N6_18 
REMARK    7  A    between atoms: C5_17  and  S1_26 
REMARK    8  A    between atoms: N6_18  and  O2_19 
REMARK    9  A    between atoms: O2_19  and  C6_20 
REMARK   10  A    between atoms: C6_20  and  O4_22 
REMARK   11  A    between atoms: O4_22  and  C7_23 
REMARK   12  A    between atoms: S1_26  and  N8_27 
REMARK   13  A    between atoms: N8_27  and  N9_28 
ROOT
HETATM    1  C7  UNL     1      27.229  33.284  38.736  1.00  0.00     0.304 C 
HETATM    2  C8  UNL     1      27.847  34.057  39.804  1.00  0.00     0.086 C 
HETATM    3  N7  UNL     1      28.337  34.667  40.628  1.00  0.00    -0.195 NA
ENDROOT
BRANCH   1   4
HETATM    4  O4  UNL     1      26.624  34.171  37.803  1.00  0.00    -0.282 OA
BRANCH   4   5
HETATM    5  C6  UNL     1      25.349  34.658  37.948  1.00  0.00     0.440 C 
HETATM    6  O3  UNL     1      24.803  34.625  39.072  1.00  0.00    -0.226 OA
BRANCH   5   7
HETATM    7  O2  UNL     1      24.590  35.202  36.919  1.00  0.00    -0.095 OA
BRANCH   7   8
HETATM    8  N6  UNL     1      24.900  35.677  35.799  1.00  0.00    -0.242 NA
BRANCH   8   9
HETATM    9  C5  UNL     1      25.198  36.109  34.729  1.00  0.00     0.283 C 
BRANCH   9  10
HETATM   10  N5  UNL     1      24.479  35.886  33.480  1.00  0.00    -0.154 N 
ATOM     11  H5  UNL     1      24.887  35.299  32.753  1.00  0.00     0.187 HD
BRANCH  10  12
HETATM   12  C4  UNL     1      23.328  36.435  33.298  1.00  0.00     0.714 A 
HETATM   13  N4  UNL     1      22.975  36.821  32.054  1.00  0.00    -0.021 N 
HETATM   14  C3  UNL     1      21.770  37.393  31.870  1.00  0.00     0.705 A 
ATOM     15  H4  UNL     1      23.609  36.682  31.268  1.00  0.00     0.203 HD
HETATM   16  N2  UNL     1      20.930  37.578  32.904  1.00  0.00    -0.020 N 
HETATM   17  C2  UNL     1      21.267  37.195  34.168  1.00  0.00     0.732 A 
ATOM     18  H2  UNL     1      20.023  38.014  32.739  1.00  0.00     0.203 HD
HETATM   19  N10 UNL     1      22.476  36.627  34.319  1.00  0.00    -0.019 N 
ATOM     20  H10 UNL     1      22.760  36.329  35.252  1.00  0.00     0.203 HD
BRANCH  14  21
HETATM   21  N3  UNL     1      21.466  37.749  30.668  1.00  0.00    -0.234 N 
ATOM     22  H32 UNL     1      20.567  38.211  30.533  1.00  0.00     0.174 HD
ATOM     23  H31 UNL     1      22.091  37.582  29.879  1.00  0.00     0.174 HD
ENDBRANCH  14  21
BRANCH  17  24
HETATM   24  N1  UNL     1      20.376  37.394  35.253  1.00  0.00    -0.094 N 
HETATM   25  C1  UNL     1      19.760  38.680  35.494  1.00  0.00     0.205 C 
BRANCH  24  26
HETATM   26  O1  UNL     1      20.093  36.374  36.075  1.00  0.00    -0.274 OA
ATOM     27  H1  UNL     1      20.389  35.502  35.845  1.00  0.00     0.245 HD
ENDBRANCH  24  26
ENDBRANCH  17  24
ENDBRANCH  10  12
ENDBRANCH   9  10
BRANCH   9  28
HETATM   28  S1  UNL     1      26.670  37.149  34.546  1.00  0.00     0.054 SA
BRANCH  28  29
HETATM   29  N8  UNL     1      28.028  36.338  35.284  1.00  0.00    -0.064 NA
BRANCH  29  30
HETATM   30  N9  UNL     1      27.879  34.969  35.335  1.00  0.00    -0.337 N 
ATOM     31  H92 UNL     1      27.937  34.442  36.206  1.00  0.00     0.173 HD
ATOM     32  H91 UNL     1      27.708  34.551  34.420  1.00  0.00     0.173 HD
ENDBRANCH  29  30
ENDBRANCH  28  29
ENDBRANCH   9  28
ENDBRANCH   8   9
ENDBRANCH   7   8
ENDBRANCH   5   7
ENDBRANCH   4   5
ENDBRANCH   1   4
TORSDOF 13
ENDMDL
MODEL 3
REMARK VINA RESULT: -5.000748767      2.372      3.490
REMARK  13 active torsions:
REMARK  status: ('A' for Active; 'I' for Inactive)
REMARK    1  A    between atoms: N1_2  and  O1_3 
REMARK    2  A    between atoms: N1_2  and  C2_5 
REMARK    3  A    between atoms: C3_8  and  N3_9 
REMARK    4  A    between atoms: C4_14  and  N5_15 
REMARK    5  A    between atoms: N5_15  and  C5_17 
REMARK    6  A    between atoms: C5_17  and  N6_18 
REMARK    7  A    between atoms: C5_17  and  S1_26 
REMARK    8  A    between atoms: N6_18  and  O2_19 
REMARK    9  A    between atoms: O2_19  and  C6_20 
REMARK   10  A    between atoms: C6_20  and  O4_22 
REMARK   11  A    between atoms: O4_22  and  C7_23 
REMARK   12  A    between atoms: S1_26  and  N8_27 
REMARK   13  A    between atoms: N8_27  and  N9_28 
ROOT
HETATM    1  C7  UNL     1      30.327  34.128  42.716  1.00  0.00     0.304 C 
HETATM    2  C8  UNL     1      29.188  35.025  42.582  1.00  0.00     0.086 C 
HETATM    3  N7  UNL     1      28.298  35.722  42.463  1.00  0.00    -0.195 NA
ENDROOT
BRANCH   1   4
HETATM    4  O4  UNL     1      29.994  32.858  42.170  1.00  0.00    -0.282 OA
BRANCH   4   5
HETATM    5  C6  UNL     1      29.121  31.987  42.773  1.00  0.00     0.440 C 
HETATM    6  O3  UNL     1      29.115  31.889  44.019  1.00  0.00    -0.226 OA
BRANCH   5   7
HETATM    7  O2  UNL     1      28.214  31.183  42.094  1.00  0.00    -0.095 OA
BRANCH   7   8
HETATM    8  N6  UNL     1      28.088  30.887  40.880  1.00  0.00    -0.242 NA
BRANCH   8   9
HETATM    9  C5  UNL     1      27.973  30.586  39.733  1.00  0.00     0.283 C 
BRANCH   9  10
HETATM   10  N5  UNL     1      27.579  29.279  39.222  1.00  0.00    -0.154 N 
ATOM     11  H5  UNL     1      26.605  28.981  39.277  1.00  0.00     0.187 HD
BRANCH  10  12
HETATM   12  C4  UNL     1      28.464  28.501  38.701  1.00  0.00     0.714 A 
HETATM   13  N4  UNL     1      29.746  28.597  39.113  1.00  0.00    -0.021 N 
HETATM   14  C3  UNL     1      30.666  27.781  38.565  1.00  0.00     0.705 A 
ATOM     15  H4  UNL     1      30.012  29.275  39.827  1.00  0.00     0.203 HD
HETATM   16  N2  UNL     1      30.319  26.885  37.624  1.00  0.00    -0.020 N 
HETATM   17  C2  UNL     1      29.030  26.772  37.194  1.00  0.00     0.732 A 
ATOM     18  H2  UNL     1      31.034  26.279  37.223  1.00  0.00     0.203 HD
HETATM   19  N10 UNL     1      28.135  27.601  37.760  1.00  0.00    -0.019 N 
ATOM     20  H10 UNL     1      27.162  27.543  37.461  1.00  0.00     0.203 HD
BRANCH  14  21
HETATM   21  N3  UNL     1      31.880  27.901  38.983  1.00  0.00    -0.234 N 
ATOM     22  H32 UNL     1      32.342  27.055  39.316  1.00  0.00     0.174 HD
ATOM     23  H31 UNL     1      32.367  28.797  38.984  1.00  0.00     0.174 HD
ENDBRANCH  14  21
BRANCH  17  24
HETATM   24  N1  UNL     1      28.673  25.825  36.200  1.00  0.00    -0.094 N 
HETATM   25  C1  UNL     1      28.397  26.230  34.840  1.00  0.00     0.205 C 
BRANCH  24  26
HETATM   26  O1  UNL     1      28.588  24.527  36.521  1.00  0.00    -0.274 OA
ATOM     27  H1  UNL     1      28.966  24.230  37.341  1.00  0.00     0.245 HD
ENDBRANCH  24  26
ENDBRANCH  17  24
ENDBRANCH  10  12
ENDBRANCH   9  10
BRANCH   9  28
HETATM   28  S1  UNL     1      28.297  31.808  38.436  1.00  0.00     0.054 SA
BRANCH  28  29
HETATM   29  N8  UNL     1      28.448  33.384  39.171  1.00  0.00    -0.064 NA
BRANCH  29  30
HETATM   30  N9  UNL     1      27.460  33.647  40.095  1.00  0.00    -0.337 N 
ATOM     31  H92 UNL     1      27.531  33.361  41.071  1.00  0.00     0.173 HD
ATOM     32  H91 UNL     1      26.666  34.150  39.699  1.00  0.00     0.173 HD
ENDBRANCH  29  30
ENDBRANCH  28  29
ENDBRANCH   9  28
ENDBRANCH   8   9
ENDBRANCH   7   8
ENDBRANCH   5   7
ENDBRANCH   4   5
ENDBRANCH   1   4
TORSDOF 13
ENDMDL
MODEL 4
REMARK VINA RESULT: -4.957493225      2.341      3.504
REMARK  13 active torsions:
REMARK  status: ('A' for Active; 'I' for Inactive)
REMARK    1  A    between atoms: N1_2  and  O1_3 
REMARK    2  A    between atoms: N1_2  and  C2_5 
REMARK    3  A    between atoms: C3_8  and  N3_9 
REMARK    4  A    between atoms: C4_14  and  N5_15 
REMARK    5  A    between atoms: N5_15  and  C5_17 
REMARK    6  A    between atoms: C5_17  and  N6_18 
REMARK    7  A    between atoms: C5_17  and  S1_26 
REMARK    8  A    between atoms: N6_18  and  O2_19 
REMARK    9  A    between atoms: O2_19  and  C6_20 
REMARK   10  A    between atoms: C6_20  and  O4_22 
REMARK   11  A    between atoms: O4_22  and  C7_23 
REMARK   12  A    between atoms: S1_26  and  N8_27 
REMARK   13  A    between atoms: N8_27  and  N9_28 
ROOT
HETATM    1  C7  UNL     1      31.264  32.770  41.945  1.00  0.00     0.304 C 
HETATM    2  C8  UNL     1      31.473  31.734  40.943  1.00  0.00     0.086 C 
HETATM    3  N7  UNL     1      31.627  30.918  40.168  1.00  0.00    -0.195 NA
ENDROOT
BRANCH   1   4
HETATM    4  O4  UNL     1      29.869  32.949  42.155  1.00  0.00    -0.282 OA
BRANCH   4   5
HETATM    5  C6  UNL     1      29.078  32.015  42.776  1.00  0.00     0.440 C 
HETATM    6  O3  UNL     1      29.105  31.919  44.022  1.00  0.00    -0.226 OA
BRANCH   5   7
HETATM    7  O2  UNL     1      28.221  31.143  42.116  1.00  0.00    -0.095 OA
BRANCH   7   8
HETATM    8  N6  UNL     1      28.068  30.863  40.902  1.00  0.00    -0.242 NA
BRANCH   8   9
HETATM    9  C5  UNL     1      27.943  30.592  39.748  1.00  0.00     0.283 C 
BRANCH   9  10
HETATM   10  N5  UNL     1      27.551  29.296  39.207  1.00  0.00    -0.154 N 
ATOM     11  H5  UNL     1      26.574  29.004  39.237  1.00  0.00     0.187 HD
BRANCH  10  12
HETATM   12  C4  UNL     1      28.441  28.522  38.690  1.00  0.00     0.714 A 
HETATM   13  N4  UNL     1      29.722  28.632  39.098  1.00  0.00    -0.021 N 
HETATM   14  C3  UNL     1      30.648  27.819  38.554  1.00  0.00     0.705 A 
ATOM     15  H4  UNL     1      29.985  29.318  39.805  1.00  0.00     0.203 HD
HETATM   16  N2  UNL     1      30.306  26.912  37.621  1.00  0.00    -0.020 N 
HETATM   17  C2  UNL     1      29.017  26.785  37.196  1.00  0.00     0.732 A 
ATOM     18  H2  UNL     1      31.025  26.308  37.223  1.00  0.00     0.203 HD
HETATM   19  N10 UNL     1      28.117  27.611  37.757  1.00  0.00    -0.019 N 
ATOM     20  H10 UNL     1      27.143  27.542  37.462  1.00  0.00     0.203 HD
BRANCH  14  21
HETATM   21  N3  UNL     1      31.862  27.952  38.967  1.00  0.00    -0.234 N 
ATOM     22  H32 UNL     1      32.111  27.482  39.837  1.00  0.00     0.174 HD
ATOM     23  H31 UNL     1      32.553  28.500  38.454  1.00  0.00     0.174 HD
ENDBRANCH  14  21
BRANCH  17  24
HETATM   24  N1  UNL     1      28.664  25.827  36.212  1.00  0.00    -0.094 N 
HETATM   25  C1  UNL     1      28.356  26.220  34.855  1.00  0.00     0.205 C 
BRANCH  24  26
HETATM   26  O1  UNL     1      28.616  24.528  36.538  1.00  0.00    -0.274 OA
ATOM     27  H1  UNL     1      28.762  24.274  37.441  1.00  0.00     0.245 HD
ENDBRANCH  24  26
ENDBRANCH  17  24
ENDBRANCH  10  12
ENDBRANCH   9  10
BRANCH   9  28
HETATM   28  S1  UNL     1      28.249  31.849  38.481  1.00  0.00     0.054 SA
BRANCH  28  29
HETATM   29  N8  UNL     1      27.342  33.285  38.880  1.00  0.00    -0.064 NA
BRANCH  29  30
HETATM   30  N9  UNL     1      27.514  33.688  40.187  1.00  0.00    -0.337 N 
ATOM     31  H92 UNL     1      28.414  33.634  40.665  1.00  0.00     0.173 HD
ATOM     32  H91 UNL     1      26.656  34.039  40.614  1.00  0.00     0.173 HD
ENDBRANCH  29  30
ENDBRANCH  28  29
ENDBRANCH   9  28
ENDBRANCH   8   9
ENDBRANCH   7   8
ENDBRANCH   5   7
ENDBRANCH   4   5
ENDBRANCH   1   4
TORSDOF 13
ENDMDL
MODEL 5
REMARK VINA RESULT: -4.933949847      2.796      4.943
REMARK  13 active torsions:
REMARK  status: ('A' for Active; 'I' for Inactive)
REMARK    1  A    between atoms: N1_2  and  O1_3 
REMARK    2  A    between atoms: N1_2  and  C2_5 
REMARK    3  A    between atoms: C3_8  and  N3_9 
REMARK    4  A    between atoms: C4_14  and  N5_15 
REMARK    5  A    between atoms: N5_15  and  C5_17 
REMARK    6  A    between atoms: C5_17  and  N6_18 
REMARK    7  A    between atoms: C5_17  and  S1_26 
REMARK    8  A    between atoms: N6_18  and  O2_19 
REMARK    9  A    between atoms: O2_19  and  C6_20 
REMARK   10  A    between atoms: C6_20  and  O4_22 
REMARK   11  A    between atoms: O4_22  and  C7_23 
REMARK   12  A    between atoms: S1_26  and  N8_27 
REMARK   13  A    between atoms: N8_27  and  N9_28 
ROOT
HETATM    1  C7  UNL     1      25.647  36.051  36.028  1.00  0.00     0.304 C 
HETATM    2  C8  UNL     1      25.850  35.732  34.622  1.00  0.00     0.086 C 
HETATM    3  N7  UNL     1      26.017  35.475  33.527  1.00  0.00    -0.195 NA
ENDROOT
BRANCH   1   4
HETATM    4  O4  UNL     1      25.336  34.860  36.740  1.00  0.00    -0.282 OA
BRANCH   4   5
HETATM    5  C6  UNL     1      25.228  34.809  38.107  1.00  0.00     0.440 C 
HETATM    6  O3  UNL     1      24.146  34.456  38.625  1.00  0.00    -0.226 OA
BRANCH   5   7
HETATM    7  O2  UNL     1      26.252  35.124  38.992  1.00  0.00    -0.095 OA
BRANCH   7   8
HETATM    8  N6  UNL     1      27.078  34.415  39.617  1.00  0.00    -0.242 NA
BRANCH   8   9
HETATM    9  C5  UNL     1      27.851  33.726  40.207  1.00  0.00     0.283 C 
BRANCH   9  10
HETATM   10  N5  UNL     1      27.820  32.271  40.285  1.00  0.00    -0.154 N 
ATOM     11  H5  UNL     1      27.524  31.811  41.146  1.00  0.00     0.187 HD
BRANCH  10  12
HETATM   12  C4  UNL     1      28.169  31.566  39.264  1.00  0.00     0.714 A 
HETATM   13  N4  UNL     1      28.455  32.191  38.103  1.00  0.00    -0.021 N 
HETATM   14  C3  UNL     1      28.819  31.449  37.040  1.00  0.00     0.705 A 
ATOM     15  H4  UNL     1      28.397  33.207  38.032  1.00  0.00     0.203 HD
HETATM   16  N2  UNL     1      28.897  30.109  37.130  1.00  0.00    -0.020 N 
HETATM   17  C2  UNL     1      28.612  29.459  38.294  1.00  0.00     0.732 A 
ATOM     18  H2  UNL     1      29.174  29.569  36.310  1.00  0.00     0.203 HD
HETATM   19  N10 UNL     1      28.252  30.227  39.336  1.00  0.00    -0.019 N 
ATOM     20  H10 UNL     1      28.032  29.773  40.222  1.00  0.00     0.203 HD
BRANCH  14  21
HETATM   21  N3  UNL     1      29.085  32.079  35.947  1.00  0.00    -0.234 N 
ATOM     22  H32 UNL     1      28.558  31.813  35.116  1.00  0.00     0.174 HD
ATOM     23  H31 UNL     1      29.791  32.815  35.904  1.00  0.00     0.174 HD
ENDBRANCH  14  21
BRANCH  17  24
HETATM   24  N1  UNL     1      28.696  28.046  38.379  1.00  0.00    -0.094 N 
HETATM   25  C1  UNL     1      29.957  27.381  38.622  1.00  0.00     0.205 C 
BRANCH  24  26
HETATM   26  O1  UNL     1      27.589  27.305  38.234  1.00  0.00    -0.274 OA
ATOM     27  H1  UNL     1      27.676  26.374  38.067  1.00  0.00     0.245 HD
ENDBRANCH  24  26
ENDBRANCH  17  24
ENDBRANCH  10  12
ENDBRANCH   9  10
BRANCH   9  28
HETATM   28  S1  UNL     1      29.225  34.476  41.118  1.00  0.00     0.054 SA
BRANCH  28  29
HETATM   29  N8  UNL     1      28.578  35.426  42.432  1.00  0.00    -0.064 NA
BRANCH  29  30
HETATM   30  N9  UNL     1      27.972  34.661  43.406  1.00  0.00    -0.337 N 
ATOM     31  H92 UNL     1      26.969  34.698  43.588  1.00  0.00     0.173 HD
ATOM     32  H91 UNL     1      28.628  34.067  43.914  1.00  0.00     0.173 HD
ENDBRANCH  29  30
ENDBRANCH  28  29
ENDBRANCH   9  28
ENDBRANCH   8   9
ENDBRANCH   7   8
ENDBRANCH   5   7
ENDBRANCH   4   5
ENDBRANCH   1   4
TORSDOF 13
ENDMDL
