MODEL 1
REMARK VINA RESULT: -5.282262931      0.000      0.000
REMARK  9 active torsions:
REMARK  status: ('A' for Active; 'I' for Inactive)
REMARK    1  A    between atoms: O1_2  and  C2_3 
REMARK    2  A    between atoms: C2_3  and  C3_5 
REMARK    3  A    between atoms: C3_5  and  O3_6 
REMARK    4  A    between atoms: C3_5  and  C4_8 
REMARK    5  A    between atoms: N1_10  and  N2_12 
REMARK       I    between atoms: N2_12  and  C6_14 
REMARK       I    between atoms: C6_14  and  N3_16 
REMARK    6  A    between atoms: N3_16  and  N4_18 
REMARK    7  A    between atoms: N5_22  and  N6_23 
REMARK    8  A    between atoms: C8_26  and  N7_27 
REMARK    9  A    between atoms: N7_27  and  O5_29 
ROOT
HETATM    1  N2  UNL     1      32.232  36.201  43.751  1.00  0.00    -0.250 N 
ATOM      2  H2  UNL     1      31.759  37.072  43.511  1.00  0.00     0.192 HD
HETATM    3  C6  UNL     1      31.763  34.956  43.172  1.00  0.00     0.354 C 
HETATM    4  O4  UNL     1      32.389  33.956  43.514  1.00  0.00    -0.244 OA
HETATM    5  N3  UNL     1      30.684  34.998  42.311  1.00  0.00    -0.223 N 
ATOM      6  H3  UNL     1      30.314  35.938  42.165  1.00  0.00     0.193 HD
ENDROOT
BRANCH   1   7
HETATM    7  N1  UNL     1      33.302  36.231  44.616  1.00  0.00    -0.302 N 
HETATM    8  C4  UNL     1      34.514  36.502  44.287  1.00  0.00     0.038 C 
HETATM    9  C5  UNL     1      34.942  36.829  42.905  1.00  0.00     0.068 C 
ATOM     10  H1  UNL     1      33.119  36.021  45.598  1.00  0.00     0.186 HD
BRANCH   8  11
HETATM   11  C3  UNL     1      35.550  36.492  45.347  1.00  0.00     0.264 C 
BRANCH  11  12
HETATM   12  C2  UNL     1      34.958  36.496  46.698  1.00  0.00     0.293 C 
HETATM   13  O2  UNL     1      34.704  37.592  47.254  1.00  0.00    -0.262 OA
BRANCH  12  14
HETATM   14  O1  UNL     1      34.677  35.314  47.358  1.00  0.00    -0.324 OA
HETATM   15  C1  UNL     1      35.474  34.157  47.268  1.00  0.00     0.213 C 
ENDBRANCH  12  14
ENDBRANCH  11  12
BRANCH  11  16
HETATM   16  O3  UNL     1      36.389  37.602  45.190  1.00  0.00    -0.380 OA
ATOM     17  H3  UNL     1      37.284  37.365  45.403  1.00  0.00     0.211 HD
ENDBRANCH  11  16
ENDBRANCH   8  11
ENDBRANCH   1   7
BRANCH   5  18
HETATM   18  N4  UNL     1      30.001  34.012  41.602  1.00  0.00    -0.043 N 
HETATM   19  S1  UNL     1      30.192  33.770  39.903  1.00  0.00     0.061 SA
HETATM   20  C7  UNL     1      29.122  32.474  39.703  1.00  0.00     0.200 A 
HETATM   21  S2  UNL     1      28.741  31.653  38.316  1.00  0.00    -0.048 SA
HETATM   22  N5  UNL     1      28.673  32.290  40.935  1.00  0.00    -0.069 N 
HETATM   23  C8  UNL     1      29.113  33.065  41.899  1.00  0.00     0.752 A 
BRANCH  22  24
HETATM   24  N6  UNL     1      27.716  31.240  41.148  1.00  0.00    -0.322 N 
ATOM     25  H62 UNL     1      26.912  31.086  40.538  1.00  0.00     0.178 HD
ATOM     26  H61 UNL     1      27.856  30.625  41.951  1.00  0.00     0.178 HD
ENDBRANCH  22  24
BRANCH  23  27
HETATM   27  N7  UNL     1      28.716  32.947  43.154  1.00  0.00    -0.094 N 
ATOM     28  H7  UNL     1      28.128  33.665  43.577  1.00  0.00     0.213 HD
BRANCH  27  29
HETATM   29  O5  UNL     1      29.094  31.869  43.871  1.00  0.00    -0.276 OA
ATOM     30  H5  UNL     1      29.451  31.990  44.743  1.00  0.00     0.245 HD
ENDBRANCH  27  29
ENDBRANCH  23  27
ENDBRANCH   5  18
TORSDOF 9
ENDMDL
MODEL 2
REMARK VINA RESULT: -5.159752806      6.866     11.501
REMARK  9 active torsions:
REMARK  status: ('A' for Active; 'I' for Inactive)
REMARK    1  A    between atoms: O1_2  and  C2_3 
REMARK    2  A    between atoms: C2_3  and  C3_5 
REMARK    3  A    between atoms: C3_5  and  O3_6 
REMARK    4  A    between atoms: C3_5  and  C4_8 
REMARK    5  A    between atoms: N1_10  and  N2_12 
REMARK       I    between atoms: N2_12  and  C6_14 
REMARK       I    between atoms: C6_14  and  N3_16 
REMARK    6  A    between atoms: N3_16  and  N4_18 
REMARK    7  A    between atoms: N5_22  and  N6_23 
REMARK    8  A    between atoms: C8_26  and  N7_27 
REMARK    9  A    between atoms: N7_27  and  O5_29 
ROOT
HETATM    1  N2  UNL     1      28.392  27.631  36.894  1.00  0.00    -0.250 N 
ATOM      2  H2  UNL     1      28.213  28.278  36.126  1.00  0.00     0.192 HD
HETATM    3  C6  UNL     1      28.778  28.157  38.190  1.00  0.00     0.354 C 
HETATM    4  O4  UNL     1      28.975  27.311  39.057  1.00  0.00    -0.244 OA
HETATM    5  N3  UNL     1      28.889  29.526  38.335  1.00  0.00    -0.223 N 
ATOM      6  H3  UNL     1      28.679  30.046  37.482  1.00  0.00     0.193 HD
ENDROOT
BRANCH   1   7
HETATM    7  N1  UNL     1      28.263  26.277  36.679  1.00  0.00    -0.302 N 
HETATM    8  C4  UNL     1      28.927  25.597  35.814  1.00  0.00     0.038 C 
HETATM    9  C5  UNL     1      29.947  26.182  34.910  1.00  0.00     0.068 C 
ATOM     10  H1  UNL     1      27.586  25.773  37.252  1.00  0.00     0.186 HD
BRANCH   8  11
HETATM   11  C3  UNL     1      28.664  24.142  35.712  1.00  0.00     0.264 C 
BRANCH  11  12
HETATM   12  C2  UNL     1      29.354  23.381  36.770  1.00  0.00     0.293 C 
HETATM   13  O2  UNL     1      29.623  23.946  37.857  1.00  0.00    -0.262 OA
BRANCH  12  14
HETATM   14  O1  UNL     1      29.707  22.057  36.584  1.00  0.00    -0.324 OA
HETATM   15  C1  UNL     1      31.030  21.580  36.664  1.00  0.00     0.213 C 
ENDBRANCH  12  14
ENDBRANCH  11  12
BRANCH  11  16
HETATM   16  O3  UNL     1      29.069  23.683  34.452  1.00  0.00    -0.380 OA
ATOM     17  H3  UNL     1      29.563  24.360  34.004  1.00  0.00     0.211 HD
ENDBRANCH  11  16
ENDBRANCH   8  11
ENDBRANCH   1   7
BRANCH   5  18
HETATM   18  N4  UNL     1      29.230  30.338  39.415  1.00  0.00    -0.043 N 
HETATM   19  S1  UNL     1      30.836  30.908  39.693  1.00  0.00     0.061 SA
HETATM   20  C7  UNL     1      30.554  31.798  41.106  1.00  0.00     0.200 A 
HETATM   21  S2  UNL     1      31.634  32.667  42.012  1.00  0.00    -0.048 SA
HETATM   22  N5  UNL     1      29.257  31.618  41.296  1.00  0.00    -0.069 N 
HETATM   23  C8  UNL     1      28.582  30.880  40.444  1.00  0.00     0.752 A 
BRANCH  22  24
HETATM   24  N6  UNL     1      28.653  32.247  42.438  1.00  0.00    -0.322 N 
ATOM     25  H62 UNL     1      28.466  33.249  42.487  1.00  0.00     0.178 HD
ATOM     26  H61 UNL     1      28.404  31.655  43.230  1.00  0.00     0.178 HD
ENDBRANCH  22  24
BRANCH  23  27
HETATM   27  N7  UNL     1      27.285  30.651  40.561  1.00  0.00    -0.094 N 
ATOM     28  H7  UNL     1      26.644  30.939  39.823  1.00  0.00     0.213 HD
BRANCH  27  29
HETATM   29  O5  UNL     1      26.818  30.032  41.665  1.00  0.00    -0.276 OA
ATOM     30  H5  UNL     1      25.887  29.863  41.747  1.00  0.00     0.245 HD
ENDBRANCH  27  29
ENDBRANCH  23  27
ENDBRANCH   5  18
TORSDOF 9
ENDMDL
MODEL 3
REMARK VINA RESULT: -5.131999085      5.132      9.429
REMARK  9 active torsions:
REMARK  status: ('A' for Active; 'I' for Inactive)
REMARK    1  A    between atoms: O1_2  and  C2_3 
REMARK    2  A    between atoms: C2_3  and  C3_5 
REMARK    3  A    between atoms: C3_5  and  O3_6 
REMARK    4  A    between atoms: C3_5  and  C4_8 
REMARK    5  A    between atoms: N1_10  and  N2_12 
REMARK       I    between atoms: N2_12  and  C6_14 
REMARK       I    between atoms: C6_14  and  N3_16 
REMARK    6  A    between atoms: N3_16  and  N4_18 
REMARK    7  A    between atoms: N5_22  and  N6_23 
REMARK    8  A    between atoms: C8_26  and  N7_27 
REMARK    9  A    between atoms: N7_27  and  O5_29 
ROOT
HETATM    1  N2  UNL     1      30.984  29.611  39.198  1.00  0.00    -0.250 N 
ATOM      2  H2  UNL     1      32.003  29.628  39.250  1.00  0.00     0.192 HD
HETATM    3  C6  UNL     1      30.222  30.654  39.859  1.00  0.00     0.354 C 
HETATM    4  O4  UNL     1      29.004  30.557  39.746  1.00  0.00    -0.244 OA
HETATM    5  N3  UNL     1      30.911  31.638  40.540  1.00  0.00    -0.223 N 
ATOM      6  H3  UNL     1      31.925  31.525  40.506  1.00  0.00     0.193 HD
ENDROOT
BRANCH   1   7
HETATM    7  N1  UNL     1      30.361  28.600  38.501  1.00  0.00    -0.302 N 
HETATM    8  C4  UNL     1      30.756  27.378  38.457  1.00  0.00     0.038 C 
HETATM    9  C5  UNL     1      31.958  26.872  39.165  1.00  0.00     0.068 C 
ATOM     10  H1  UNL     1      29.519  28.839  37.977  1.00  0.00     0.186 HD
BRANCH   8  11
HETATM   11  C3  UNL     1      29.967  26.412  37.657  1.00  0.00     0.264 C 
BRANCH  11  12
HETATM   12  C2  UNL     1      28.716  27.006  37.151  1.00  0.00     0.293 C 
HETATM   13  O2  UNL     1      27.749  27.161  37.935  1.00  0.00    -0.262 OA
BRANCH  12  14
HETATM   14  O1  UNL     1      28.592  27.396  35.830  1.00  0.00    -0.324 OA
HETATM   15  C1  UNL     1      28.972  28.664  35.348  1.00  0.00     0.213 C 
ENDBRANCH  12  14
ENDBRANCH  11  12
BRANCH  11  16
HETATM   16  O3  UNL     1      29.678  25.285  38.437  1.00  0.00    -0.380 OA
ATOM     17  H3  UNL     1      29.715  24.501  37.901  1.00  0.00     0.211 HD
ENDBRANCH  11  16
ENDBRANCH   8  11
ENDBRANCH   1   7
BRANCH   5  18
HETATM   18  N4  UNL     1      30.497  32.754  41.265  1.00  0.00    -0.043 N 
HETATM   19  S1  UNL     1      31.536  34.086  41.616  1.00  0.00     0.061 SA
HETATM   20  C7  UNL     1      30.444  35.045  42.484  1.00  0.00     0.200 A 
HETATM   21  S2  UNL     1      30.696  36.528  43.178  1.00  0.00    -0.048 SA
HETATM   22  N5  UNL     1      29.347  34.306  42.465  1.00  0.00    -0.069 N 
HETATM   23  C8  UNL     1      29.367  33.146  41.850  1.00  0.00     0.752 A 
BRANCH  22  24
HETATM   24  N6  UNL     1      28.180  34.822  43.127  1.00  0.00    -0.322 N 
ATOM     25  H62 UNL     1      28.198  35.192  44.078  1.00  0.00     0.178 HD
ATOM     26  H61 UNL     1      27.299  34.812  42.613  1.00  0.00     0.178 HD
ENDBRANCH  22  24
BRANCH  23  27
HETATM   27  N7  UNL     1      28.315  32.348  41.784  1.00  0.00    -0.094 N 
ATOM     28  H7  UNL     1      27.543  32.566  41.154  1.00  0.00     0.213 HD
BRANCH  27  29
HETATM   29  O5  UNL     1      28.272  31.243  42.556  1.00  0.00    -0.276 OA
ATOM     30  H5  UNL     1      27.500  31.070  43.082  1.00  0.00     0.245 HD
ENDBRANCH  27  29
ENDBRANCH  23  27
ENDBRANCH   5  18
TORSDOF 9
ENDMDL
MODEL 4
REMARK VINA RESULT: -5.088108174      5.744      8.404
REMARK  9 active torsions:
REMARK  status: ('A' for Active; 'I' for Inactive)
REMARK    1  A    between atoms: O1_2  and  C2_3 
REMARK    2  A    between atoms: C2_3  and  C3_5 
REMARK    3  A    between atoms: C3_5  and  O3_6 
REMARK    4  A    between atoms: C3_5  and  C4_8 
REMARK    5  A    between atoms: N1_10  and  N2_12 
REMARK       I    between atoms: N2_12  and  C6_14 
REMARK       I    between atoms: C6_14  and  N3_16 
REMARK    6  A    between atoms: N3_16  and  N4_18 
REMARK    7  A    between atoms: N5_22  and  N6_23 
REMARK    8  A    between atoms: C8_26  and  N7_27 
REMARK    9  A    between atoms: N7_27  and  O5_29 
ROOT
HETATM    1  N2  UNL     1      28.080  29.883  39.478  1.00  0.00    -0.250 N 
ATOM      2  H2  UNL     1      27.090  29.879  39.231  1.00  0.00     0.192 HD
HETATM    3  C6  UNL     1      28.955  28.870  38.919  1.00  0.00     0.354 C 
HETATM    4  O4  UNL     1      30.129  28.948  39.269  1.00  0.00    -0.244 OA
HETATM    5  N3  UNL     1      28.410  27.931  38.066  1.00  0.00    -0.223 N 
ATOM      6  H3  UNL     1      27.408  28.052  37.912  1.00  0.00     0.193 HD
ENDROOT
BRANCH   1   7
HETATM    7  N1  UNL     1      28.557  30.850  40.335  1.00  0.00    -0.302 N 
HETATM    8  C4  UNL     1      28.358  32.113  40.212  1.00  0.00     0.038 C 
HETATM    9  C5  UNL     1      27.570  32.722  39.112  1.00  0.00     0.068 C 
ATOM     10  H1  UNL     1      29.113  30.538  41.132  1.00  0.00     0.186 HD
BRANCH   8  11
HETATM   11  C3  UNL     1      28.945  33.020  41.227  1.00  0.00     0.264 C 
BRANCH  11  12
HETATM   12  C2  UNL     1      29.454  32.282  42.398  1.00  0.00     0.293 C 
HETATM   13  O2  UNL     1      28.735  32.183  43.421  1.00  0.00    -0.262 OA
BRANCH  12  14
HETATM   14  O1  UNL     1      30.707  31.698  42.385  1.00  0.00    -0.324 OA
HETATM   15  C1  UNL     1      31.787  32.177  41.619  1.00  0.00     0.213 C 
ENDBRANCH  12  14
ENDBRANCH  11  12
BRANCH  11  16
HETATM   16  O3  UNL     1      27.981  33.952  41.632  1.00  0.00    -0.380 OA
ATOM     17  H3  UNL     1      27.237  33.926  41.042  1.00  0.00     0.211 HD
ENDBRANCH  11  16
ENDBRANCH   8  11
ENDBRANCH   1   7
BRANCH   5  18
HETATM   18  N4  UNL     1      28.956  26.851  37.375  1.00  0.00    -0.043 N 
HETATM   19  S1  UNL     1      28.636  26.542  35.707  1.00  0.00     0.061 SA
HETATM   20  C7  UNL     1      29.572  25.144  35.518  1.00  0.00     0.200 A 
HETATM   21  S2  UNL     1      29.789  24.222  34.159  1.00  0.00    -0.048 SA
HETATM   22  N5  UNL     1      30.079  24.981  36.729  1.00  0.00    -0.069 N 
HETATM   23  C8  UNL     1      29.771  25.841  37.673  1.00  0.00     0.752 A 
BRANCH  22  24
HETATM   24  N6  UNL     1      30.949  23.858  36.946  1.00  0.00    -0.322 N 
ATOM     25  H62 UNL     1      30.718  22.910  36.650  1.00  0.00     0.178 HD
ATOM     26  H61 UNL     1      31.837  24.029  37.418  1.00  0.00     0.178 HD
ENDBRANCH  22  24
BRANCH  23  27
HETATM   27  N7  UNL     1      30.235  25.751  38.908  1.00  0.00    -0.094 N 
ATOM     28  H7  UNL     1      29.646  25.380  39.653  1.00  0.00     0.213 HD
BRANCH  27  29
HETATM   29  O5  UNL     1      31.495  26.154  39.174  1.00  0.00    -0.276 OA
ATOM     30  H5  UNL     1      32.045  25.624  39.738  1.00  0.00     0.245 HD
ENDBRANCH  27  29
ENDBRANCH  23  27
ENDBRANCH   5  18
TORSDOF 9
ENDMDL
MODEL 5
REMARK VINA RESULT: -5.069779996      6.822     10.123
REMARK  9 active torsions:
REMARK  status: ('A' for Active; 'I' for Inactive)
REMARK    1  A    between atoms: O1_2  and  C2_3 
REMARK    2  A    between atoms: C2_3  and  C3_5 
REMARK    3  A    between atoms: C3_5  and  O3_6 
REMARK    4  A    between atoms: C3_5  and  C4_8 
REMARK    5  A    between atoms: N1_10  and  N2_12 
REMARK       I    between atoms: N2_12  and  C6_14 
REMARK       I    between atoms: C6_14  and  N3_16 
REMARK    6  A    between atoms: N3_16  and  N4_18 
REMARK    7  A    between atoms: N5_22  and  N6_23 
REMARK    8  A    between atoms: C8_26  and  N7_27 
REMARK    9  A    between atoms: N7_27  and  O5_29 
ROOT
HETATM    1  N2  UNL     1      29.214  27.943  38.788  1.00  0.00    -0.250 N 
ATOM      2  H2  UNL     1      29.695  27.282  39.398  1.00  0.00     0.192 HD
HETATM    3  C6  UNL     1      29.094  27.646  37.373  1.00  0.00     0.354 C 
HETATM    4  O4  UNL     1      28.502  28.494  36.712  1.00  0.00    -0.244 OA
HETATM    5  N3  UNL     1      29.640  26.468  36.902  1.00  0.00    -0.223 N 
ATOM      6  H3  UNL     1      30.089  25.907  37.627  1.00  0.00     0.193 HD
ENDROOT
BRANCH   1   7
HETATM    7  N1  UNL     1      28.693  29.100  39.325  1.00  0.00    -0.302 N 
HETATM    8  C4  UNL     1      29.369  30.154  39.611  1.00  0.00     0.038 C 
HETATM    9  C5  UNL     1      30.832  30.280  39.400  1.00  0.00     0.068 C 
ATOM     10  H1  UNL     1      27.690  29.121  39.510  1.00  0.00     0.186 HD
BRANCH   8  11
HETATM   11  C3  UNL     1      28.650  31.316  40.185  1.00  0.00     0.264 C 
BRANCH  11  12
HETATM   12  C2  UNL     1      28.080  31.013  41.511  1.00  0.00     0.293 C 
HETATM   13  O2  UNL     1      27.096  30.238  41.594  1.00  0.00    -0.262 OA
BRANCH  12  14
HETATM   14  O1  UNL     1      28.612  31.565  42.661  1.00  0.00    -0.324 OA
HETATM   15  C1  UNL     1      29.464  32.687  42.671  1.00  0.00     0.213 C 
ENDBRANCH  12  14
ENDBRANCH  11  12
BRANCH  11  16
HETATM   16  O3  UNL     1      27.633  31.714  39.308  1.00  0.00    -0.380 OA
ATOM     17  H3  UNL     1      26.923  31.083  39.327  1.00  0.00     0.211 HD
ENDBRANCH  11  16
ENDBRANCH   8  11
ENDBRANCH   1   7
BRANCH   5  18
HETATM   18  N4  UNL     1      29.700  25.894  35.634  1.00  0.00    -0.043 N 
HETATM   19  S1  UNL     1      30.691  26.516  34.365  1.00  0.00     0.061 SA
HETATM   20  C7  UNL     1      30.301  25.395  33.158  1.00  0.00     0.200 A 
HETATM   21  S2  UNL     1      30.862  25.315  31.601  1.00  0.00    -0.048 SA
HETATM   22  N5  UNL     1      29.438  24.606  33.777  1.00  0.00    -0.069 N 
HETATM   23  C8  UNL     1      29.130  24.853  35.029  1.00  0.00     0.752 A 
BRANCH  22  24
HETATM   24  N6  UNL     1      28.880  23.509  33.035  1.00  0.00    -0.322 N 
ATOM     25  H62 UNL     1      29.449  22.852  32.500  1.00  0.00     0.178 HD
ATOM     26  H61 UNL     1      27.867  23.392  33.050  1.00  0.00     0.178 HD
ENDBRANCH  22  24
BRANCH  23  27
HETATM   27  N7  UNL     1      28.278  24.115  35.720  1.00  0.00    -0.094 N 
ATOM     28  H7  UNL     1      27.303  24.044  35.427  1.00  0.00     0.213 HD
BRANCH  27  29
HETATM   29  O5  UNL     1      28.708  23.456  36.815  1.00  0.00    -0.276 OA
ATOM     30  H5  UNL     1      28.474  22.542  36.933  1.00  0.00     0.245 HD
ENDBRANCH  27  29
ENDBRANCH  23  27
ENDBRANCH   5  18
TORSDOF 9
ENDMDL
