MODEL 1
REMARK VINA RESULT: -5.920743526      0.000      0.000
REMARK  5 active torsions:
REMARK  status: ('A' for Active; 'I' for Inactive)
REMARK    1  A    between atoms: C2_5  and  C3_6 
REMARK    2  A    between atoms: C5_14  and  C6_15 
REMARK    3  A    between atoms: N6_16  and  N7_18 
REMARK    4  A    between atoms: N7_18  and  C7_20 
REMARK    5  A    between atoms: N13_36  and  N14_37 
ROOT
HETATM    1  N1  UNL     1      27.508  32.063  40.136  1.00  0.00    -0.382 N 
ATOM      2  H11 UNL     1      26.931  31.475  39.534  1.00  0.00     0.157 HD
ATOM      3  H12 UNL     1      27.183  32.883  40.650  1.00  0.00     0.157 HD
HETATM    4  C1  UNL     1      28.750  31.722  40.244  1.00  0.00     0.153 A 
HETATM    5  C2  UNL     1      29.540  32.527  41.069  1.00  0.00     0.073 A 
HETATM    6  C4  UNL     1      30.862  32.194  41.205  1.00  0.00     0.058 A 
HETATM    7  C5  UNL     1      31.947  32.688  41.884  1.00  0.00     0.080 A 
HETATM    8  N10 UNL     1      33.003  31.862  41.579  1.00  0.00    -0.297 N 
ATOM      9  H10 UNL     1      33.950  31.980  41.940  1.00  0.00     0.187 HD
HETATM   10  N11 UNL     1      32.635  30.909  40.767  1.00  0.00    -0.283 N 
ATOM     11  H11 UNL     1      33.258  30.183  40.411  1.00  0.00     0.188 HD
HETATM   12  C11 UNL     1      31.332  31.006  40.461  1.00  0.00     0.150 A 
HETATM   13  N12 UNL     1      30.466  30.321  39.703  1.00  0.00    -0.261 N 
ATOM     14  H12 UNL     1      30.808  29.504  39.197  1.00  0.00     0.191 HD
HETATM   15  N13 UNL     1      29.173  30.653  39.575  1.00  0.00    -0.184 N 
ENDROOT
BRANCH   7  16
HETATM   16  C6  UNL     1      32.001  33.846  42.754  1.00  0.00     0.139 C 
HETATM   17  N6  UNL     1      33.150  34.048  43.354  1.00  0.00    -0.308 N 
ATOM     18  H6  UNL     1      33.942  33.421  43.207  1.00  0.00     0.186 HD
BRANCH  17  19
HETATM   19  N7  UNL     1      33.248  35.151  44.202  1.00  0.00    -0.288 N 
ATOM     20  H7  UNL     1      33.649  35.081  45.137  1.00  0.00     0.188 HD
BRANCH  19  21
HETATM   21  C7  UNL     1      32.749  36.393  43.679  1.00  0.00     0.117 C 
HETATM   22  N8  UNL     1      33.397  37.045  42.753  1.00  0.00    -0.376 N 
HETATM   23  C8  UNL     1      32.753  38.297  42.328  1.00  0.00     0.148 C 
ATOM     24  H8  UNL     1      34.277  36.714  42.356  1.00  0.00     0.160 HD
HETATM   25  C9  UNL     1      31.326  37.949  41.953  1.00  0.00     0.252 C 
HETATM   26  N9  UNL     1      30.605  37.380  43.069  1.00  0.00    -0.067 N 
HETATM   27  C10 UNL     1      31.488  36.998  44.154  1.00  0.00     0.309 C 
ATOM     28  H92 UNL     1      29.872  38.010  43.394  1.00  0.00     0.277 HD
ATOM     29  H91 UNL     1      30.025  36.596  42.772  1.00  0.00     0.277 HD
ENDBRANCH  19  21
ENDBRANCH  17  19
ENDBRANCH   7  16
BRANCH   5  30
HETATM   30  C3  UNL     1      28.956  33.672  41.749  1.00  0.00     0.146 A 
HETATM   31  N2  UNL     1      28.868  34.904  41.219  1.00  0.00    -0.270 N 
HETATM   32  N3  UNL     1      28.327  35.732  42.097  1.00  0.00    -0.007 NA
ATOM     33  H2  UNL     1      29.172  35.162  40.280  1.00  0.00     0.185 HD
HETATM   34  N4  UNL     1      28.066  35.033  43.197  1.00  0.00    -0.007 NA
HETATM   35  N5  UNL     1      28.451  33.766  42.990  1.00  0.00    -0.270 N 
ATOM     36  H5  UNL     1      28.374  33.002  43.662  1.00  0.00     0.185 HD
ENDBRANCH   5  30
BRANCH  15  37
HETATM   37  N14 UNL     1      28.326  29.884  38.760  1.00  0.00    -0.322 N 
ATOM     38 2H14 UNL     1      28.566  29.721  37.782  1.00  0.00     0.179 HD
ATOM     39 1H14 UNL     1      27.461  29.468  39.104  1.00  0.00     0.179 HD
ENDBRANCH  15  37
TORSDOF 5
ENDMDL
MODEL 2
REMARK VINA RESULT: -5.861520391      1.559      5.633
REMARK  5 active torsions:
REMARK  status: ('A' for Active; 'I' for Inactive)
REMARK    1  A    between atoms: C2_5  and  C3_6 
REMARK    2  A    between atoms: C5_14  and  C6_15 
REMARK    3  A    between atoms: N6_16  and  N7_18 
REMARK    4  A    between atoms: N7_18  and  C7_20 
REMARK    5  A    between atoms: N13_36  and  N14_37 
ROOT
HETATM    1  N1  UNL     1      31.837  36.649  43.574  1.00  0.00    -0.382 N 
ATOM      2  H11 UNL     1      32.442  37.318  44.051  1.00  0.00     0.157 HD
ATOM      3  H12 UNL     1      30.863  36.810  43.318  1.00  0.00     0.157 HD
HETATM    4  C1  UNL     1      32.371  35.509  43.279  1.00  0.00     0.153 A 
HETATM    5  C2  UNL     1      31.542  34.592  42.627  1.00  0.00     0.073 A 
HETATM    6  C4  UNL     1      32.076  33.373  42.300  1.00  0.00     0.058 A 
HETATM    7  C5  UNL     1      31.637  32.228  41.683  1.00  0.00     0.080 A 
HETATM    8  N10 UNL     1      32.703  31.360  41.676  1.00  0.00    -0.297 N 
ATOM      9  H10 UNL     1      32.678  30.421  41.280  1.00  0.00     0.187 HD
HETATM   10  N11 UNL     1      33.750  31.896  42.242  1.00  0.00    -0.283 N 
ATOM     11  H11 UNL     1      34.651  31.429  42.346  1.00  0.00     0.188 HD
HETATM   12  C11 UNL     1      33.489  33.140  42.670  1.00  0.00     0.150 A 
HETATM   13  N12 UNL     1      34.171  34.109  43.296  1.00  0.00    -0.261 N 
ATOM     14  H12 UNL     1      35.144  33.930  43.544  1.00  0.00     0.191 HD
HETATM   15  N13 UNL     1      33.642  35.299  43.612  1.00  0.00    -0.184 N 
ENDROOT
BRANCH   7  16
HETATM   16  C6  UNL     1      30.321  31.959  41.140  1.00  0.00     0.139 C 
HETATM   17  N6  UNL     1      29.415  31.590  42.015  1.00  0.00    -0.308 N 
ATOM     18  H6  UNL     1      29.639  31.504  43.007  1.00  0.00     0.186 HD
BRANCH  17  19
HETATM   19  N7  UNL     1      28.132  31.321  41.537  1.00  0.00    -0.288 N 
ATOM     20  H7  UNL     1      27.459  30.774  42.074  1.00  0.00     0.188 HD
BRANCH  19  21
HETATM   21  C7  UNL     1      27.816  31.858  40.243  1.00  0.00     0.117 C 
HETATM   22  N8  UNL     1      27.331  33.062  40.112  1.00  0.00    -0.376 N 
HETATM   23  C8  UNL     1      27.061  33.460  38.721  1.00  0.00     0.148 C 
ATOM     24  H8  UNL     1      27.154  33.677  40.907  1.00  0.00     0.160 HD
HETATM   25  C9  UNL     1      28.339  33.223  37.943  1.00  0.00     0.252 C 
HETATM   26  N9  UNL     1      28.741  31.835  37.987  1.00  0.00    -0.067 N 
HETATM   27  C10 UNL     1      28.019  31.088  38.999  1.00  0.00     0.309 C 
ATOM     28  H92 UNL     1      28.653  31.396  37.071  1.00  0.00     0.277 HD
ATOM     29  H91 UNL     1      29.749  31.746  38.113  1.00  0.00     0.277 HD
ENDBRANCH  19  21
ENDBRANCH  17  19
ENDBRANCH   7  16
BRANCH   5  30
HETATM   30  C3  UNL     1      30.165  34.942  42.316  1.00  0.00     0.146 A 
HETATM   31  N2  UNL     1      29.129  34.757  43.151  1.00  0.00    -0.270 N 
HETATM   32  N3  UNL     1      28.006  35.138  42.564  1.00  0.00    -0.007 NA
ATOM     33  H2  UNL     1      29.198  34.378  44.096  1.00  0.00     0.185 HD
HETATM   34  N4  UNL     1      28.319  35.570  41.347  1.00  0.00    -0.007 NA
HETATM   35  N5  UNL     1      29.645  35.452  41.188  1.00  0.00    -0.270 N 
ATOM     36  H5  UNL     1      30.170  35.707  40.350  1.00  0.00     0.185 HD
ENDBRANCH   5  30
BRANCH  15  37
HETATM   37  N14 UNL     1      34.423  36.264  44.268  1.00  0.00    -0.322 N 
ATOM     38 2H14 UNL     1      34.160  36.589  45.200  1.00  0.00     0.179 HD
ATOM     39 1H14 UNL     1      35.262  36.670  43.852  1.00  0.00     0.179 HD
ENDBRANCH  15  37
TORSDOF 5
ENDMDL
MODEL 3
REMARK VINA RESULT: -5.798463023      2.644      4.569
REMARK  5 active torsions:
REMARK  status: ('A' for Active; 'I' for Inactive)
REMARK    1  A    between atoms: C2_5  and  C3_6 
REMARK    2  A    between atoms: C5_14  and  C6_15 
REMARK    3  A    between atoms: N6_16  and  N7_18 
REMARK    4  A    between atoms: N7_18  and  C7_20 
REMARK    5  A    between atoms: N13_36  and  N14_37 
ROOT
HETATM    1  N1  UNL     1      29.051  32.970  35.671  1.00  0.00    -0.382 N 
ATOM      2  H11 UNL     1      29.329  33.051  34.693  1.00  0.00     0.157 HD
ATOM      3  H12 UNL     1      28.815  33.750  36.286  1.00  0.00     0.157 HD
HETATM    4  C1  UNL     1      28.999  31.770  36.151  1.00  0.00     0.153 A 
HETATM    5  C2  UNL     1      28.618  31.660  37.491  1.00  0.00     0.073 A 
HETATM    6  C4  UNL     1      28.554  30.403  38.032  1.00  0.00     0.058 A 
HETATM    7  C5  UNL     1      28.239  29.860  39.253  1.00  0.00     0.080 A 
HETATM    8  N10 UNL     1      28.378  28.499  39.118  1.00  0.00    -0.297 N 
ATOM      9  H10 UNL     1      28.211  27.826  39.866  1.00  0.00     0.187 HD
HETATM   10  N11 UNL     1      28.752  28.182  37.909  1.00  0.00    -0.283 N 
ATOM     11  H11 UNL     1      28.914  27.227  37.588  1.00  0.00     0.188 HD
HETATM   12  C11 UNL     1      28.895  29.273  37.141  1.00  0.00     0.150 A 
HETATM   13  N12 UNL     1      29.245  29.521  35.872  1.00  0.00    -0.261 N 
ATOM     14  H12 UNL     1      29.478  28.729  35.272  1.00  0.00     0.191 HD
HETATM   15  N13 UNL     1      29.306  30.754  35.350  1.00  0.00    -0.184 N 
ENDROOT
BRANCH   7  16
HETATM   16  C6  UNL     1      27.841  30.556  40.459  1.00  0.00     0.139 C 
HETATM   17  N6  UNL     1      28.810  31.156  41.111  1.00  0.00    -0.308 N 
ATOM     18  H6  UNL     1      29.773  31.124  40.775  1.00  0.00     0.186 HD
BRANCH  17  19
HETATM   19  N7  UNL     1      28.472  31.840  42.279  1.00  0.00    -0.288 N 
ATOM     20  H7  UNL     1      27.662  31.579  42.842  1.00  0.00     0.188 HD
BRANCH  19  21
HETATM   21  C7  UNL     1      29.331  32.932  42.641  1.00  0.00     0.117 C 
HETATM   22  N8  UNL     1      30.629  32.799  42.640  1.00  0.00    -0.376 N 
HETATM   23  C8  UNL     1      31.365  34.010  43.036  1.00  0.00     0.148 C 
ATOM     24  H8  UNL     1      31.096  31.928  42.385  1.00  0.00     0.160 HD
HETATM   25  C9  UNL     1      30.859  35.135  42.155  1.00  0.00     0.252 C 
HETATM   26  N9  UNL     1      29.439  35.346  42.321  1.00  0.00    -0.067 N 
HETATM   27  C10 UNL     1      28.803  34.254  43.032  1.00  0.00     0.309 C 
ATOM     28  H92 UNL     1      29.250  36.241  42.773  1.00  0.00     0.277 HD
ATOM     29  H91 UNL     1      28.984  35.518  41.425  1.00  0.00     0.277 HD
ENDBRANCH  19  21
ENDBRANCH  17  19
ENDBRANCH   7  16
BRANCH   5  30
HETATM   30  C3  UNL     1      28.306  32.852  38.264  1.00  0.00     0.146 A 
HETATM   31  N2  UNL     1      29.217  33.592  38.917  1.00  0.00    -0.270 N 
HETATM   32  N3  UNL     1      28.616  34.582  39.556  1.00  0.00    -0.007 NA
ATOM     33  H2  UNL     1      30.222  33.416  38.921  1.00  0.00     0.185 HD
HETATM   34  N4  UNL     1      27.313  34.481  39.314  1.00  0.00    -0.007 NA
HETATM   35  N5  UNL     1      27.115  33.419  38.521  1.00  0.00    -0.270 N 
ATOM     36  H5  UNL     1      26.213  33.095  38.171  1.00  0.00     0.185 HD
ENDBRANCH   5  30
BRANCH  15  37
HETATM   37  N14 UNL     1      29.682  30.933  34.009  1.00  0.00    -0.322 N 
ATOM     38 2H14 UNL     1      29.792  31.873  33.629  1.00  0.00     0.179 HD
ATOM     39 1H14 UNL     1      29.857  30.151  33.377  1.00  0.00     0.179 HD
ENDBRANCH  15  37
TORSDOF 5
ENDMDL
MODEL 4
REMARK VINA RESULT: -5.652842927      2.854      4.926
REMARK  5 active torsions:
REMARK  status: ('A' for Active; 'I' for Inactive)
REMARK    1  A    between atoms: C2_5  and  C3_6 
REMARK    2  A    between atoms: C5_14  and  C6_15 
REMARK    3  A    between atoms: N6_16  and  N7_18 
REMARK    4  A    between atoms: N7_18  and  C7_20 
REMARK    5  A    between atoms: N13_36  and  N14_37 
ROOT
HETATM    1  N1  UNL     1      29.303  32.132  35.156  1.00  0.00    -0.382 N 
ATOM      2  H11 UNL     1      29.598  32.047  34.183  1.00  0.00     0.157 HD
ATOM      3  H12 UNL     1      29.141  33.010  35.651  1.00  0.00     0.157 HD
HETATM    4  C1  UNL     1      29.126  31.023  35.796  1.00  0.00     0.153 A 
HETATM    5  C2  UNL     1      28.722  31.139  37.129  1.00  0.00     0.073 A 
HETATM    6  C4  UNL     1      28.525  29.983  37.837  1.00  0.00     0.058 A 
HETATM    7  C5  UNL     1      28.146  29.650  39.113  1.00  0.00     0.080 A 
HETATM    8  N10 UNL     1      28.147  28.277  39.171  1.00  0.00    -0.297 N 
ATOM      9  H10 UNL     1      27.905  27.735  40.000  1.00  0.00     0.187 HD
HETATM   10  N11 UNL     1      28.499  27.757  38.026  1.00  0.00    -0.283 N 
ATOM     11  H11 UNL     1      28.567  26.756  37.845  1.00  0.00     0.188 HD
HETATM   12  C11 UNL     1      28.759  28.711  37.119  1.00  0.00     0.150 A 
HETATM   13  N12 UNL     1      29.146  28.743  35.837  1.00  0.00    -0.261 N 
ATOM     14  H12 UNL     1      29.303  27.856  35.358  1.00  0.00     0.191 HD
HETATM   15  N13 UNL     1      29.336  29.879  35.150  1.00  0.00    -0.184 N 
ENDROOT
BRANCH   7  16
HETATM   16  C6  UNL     1      27.808  30.544  40.202  1.00  0.00     0.139 C 
HETATM   17  N6  UNL     1      28.818  30.943  40.938  1.00  0.00    -0.308 N 
ATOM     18  H6  UNL     1      29.771  30.634  40.743  1.00  0.00     0.186 HD
BRANCH  17  19
HETATM   19  N7  UNL     1      28.540  31.806  41.999  1.00  0.00    -0.288 N 
ATOM     20  H7  UNL     1      27.955  31.524  42.785  1.00  0.00     0.188 HD
BRANCH  19  21
HETATM   21  C7  UNL     1      29.125  33.115  41.917  1.00  0.00     0.117 C 
HETATM   22  N8  UNL     1      28.381  34.186  41.870  1.00  0.00    -0.376 N 
HETATM   23  C8  UNL     1      29.135  35.446  41.787  1.00  0.00     0.148 C 
ATOM     24  H8  UNL     1      27.362  34.152  41.890  1.00  0.00     0.160 HD
HETATM   25  C9  UNL     1      30.130  35.436  42.931  1.00  0.00     0.252 C 
HETATM   26  N9  UNL     1      31.037  34.314  42.838  1.00  0.00    -0.067 N 
HETATM   27  C10 UNL     1      30.587  33.323  41.880  1.00  0.00     0.309 C 
ATOM     28  H92 UNL     1      31.987  34.624  42.631  1.00  0.00     0.277 HD
ATOM     29  H91 UNL     1      31.200  33.895  43.754  1.00  0.00     0.277 HD
ENDBRANCH  19  21
ENDBRANCH  17  19
ENDBRANCH   7  16
BRANCH   5  30
HETATM   30  C3  UNL     1      28.524  32.452  37.721  1.00  0.00     0.146 A 
HETATM   31  N2  UNL     1      29.512  33.215  38.221  1.00  0.00    -0.270 N 
HETATM   32  N3  UNL     1      29.007  34.330  38.722  1.00  0.00    -0.007 NA
ATOM     33  H2  UNL     1      30.502  32.971  38.214  1.00  0.00     0.185 HD
HETATM   34  N4  UNL     1      27.690  34.287  38.547  1.00  0.00    -0.007 NA
HETATM   35  N5  UNL     1      27.387  33.135  37.932  1.00  0.00    -0.270 N 
ATOM     36  H5  UNL     1      26.450  32.828  37.669  1.00  0.00     0.185 HD
ENDBRANCH   5  30
BRANCH  15  37
HETATM   37  N14 UNL     1      29.741  29.830  33.807  1.00  0.00    -0.322 N 
ATOM     38 2H14 UNL     1      30.586  29.320  33.545  1.00  0.00     0.179 HD
ATOM     39 1H14 UNL     1      29.222  30.289  33.058  1.00  0.00     0.179 HD
ENDBRANCH  15  37
TORSDOF 5
ENDMDL
MODEL 5
REMARK VINA RESULT: -5.540305625      5.257      8.636
REMARK  5 active torsions:
REMARK  status: ('A' for Active; 'I' for Inactive)
REMARK    1  A    between atoms: C2_5  and  C3_6 
REMARK    2  A    between atoms: C5_14  and  C6_15 
REMARK    3  A    between atoms: N6_16  and  N7_18 
REMARK    4  A    between atoms: N7_18  and  C7_20 
REMARK    5  A    between atoms: N13_36  and  N14_37 
ROOT
HETATM    1  N1  UNL     1      27.954  24.741  35.148  1.00  0.00    -0.382 N 
ATOM      2  H11 UNL     1      27.573  23.920  34.676  1.00  0.00     0.157 HD
ATOM      3  H12 UNL     1      28.192  24.797  36.138  1.00  0.00     0.157 HD
HETATM    4  C1  UNL     1      28.141  25.786  34.409  1.00  0.00     0.153 A 
HETATM    5  C2  UNL     1      28.662  26.910  35.056  1.00  0.00     0.073 A 
HETATM    6  C4  UNL     1      28.873  28.036  34.303  1.00  0.00     0.058 A 
HETATM    7  C5  UNL     1      29.347  29.305  34.523  1.00  0.00     0.080 A 
HETATM    8  N10 UNL     1      29.296  29.951  33.311  1.00  0.00    -0.297 N 
ATOM      9  H10 UNL     1      29.587  30.917  33.160  1.00  0.00     0.187 HD
HETATM   10  N11 UNL     1      28.827  29.167  32.378  1.00  0.00    -0.283 N 
ATOM     11  H11 UNL     1      28.704  29.441  31.404  1.00  0.00     0.188 HD
HETATM   12  C11 UNL     1      28.528  27.954  32.867  1.00  0.00     0.150 A 
HETATM   13  N12 UNL     1      28.035  26.810  32.375  1.00  0.00    -0.261 N 
ATOM     14  H12 UNL     1      27.802  26.772  31.383  1.00  0.00     0.191 HD
HETATM   15  N13 UNL     1      27.831  25.713  33.118  1.00  0.00    -0.184 N 
ENDROOT
BRANCH   7  16
HETATM   16  C6  UNL     1      29.812  29.877  35.770  1.00  0.00     0.139 C 
HETATM   17  N6  UNL     1      29.087  30.864  36.243  1.00  0.00    -0.308 N 
ATOM     18  H6  UNL     1      28.255  31.193  35.752  1.00  0.00     0.186 HD
BRANCH  17  19
HETATM   19  N7  UNL     1      29.498  31.445  37.442  1.00  0.00    -0.288 N 
ATOM     20  H7  UNL     1      30.373  31.963  37.520  1.00  0.00     0.188 HD
BRANCH  19  21
HETATM   21  C7  UNL     1      28.614  31.272  38.561  1.00  0.00     0.117 C 
HETATM   22  N8  UNL     1      28.435  30.100  39.106  1.00  0.00    -0.376 N 
HETATM   23  C8  UNL     1      27.499  30.094  40.241  1.00  0.00     0.148 C 
ATOM     24  H8  UNL     1      28.905  29.258  38.773  1.00  0.00     0.160 HD
HETATM   25  C9  UNL     1      27.980  31.157  41.209  1.00  0.00     0.252 C 
HETATM   26  N9  UNL     1      28.001  32.466  40.597  1.00  0.00    -0.067 N 
HETATM   27  C10 UNL     1      27.864  32.398  39.154  1.00  0.00     0.309 C 
ATOM     28  H92 UNL     1      27.293  33.076  41.007  1.00  0.00     0.277 HD
ATOM     29  H91 UNL     1      28.836  32.985  40.864  1.00  0.00     0.277 HD
ENDBRANCH  19  21
ENDBRANCH  17  19
ENDBRANCH   7  16
BRANCH   5  30
HETATM   30  C3  UNL     1      28.961  26.863  36.478  1.00  0.00     0.146 A 
HETATM   31  N2  UNL     1      28.102  27.224  37.446  1.00  0.00    -0.270 N 
HETATM   32  N3  UNL     1      28.683  27.106  38.629  1.00  0.00    -0.007 NA
ATOM     33  H2  UNL     1      27.144  27.541  37.292  1.00  0.00     0.185 HD
HETATM   34  N4  UNL     1      29.921  26.669  38.424  1.00  0.00    -0.007 NA
HETATM   35  N5  UNL     1      30.099  26.518  37.103  1.00  0.00    -0.270 N 
ATOM     36  H5  UNL     1      30.955  26.195  36.650  1.00  0.00     0.185 HD
ENDBRANCH   5  30
BRANCH  15  37
HETATM   37  N14 UNL     1      27.310  24.550  32.528  1.00  0.00    -0.322 N 
ATOM     38 2H14 UNL     1      27.325  23.666  33.038  1.00  0.00     0.179 HD
ATOM     39 1H14 UNL     1      26.906  24.541  31.591  1.00  0.00     0.179 HD
ENDBRANCH  15  37
TORSDOF 5
ENDMDL
