MODEL 1
REMARK VINA RESULT: -6.149740251      0.000      0.000
REMARK  6 active torsions:
REMARK  status: ('A' for Active; 'I' for Inactive)
REMARK    1  A    between atoms: N1_1  and  N2_4 
REMARK    2  A    between atoms: N2_4  and  C1_6 
REMARK    3  A    between atoms: C3_11  and  N5_12 
REMARK    4  A    between atoms: N6_14  and  N7_16 
REMARK       I    between atoms: N7_16  and  C4_18 
REMARK       I    between atoms: C4_18  and  N10_28 
REMARK    5  A    between atoms: N8_19  and  N9_21 
REMARK    6  A    between atoms: N10_28  and  N11_30 
ROOT
HETATM    1  N5  UNL     1      30.097  29.728  38.954  1.00  0.00    -0.278 N 
ATOM      2  H5  UNL     1      30.055  30.115  38.012  1.00  0.00     0.189 HD
HETATM    3  N6  UNL     1      30.519  28.539  39.121  1.00  0.00    -0.228 N 
ATOM      4  H6  UNL     1      30.569  28.135  40.056  1.00  0.00     0.209 HD
ENDROOT
BRANCH   3   5
HETATM    5  N7  UNL     1      30.912  27.801  38.009  1.00  0.00    -0.115 N 
HETATM    6  C4  UNL     1      30.267  26.594  37.613  1.00  0.00     0.732 C 
HETATM    7  N8  UNL     1      30.416  25.549  38.347  1.00  0.00    -0.126 N 
HETATM    8  N10 UNL     1      29.489  26.596  36.425  1.00  0.00    -0.069 N 
ATOM      9  H8  UNL     1      30.992  25.623  39.186  1.00  0.00     0.206 HD
ATOM     10  H10 UNL     1      29.361  25.724  35.911  1.00  0.00     0.212 HD
ATOM     11  H7  UNL     1      31.696  28.139  37.453  1.00  0.00     0.207 HD
BRANCH   7  12
HETATM   12  N9  UNL     1      29.833  24.323  38.054  1.00  0.00    -0.244 N 
HETATM   13  C5  UNL     1      30.520  23.457  37.392  1.00  0.00     0.289 A 
HETATM   14  O1  UNL     1      30.071  22.273  37.061  1.00  0.00    -0.283 OA
HETATM   15  O2  UNL     1      31.741  23.554  36.929  1.00  0.00    -0.283 OA
HETATM   16  C6  UNL     1      30.987  21.614  36.394  1.00  0.00     0.171 A 
HETATM   17  C7  UNL     1      32.078  22.440  36.303  1.00  0.00     0.171 A 
ATOM     18  H9  UNL     1      28.882  24.113  38.356  1.00  0.00     0.191 HD
ENDBRANCH   7  12
BRANCH   8  19
HETATM   19  N11 UNL     1      28.897  27.762  35.946  1.00  0.00    -0.024 N 
HETATM   20  O3  UNL     1      28.616  27.869  34.725  1.00  0.00    -0.516 OA
HETATM   21  O4  UNL     1      28.589  28.835  36.740  1.00  0.00    -0.516 OA
ENDBRANCH   8  19
ENDBRANCH   3   5
BRANCH   1  22
HETATM   22  C3  UNL     1      29.683  30.529  40.055  1.00  0.00     0.160 A 
HETATM   23  C2  UNL     1      28.340  30.533  40.449  1.00  0.00     0.165 A 
HETATM   24  N3  UNL     1      27.986  31.306  41.500  1.00  0.00    -0.175 N 
HETATM   25  N4  UNL     1      27.401  29.738  39.744  1.00  0.00    -0.079 NA
HETATM   26  C1  UNL     1      28.911  32.036  42.127  1.00  0.00     0.700 A 
ATOM     27  H3  UNL     1      27.015  31.331  41.813  1.00  0.00     0.185 HD
HETATM   28  N12 UNL     1      30.206  32.048  41.768  1.00  0.00    -0.153 N 
HETATM   29  C8  UNL     1      30.609  31.296  40.729  1.00  0.00     0.291 A 
ATOM     30  H12 UNL     1      30.877  32.622  42.278  1.00  0.00     0.187 HD
HETATM   31  O5  UNL     1      31.822  31.296  40.379  1.00  0.00    -0.265 OA
BRANCH  26  32
HETATM   32  N2  UNL     1      28.539  32.776  43.143  1.00  0.00    -0.138 N 
ATOM     33  H2  UNL     1      28.368  32.340  44.049  1.00  0.00     0.205 HD
BRANCH  32  34
HETATM   34  N1  UNL     1      28.376  34.151  42.998  1.00  0.00    -0.331 N 
ATOM     35  H12 UNL     1      28.910  34.634  42.274  1.00  0.00     0.177 HD
ATOM     36  H11 UNL     1      27.737  34.667  43.602  1.00  0.00     0.177 HD
ENDBRANCH  32  34
ENDBRANCH  26  32
ENDBRANCH   1  22
TORSDOF 6
ENDMDL
MODEL 2
REMARK VINA RESULT: -6.137269321      6.164     10.967
REMARK  6 active torsions:
REMARK  status: ('A' for Active; 'I' for Inactive)
REMARK    1  A    between atoms: N1_1  and  N2_4 
REMARK    2  A    between atoms: N2_4  and  C1_6 
REMARK    3  A    between atoms: C3_11  and  N5_12 
REMARK    4  A    between atoms: N6_14  and  N7_16 
REMARK       I    between atoms: N7_16  and  C4_18 
REMARK       I    between atoms: C4_18  and  N10_28 
REMARK    5  A    between atoms: N8_19  and  N9_21 
REMARK    6  A    between atoms: N10_28  and  N11_30 
ROOT
HETATM    1  N5  UNL     1      29.366  34.615  42.876  1.00  0.00    -0.278 N 
ATOM      2  H5  UNL     1      28.768  35.086  43.554  1.00  0.00     0.189 HD
HETATM    3  N6  UNL     1      30.564  35.015  42.719  1.00  0.00    -0.228 N 
ATOM      4  H6  UNL     1      31.178  34.556  42.046  1.00  0.00     0.209 HD
ENDROOT
BRANCH   3   5
HETATM    5  N7  UNL     1      31.022  36.086  43.479  1.00  0.00    -0.115 N 
HETATM    6  C4  UNL     1      32.393  36.469  43.531  1.00  0.00     0.732 C 
HETATM    7  N8  UNL     1      33.224  35.697  44.137  1.00  0.00    -0.126 N 
HETATM    8  N10 UNL     1      32.783  37.687  42.914  1.00  0.00    -0.069 N 
ATOM      9  H8  UNL     1      32.870  34.838  44.558  1.00  0.00     0.206 HD
ATOM     10  H10 UNL     1      33.609  38.178  43.256  1.00  0.00     0.212 HD
ATOM     11  H7  UNL     1      30.346  36.620  44.024  1.00  0.00     0.207 HD
BRANCH   7  12
HETATM   12  N9  UNL     1      34.580  35.975  44.246  1.00  0.00    -0.244 N 
HETATM   13  C5  UNL     1      35.031  36.412  45.371  1.00  0.00     0.289 A 
HETATM   14  O1  UNL     1      36.288  36.706  45.585  1.00  0.00    -0.283 OA
HETATM   15  O2  UNL     1      34.380  36.648  46.483  1.00  0.00    -0.283 OA
HETATM   16  C6  UNL     1      36.448  37.125  46.817  1.00  0.00     0.171 A 
HETATM   17  C7  UNL     1      35.212  37.091  47.409  1.00  0.00     0.171 A 
ATOM     18  H9  UNL     1      35.206  35.836  43.453  1.00  0.00     0.191 HD
ENDBRANCH   7  12
BRANCH   8  19
HETATM   19  N11 UNL     1      32.063  38.226  41.851  1.00  0.00    -0.024 N 
HETATM   20  O3  UNL     1      31.880  39.469  41.780  1.00  0.00    -0.516 OA
HETATM   21  O4  UNL     1      31.522  37.471  40.843  1.00  0.00    -0.516 OA
ENDBRANCH   8  19
ENDBRANCH   3   5
BRANCH   1  22
HETATM   22  C3  UNL     1      28.844  33.523  42.126  1.00  0.00     0.160 A 
HETATM   23  C2  UNL     1      28.345  33.740  40.835  1.00  0.00     0.165 A 
HETATM   24  N3  UNL     1      27.859  32.678  40.154  1.00  0.00    -0.175 N 
HETATM   25  N4  UNL     1      28.363  35.047  40.287  1.00  0.00    -0.079 NA
HETATM   26  C1  UNL     1      27.866  31.469  40.719  1.00  0.00     0.700 A 
ATOM     27  H3  UNL     1      27.488  32.801  39.211  1.00  0.00     0.185 HD
HETATM   28  N12 UNL     1      28.340  31.237  41.955  1.00  0.00    -0.153 N 
HETATM   29  C8  UNL     1      28.834  32.259  42.673  1.00  0.00     0.291 A 
ATOM     30  H12 UNL     1      28.323  30.294  42.344  1.00  0.00     0.187 HD
HETATM   31  O5  UNL     1      29.284  32.058  43.837  1.00  0.00    -0.265 OA
BRANCH  26  32
HETATM   32  N2  UNL     1      27.388  30.458  40.035  1.00  0.00    -0.138 N 
ATOM     33  H2  UNL     1      26.379  30.310  39.992  1.00  0.00     0.205 HD
BRANCH  32  34
HETATM   34  N1  UNL     1      28.242  29.584  39.367  1.00  0.00    -0.331 N 
ATOM     35  H12 UNL     1      27.951  29.210  38.464  1.00  0.00     0.177 HD
ATOM     36  H11 UNL     1      29.141  29.323  39.772  1.00  0.00     0.177 HD
ENDBRANCH  32  34
ENDBRANCH  26  32
ENDBRANCH   1  22
TORSDOF 6
ENDMDL
MODEL 3
REMARK VINA RESULT: -6.129033475      1.036      1.644
REMARK  6 active torsions:
REMARK  status: ('A' for Active; 'I' for Inactive)
REMARK    1  A    between atoms: N1_1  and  N2_4 
REMARK    2  A    between atoms: N2_4  and  C1_6 
REMARK    3  A    between atoms: C3_11  and  N5_12 
REMARK    4  A    between atoms: N6_14  and  N7_16 
REMARK       I    between atoms: N7_16  and  C4_18 
REMARK       I    between atoms: C4_18  and  N10_28 
REMARK    5  A    between atoms: N8_19  and  N9_21 
REMARK    6  A    between atoms: N10_28  and  N11_30 
ROOT
HETATM    1  N5  UNL     1      30.094  29.721  38.916  1.00  0.00    -0.278 N 
ATOM      2  H5  UNL     1      30.059  30.111  37.975  1.00  0.00     0.189 HD
HETATM    3  N6  UNL     1      30.506  28.528  39.081  1.00  0.00    -0.228 N 
ATOM      4  H6  UNL     1      30.549  28.120  40.015  1.00  0.00     0.209 HD
ENDROOT
BRANCH   3   5
HETATM    5  N7  UNL     1      30.898  27.790  37.969  1.00  0.00    -0.115 N 
HETATM    6  C4  UNL     1      30.245  26.591  37.565  1.00  0.00     0.732 C 
HETATM    7  N8  UNL     1      30.383  25.541  38.296  1.00  0.00    -0.126 N 
HETATM    8  N10 UNL     1      29.474  26.603  36.374  1.00  0.00    -0.069 N 
ATOM      9  H8  UNL     1      30.954  25.608  39.138  1.00  0.00     0.206 HD
ATOM     10  H10 UNL     1      29.341  25.733  35.856  1.00  0.00     0.212 HD
ATOM     11  H7  UNL     1      31.688  28.124  37.418  1.00  0.00     0.207 HD
BRANCH   7  12
HETATM   12  N9  UNL     1      29.791  24.322  37.996  1.00  0.00    -0.244 N 
HETATM   13  C5  UNL     1      30.485  23.440  37.363  1.00  0.00     0.289 A 
HETATM   14  O1  UNL     1      30.029  22.259  37.029  1.00  0.00    -0.283 OA
HETATM   15  O2  UNL     1      31.722  23.515  36.937  1.00  0.00    -0.283 OA
HETATM   16  C6  UNL     1      30.956  21.581  36.396  1.00  0.00     0.171 A 
HETATM   17  C7  UNL     1      32.061  22.390  36.332  1.00  0.00     0.171 A 
ATOM     18  H9  UNL     1      28.828  24.128  38.270  1.00  0.00     0.191 HD
ENDBRANCH   7  12
BRANCH   8  19
HETATM   19  N11 UNL     1      28.894  27.775  35.896  1.00  0.00    -0.024 N 
HETATM   20  O3  UNL     1      28.662  27.907  34.666  1.00  0.00    -0.516 OA
HETATM   21  O4  UNL     1      28.546  28.829  36.699  1.00  0.00    -0.516 OA
ENDBRANCH   8  19
ENDBRANCH   3   5
BRANCH   1  22
HETATM   22  C3  UNL     1      29.681  30.521  40.018  1.00  0.00     0.160 A 
HETATM   23  C2  UNL     1      30.623  31.291  40.713  1.00  0.00     0.165 A 
HETATM   24  N3  UNL     1      30.191  32.039  41.753  1.00  0.00    -0.175 N 
HETATM   25  N4  UNL     1      31.983  31.264  40.313  1.00  0.00    -0.079 NA
HETATM   26  C1  UNL     1      28.899  32.026  42.088  1.00  0.00     0.700 A 
ATOM     27  H3  UNL     1      30.852  32.612  42.281  1.00  0.00     0.185 HD
HETATM   28  N12 UNL     1      27.978  31.297  41.436  1.00  0.00    -0.153 N 
HETATM   29  C8  UNL     1      28.356  30.536  40.394  1.00  0.00     0.291 A 
ATOM     30  H12 UNL     1      27.001  31.320  41.729  1.00  0.00     0.187 HD
HETATM   31  O5  UNL     1      27.502  29.845  39.771  1.00  0.00    -0.265 OA
BRANCH  26  32
HETATM   32  N2  UNL     1      28.510  32.761  43.100  1.00  0.00    -0.138 N 
ATOM     33  H2  UNL     1      28.303  32.317  43.996  1.00  0.00     0.205 HD
BRANCH  32  34
HETATM   34  N1  UNL     1      28.375  34.141  42.968  1.00  0.00    -0.331 N 
ATOM     35  H12 UNL     1      28.038  34.517  42.081  1.00  0.00     0.177 HD
ATOM     36  H11 UNL     1      28.610  34.764  43.740  1.00  0.00     0.177 HD
ENDBRANCH  32  34
ENDBRANCH  26  32
ENDBRANCH   1  22
TORSDOF 6
ENDMDL
MODEL 4
REMARK VINA RESULT: -6.106186213      3.330      4.419
REMARK  6 active torsions:
REMARK  status: ('A' for Active; 'I' for Inactive)
REMARK    1  A    between atoms: N1_1  and  N2_4 
REMARK    2  A    between atoms: N2_4  and  C1_6 
REMARK    3  A    between atoms: C3_11  and  N5_12 
REMARK    4  A    between atoms: N6_14  and  N7_16 
REMARK       I    between atoms: N7_16  and  C4_18 
REMARK       I    between atoms: C4_18  and  N10_28 
REMARK    5  A    between atoms: N8_19  and  N9_21 
REMARK    6  A    between atoms: N10_28  and  N11_30 
ROOT
HETATM    1  N5  UNL     1      30.211  27.696  38.124  1.00  0.00    -0.278 N 
ATOM      2  H5  UNL     1      29.902  27.357  37.213  1.00  0.00     0.189 HD
HETATM    3  N6  UNL     1      31.223  27.159  38.677  1.00  0.00    -0.228 N 
ATOM      4  H6  UNL     1      31.548  27.484  39.587  1.00  0.00     0.209 HD
ENDROOT
BRANCH   3   5
HETATM    5  N7  UNL     1      31.880  26.123  38.021  1.00  0.00    -0.115 N 
HETATM    6  C4  UNL     1      32.205  24.888  38.652  1.00  0.00     0.732 C 
HETATM    7  N8  UNL     1      33.121  24.883  39.555  1.00  0.00    -0.126 N 
HETATM    8  N10 UNL     1      31.507  23.717  38.257  1.00  0.00    -0.069 N 
ATOM      9  H8  UNL     1      33.581  25.764  39.785  1.00  0.00     0.206 HD
ATOM     10  H10 UNL     1      31.956  22.807  38.367  1.00  0.00     0.212 HD
ATOM     11  H7  UNL     1      32.140  26.253  37.044  1.00  0.00     0.207 HD
BRANCH   7  12
HETATM   12  N9  UNL     1      33.516  23.737  40.232  1.00  0.00    -0.244 N 
HETATM   13  C5  UNL     1      34.639  23.751  40.864  1.00  0.00     0.289 A 
HETATM   14  O1  UNL     1      35.108  22.729  41.534  1.00  0.00    -0.283 OA
HETATM   15  O2  UNL     1      35.510  24.723  40.973  1.00  0.00    -0.283 OA
HETATM   16  C6  UNL     1      36.266  23.035  42.069  1.00  0.00     0.171 A 
HETATM   17  C7  UNL     1      36.535  24.330  41.710  1.00  0.00     0.171 A 
ATOM     18  H9  UNL     1      32.930  22.903  40.230  1.00  0.00     0.191 HD
ENDBRANCH   7  12
BRANCH   8  19
HETATM   19  N11 UNL     1      30.223  23.782  37.724  1.00  0.00    -0.024 N 
HETATM   20  O3  UNL     1      29.762  22.810  37.071  1.00  0.00    -0.516 OA
HETATM   21  O4  UNL     1      29.399  24.867  37.865  1.00  0.00    -0.516 OA
ENDBRANCH   8  19
ENDBRANCH   3   5
BRANCH   1  22
HETATM   22  C3  UNL     1      29.502  28.759  38.749  1.00  0.00     0.160 A 
HETATM   23  C2  UNL     1      30.181  29.924  39.127  1.00  0.00     0.165 A 
HETATM   24  N3  UNL     1      29.472  30.913  39.717  1.00  0.00    -0.175 N 
HETATM   25  N4  UNL     1      31.574  30.034  38.883  1.00  0.00    -0.079 NA
HETATM   26  C1  UNL     1      28.162  30.756  39.922  1.00  0.00     0.700 A 
ATOM     27  H3  UNL     1      29.936  31.775  40.004  1.00  0.00     0.185 HD
HETATM   28  N12 UNL     1      27.489  29.648  39.568  1.00  0.00    -0.153 N 
HETATM   29  C8  UNL     1      28.149  28.637  38.978  1.00  0.00     0.291 A 
ATOM     30  H12 UNL     1      26.487  29.575  39.746  1.00  0.00     0.187 HD
HETATM   31  O5  UNL     1      27.530  27.589  38.639  1.00  0.00    -0.265 OA
BRANCH  26  32
HETATM   32  N2  UNL     1      27.500  31.730  40.497  1.00  0.00    -0.138 N 
ATOM     33  H2  UNL     1      27.257  31.661  41.485  1.00  0.00     0.205 HD
BRANCH  32  34
HETATM   34  N1  UNL     1      27.126  32.859  39.772  1.00  0.00    -0.331 N 
ATOM     35  H12 UNL     1      27.105  32.803  38.754  1.00  0.00     0.177 HD
ATOM     36  H11 UNL     1      26.878  33.726  40.250  1.00  0.00     0.177 HD
ENDBRANCH  32  34
ENDBRANCH  26  32
ENDBRANCH   1  22
TORSDOF 6
ENDMDL
MODEL 5
REMARK VINA RESULT: -6.063332474      3.402      4.158
REMARK  6 active torsions:
REMARK  status: ('A' for Active; 'I' for Inactive)
REMARK    1  A    between atoms: N1_1  and  N2_4 
REMARK    2  A    between atoms: N2_4  and  C1_6 
REMARK    3  A    between atoms: C3_11  and  N5_12 
REMARK    4  A    between atoms: N6_14  and  N7_16 
REMARK       I    between atoms: N7_16  and  C4_18 
REMARK       I    between atoms: C4_18  and  N10_28 
REMARK    5  A    between atoms: N8_19  and  N9_21 
REMARK    6  A    between atoms: N10_28  and  N11_30 
ROOT
HETATM    1  N5  UNL     1      30.345  27.748  38.209  1.00  0.00    -0.278 N 
ATOM      2  H5  UNL     1      30.099  27.443  37.268  1.00  0.00     0.189 HD
HETATM    3  N6  UNL     1      31.307  27.180  38.817  1.00  0.00    -0.228 N 
ATOM      4  H6  UNL     1      31.568  27.471  39.759  1.00  0.00     0.209 HD
ENDROOT
BRANCH   3   5
HETATM    5  N7  UNL     1      31.999  26.157  38.176  1.00  0.00    -0.115 N 
HETATM    6  C4  UNL     1      32.304  24.916  38.805  1.00  0.00     0.732 C 
HETATM    7  N8  UNL     1      33.180  24.904  39.747  1.00  0.00    -0.126 N 
HETATM    8  N10 UNL     1      31.632  23.746  38.365  1.00  0.00    -0.069 N 
ATOM      9  H8  UNL     1      33.623  25.785  40.008  1.00  0.00     0.206 HD
ATOM     10  H10 UNL     1      32.082  22.837  38.482  1.00  0.00     0.212 HD
ATOM     11  H7  UNL     1      32.301  26.302  37.214  1.00  0.00     0.207 HD
BRANCH   7  12
HETATM   12  N9  UNL     1      33.552  23.751  40.426  1.00  0.00    -0.244 N 
HETATM   13  C5  UNL     1      34.696  23.728  41.019  1.00  0.00     0.289 A 
HETATM   14  O1  UNL     1      35.147  22.697  41.687  1.00  0.00    -0.283 OA
HETATM   15  O2  UNL     1      35.607  24.667  41.088  1.00  0.00    -0.283 OA
HETATM   16  C6  UNL     1      36.333  22.964  42.180  1.00  0.00     0.171 A 
HETATM   17  C7  UNL     1      36.640  24.243  41.795  1.00  0.00     0.171 A 
ATOM     18  H9  UNL     1      32.935  22.941  40.454  1.00  0.00     0.191 HD
ENDBRANCH   7  12
BRANCH   8  19
HETATM   19  N11 UNL     1      30.372  23.810  37.776  1.00  0.00    -0.024 N 
HETATM   20  O3  UNL     1      29.959  22.858  37.065  1.00  0.00    -0.516 OA
HETATM   21  O4  UNL     1      29.521  24.875  37.923  1.00  0.00    -0.516 OA
ENDBRANCH   8  19
ENDBRANCH   3   5
BRANCH   1  22
HETATM   22  C3  UNL     1      29.603  28.800  38.816  1.00  0.00     0.160 A 
HETATM   23  C2  UNL     1      28.217  28.676  38.972  1.00  0.00     0.165 A 
HETATM   24  N3  UNL     1      27.547  29.697  39.554  1.00  0.00    -0.175 N 
HETATM   25  N4  UNL     1      27.563  27.501  38.523  1.00  0.00    -0.079 NA
HETATM   26  C1  UNL     1      28.213  30.781  39.959  1.00  0.00     0.700 A 
ATOM     27  H3  UNL     1      26.536  29.639  39.684  1.00  0.00     0.185 HD
HETATM   28  N12 UNL     1      29.542  30.922  39.820  1.00  0.00    -0.153 N 
HETATM   29  C8  UNL     1      30.253  29.935  39.248  1.00  0.00     0.291 A 
ATOM     30  H12 UNL     1      30.007  31.770  40.144  1.00  0.00     0.187 HD
HETATM   31  O5  UNL     1      31.504  30.052  39.110  1.00  0.00    -0.265 OA
BRANCH  26  32
HETATM   32  N2  UNL     1      27.538  31.754  40.519  1.00  0.00    -0.138 N 
ATOM     33  H2  UNL     1      27.294  31.695  41.508  1.00  0.00     0.205 HD
BRANCH  32  34
HETATM   34  N1  UNL     1      27.153  32.869  39.779  1.00  0.00    -0.331 N 
ATOM     35  H12 UNL     1      26.428  32.759  39.070  1.00  0.00     0.177 HD
ATOM     36  H11 UNL     1      27.586  33.778  39.943  1.00  0.00     0.177 HD
ENDBRANCH  32  34
ENDBRANCH  26  32
ENDBRANCH   1  22
TORSDOF 6
ENDMDL
