MODEL 1
REMARK VINA RESULT: -5.629310322      0.000      0.000
REMARK  9 active torsions:
REMARK  status: ('A' for Active; 'I' for Inactive)
REMARK    1  A    between atoms: C2_5  and  O1_6 
REMARK    2  A    between atoms: O1_6  and  C3_7 
REMARK    3  A    between atoms: C4_8  and  N3_9 
REMARK    4  A    between atoms: C6_14  and  N4_15 
REMARK    5  A    between atoms: C7_19  and  O2_20 
REMARK    6  A    between atoms: O2_20  and  C8_21 
REMARK    7  A    between atoms: C11_24  and  N5_25 
REMARK    8  A    between atoms: C13_31  and  O4_32 
REMARK    9  A    between atoms: C14_35  and  N6_36 
ROOT
HETATM    1  C3  UNL     1      30.461  34.073  41.539  1.00  0.00     0.188 C 
HETATM    2  C4  UNL     1      28.995  34.128  41.889  1.00  0.00     0.217 C 
HETATM    3  C5  UNL     1      28.332  34.789  40.677  1.00  0.00     0.071 C 
HETATM    4  C6  UNL     1      28.304  33.746  39.593  1.00  0.00     0.217 C 
HETATM    5  C7  UNL     1      29.364  32.708  39.712  1.00  0.00     0.186 C 
HETATM    6  C13 UNL     1      30.636  33.184  40.356  1.00  0.00     0.180 C 
ENDROOT
BRANCH   1   7
HETATM    7  O1  UNL     1      31.251  33.649  42.578  1.00  0.00    -0.334 OA
BRANCH   7   8
HETATM    8  C2  UNL     1      32.192  34.547  43.009  1.00  0.00     0.374 C 
HETATM    9  N2  UNL     1      33.095  34.016  44.004  1.00  0.00    -0.334 N 
HETATM   10  C1  UNL     1      33.776  34.866  44.698  1.00  0.00     0.096 C 
ATOM     11  H2  UNL     1      33.191  33.011  44.152  1.00  0.00     0.165 HD
HETATM   12  N1  UNL     1      34.700  34.460  45.709  1.00  0.00    -0.088 NA
HETATM   13  C15 UNL     1      33.635  36.340  44.480  1.00  0.00     0.134 C 
HETATM   14  C14 UNL     1      32.373  36.678  43.744  1.00  0.00     0.329 C 
HETATM   15  O5  UNL     1      31.514  35.615  43.607  1.00  0.00    -0.310 OA
BRANCH  14  16
HETATM   16  N6  UNL     1      32.599  37.262  42.445  1.00  0.00    -0.052 N 
ATOM     17  H63 UNL     1      33.569  37.550  42.311  1.00  0.00     0.277 HD
ATOM     18  H62 UNL     1      32.551  36.573  41.694  1.00  0.00     0.277 HD
ATOM     19  H61 UNL     1      31.943  38.031  42.311  1.00  0.00     0.277 HD
ENDBRANCH  14  16
ENDBRANCH   7   8
ENDBRANCH   1   7
BRANCH   2  20
HETATM   20  N3  UNL     1      28.729  34.998  43.015  1.00  0.00    -0.072 N 
ATOM     21  H33 UNL     1      28.102  34.551  43.685  1.00  0.00     0.274 HD
ATOM     22  H32 UNL     1      29.555  35.096  43.606  1.00  0.00     0.274 HD
ATOM     23  H31 UNL     1      28.372  35.909  42.727  1.00  0.00     0.274 HD
ENDBRANCH   2  20
BRANCH   6  24
HETATM   24  O4  UNL     1      31.363  32.055  40.747  1.00  0.00    -0.390 OA
ATOM     25  H4  UNL     1      30.763  31.423  41.126  1.00  0.00     0.210 HD
ENDBRANCH   6  24
BRANCH   5  26
HETATM   26  O2  UNL     1      28.978  31.536  40.308  1.00  0.00    -0.351 OA
BRANCH  26  27
HETATM   27  C8  UNL     1      28.946  30.431  39.501  1.00  0.00     0.260 C 
HETATM   28  C9  UNL     1      27.688  29.621  39.609  1.00  0.00     0.063 C 
HETATM   29  C10 UNL     1      27.818  28.218  39.145  1.00  0.00     0.040 C 
HETATM   30  C11 UNL     1      28.982  27.936  38.262  1.00  0.00     0.207 C 
HETATM   31  C12 UNL     1      30.167  28.839  38.512  1.00  0.00     0.203 C 
HETATM   32  O3  UNL     1      30.023  29.569  39.687  1.00  0.00    -0.359 OA
BRANCH  30  33
HETATM   33  N5  UNL     1      28.653  27.965  36.848  1.00  0.00    -0.073 N 
ATOM     34  H53 UNL     1      27.921  27.288  36.633  1.00  0.00     0.274 HD
ATOM     35  H52 UNL     1      28.161  28.826  36.609  1.00  0.00     0.274 HD
ATOM     36  H51 UNL     1      29.462  27.830  36.243  1.00  0.00     0.274 HD
ENDBRANCH  30  33
ENDBRANCH  26  27
ENDBRANCH   5  26
BRANCH   4  37
HETATM   37  N4  UNL     1      26.964  33.138  39.669  1.00  0.00    -0.072 N 
ATOM     38  H43 UNL     1      26.830  32.542  40.486  1.00  0.00     0.274 HD
ATOM     39  H42 UNL     1      26.223  33.805  39.885  1.00  0.00     0.274 HD
ATOM     40  H41 UNL     1      26.835  32.653  38.781  1.00  0.00     0.274 HD
ENDBRANCH   4  37
TORSDOF 9
ENDMDL
MODEL 2
REMARK VINA RESULT: -5.457251101      0.919      1.695
REMARK  9 active torsions:
REMARK  status: ('A' for Active; 'I' for Inactive)
REMARK    1  A    between atoms: C2_5  and  O1_6 
REMARK    2  A    between atoms: O1_6  and  C3_7 
REMARK    3  A    between atoms: C4_8  and  N3_9 
REMARK    4  A    between atoms: C6_14  and  N4_15 
REMARK    5  A    between atoms: C7_19  and  O2_20 
REMARK    6  A    between atoms: O2_20  and  C8_21 
REMARK    7  A    between atoms: C11_24  and  N5_25 
REMARK    8  A    between atoms: C13_31  and  O4_32 
REMARK    9  A    between atoms: C14_35  and  N6_36 
ROOT
HETATM    1  C3  UNL     1      30.410  33.906  41.804  1.00  0.00     0.188 C 
HETATM    2  C4  UNL     1      28.931  34.004  42.083  1.00  0.00     0.217 C 
HETATM    3  C5  UNL     1      28.357  34.739  40.868  1.00  0.00     0.071 C 
HETATM    4  C6  UNL     1      28.346  33.743  39.741  1.00  0.00     0.217 C 
HETATM    5  C7  UNL     1      29.359  32.661  39.867  1.00  0.00     0.186 C 
HETATM    6  C13 UNL     1      30.613  33.060  40.594  1.00  0.00     0.180 C 
ENDROOT
BRANCH   1   7
HETATM    7  O1  UNL     1      31.130  33.410  42.862  1.00  0.00    -0.334 OA
BRANCH   7   8
HETATM    8  C2  UNL     1      32.238  34.134  43.214  1.00  0.00     0.374 C 
HETATM    9  N2  UNL     1      32.048  35.565  43.148  1.00  0.00    -0.334 N 
HETATM   10  C1  UNL     1      33.108  36.301  43.133  1.00  0.00     0.096 C 
ATOM     11  H2  UNL     1      31.115  35.976  43.115  1.00  0.00     0.165 HD
HETATM   12  N1  UNL     1      33.046  37.727  43.069  1.00  0.00    -0.088 NA
HETATM   13  C15 UNL     1      34.477  35.698  43.181  1.00  0.00     0.134 C 
HETATM   14  C14 UNL     1      34.460  34.244  42.812  1.00  0.00     0.329 C 
HETATM   15  O5  UNL     1      33.256  33.818  42.308  1.00  0.00    -0.310 OA
BRANCH  14  16
HETATM   16  N6  UNL     1      34.848  33.369  43.890  1.00  0.00    -0.052 N 
ATOM     17  H63 UNL     1      35.586  32.719  43.618  1.00  0.00     0.277 HD
ATOM     18  H62 UNL     1      35.356  33.859  44.626  1.00  0.00     0.277 HD
ATOM     19  H61 UNL     1      34.019  32.891  44.240  1.00  0.00     0.277 HD
ENDBRANCH  14  16
ENDBRANCH   7   8
ENDBRANCH   1   7
BRANCH   2  20
HETATM   20  N3  UNL     1      28.640  34.836  43.231  1.00  0.00    -0.072 N 
ATOM     21  H33 UNL     1      28.259  35.738  42.944  1.00  0.00     0.274 HD
ATOM     22  H32 UNL     1      27.839  34.478  43.750  1.00  0.00     0.274 HD
ATOM     23  H31 UNL     1      29.450  34.955  43.840  1.00  0.00     0.274 HD
ENDBRANCH   2  20
BRANCH   6  24
HETATM   24  O4  UNL     1      31.277  31.889  40.972  1.00  0.00    -0.390 OA
ATOM     25  H4  UNL     1      30.827  31.512  41.719  1.00  0.00     0.210 HD
ENDBRANCH   6  24
BRANCH   5  26
HETATM   26  O2  UNL     1      28.900  31.481  40.392  1.00  0.00    -0.351 OA
BRANCH  26  27
HETATM   27  C8  UNL     1      28.891  30.407  39.545  1.00  0.00     0.260 C 
HETATM   28  C9  UNL     1      27.651  29.566  39.623  1.00  0.00     0.063 C 
HETATM   29  C10 UNL     1      27.810  28.184  39.107  1.00  0.00     0.040 C 
HETATM   30  C11 UNL     1      28.979  27.962  38.213  1.00  0.00     0.207 C 
HETATM   31  C12 UNL     1      30.144  28.880  38.495  1.00  0.00     0.203 C 
HETATM   32  O3  UNL     1      29.987  29.562  39.697  1.00  0.00    -0.359 OA
BRANCH  30  33
HETATM   33  N5  UNL     1      28.646  28.037  36.802  1.00  0.00    -0.073 N 
ATOM     34  H53 UNL     1      29.462  28.302  36.251  1.00  0.00     0.274 HD
ATOM     35  H52 UNL     1      28.479  27.107  36.419  1.00  0.00     0.274 HD
ATOM     36  H51 UNL     1      27.859  28.656  36.606  1.00  0.00     0.274 HD
ENDBRANCH  30  33
ENDBRANCH  26  27
ENDBRANCH   5  26
BRANCH   4  37
HETATM   37  N4  UNL     1      26.982  33.186  39.724  1.00  0.00    -0.072 N 
ATOM     38  H43 UNL     1      26.370  33.620  39.034  1.00  0.00     0.274 HD
ATOM     39  H42 UNL     1      26.930  32.238  39.350  1.00  0.00     0.274 HD
ATOM     40  H41 UNL     1      26.643  33.267  40.683  1.00  0.00     0.274 HD
ENDBRANCH   4  37
TORSDOF 9
ENDMDL
MODEL 3
REMARK VINA RESULT: -5.303047628      0.741      1.041
REMARK  9 active torsions:
REMARK  status: ('A' for Active; 'I' for Inactive)
REMARK    1  A    between atoms: C2_5  and  O1_6 
REMARK    2  A    between atoms: O1_6  and  C3_7 
REMARK    3  A    between atoms: C4_8  and  N3_9 
REMARK    4  A    between atoms: C6_14  and  N4_15 
REMARK    5  A    between atoms: C7_19  and  O2_20 
REMARK    6  A    between atoms: O2_20  and  C8_21 
REMARK    7  A    between atoms: C11_24  and  N5_25 
REMARK    8  A    between atoms: C13_31  and  O4_32 
REMARK    9  A    between atoms: C14_35  and  N6_36 
ROOT
HETATM    1  C3  UNL     1      30.531  33.988  41.692  1.00  0.00     0.188 C 
HETATM    2  C4  UNL     1      29.065  33.906  42.038  1.00  0.00     0.217 C 
HETATM    3  C5  UNL     1      28.346  34.479  40.814  1.00  0.00     0.071 C 
HETATM    4  C6  UNL     1      28.422  33.420  39.748  1.00  0.00     0.217 C 
HETATM    5  C7  UNL     1      29.577  32.492  39.886  1.00  0.00     0.186 C 
HETATM    6  C13 UNL     1      30.795  33.100  40.524  1.00  0.00     0.180 C 
ENDROOT
BRANCH   1   7
HETATM    7  O1  UNL     1      31.356  33.661  42.738  1.00  0.00    -0.334 OA
BRANCH   7   8
HETATM    8  C2  UNL     1      32.260  34.624  43.102  1.00  0.00     0.374 C 
HETATM    9  N2  UNL     1      33.202  34.192  44.109  1.00  0.00    -0.334 N 
HETATM   10  C1  UNL     1      33.852  35.109  44.742  1.00  0.00     0.096 C 
ATOM     11  H2  UNL     1      33.346  33.202  44.312  1.00  0.00     0.165 HD
HETATM   12  N1  UNL     1      34.810  34.805  45.758  1.00  0.00    -0.088 NA
HETATM   13  C15 UNL     1      33.640  36.561  44.444  1.00  0.00     0.134 C 
HETATM   14  C14 UNL     1      32.352  36.798  43.712  1.00  0.00     0.329 C 
HETATM   15  O5  UNL     1      31.542  35.692  43.651  1.00  0.00    -0.310 OA
BRANCH  14  16
HETATM   16  N6  UNL     1      32.532  37.317  42.379  1.00  0.00    -0.052 N 
ATOM     17  H63 UNL     1      32.096  36.728  41.670  1.00  0.00     0.277 HD
ATOM     18  H62 UNL     1      31.988  38.164  42.214  1.00  0.00     0.277 HD
ATOM     19  H61 UNL     1      33.528  37.456  42.212  1.00  0.00     0.277 HD
ENDBRANCH  14  16
ENDBRANCH   7   8
ENDBRANCH   1   7
BRANCH   2  20
HETATM   20  N3  UNL     1      28.713  34.765  43.149  1.00  0.00    -0.072 N 
ATOM     21  H33 UNL     1      27.770  35.139  43.040  1.00  0.00     0.274 HD
ATOM     22  H32 UNL     1      28.577  34.224  44.003  1.00  0.00     0.274 HD
ATOM     23  H31 UNL     1      29.392  35.513  43.292  1.00  0.00     0.274 HD
ENDBRANCH   2  20
BRANCH   6  24
HETATM   24  O4  UNL     1      31.627  32.054  40.936  1.00  0.00    -0.390 OA
ATOM     25  H4  UNL     1      32.323  31.949  40.298  1.00  0.00     0.210 HD
ENDBRANCH   6  24
BRANCH   5  26
HETATM   26  O2  UNL     1      29.305  31.298  40.502  1.00  0.00    -0.351 OA
BRANCH  26  27
HETATM   27  C8  UNL     1      29.166  30.213  39.680  1.00  0.00     0.260 C 
HETATM   28  C9  UNL     1      29.702  30.415  38.293  1.00  0.00     0.063 C 
HETATM   29  C10 UNL     1      29.150  29.484  37.278  1.00  0.00     0.040 C 
HETATM   30  C11 UNL     1      28.515  28.250  37.815  1.00  0.00     0.207 C 
HETATM   31  C12 UNL     1      27.922  28.420  39.192  1.00  0.00     0.203 C 
HETATM   32  O3  UNL     1      27.856  29.758  39.566  1.00  0.00    -0.359 OA
BRANCH  30  33
HETATM   33  N5  UNL     1      29.404  27.102  37.819  1.00  0.00    -0.073 N 
ATOM     34  H53 UNL     1      29.242  26.522  38.642  1.00  0.00     0.274 HD
ATOM     35  H52 UNL     1      29.142  26.437  37.091  1.00  0.00     0.274 HD
ATOM     36  H51 UNL     1      30.389  27.354  37.741  1.00  0.00     0.274 HD
ENDBRANCH  30  33
ENDBRANCH  26  27
ENDBRANCH   5  26
BRANCH   4  37
HETATM   37  N4  UNL     1      27.147  32.687  39.833  1.00  0.00    -0.072 N 
ATOM     38  H43 UNL     1      26.984  32.055  39.049  1.00  0.00     0.274 HD
ATOM     39  H42 UNL     1      27.130  31.976  40.565  1.00  0.00     0.274 HD
ATOM     40  H41 UNL     1      26.428  33.403  39.940  1.00  0.00     0.274 HD
ENDBRANCH   4  37
TORSDOF 9
ENDMDL
MODEL 4
REMARK VINA RESULT: -5.289545105      1.680      7.615
REMARK  9 active torsions:
REMARK  status: ('A' for Active; 'I' for Inactive)
REMARK    1  A    between atoms: C2_5  and  O1_6 
REMARK    2  A    between atoms: O1_6  and  C3_7 
REMARK    3  A    between atoms: C4_8  and  N3_9 
REMARK    4  A    between atoms: C6_14  and  N4_15 
REMARK    5  A    between atoms: C7_19  and  O2_20 
REMARK    6  A    between atoms: O2_20  and  C8_21 
REMARK    7  A    between atoms: C11_24  and  N5_25 
REMARK    8  A    between atoms: C13_31  and  O4_32 
REMARK    9  A    between atoms: C14_35  and  N6_36 
ROOT
HETATM    1  C3  UNL     1      29.661  32.617  41.334  1.00  0.00     0.188 C 
HETATM    2  C4  UNL     1      29.321  33.994  40.822  1.00  0.00     0.217 C 
HETATM    3  C5  UNL     1      28.673  34.702  42.015  1.00  0.00     0.071 C 
HETATM    4  C6  UNL     1      29.793  35.043  42.960  1.00  0.00     0.217 C 
HETATM    5  C7  UNL     1      30.983  34.156  42.848  1.00  0.00     0.186 C 
HETATM    6  C13 UNL     1      30.675  32.748  42.418  1.00  0.00     0.180 C 
ENDROOT
BRANCH   1   7
HETATM    7  O1  UNL     1      30.115  31.770  40.355  1.00  0.00    -0.334 OA
BRANCH   7   8
HETATM    8  C2  UNL     1      29.444  30.581  40.244  1.00  0.00     0.374 C 
HETATM    9  N2  UNL     1      30.106  29.611  39.401  1.00  0.00    -0.334 N 
HETATM   10  C1  UNL     1      29.400  28.618  38.976  1.00  0.00     0.096 C 
ATOM     11  H2  UNL     1      31.091  29.708  39.153  1.00  0.00     0.165 HD
HETATM   12  N1  UNL     1      29.944  27.597  38.137  1.00  0.00    -0.088 NA
HETATM   13  C15 UNL     1      27.955  28.477  39.340  1.00  0.00     0.134 C 
HETATM   14  C14 UNL     1      27.374  29.769  39.833  1.00  0.00     0.329 C 
HETATM   15  O5  UNL     1      28.203  30.849  39.654  1.00  0.00    -0.310 OA
BRANCH  14  16
HETATM   16  N6  UNL     1      26.957  29.727  41.212  1.00  0.00    -0.052 N 
ATOM     17  H63 UNL     1      27.043  30.633  41.673  1.00  0.00     0.277 HD
ATOM     18  H62 UNL     1      25.948  29.613  41.311  1.00  0.00     0.277 HD
ATOM     19  H61 UNL     1      27.481  28.996  41.692  1.00  0.00     0.277 HD
ENDBRANCH  14  16
ENDBRANCH   7   8
ENDBRANCH   1   7
BRANCH   2  20
HETATM   20  N3  UNL     1      28.316  33.962  39.780  1.00  0.00    -0.072 N 
ATOM     21  H33 UNL     1      28.308  33.059  39.304  1.00  0.00     0.274 HD
ATOM     22  H32 UNL     1      27.377  33.946  40.177  1.00  0.00     0.274 HD
ATOM     23  H31 UNL     1      28.422  34.728  39.115  1.00  0.00     0.274 HD
ENDBRANCH   2  20
BRANCH   6  24
HETATM   24  O4  UNL     1      31.870  32.164  41.988  1.00  0.00    -0.390 OA
ATOM     25  H4  UNL     1      31.847  32.085  41.042  1.00  0.00     0.210 HD
ENDBRANCH   6  24
BRANCH   5  26
HETATM   26  O2  UNL     1      32.009  34.639  42.079  1.00  0.00    -0.351 OA
BRANCH  26  27
HETATM   27  C8  UNL     1      33.086  35.140  42.757  1.00  0.00     0.260 C 
HETATM   28  C9  UNL     1      33.257  34.591  44.142  1.00  0.00     0.063 C 
HETATM   29  C10 UNL     1      34.080  35.436  45.042  1.00  0.00     0.040 C 
HETATM   30  C11 UNL     1      34.955  36.433  44.368  1.00  0.00     0.207 C 
HETATM   31  C12 UNL     1      34.419  36.914  43.041  1.00  0.00     0.203 C 
HETATM   32  O3  UNL     1      33.097  36.529  42.846  1.00  0.00    -0.359 OA
BRANCH  30  33
HETATM   33  N5  UNL     1      36.320  35.971  44.189  1.00  0.00    -0.073 N 
ATOM     34  H53 UNL     1      36.955  36.759  44.061  1.00  0.00     0.274 HD
ATOM     35  H52 UNL     1      36.693  35.595  45.061  1.00  0.00     0.274 HD
ATOM     36  H51 UNL     1      36.422  35.296  43.431  1.00  0.00     0.274 HD
ENDBRANCH  30  33
ENDBRANCH  26  27
ENDBRANCH   5  26
BRANCH   4  37
HETATM   37  N4  UNL     1      30.150  36.440  42.655  1.00  0.00    -0.072 N 
ATOM     38  H43 UNL     1      30.181  36.647  41.657  1.00  0.00     0.274 HD
ATOM     39  H42 UNL     1      29.421  37.111  42.894  1.00  0.00     0.274 HD
ATOM     40  H41 UNL     1      31.034  36.605  43.137  1.00  0.00     0.274 HD
ENDBRANCH   4  37
TORSDOF 9
ENDMDL
MODEL 5
REMARK VINA RESULT: -5.275263046      1.917      7.853
REMARK  9 active torsions:
REMARK  status: ('A' for Active; 'I' for Inactive)
REMARK    1  A    between atoms: C2_5  and  O1_6 
REMARK    2  A    between atoms: O1_6  and  C3_7 
REMARK    3  A    between atoms: C4_8  and  N3_9 
REMARK    4  A    between atoms: C6_14  and  N4_15 
REMARK    5  A    between atoms: C7_19  and  O2_20 
REMARK    6  A    between atoms: O2_20  and  C8_21 
REMARK    7  A    between atoms: C11_24  and  N5_25 
REMARK    8  A    between atoms: C13_31  and  O4_32 
REMARK    9  A    between atoms: C14_35  and  N6_36 
ROOT
HETATM    1  C3  UNL     1      30.017  30.833  40.382  1.00  0.00     0.188 C 
HETATM    2  C4  UNL     1      28.726  31.569  40.635  1.00  0.00     0.217 C 
HETATM    3  C5  UNL     1      28.418  31.314  42.114  1.00  0.00     0.071 C 
HETATM    4  C6  UNL     1      29.369  32.178  42.896  1.00  0.00     0.217 C 
HETATM    5  C7  UNL     1      30.631  32.507  42.179  1.00  0.00     0.186 C 
HETATM    6  C13 UNL     1      31.091  31.455  41.208  1.00  0.00     0.180 C 
ENDROOT
BRANCH   1   7
HETATM    7  O1  UNL     1      30.381  30.813  39.060  1.00  0.00    -0.334 OA
BRANCH   7   8
HETATM    8  C2  UNL     1      30.394  29.577  38.468  1.00  0.00     0.374 C 
HETATM    9  N2  UNL     1      29.743  29.539  37.178  1.00  0.00    -0.334 N 
HETATM   10  C1  UNL     1      29.415  28.379  36.717  1.00  0.00     0.096 C 
ATOM     11  H2  UNL     1      29.551  30.394  36.655  1.00  0.00     0.165 HD
HETATM   12  N1  UNL     1      28.768  28.216  35.453  1.00  0.00    -0.088 NA
HETATM   13  C15 UNL     1      29.697  27.126  37.485  1.00  0.00     0.134 C 
HETATM   14  C14 UNL     1      29.962  27.408  38.934  1.00  0.00     0.329 C 
HETATM   15  O5  UNL     1      29.690  28.702  39.303  1.00  0.00    -0.310 OA
BRANCH  14  16
HETATM   16  N6  UNL     1      31.302  27.078  39.352  1.00  0.00    -0.052 N 
ATOM     17  H63 UNL     1      32.009  27.632  38.868  1.00  0.00     0.277 HD
ATOM     18  H62 UNL     1      31.502  27.391  40.302  1.00  0.00     0.277 HD
ATOM     19  H61 UNL     1      31.446  26.075  39.233  1.00  0.00     0.277 HD
ENDBRANCH  14  16
ENDBRANCH   7   8
ENDBRANCH   1   7
BRANCH   2  20
HETATM   20  N3  UNL     1      27.617  31.009  39.892  1.00  0.00    -0.072 N 
ATOM     21  H33 UNL     1      27.939  30.312  39.220  1.00  0.00     0.274 HD
ATOM     22  H32 UNL     1      27.042  30.410  40.485  1.00  0.00     0.274 HD
ATOM     23  H31 UNL     1      27.053  31.726  39.436  1.00  0.00     0.274 HD
ENDBRANCH   2  20
BRANCH   6  24
HETATM   24  O4  UNL     1      32.027  32.046  40.354  1.00  0.00    -0.390 OA
ATOM     25  H4  UNL     1      32.828  31.535  40.380  1.00  0.00     0.210 HD
ENDBRANCH   6  24
BRANCH   5  26
HETATM   26  O2  UNL     1      30.655  33.727  41.555  1.00  0.00    -0.351 OA
BRANCH  26  27
HETATM   27  C8  UNL     1      31.375  34.709  42.178  1.00  0.00     0.260 C 
HETATM   28  C9  UNL     1      32.481  34.204  43.055  1.00  0.00     0.063 C 
HETATM   29  C10 UNL     1      32.941  35.170  44.084  1.00  0.00     0.040 C 
HETATM   30  C11 UNL     1      32.583  36.593  43.837  1.00  0.00     0.207 C 
HETATM   31  C12 UNL     1      31.311  36.771  43.043  1.00  0.00     0.203 C 
HETATM   32  O3  UNL     1      30.598  35.582  42.934  1.00  0.00    -0.359 OA
BRANCH  30  33
HETATM   33  N5  UNL     1      33.647  37.352  43.204  1.00  0.00    -0.073 N 
ATOM     34  H53 UNL     1      33.977  38.095  43.821  1.00  0.00     0.274 HD
ATOM     35  H52 UNL     1      34.499  36.796  43.139  1.00  0.00     0.274 HD
ATOM     36  H51 UNL     1      33.388  37.726  42.292  1.00  0.00     0.274 HD
ENDBRANCH  30  33
ENDBRANCH  26  27
ENDBRANCH   5  26
BRANCH   4  37
HETATM   37  N4  UNL     1      28.613  33.401  43.216  1.00  0.00    -0.072 N 
ATOM     38  H43 UNL     1      29.164  34.256  43.137  1.00  0.00     0.274 HD
ATOM     39  H42 UNL     1      27.912  33.646  42.517  1.00  0.00     0.274 HD
ATOM     40  H41 UNL     1      28.228  33.246  44.148  1.00  0.00     0.274 HD
ENDBRANCH   4  37
TORSDOF 9
ENDMDL
