MODEL 1
REMARK VINA RESULT: -6.788131578      0.000      0.000
REMARK  7 active torsions:
REMARK  status: ('A' for Active; 'I' for Inactive)
REMARK    1  A    between atoms: N1_1  and  C1_4 
REMARK    2  A    between atoms: C2_7  and  N3_8 
REMARK    3  A    between atoms: N3_8  and  C3_10 
REMARK    4  A    between atoms: N5_19  and  C10_21 
REMARK    5  A    between atoms: C10_21  and  C11_22 
REMARK    6  A    between atoms: C11_22  and  O1_23 
REMARK    7  A    between atoms: C12_27  and  N7_28 
ROOT
HETATM    1  C1  UNL     1      30.613  32.189  41.256  1.00  0.00     0.161 C 
HETATM    2  N2  UNL     1      30.045  31.097  40.672  1.00  0.00    -0.173 N 
ATOM      3  H2  UNL     1      30.658  30.297  40.517  1.00  0.00     0.186 HD
HETATM    4  C2  UNL     1      28.761  30.957  40.274  1.00  0.00     0.699 C 
HETATM    5  N4  UNL     1      27.851  31.957  40.083  1.00  0.00    -0.022 N 
ATOM      6  H4  UNL     1      26.876  31.661  40.065  1.00  0.00     0.203 HD
HETATM    7  C9  UNL     1      28.052  33.269  39.916  1.00  0.00     0.694 C 
HETATM    8  N5  UNL     1      27.314  34.007  39.213  1.00  0.00    -0.223 N 
ATOM      9  H5  UNL     1      27.541  34.999  39.140  1.00  0.00     0.177 HD
HETATM   10  N6  UNL     1      29.093  33.958  40.483  1.00  0.00    -0.171 N 
ATOM     11  H6  UNL     1      29.060  34.971  40.365  1.00  0.00     0.186 HD
HETATM   12  C12 UNL     1      30.166  33.489  41.182  1.00  0.00     0.191 C 
ENDROOT
BRANCH  12  13
HETATM   13  N7  UNL     1      30.896  34.458  41.921  1.00  0.00    -0.192 N 
HETATM   14  N8  UNL     1      32.215  34.679  41.550  1.00  0.00    -0.229 N 
HETATM   15  N9  UNL     1      32.936  35.625  42.267  1.00  0.00    -0.258 N 
ATOM     16  H8  UNL     1      32.640  34.164  40.779  1.00  0.00     0.209 HD
HETATM   17  C13 UNL     1      32.389  36.269  43.241  1.00  0.00     0.210 A 
ATOM     18  H9  UNL     1      33.908  35.812  42.021  1.00  0.00     0.191 HD
HETATM   19  N10 UNL     1      33.175  37.221  43.935  1.00  0.00    -0.062 NA
HETATM   20  N11 UNL     1      31.047  36.047  43.621  1.00  0.00    -0.302 N 
HETATM   21  C14 UNL     1      30.338  35.186  42.993  1.00  0.00     0.219 A 
ATOM     22  H11 UNL     1      30.643  36.573  44.395  1.00  0.00     0.171 HD
HETATM   23  N12 UNL     1      28.995  34.983  43.381  1.00  0.00    -0.061 NA
ENDBRANCH  12  13
BRANCH   1  24
HETATM   24  N1  UNL     1      31.683  31.986  41.953  1.00  0.00    -0.382 N 
ATOM     25  H12 UNL     1      31.874  31.021  42.222  1.00  0.00     0.157 HD
ATOM     26  H11 UNL     1      32.248  32.806  42.177  1.00  0.00     0.157 HD
ENDBRANCH   1  24
BRANCH   4  27
HETATM   27  N3  UNL     1      28.341  29.762  40.038  1.00  0.00    -0.191 N 
ATOM     28  H3  UNL     1      27.897  29.222  40.782  1.00  0.00     0.184 HD
BRANCH  27  29
HETATM   29  C3  UNL     1      28.497  29.194  38.746  1.00  0.00     0.049 A 
HETATM   30  C4  UNL     1      28.306  27.814  38.582  1.00  0.00     0.030 A 
HETATM   31  C5  UNL     1      28.452  27.245  37.337  1.00  0.00     0.002 A 
HETATM   32  C6  UNL     1      28.785  27.977  36.217  1.00  0.00     0.000 A 
HETATM   33  C7  UNL     1      28.977  29.343  36.367  1.00  0.00     0.002 A 
HETATM   34  C8  UNL     1      28.830  29.915  37.613  1.00  0.00     0.030 A 
ENDBRANCH  27  29
ENDBRANCH   4  27
BRANCH   8  35
HETATM   35  C10 UNL     1      26.169  33.509  38.513  1.00  0.00     0.164 C 
BRANCH  35  36
HETATM   36  C11 UNL     1      25.307  34.632  37.960  1.00  0.00     0.184 C 
BRANCH  36  37
HETATM   37  O1  UNL     1      24.283  34.845  38.881  1.00  0.00    -0.399 OA
ATOM     38  H1  UNL     1      23.649  34.150  38.750  1.00  0.00     0.209 HD
ENDBRANCH  36  37
ENDBRANCH  35  36
ENDBRANCH   8  35
TORSDOF 7
ENDMDL
MODEL 2
REMARK VINA RESULT: -6.629175241      3.391      4.797
REMARK  7 active torsions:
REMARK  status: ('A' for Active; 'I' for Inactive)
REMARK    1  A    between atoms: N1_1  and  C1_4 
REMARK    2  A    between atoms: C2_7  and  N3_8 
REMARK    3  A    between atoms: N3_8  and  C3_10 
REMARK    4  A    between atoms: N5_19  and  C10_21 
REMARK    5  A    between atoms: C10_21  and  C11_22 
REMARK    6  A    between atoms: C11_22  and  O1_23 
REMARK    7  A    between atoms: C12_27  and  N7_28 
ROOT
HETATM    1  C1  UNL     1      28.541  30.547  40.467  1.00  0.00     0.161 C 
HETATM    2  N2  UNL     1      28.626  29.312  39.899  1.00  0.00    -0.173 N 
ATOM      3  H2  UNL     1      27.832  28.690  40.048  1.00  0.00     0.186 HD
HETATM    4  C2  UNL     1      29.646  28.818  39.161  1.00  0.00     0.699 C 
HETATM    5  N4  UNL     1      30.916  29.315  39.089  1.00  0.00    -0.022 N 
ATOM      6  H4  UNL     1      31.460  29.003  38.285  1.00  0.00     0.203 HD
HETATM    7  C9  UNL     1      31.551  30.150  39.918  1.00  0.00     0.694 C 
HETATM    8  N5  UNL     1      32.791  30.119  40.130  1.00  0.00    -0.223 N 
ATOM      9  H5  UNL     1      33.194  30.794  40.780  1.00  0.00     0.177 HD
HETATM   10  N6  UNL     1      30.922  31.130  40.642  1.00  0.00    -0.171 N 
ATOM     11  H6  UNL     1      31.542  31.765  41.145  1.00  0.00     0.186 HD
HETATM   12  C12 UNL     1      29.589  31.380  40.788  1.00  0.00     0.191 C 
ENDROOT
BRANCH  12  13
HETATM   13  N7  UNL     1      29.252  32.650  41.327  1.00  0.00    -0.192 N 
HETATM   14  N8  UNL     1      29.140  33.709  40.437  1.00  0.00    -0.229 N 
HETATM   15  N9  UNL     1      28.810  34.955  40.956  1.00  0.00    -0.258 N 
ATOM     16  H8  UNL     1      29.294  33.578  39.438  1.00  0.00     0.209 HD
HETATM   17  C13 UNL     1      28.618  35.109  42.222  1.00  0.00     0.210 A 
ATOM     18  H9  UNL     1      28.719  35.755  40.330  1.00  0.00     0.191 HD
HETATM   19  N10 UNL     1      28.284  36.403  42.692  1.00  0.00    -0.062 NA
HETATM   20  N11 UNL     1      28.731  34.034  43.130  1.00  0.00    -0.302 N 
HETATM   21  C14 UNL     1      29.033  32.866  42.704  1.00  0.00     0.219 A 
ATOM     22  H11 UNL     1      28.572  34.189  44.126  1.00  0.00     0.171 HD
HETATM   23  N12 UNL     1      29.134  31.800  43.627  1.00  0.00    -0.061 NA
ENDBRANCH  12  13
BRANCH   1  24
HETATM   24  N1  UNL     1      27.354  30.985  40.733  1.00  0.00    -0.382 N 
ATOM     25  H12 UNL     1      26.873  30.545  41.518  1.00  0.00     0.157 HD
ATOM     26  H11 UNL     1      26.995  31.731  40.138  1.00  0.00     0.157 HD
ENDBRANCH   1  24
BRANCH   4  27
HETATM   27  N3  UNL     1      29.412  27.765  38.457  1.00  0.00    -0.191 N 
ATOM     28  H3  UNL     1      29.377  26.850  38.906  1.00  0.00     0.184 HD
BRANCH  27  29
HETATM   29  C3  UNL     1      29.202  27.876  37.056  1.00  0.00     0.049 A 
HETATM   30  C4  UNL     1      29.007  26.709  36.303  1.00  0.00     0.030 A 
HETATM   31  C5  UNL     1      28.802  26.797  34.945  1.00  0.00     0.002 A 
HETATM   32  C6  UNL     1      28.777  27.999  34.270  1.00  0.00     0.000 A 
HETATM   33  C7  UNL     1      28.969  29.160  35.005  1.00  0.00     0.002 A 
HETATM   34  C8  UNL     1      29.174  29.075  36.366  1.00  0.00     0.030 A 
ENDBRANCH  27  29
ENDBRANCH   4  27
BRANCH   8  35
HETATM   35  C10 UNL     1      33.658  29.173  39.495  1.00  0.00     0.164 C 
BRANCH  35  36
HETATM   36  C11 UNL     1      33.893  27.945  40.360  1.00  0.00     0.184 C 
BRANCH  36  37
HETATM   37  O1  UNL     1      32.944  26.998  39.982  1.00  0.00    -0.399 OA
ATOM     38  H1  UNL     1      32.604  26.616  40.782  1.00  0.00     0.209 HD
ENDBRANCH  36  37
ENDBRANCH  35  36
ENDBRANCH   8  35
TORSDOF 7
ENDMDL
MODEL 3
REMARK VINA RESULT: -6.629057321      0.857      1.321
REMARK  7 active torsions:
REMARK  status: ('A' for Active; 'I' for Inactive)
REMARK    1  A    between atoms: N1_1  and  C1_4 
REMARK    2  A    between atoms: C2_7  and  N3_8 
REMARK    3  A    between atoms: N3_8  and  C3_10 
REMARK    4  A    between atoms: N5_19  and  C10_21 
REMARK    5  A    between atoms: C10_21  and  C11_22 
REMARK    6  A    between atoms: C11_22  and  O1_23 
REMARK    7  A    between atoms: C12_27  and  N7_28 
ROOT
HETATM    1  C1  UNL     1      31.089  32.276  40.976  1.00  0.00     0.161 C 
HETATM    2  N2  UNL     1      30.488  31.185  40.425  1.00  0.00    -0.173 N 
ATOM      3  H2  UNL     1      31.103  30.418  40.154  1.00  0.00     0.186 HD
HETATM    4  C2  UNL     1      29.167  31.005  40.198  1.00  0.00     0.699 C 
HETATM    5  N4  UNL     1      28.204  31.972  40.175  1.00  0.00    -0.022 N 
ATOM      6  H4  UNL     1      27.246  31.635  40.275  1.00  0.00     0.203 HD
HETATM    7  C9  UNL     1      28.331  33.296  40.042  1.00  0.00     0.694 C 
HETATM    8  N5  UNL     1      27.477  34.029  39.478  1.00  0.00    -0.223 N 
ATOM      9  H5  UNL     1      27.655  35.031  39.418  1.00  0.00     0.177 HD
HETATM   10  N6  UNL     1      29.412  34.007  40.494  1.00  0.00    -0.171 N 
ATOM     11  H6  UNL     1      29.326  35.021  40.426  1.00  0.00     0.186 HD
HETATM   12  C12 UNL     1      30.587  33.558  41.020  1.00  0.00     0.191 C 
ENDROOT
BRANCH  12  13
HETATM   13  N7  UNL     1      31.374  34.527  41.697  1.00  0.00    -0.192 N 
HETATM   14  N8  UNL     1      31.430  34.448  43.082  1.00  0.00    -0.229 N 
HETATM   15  N9  UNL     1      32.198  35.392  43.751  1.00  0.00    -0.258 N 
ATOM     16  H8  UNL     1      30.924  33.723  43.589  1.00  0.00     0.209 HD
HETATM   17  C13 UNL     1      32.833  36.306  43.098  1.00  0.00     0.210 A 
ATOM     18  H9  UNL     1      32.261  35.363  44.768  1.00  0.00     0.191 HD
HETATM   19  N10 UNL     1      33.600  37.241  43.835  1.00  0.00    -0.062 NA
HETATM   20  N11 UNL     1      32.779  36.389  41.690  1.00  0.00    -0.302 N 
HETATM   21  C14 UNL     1      32.086  35.544  41.024  1.00  0.00     0.219 A 
ATOM     22  H11 UNL     1      33.293  37.123  41.202  1.00  0.00     0.171 HD
HETATM   23  N12 UNL     1      32.050  35.637  39.614  1.00  0.00    -0.061 NA
ENDBRANCH  12  13
BRANCH   1  24
HETATM   24  N1  UNL     1      32.250  32.092  41.513  1.00  0.00    -0.382 N 
ATOM     25  H12 UNL     1      32.663  32.895  41.988  1.00  0.00     0.157 HD
ATOM     26  H11 UNL     1      32.659  31.162  41.417  1.00  0.00     0.157 HD
ENDBRANCH   1  24
BRANCH   4  27
HETATM   27  N3  UNL     1      28.765  29.803  39.967  1.00  0.00    -0.191 N 
ATOM     28  H3  UNL     1      28.445  29.216  40.739  1.00  0.00     0.184 HD
BRANCH  27  29
HETATM   29  C3  UNL     1      28.767  29.292  38.642  1.00  0.00     0.049 A 
HETATM   30  C4  UNL     1      28.511  27.928  38.438  1.00  0.00     0.030 A 
HETATM   31  C5  UNL     1      28.508  27.415  37.161  1.00  0.00     0.002 A 
HETATM   32  C6  UNL     1      28.749  28.188  36.046  1.00  0.00     0.000 A 
HETATM   33  C7  UNL     1      29.005  29.539  36.235  1.00  0.00     0.002 A 
HETATM   34  C8  UNL     1      29.007  30.055  37.513  1.00  0.00     0.030 A 
ENDBRANCH  27  29
ENDBRANCH   4  27
BRANCH   8  35
HETATM   35  C10 UNL     1      26.267  33.510  38.916  1.00  0.00     0.164 C 
BRANCH  35  36
HETATM   36  C11 UNL     1      25.491  34.572  38.155  1.00  0.00     0.184 C 
BRANCH  36  37
HETATM   37  O1  UNL     1      24.324  34.813  38.877  1.00  0.00    -0.399 OA
ATOM     38  H1  UNL     1      24.556  35.401  39.585  1.00  0.00     0.209 HD
ENDBRANCH  36  37
ENDBRANCH  35  36
ENDBRANCH   8  35
TORSDOF 7
ENDMDL
MODEL 4
REMARK VINA RESULT: -6.595786364      1.440      1.656
REMARK  7 active torsions:
REMARK  status: ('A' for Active; 'I' for Inactive)
REMARK    1  A    between atoms: N1_1  and  C1_4 
REMARK    2  A    between atoms: C2_7  and  N3_8 
REMARK    3  A    between atoms: N3_8  and  C3_10 
REMARK    4  A    between atoms: N5_19  and  C10_21 
REMARK    5  A    between atoms: C10_21  and  C11_22 
REMARK    6  A    between atoms: C11_22  and  O1_23 
REMARK    7  A    between atoms: C12_27  and  N7_28 
ROOT
HETATM    1  C1  UNL     1      30.896  33.451  41.648  1.00  0.00     0.161 C 
HETATM    2  N2  UNL     1      30.301  32.234  41.503  1.00  0.00    -0.173 N 
ATOM      3  H2  UNL     1      30.891  31.419  41.668  1.00  0.00     0.186 HD
HETATM    4  C2  UNL     1      29.015  31.987  41.164  1.00  0.00     0.699 C 
HETATM    5  N4  UNL     1      28.137  32.866  40.598  1.00  0.00    -0.022 N 
ATOM      6  H4  UNL     1      27.153  32.609  40.676  1.00  0.00     0.203 HD
HETATM    7  C9  UNL     1      28.377  34.015  39.958  1.00  0.00     0.694 C 
HETATM    8  N5  UNL     1      27.666  34.455  39.018  1.00  0.00    -0.223 N 
ATOM      9  H5  UNL     1      27.922  35.342  38.584  1.00  0.00     0.177 HD
HETATM   10  N6  UNL     1      29.433  34.840  40.245  1.00  0.00    -0.171 N 
ATOM     11  H6  UNL     1      29.431  35.736  39.756  1.00  0.00     0.186 HD
HETATM   12  C12 UNL     1      30.488  34.640  41.086  1.00  0.00     0.191 C 
ENDROOT
BRANCH  12  13
HETATM   13  N7  UNL     1      31.241  35.796  41.423  1.00  0.00    -0.192 N 
HETATM   14  N8  UNL     1      32.477  35.950  40.810  1.00  0.00    -0.229 N 
HETATM   15  N9  UNL     1      33.220  37.079  41.134  1.00  0.00    -0.258 N 
ATOM     16  H8  UNL     1      32.828  35.260  40.147  1.00  0.00     0.209 HD
HETATM   17  C13 UNL     1      32.767  37.945  41.975  1.00  0.00     0.210 A 
ATOM     18  H9  UNL     1      34.132  37.223  40.702  1.00  0.00     0.191 HD
HETATM   19  N10 UNL     1      33.570  39.075  42.265  1.00  0.00    -0.062 NA
HETATM   20  N11 UNL     1      31.510  37.792  42.599  1.00  0.00    -0.302 N 
HETATM   21  C14 UNL     1      30.785  36.770  42.336  1.00  0.00     0.219 A 
ATOM     22  H11 UNL     1      31.179  38.495  43.260  1.00  0.00     0.171 HD
HETATM   23  N12 UNL     1      29.526  36.637  42.965  1.00  0.00    -0.061 NA
ENDBRANCH  12  13
BRANCH   1  24
HETATM   24  N1  UNL     1      31.955  33.496  42.388  1.00  0.00    -0.382 N 
ATOM     25  H12 UNL     1      32.691  32.825  42.170  1.00  0.00     0.157 HD
ATOM     26  H11 UNL     1      31.968  34.197  43.129  1.00  0.00     0.157 HD
ENDBRANCH   1  24
BRANCH   4  27
HETATM   27  N3  UNL     1      28.563  30.801  41.384  1.00  0.00    -0.191 N 
ATOM     28  H3  UNL     1      28.232  30.547  42.315  1.00  0.00     0.184 HD
BRANCH  27  29
HETATM   29  C3  UNL     1      28.525  29.846  40.332  1.00  0.00     0.049 A 
HETATM   30  C4  UNL     1      27.299  29.253  39.997  1.00  0.00     0.030 A 
HETATM   31  C5  UNL     1      27.242  28.326  38.982  1.00  0.00     0.002 A 
HETATM   32  C6  UNL     1      28.351  27.941  38.259  1.00  0.00     0.000 A 
HETATM   33  C7  UNL     1      29.570  28.521  38.582  1.00  0.00     0.002 A 
HETATM   34  C8  UNL     1      29.629  29.451  39.599  1.00  0.00     0.030 A 
ENDBRANCH  27  29
ENDBRANCH   4  27
BRANCH   8  35
HETATM   35  C10 UNL     1      26.512  33.761  38.534  1.00  0.00     0.164 C 
BRANCH  35  36
HETATM   36  C11 UNL     1      25.443  34.715  38.026  1.00  0.00     0.184 C 
BRANCH  36  37
HETATM   37  O1  UNL     1      24.339  34.565  38.863  1.00  0.00    -0.399 OA
ATOM     38  H1  UNL     1      24.295  33.646  39.096  1.00  0.00     0.209 HD
ENDBRANCH  36  37
ENDBRANCH  35  36
ENDBRANCH   8  35
TORSDOF 7
ENDMDL
MODEL 5
REMARK VINA RESULT: -6.342382863      3.932      6.343
REMARK  7 active torsions:
REMARK  status: ('A' for Active; 'I' for Inactive)
REMARK    1  A    between atoms: N1_1  and  C1_4 
REMARK    2  A    between atoms: C2_7  and  N3_8 
REMARK    3  A    between atoms: N3_8  and  C3_10 
REMARK    4  A    between atoms: N5_19  and  C10_21 
REMARK    5  A    between atoms: C10_21  and  C11_22 
REMARK    6  A    between atoms: C11_22  and  O1_23 
REMARK    7  A    between atoms: C12_27  and  N7_28 
ROOT
HETATM    1  C1  UNL     1      29.010  30.373  37.791  1.00  0.00     0.161 C 
HETATM    2  N2  UNL     1      29.033  29.914  36.508  1.00  0.00    -0.173 N 
ATOM      3  H2  UNL     1      28.363  30.335  35.865  1.00  0.00     0.186 HD
HETATM    4  C2  UNL     1      29.845  28.963  35.993  1.00  0.00     0.699 C 
HETATM    5  N4  UNL     1      30.582  28.053  36.694  1.00  0.00    -0.022 N 
ATOM      6  H4  UNL     1      31.340  27.613  36.172  1.00  0.00     0.203 HD
HETATM    7  C9  UNL     1      30.457  27.653  37.964  1.00  0.00     0.694 C 
HETATM    8  N5  UNL     1      30.738  26.493  38.364  1.00  0.00    -0.223 N 
ATOM      9  H5  UNL     1      30.611  26.272  39.352  1.00  0.00     0.177 HD
HETATM   10  N6  UNL     1      29.996  28.457  38.973  1.00  0.00    -0.171 N 
ATOM     11  H6  UNL     1      30.059  28.059  39.910  1.00  0.00     0.186 HD
HETATM   12  C12 UNL     1      29.465  29.712  38.910  1.00  0.00     0.191 C 
ENDROOT
BRANCH  12  13
HETATM   13  N7  UNL     1      29.384  30.414  40.142  1.00  0.00    -0.192 N 
HETATM   14  N8  UNL     1      28.144  30.466  40.764  1.00  0.00    -0.229 N 
HETATM   15  N9  UNL     1      28.056  31.150  41.969  1.00  0.00    -0.258 N 
ATOM     16  H8  UNL     1      27.327  30.018  40.350  1.00  0.00     0.209 HD
HETATM   17  C13 UNL     1      29.097  31.714  42.483  1.00  0.00     0.210 A 
ATOM     18  H9  UNL     1      27.160  31.208  42.453  1.00  0.00     0.191 HD
HETATM   19  N10 UNL     1      28.945  32.397  43.714  1.00  0.00    -0.062 NA
HETATM   20  N11 UNL     1      30.359  31.663  41.853  1.00  0.00    -0.302 N 
HETATM   21  C14 UNL     1      30.495  31.045  40.741  1.00  0.00     0.219 A 
ATOM     22  H11 UNL     1      31.163  32.118  42.285  1.00  0.00     0.171 HD
HETATM   23  N12 UNL     1      31.769  30.997  40.128  1.00  0.00    -0.061 NA
ENDBRANCH  12  13
BRANCH   1  24
HETATM   24  N1  UNL     1      28.508  31.548  37.979  1.00  0.00    -0.382 N 
ATOM     25  H12 UNL     1      27.605  31.733  37.542  1.00  0.00     0.157 HD
ATOM     26  H11 UNL     1      29.054  32.196  38.548  1.00  0.00     0.157 HD
ENDBRANCH   1  24
BRANCH   4  27
HETATM   27  N3  UNL     1      29.933  28.892  34.710  1.00  0.00    -0.191 N 
ATOM     28  H3  UNL     1      30.643  29.434  34.218  1.00  0.00     0.184 HD
BRANCH  27  29
HETATM   29  C3  UNL     1      29.042  28.061  33.979  1.00  0.00     0.049 A 
HETATM   30  C4  UNL     1      28.658  28.447  32.686  1.00  0.00     0.030 A 
HETATM   31  C5  UNL     1      27.796  27.655  31.963  1.00  0.00     0.002 A 
HETATM   32  C6  UNL     1      27.279  26.475  32.452  1.00  0.00     0.000 A 
HETATM   33  C7  UNL     1      27.651  26.083  33.729  1.00  0.00     0.002 A 
HETATM   34  C8  UNL     1      28.515  26.875  34.456  1.00  0.00     0.030 A 
ENDBRANCH  27  29
ENDBRANCH   4  27
BRANCH   8  35
HETATM   35  C10 UNL     1      31.228  25.473  37.488  1.00  0.00     0.164 C 
BRANCH  35  36
HETATM   36  C11 UNL     1      30.135  24.497  37.083  1.00  0.00     0.184 C 
BRANCH  36  37
HETATM   37  O1  UNL     1      29.763  23.808  38.235  1.00  0.00    -0.399 OA
ATOM     38  H1  UNL     1      30.106  24.299  38.971  1.00  0.00     0.209 HD
ENDBRANCH  36  37
ENDBRANCH  35  36
ENDBRANCH   8  35
TORSDOF 7
ENDMDL
