MODEL 1
REMARK VINA RESULT: -5.913891516      0.000      0.000
REMARK  11 active torsions:
REMARK  status: ('A' for Active; 'I' for Inactive)
REMARK    1  A    between atoms: C4_7  and  C5_8 
REMARK    2  A    between atoms: C5_8  and  N3_9 
REMARK    3  A    between atoms: N3_9  and  N4_11 
REMARK    4  A    between atoms: N4_11  and  C6_12 
REMARK    5  A    between atoms: C7_15  and  O1_16 
REMARK    6  A    between atoms: C8_18  and  C9_19 
REMARK    7  A    between atoms: C9_19  and  N6_20 
REMARK    8  A    between atoms: N6_20  and  N7_21 
REMARK    9  A    between atoms: N7_21  and  C10_23 
REMARK   10  A    between atoms: C12_34  and  N12_35 
REMARK   11  A    between atoms: N12_35  and  N13_37 
ROOT
HETATM    1  C6  UNL     1      28.640  30.727  40.037  1.00  0.00     0.251 A 
HETATM    2  N5  UNL     1      28.333  29.403  39.769  1.00  0.00    -0.305 N 
ATOM      3  H5  UNL     1      28.017  28.813  40.538  1.00  0.00     0.170 HD
HETATM    4  C7  UNL     1      28.429  28.864  38.562  1.00  0.00     0.172 A 
HETATM    5  C8  UNL     1      28.857  29.675  37.534  1.00  0.00     0.116 A 
HETATM    6  N11 UNL     1      29.160  30.959  37.766  1.00  0.00    -0.332 N 
ATOM      7  H11 UNL     1      29.474  31.531  36.982  1.00  0.00     0.168 HD
HETATM    8  C12 UNL     1      29.072  31.540  38.999  1.00  0.00     0.182 A 
ENDROOT
BRANCH   5   9
HETATM    9  C9  UNL     1      28.976  29.129  36.174  1.00  0.00     0.243 C 
BRANCH   9  10
HETATM   10  N6  UNL     1      28.918  28.005  35.755  1.00  0.00    -0.321 NA
BRANCH  10  11
HETATM   11  N7  UNL     1      28.502  26.917  35.216  1.00  0.00    -0.064 N 
ATOM     12  H7  UNL     1      27.956  27.025  34.361  1.00  0.00     0.221 HD
BRANCH  11  13
HETATM   13  C10 UNL     1      28.690  25.683  35.623  1.00  0.00     0.726 A 
HETATM   14  N8  UNL     1      28.066  24.583  35.175  1.00  0.00    -0.126 N 
HETATM   15  N9  UNL     1      28.544  23.545  35.837  1.00  0.00    -0.236 N 
ATOM     16  H8  UNL     1      27.348  24.554  34.451  1.00  0.00     0.206 HD
HETATM   17  C11 UNL     1      29.492  23.953  36.735  1.00  0.00     0.353 A 
ATOM     18  H9  UNL     1      28.248  22.579  35.698  1.00  0.00     0.192 HD
HETATM   19  O2  UNL     1      30.145  23.209  37.525  1.00  0.00    -0.245 OA
HETATM   20  N10 UNL     1      29.554  25.279  36.571  1.00  0.00    -0.137 N 
ATOM     21  H10 UNL     1      30.172  25.899  37.093  1.00  0.00     0.189 HD
ENDBRANCH  11  13
ENDBRANCH  10  11
ENDBRANCH   9  10
ENDBRANCH   5   9
BRANCH   4  22
HETATM   22  O1  UNL     1      28.098  27.510  38.366  1.00  0.00    -0.344 OA
ATOM     23  H1  UNL     1      28.217  27.110  37.512  1.00  0.00     0.219 HD
ENDBRANCH   4  22
BRANCH   8  24
HETATM   24  N12 UNL     1      29.388  32.769  39.121  1.00  0.00    -0.288 N 
ATOM     25  H12 UNL     1      30.376  33.002  39.024  1.00  0.00     0.188 HD
BRANCH  24  26
HETATM   26  N13 UNL     1      28.537  33.796  39.367  1.00  0.00    -0.343 N 
ATOM     27 2H13 UNL     1      27.890  33.658  40.143  1.00  0.00     0.176 HD
ATOM     28 1H13 UNL     1      28.488  34.676  38.854  1.00  0.00     0.176 HD
ENDBRANCH  24  26
ENDBRANCH   8  24
BRANCH   1  29
HETATM   29  N4  UNL     1      28.514  31.108  41.163  1.00  0.00    -0.303 NA
BRANCH  29  30
HETATM   30  N3  UNL     1      28.346  31.539  42.337  1.00  0.00    -0.243 N 
ATOM     31  H3  UNL     1      27.451  31.275  42.748  1.00  0.00     0.201 HD
BRANCH  30  32
HETATM   32  C5  UNL     1      29.091  32.253  43.121  1.00  0.00     0.152 C 
BRANCH  32  33
HETATM   33  C4  UNL     1      29.538  33.580  42.771  1.00  0.00     0.069 A 
HETATM   34  N1  UNL     1      30.724  33.921  42.221  1.00  0.00    -0.296 N 
HETATM   35  C1  UNL     1      31.797  33.015  41.866  1.00  0.00     0.178 C 
HETATM   36  N2  UNL     1      30.716  35.233  42.068  1.00  0.00    -0.310 N 
HETATM   37  C2  UNL     1      29.575  35.762  42.495  1.00  0.00     0.109 A 
ATOM     38  H2  UNL     1      31.487  35.771  41.673  1.00  0.00     0.186 HD
HETATM   39  C3  UNL     1      28.780  34.725  42.959  1.00  0.00     0.051 A 
ENDBRANCH  32  33
ENDBRANCH  30  32
ENDBRANCH  29  30
ENDBRANCH   1  29
TORSDOF 11
ENDMDL
MODEL 2
REMARK VINA RESULT: -5.498351898      2.226      3.749
REMARK  11 active torsions:
REMARK  status: ('A' for Active; 'I' for Inactive)
REMARK    1  A    between atoms: C4_7  and  C5_8 
REMARK    2  A    between atoms: C5_8  and  N3_9 
REMARK    3  A    between atoms: N3_9  and  N4_11 
REMARK    4  A    between atoms: N4_11  and  C6_12 
REMARK    5  A    between atoms: C7_15  and  O1_16 
REMARK    6  A    between atoms: C8_18  and  C9_19 
REMARK    7  A    between atoms: C9_19  and  N6_20 
REMARK    8  A    between atoms: N6_20  and  N7_21 
REMARK    9  A    between atoms: N7_21  and  C10_23 
REMARK   10  A    between atoms: C12_34  and  N12_35 
REMARK   11  A    between atoms: N12_35  and  N13_37 
ROOT
HETATM    1  C6  UNL     1      30.313  32.342  42.003  1.00  0.00     0.251 A 
HETATM    2  N5  UNL     1      30.716  31.568  40.927  1.00  0.00    -0.305 N 
ATOM      3  H5  UNL     1      31.684  31.636  40.616  1.00  0.00     0.170 HD
HETATM    4  C7  UNL     1      29.904  30.743  40.280  1.00  0.00     0.172 A 
HETATM    5  C8  UNL     1      28.600  30.663  40.713  1.00  0.00     0.116 A 
HETATM    6  N11 UNL     1      28.184  31.400  41.751  1.00  0.00    -0.332 N 
ATOM      7  H11 UNL     1      27.211  31.316  42.045  1.00  0.00     0.168 HD
HETATM    8  C12 UNL     1      28.996  32.259  42.435  1.00  0.00     0.182 A 
ENDROOT
BRANCH   5   9
HETATM    9  C9  UNL     1      27.660  29.759  40.034  1.00  0.00     0.243 C 
BRANCH   9  10
HETATM   10  N6  UNL     1      27.827  28.728  39.442  1.00  0.00    -0.321 NA
BRANCH  10  11
HETATM   11  N7  UNL     1      28.308  27.816  38.676  1.00  0.00    -0.064 N 
ATOM     12  H7  UNL     1      28.563  26.940  39.134  1.00  0.00     0.221 HD
BRANCH  11  13
HETATM   13  C10 UNL     1      28.515  27.866  37.381  1.00  0.00     0.726 A 
HETATM   14  N8  UNL     1      28.780  28.958  36.649  1.00  0.00    -0.126 N 
HETATM   15  N9  UNL     1      28.927  28.582  35.392  1.00  0.00    -0.236 N 
ATOM     16  H8  UNL     1      28.854  29.913  37.002  1.00  0.00     0.206 HD
HETATM   17  C11 UNL     1      28.758  27.228  35.282  1.00  0.00     0.353 A 
ATOM     18  H9  UNL     1      29.137  29.209  34.616  1.00  0.00     0.192 HD
HETATM   19  O2  UNL     1      28.833  26.548  34.216  1.00  0.00    -0.245 OA
HETATM   20  N10 UNL     1      28.506  26.823  36.532  1.00  0.00    -0.137 N 
ATOM     21  H10 UNL     1      28.332  25.856  36.804  1.00  0.00     0.189 HD
ENDBRANCH  11  13
ENDBRANCH  10  11
ENDBRANCH   9  10
ENDBRANCH   5   9
BRANCH   4  22
HETATM   22  O1  UNL     1      30.387  29.987  39.195  1.00  0.00    -0.344 OA
ATOM     23  H1  UNL     1      29.799  29.417  38.713  1.00  0.00     0.219 HD
ENDBRANCH   4  22
BRANCH   8  24
HETATM   24  N12 UNL     1      28.507  32.922  43.407  1.00  0.00    -0.288 N 
ATOM     25  H12 UNL     1      28.365  32.419  44.282  1.00  0.00     0.188 HD
BRANCH  24  26
HETATM   26  N13 UNL     1      28.156  34.232  43.388  1.00  0.00    -0.343 N 
ATOM     27 2H13 UNL     1      28.576  34.792  42.647  1.00  0.00     0.176 HD
ATOM     28 1H13 UNL     1      27.522  34.697  44.038  1.00  0.00     0.176 HD
ENDBRANCH  24  26
ENDBRANCH   8  24
BRANCH   1  29
HETATM   29  N4  UNL     1      31.130  33.049  42.514  1.00  0.00    -0.303 NA
BRANCH  29  30
HETATM   30  N3  UNL     1      31.963  33.832  43.047  1.00  0.00    -0.243 N 
ATOM     31  H3  UNL     1      32.219  33.572  44.000  1.00  0.00     0.201 HD
BRANCH  30  32
HETATM   32  C5  UNL     1      32.557  34.901  42.619  1.00  0.00     0.152 C 
BRANCH  32  33
HETATM   33  C4  UNL     1      31.906  36.190  42.588  1.00  0.00     0.069 A 
HETATM   34  N1  UNL     1      32.191  37.226  41.770  1.00  0.00    -0.296 N 
HETATM   35  C1  UNL     1      33.215  37.255  40.747  1.00  0.00     0.178 C 
HETATM   36  N2  UNL     1      31.358  38.204  42.081  1.00  0.00    -0.310 N 
HETATM   37  C2  UNL     1      30.543  37.848  43.067  1.00  0.00     0.109 A 
ATOM     38  H2  UNL     1      31.343  39.114  41.622  1.00  0.00     0.186 HD
HETATM   39  C3  UNL     1      30.862  36.548  43.427  1.00  0.00     0.051 A 
ENDBRANCH  32  33
ENDBRANCH  30  32
ENDBRANCH  29  30
ENDBRANCH   1  29
TORSDOF 11
ENDMDL
MODEL 3
REMARK VINA RESULT: -5.497316025      1.608      2.012
REMARK  11 active torsions:
REMARK  status: ('A' for Active; 'I' for Inactive)
REMARK    1  A    between atoms: C4_7  and  C5_8 
REMARK    2  A    between atoms: C5_8  and  N3_9 
REMARK    3  A    between atoms: N3_9  and  N4_11 
REMARK    4  A    between atoms: N4_11  and  C6_12 
REMARK    5  A    between atoms: C7_15  and  O1_16 
REMARK    6  A    between atoms: C8_18  and  C9_19 
REMARK    7  A    between atoms: C9_19  and  N6_20 
REMARK    8  A    between atoms: N6_20  and  N7_21 
REMARK    9  A    between atoms: N7_21  and  C10_23 
REMARK   10  A    between atoms: C12_34  and  N12_35 
REMARK   11  A    between atoms: N12_35  and  N13_37 
ROOT
HETATM    1  C6  UNL     1      29.684  31.400  40.460  1.00  0.00     0.251 A 
HETATM    2  N5  UNL     1      30.478  30.339  40.052  1.00  0.00    -0.305 N 
ATOM      3  H5  UNL     1      31.479  30.381  40.242  1.00  0.00     0.170 HD
HETATM    4  C7  UNL     1      30.000  29.273  39.426  1.00  0.00     0.172 A 
HETATM    5  C8  UNL     1      28.647  29.233  39.178  1.00  0.00     0.116 A 
HETATM    6  N11 UNL     1      27.857  30.244  39.562  1.00  0.00    -0.332 N 
ATOM      7  H11 UNL     1      26.859  30.181  39.362  1.00  0.00     0.168 HD
HETATM    8  C12 UNL     1      28.321  31.355  40.207  1.00  0.00     0.182 A 
ENDROOT
BRANCH   5   9
HETATM    9  C9  UNL     1      28.065  28.070  38.491  1.00  0.00     0.243 C 
BRANCH   9  10
HETATM   10  N6  UNL     1      28.447  27.417  37.559  1.00  0.00    -0.321 NA
BRANCH  10  11
HETATM   11  N7  UNL     1      29.183  26.733  36.759  1.00  0.00    -0.064 N 
ATOM     12  H7  UNL     1      29.934  27.246  36.297  1.00  0.00     0.221 HD
BRANCH  11  13
HETATM   13  C10 UNL     1      29.092  25.459  36.458  1.00  0.00     0.726 A 
HETATM   14  N8  UNL     1      28.258  24.898  35.569  1.00  0.00    -0.126 N 
HETATM   15  N9  UNL     1      28.486  23.597  35.560  1.00  0.00    -0.236 N 
ATOM     16  H8  UNL     1      27.569  25.390  35.000  1.00  0.00     0.206 HD
HETATM   17  C11 UNL     1      29.477  23.285  36.451  1.00  0.00     0.353 A 
ATOM     18  H9  UNL     1      27.994  22.923  34.974  1.00  0.00     0.192 HD
HETATM   19  O2  UNL     1      29.935  22.128  36.686  1.00  0.00    -0.245 OA
HETATM   20  N10 UNL     1      29.825  24.461  36.983  1.00  0.00    -0.137 N 
ATOM     21  H10 UNL     1      30.549  24.585  37.692  1.00  0.00     0.189 HD
ENDBRANCH  11  13
ENDBRANCH  10  11
ENDBRANCH   9  10
ENDBRANCH   5   9
BRANCH   4  22
HETATM   22  O1  UNL     1      30.870  28.234  39.042  1.00  0.00    -0.344 OA
ATOM     23  H1  UNL     1      31.509  27.897  39.659  1.00  0.00     0.219 HD
ENDBRANCH   4  22
BRANCH   8  24
HETATM   24  N12 UNL     1      27.491  32.267  40.528  1.00  0.00    -0.288 N 
ATOM     25  H12 UNL     1      26.708  31.990  41.119  1.00  0.00     0.188 HD
BRANCH  24  26
HETATM   26  N13 UNL     1      27.550  33.571  40.159  1.00  0.00    -0.343 N 
ATOM     27 2H13 UNL     1      28.157  34.164  40.725  1.00  0.00     0.176 HD
ATOM     28 1H13 UNL     1      27.051  34.002  39.381  1.00  0.00     0.176 HD
ENDBRANCH  24  26
ENDBRANCH   8  24
BRANCH   1  29
HETATM   29  N4  UNL     1      30.221  32.309  41.021  1.00  0.00    -0.303 NA
BRANCH  29  30
HETATM   30  N3  UNL     1      30.769  33.254  41.652  1.00  0.00    -0.243 N 
ATOM     31  H3  UNL     1      31.622  33.600  41.214  1.00  0.00     0.201 HD
BRANCH  30  32
HETATM   32  C5  UNL     1      30.458  33.868  42.750  1.00  0.00     0.152 C 
BRANCH  32  33
HETATM   33  C4  UNL     1      30.751  35.265  42.966  1.00  0.00     0.069 A 
HETATM   34  N1  UNL     1      31.884  35.790  43.481  1.00  0.00    -0.296 N 
HETATM   35  C1  UNL     1      33.048  35.050  43.923  1.00  0.00     0.178 C 
HETATM   36  N2  UNL     1      31.729  37.102  43.502  1.00  0.00    -0.310 N 
HETATM   37  C2  UNL     1      30.541  37.454  43.023  1.00  0.00     0.109 A 
ATOM     38  H2  UNL     1      32.430  37.759  43.843  1.00  0.00     0.186 HD
HETATM   39  C3  UNL     1      29.873  36.294  42.662  1.00  0.00     0.051 A 
ENDBRANCH  32  33
ENDBRANCH  30  32
ENDBRANCH  29  30
ENDBRANCH   1  29
TORSDOF 11
ENDMDL
MODEL 4
REMARK VINA RESULT: -5.482912450      3.633      6.815
REMARK  11 active torsions:
REMARK  status: ('A' for Active; 'I' for Inactive)
REMARK    1  A    between atoms: C4_7  and  C5_8 
REMARK    2  A    between atoms: C5_8  and  N3_9 
REMARK    3  A    between atoms: N3_9  and  N4_11 
REMARK    4  A    between atoms: N4_11  and  C6_12 
REMARK    5  A    between atoms: C7_15  and  O1_16 
REMARK    6  A    between atoms: C8_18  and  C9_19 
REMARK    7  A    between atoms: C9_19  and  N6_20 
REMARK    8  A    between atoms: N6_20  and  N7_21 
REMARK    9  A    between atoms: N7_21  and  C10_23 
REMARK   10  A    between atoms: C12_34  and  N12_35 
REMARK   11  A    between atoms: N12_35  and  N13_37 
ROOT
HETATM    1  C6  UNL     1      31.071  35.908  42.690  1.00  0.00     0.251 A 
HETATM    2  N5  UNL     1      29.714  35.742  42.918  1.00  0.00    -0.305 N 
ATOM      3  H5  UNL     1      29.130  36.574  42.992  1.00  0.00     0.170 HD
HETATM    4  C7  UNL     1      29.138  34.555  43.044  1.00  0.00     0.172 A 
HETATM    5  C8  UNL     1      29.942  33.442  42.940  1.00  0.00     0.116 A 
HETATM    6  N11 UNL     1      31.256  33.574  42.721  1.00  0.00    -0.332 N 
ATOM      7  H11 UNL     1      31.823  32.728  42.649  1.00  0.00     0.168 HD
HETATM    8  C12 UNL     1      31.878  34.783  42.587  1.00  0.00     0.182 A 
ENDROOT
BRANCH   5   9
HETATM    9  C9  UNL     1      29.352  32.101  43.067  1.00  0.00     0.243 C 
BRANCH   9  10
HETATM   10  N6  UNL     1      28.519  31.528  42.420  1.00  0.00    -0.321 NA
BRANCH  10  11
HETATM   11  N7  UNL     1      27.807  31.095  41.443  1.00  0.00    -0.064 N 
ATOM     12  H7  UNL     1      26.886  31.521  41.341  1.00  0.00     0.221 HD
BRANCH  11  13
HETATM   13  C10 UNL     1      28.113  30.174  40.560  1.00  0.00     0.726 A 
HETATM   14  N8  UNL     1      29.313  29.961  40.000  1.00  0.00    -0.126 N 
HETATM   15  N9  UNL     1      29.201  28.941  39.169  1.00  0.00    -0.236 N 
ATOM     16  H8  UNL     1      30.163  30.494  40.183  1.00  0.00     0.206 HD
HETATM   17  C11 UNL     1      27.917  28.468  39.172  1.00  0.00     0.353 A 
ATOM     18  H9  UNL     1      29.962  28.560  38.607  1.00  0.00     0.192 HD
HETATM   19  O2  UNL     1      27.474  27.499  38.488  1.00  0.00    -0.245 OA
HETATM   20  N10 UNL     1      27.277  29.255  40.043  1.00  0.00    -0.137 N 
ATOM     21  H10 UNL     1      26.290  29.171  40.284  1.00  0.00     0.189 HD
ENDBRANCH  11  13
ENDBRANCH  10  11
ENDBRANCH   9  10
ENDBRANCH   5   9
BRANCH   4  22
HETATM   22  O1  UNL     1      27.752  34.466  43.274  1.00  0.00    -0.344 OA
ATOM     23  H1  UNL     1      27.419  34.430  44.163  1.00  0.00     0.219 HD
ENDBRANCH   4  22
BRANCH   8  24
HETATM   24  N12 UNL     1      33.136  34.806  42.385  1.00  0.00    -0.288 N 
ATOM     25  H12 UNL     1      33.471  34.385  41.519  1.00  0.00     0.188 HD
BRANCH  24  26
HETATM   26  N13 UNL     1      34.072  35.337  43.211  1.00  0.00    -0.343 N 
ATOM     27 2H13 UNL     1      35.028  35.336  42.855  1.00  0.00     0.176 HD
ATOM     28 1H13 UNL     1      33.907  35.730  44.138  1.00  0.00     0.176 HD
ENDBRANCH  24  26
ENDBRANCH   8  24
BRANCH   1  29
HETATM   29  N4  UNL     1      31.483  37.025  42.589  1.00  0.00    -0.303 NA
BRANCH  29  30
HETATM   30  N3  UNL     1      31.957  38.191  42.505  1.00  0.00    -0.243 N 
ATOM     31  H3  UNL     1      31.789  38.763  43.332  1.00  0.00     0.201 HD
BRANCH  30  32
HETATM   32  C5  UNL     1      32.616  38.803  41.571  1.00  0.00     0.152 C 
BRANCH  32  33
HETATM   33  C4  UNL     1      32.112  39.986  40.914  1.00  0.00     0.069 A 
HETATM   34  N1  UNL     1      31.731  40.100  39.623  1.00  0.00    -0.296 N 
HETATM   35  C1  UNL     1      31.748  39.048  38.628  1.00  0.00     0.178 C 
HETATM   36  N2  UNL     1      31.339  41.349  39.445  1.00  0.00    -0.310 N 
HETATM   37  C2  UNL     1      31.450  42.054  40.565  1.00  0.00     0.109 A 
ATOM     38  H2  UNL     1      30.996  41.724  38.561  1.00  0.00     0.186 HD
HETATM   39  C3  UNL     1      31.946  41.208  41.545  1.00  0.00     0.051 A 
ENDBRANCH  32  33
ENDBRANCH  30  32
ENDBRANCH  29  30
ENDBRANCH   1  29
TORSDOF 11
ENDMDL
MODEL 5
REMARK VINA RESULT: -5.428663849      1.759      2.414
REMARK  11 active torsions:
REMARK  status: ('A' for Active; 'I' for Inactive)
REMARK    1  A    between atoms: C4_7  and  C5_8 
REMARK    2  A    between atoms: C5_8  and  N3_9 
REMARK    3  A    between atoms: N3_9  and  N4_11 
REMARK    4  A    between atoms: N4_11  and  C6_12 
REMARK    5  A    between atoms: C7_15  and  O1_16 
REMARK    6  A    between atoms: C8_18  and  C9_19 
REMARK    7  A    between atoms: C9_19  and  N6_20 
REMARK    8  A    between atoms: N6_20  and  N7_21 
REMARK    9  A    between atoms: N7_21  and  C10_23 
REMARK   10  A    between atoms: C12_34  and  N12_35 
REMARK   11  A    between atoms: N12_35  and  N13_37 
ROOT
HETATM    1  C6  UNL     1      30.307  31.120  40.665  1.00  0.00     0.251 A 
HETATM    2  N5  UNL     1      30.941  30.215  39.828  1.00  0.00    -0.305 N 
ATOM      3  H5  UNL     1      31.950  30.294  39.704  1.00  0.00     0.170 HD
HETATM    4  C7  UNL     1      30.301  29.250  39.182  1.00  0.00     0.172 A 
HETATM    5  C8  UNL     1      28.939  29.157  39.362  1.00  0.00     0.116 A 
HETATM    6  N11 UNL     1      28.302  30.019  40.164  1.00  0.00    -0.332 N 
ATOM      7  H11 UNL     1      27.292  29.921  40.275  1.00  0.00     0.168 HD
HETATM    8  C12 UNL     1      28.934  31.023  40.842  1.00  0.00     0.182 A 
ENDROOT
BRANCH   5   9
HETATM    9  C9  UNL     1      28.182  28.102  38.672  1.00  0.00     0.243 C 
BRANCH   9  10
HETATM   10  N6  UNL     1      28.398  27.494  37.660  1.00  0.00    -0.321 NA
BRANCH  10  11
HETATM   11  N7  UNL     1      28.987  26.870  36.704  1.00  0.00    -0.064 N 
ATOM     12  H7  UNL     1      29.577  27.441  36.099  1.00  0.00     0.221 HD
BRANCH  11  13
HETATM   13  C10 UNL     1      28.927  25.593  36.407  1.00  0.00     0.726 A 
HETATM   14  N8  UNL     1      28.096  25.008  35.531  1.00  0.00    -0.126 N 
HETATM   15  N9  UNL     1      28.359  23.714  35.521  1.00  0.00    -0.236 N 
ATOM     16  H8  UNL     1      27.386  25.480  34.972  1.00  0.00     0.206 HD
HETATM   17  C11 UNL     1      29.372  23.431  36.397  1.00  0.00     0.353 A 
ATOM     18  H9  UNL     1      27.878  23.025  34.943  1.00  0.00     0.192 HD
HETATM   19  O2  UNL     1      29.865  22.288  36.628  1.00  0.00    -0.245 OA
HETATM   20  N10 UNL     1      29.695  24.617  36.923  1.00  0.00    -0.137 N 
ATOM     21  H10 UNL     1      30.425  24.763  37.621  1.00  0.00     0.189 HD
ENDBRANCH  11  13
ENDBRANCH  10  11
ENDBRANCH   9  10
ENDBRANCH   5   9
BRANCH   4  22
HETATM   22  O1  UNL     1      31.015  28.367  38.350  1.00  0.00    -0.344 OA
ATOM     23  H1  UNL     1      30.547  27.750  37.799  1.00  0.00     0.219 HD
ENDBRANCH   4  22
BRANCH   8  24
HETATM   24  N12 UNL     1      28.240  31.797  41.578  1.00  0.00    -0.288 N 
ATOM     25  H12 UNL     1      27.398  32.196  41.162  1.00  0.00     0.188 HD
BRANCH  24  26
HETATM   26  N13 UNL     1      28.511  32.141  42.862  1.00  0.00    -0.343 N 
ATOM     27 2H13 UNL     1      28.737  33.123  43.019  1.00  0.00     0.176 HD
ATOM     28 1H13 UNL     1      28.510  31.516  43.668  1.00  0.00     0.176 HD
ENDBRANCH  24  26
ENDBRANCH   8  24
BRANCH   1  29
HETATM   29  N4  UNL     1      30.983  31.947  41.200  1.00  0.00    -0.303 NA
BRANCH  29  30
HETATM   30  N3  UNL     1      31.734  32.791  41.763  1.00  0.00    -0.243 N 
ATOM     31  H3  UNL     1      32.207  32.431  42.592  1.00  0.00     0.201 HD
BRANCH  30  32
HETATM   32  C5  UNL     1      32.020  34.025  41.492  1.00  0.00     0.152 C 
BRANCH  32  33
HETATM   33  C4  UNL     1      31.446  35.132  42.221  1.00  0.00     0.069 A 
HETATM   34  N1  UNL     1      30.228  35.685  42.034  1.00  0.00    -0.296 N 
HETATM   35  C1  UNL     1      29.240  35.276  41.058  1.00  0.00     0.178 C 
HETATM   36  N2  UNL     1      30.111  36.667  42.911  1.00  0.00    -0.310 N 
HETATM   37  C2  UNL     1      31.202  36.776  43.661  1.00  0.00     0.109 A 
ATOM     38  H2  UNL     1      29.289  37.264  43.001  1.00  0.00     0.186 HD
HETATM   39  C3  UNL     1      32.095  35.799  43.248  1.00  0.00     0.051 A 
ENDBRANCH  32  33
ENDBRANCH  30  32
ENDBRANCH  29  30
ENDBRANCH   1  29
TORSDOF 11
ENDMDL
