MODEL 1
REMARK VINA RESULT: -6.293051437      0.000      0.000
REMARK  8 active torsions:
REMARK  status: ('A' for Active; 'I' for Inactive)
REMARK       I    between atoms: C1_4  and  N3_6 
REMARK       I    between atoms: C2_8  and  N5_10 
REMARK    1  A    between atoms: C4_13  and  C5_14 
REMARK    2  A    between atoms: C5_14  and  O1_15 
REMARK    3  A    between atoms: O1_15  and  S1_16 
REMARK    4  A    between atoms: C6_21  and  O6_22 
REMARK    5  A    between atoms: C6_21  and  C7_24 
REMARK    6  A    between atoms: C7_24  and  O8_26 
REMARK    7  A    between atoms: O8_26  and  N6_27 
REMARK    8  A    between atoms: C8_30  and  O9_31 
ROOT
HETATM    1  N1  UNL     1      30.563  26.499  37.057  1.00  0.00    -0.373 N 
ATOM      2  H11 UNL     1      31.258  27.130  37.457  1.00  0.00     0.158 HD
ATOM      3  H12 UNL     1      30.827  25.525  36.906  1.00  0.00     0.158 HD
HETATM    4  C1  UNL     1      29.402  26.965  36.768  1.00  0.00     0.188 C 
HETATM    5  N2  UNL     1      28.437  26.090  36.212  1.00  0.00    -0.064 NA
HETATM    6  N3  UNL     1      29.036  28.319  36.977  1.00  0.00    -0.305 N 
ATOM      7  H3  UNL     1      28.316  28.720  36.377  1.00  0.00     0.171 HD
HETATM    8  C2  UNL     1      29.561  29.074  37.884  1.00  0.00     0.194 C 
HETATM    9  N4  UNL     1      30.563  28.494  38.710  1.00  0.00    -0.063 NA
HETATM   10  N5  UNL     1      29.109  30.397  37.988  1.00  0.00    -0.333 N 
ATOM     11  H5  UNL     1      28.898  30.908  37.130  1.00  0.00     0.168 HD
HETATM   12  C3  UNL     1      28.950  30.987  39.096  1.00  0.00     0.055 C 
HETATM   13  C4  UNL     1      28.482  32.374  39.347  1.00  0.00     0.199 C 
HETATM   14  O5  UNL     1      27.626  32.181  40.428  1.00  0.00    -0.331 OA
HETATM   15  C6  UNL     1      28.283  31.319  41.283  1.00  0.00     0.288 C 
HETATM   16  C8  UNL     1      29.192  30.439  40.457  1.00  0.00     0.239 C 
ENDROOT
BRANCH  13  17
HETATM   17  C5  UNL     1      27.776  32.966  38.159  1.00  0.00     0.231 C 
BRANCH  17  18
HETATM   18  O1  UNL     1      26.409  32.909  38.247  1.00  0.00    -0.254 OA
BRANCH  18  19
HETATM   19  S1  UNL     1      25.821  34.483  38.288  1.00  0.00     0.251 S 
HETATM   20  O2  UNL     1      26.596  35.258  39.309  1.00  0.00    -0.572 OA
HETATM   21  O3  UNL     1      25.997  35.163  36.951  1.00  0.00    -0.572 OA
HETATM   22  O4  UNL     1      24.175  34.493  38.619  1.00  0.00    -0.572 OA
ENDBRANCH  18  19
ENDBRANCH  17  18
ENDBRANCH  13  17
BRANCH  16  23
HETATM   23  O9  UNL     1      30.497  30.723  40.802  1.00  0.00    -0.384 OA
ATOM     24  H9  UNL     1      30.690  30.270  41.614  1.00  0.00     0.210 HD
ENDBRANCH  16  23
BRANCH  15  25
HETATM   25  O6  UNL     1      27.397  30.472  41.954  1.00  0.00    -0.355 OA
ATOM     26  H6  UNL     1      27.532  30.489  42.894  1.00  0.00     0.213 HD
ENDBRANCH  15  25
BRANCH  15  27
HETATM   27  C7  UNL     1      29.030  32.115  42.295  1.00  0.00     0.346 C 
HETATM   28  O7  UNL     1      29.370  31.591  43.407  1.00  0.00    -0.257 OA
BRANCH  27  29
HETATM   29  O8  UNL     1      29.395  33.430  42.110  1.00  0.00    -0.202 OA
BRANCH  29  30
HETATM   30  N6  UNL     1      28.517  34.449  42.355  1.00  0.00    -0.302 N 
ATOM     31  H62 UNL     1      28.762  35.139  43.066  1.00  0.00     0.184 HD
ATOM     32  H61 UNL     1      27.637  34.522  41.844  1.00  0.00     0.184 HD
ENDBRANCH  29  30
ENDBRANCH  27  29
ENDBRANCH  15  27
TORSDOF 8
ENDMDL
MODEL 2
REMARK VINA RESULT: -5.913933828      3.232      5.171
REMARK  8 active torsions:
REMARK  status: ('A' for Active; 'I' for Inactive)
REMARK       I    between atoms: C1_4  and  N3_6 
REMARK       I    between atoms: C2_8  and  N5_10 
REMARK    1  A    between atoms: C4_13  and  C5_14 
REMARK    2  A    between atoms: C5_14  and  O1_15 
REMARK    3  A    between atoms: O1_15  and  S1_16 
REMARK    4  A    between atoms: C6_21  and  O6_22 
REMARK    5  A    between atoms: C6_21  and  C7_24 
REMARK    6  A    between atoms: C7_24  and  O8_26 
REMARK    7  A    between atoms: O8_26  and  N6_27 
REMARK    8  A    between atoms: C8_30  and  O9_31 
ROOT
HETATM    1  N1  UNL     1      27.826  34.952  35.328  1.00  0.00    -0.373 N 
ATOM      2  H11 UNL     1      27.119  34.818  36.051  1.00  0.00     0.158 HD
ATOM      3  H12 UNL     1      27.724  35.747  34.696  1.00  0.00     0.158 HD
HETATM    4  C1  UNL     1      28.799  34.117  35.255  1.00  0.00     0.188 C 
HETATM    5  N2  UNL     1      29.781  34.303  34.251  1.00  0.00    -0.064 NA
HETATM    6  N3  UNL     1      28.940  33.013  36.133  1.00  0.00    -0.305 N 
ATOM      7  H3  UNL     1      29.439  32.190  35.794  1.00  0.00     0.171 HD
HETATM    8  C2  UNL     1      28.474  32.987  37.337  1.00  0.00     0.194 C 
HETATM    9  N4  UNL     1      27.782  34.145  37.789  1.00  0.00    -0.063 NA
HETATM   10  N5  UNL     1      28.682  31.832  38.104  1.00  0.00    -0.333 N 
ATOM     11  H5  UNL     1      28.620  30.924  37.643  1.00  0.00     0.168 HD
HETATM   12  C3  UNL     1      28.945  31.864  39.342  1.00  0.00     0.055 C 
HETATM   13  C4  UNL     1      29.186  30.727  40.265  1.00  0.00     0.199 C 
HETATM   14  O5  UNL     1      30.260  31.205  41.012  1.00  0.00    -0.331 OA
HETATM   15  C6  UNL     1      29.958  32.518  41.313  1.00  0.00     0.288 C 
HETATM   16  C8  UNL     1      29.083  33.064  40.208  1.00  0.00     0.239 C 
ENDROOT
BRANCH  13  17
HETATM   17  C5  UNL     1      29.519  29.455  39.537  1.00  0.00     0.231 C 
BRANCH  17  18
HETATM   18  O1  UNL     1      28.441  28.873  38.923  1.00  0.00    -0.254 OA
BRANCH  18  19
HETATM   19  S1  UNL     1      28.953  28.242  37.451  1.00  0.00     0.251 S 
HETATM   20  O2  UNL     1      28.697  29.257  36.380  1.00  0.00    -0.572 OA
HETATM   21  O3  UNL     1      30.433  27.947  37.474  1.00  0.00    -0.572 OA
HETATM   22  O4  UNL     1      28.177  26.788  37.127  1.00  0.00    -0.572 OA
ENDBRANCH  18  19
ENDBRANCH  17  18
ENDBRANCH  13  17
BRANCH  16  23
HETATM   23  O9  UNL     1      27.843  33.349  40.740  1.00  0.00    -0.384 OA
ATOM     24  H9  UNL     1      27.826  33.024  41.633  1.00  0.00     0.210 HD
ENDBRANCH  16  23
BRANCH  15  25
HETATM   25  O6  UNL     1      31.101  33.319  41.360  1.00  0.00    -0.355 OA
ATOM     26  H6  UNL     1      30.885  34.242  41.422  1.00  0.00     0.213 HD
ENDBRANCH  15  25
BRANCH  15  27
HETATM   27  C7  UNL     1      29.291  32.570  42.642  1.00  0.00     0.346 C 
HETATM   28  O7  UNL     1      28.813  31.510  43.167  1.00  0.00    -0.257 OA
BRANCH  27  29
HETATM   29  O8  UNL     1      29.147  33.726  43.376  1.00  0.00    -0.202 OA
BRANCH  29  30
HETATM   30  N6  UNL     1      27.959  34.402  43.405  1.00  0.00    -0.302 N 
ATOM     31  H62 UNL     1      27.499  34.536  44.305  1.00  0.00     0.184 HD
ATOM     32  H61 UNL     1      27.539  34.766  42.550  1.00  0.00     0.184 HD
ENDBRANCH  29  30
ENDBRANCH  27  29
ENDBRANCH  15  27
TORSDOF 8
ENDMDL
MODEL 3
REMARK VINA RESULT: -5.813955682      3.125      5.972
REMARK  8 active torsions:
REMARK  status: ('A' for Active; 'I' for Inactive)
REMARK       I    between atoms: C1_4  and  N3_6 
REMARK       I    between atoms: C2_8  and  N5_10 
REMARK    1  A    between atoms: C4_13  and  C5_14 
REMARK    2  A    between atoms: C5_14  and  O1_15 
REMARK    3  A    between atoms: O1_15  and  S1_16 
REMARK    4  A    between atoms: C6_21  and  O6_22 
REMARK    5  A    between atoms: C6_21  and  C7_24 
REMARK    6  A    between atoms: C7_24  and  O8_26 
REMARK    7  A    between atoms: O8_26  and  N6_27 
REMARK    8  A    between atoms: C8_30  and  O9_31 
ROOT
HETATM    1  N1  UNL     1      25.835  34.829  36.957  1.00  0.00    -0.373 N 
ATOM      2  H11 UNL     1      26.729  34.828  36.466  1.00  0.00     0.158 HD
ATOM      3  H12 UNL     1      25.000  35.100  36.437  1.00  0.00     0.158 HD
HETATM    4  C1  UNL     1      25.811  34.493  38.196  1.00  0.00     0.188 C 
HETATM    5  N2  UNL     1      24.569  34.495  38.878  1.00  0.00    -0.064 NA
HETATM    6  N3  UNL     1      26.971  34.118  38.919  1.00  0.00    -0.305 N 
ATOM      7  H3  UNL     1      26.980  34.272  39.928  1.00  0.00     0.171 HD
HETATM    8  C2  UNL     1      28.019  33.592  38.377  1.00  0.00     0.194 C 
HETATM    9  N4  UNL     1      27.986  33.385  36.970  1.00  0.00    -0.063 NA
HETATM   10  N5  UNL     1      29.101  33.266  39.206  1.00  0.00    -0.333 N 
ATOM     11  H5  UNL     1      29.336  33.898  39.972  1.00  0.00     0.168 HD
HETATM   12  C3  UNL     1      29.801  32.223  39.048  1.00  0.00     0.055 C 
HETATM   13  C4  UNL     1      30.965  31.761  39.846  1.00  0.00     0.199 C 
HETATM   14  O5  UNL     1      30.702  30.398  39.948  1.00  0.00    -0.331 OA
HETATM   15  C6  UNL     1      30.297  29.995  38.691  1.00  0.00     0.288 C 
HETATM   16  C8  UNL     1      29.640  31.173  38.008  1.00  0.00     0.239 C 
ENDROOT
BRANCH  13  17
HETATM   17  C5  UNL     1      31.042  32.429  41.191  1.00  0.00     0.231 C 
BRANCH  17  18
HETATM   18  O1  UNL     1      30.696  31.608  42.233  1.00  0.00    -0.254 OA
BRANCH  18  19
HETATM   19  S1  UNL     1      29.127  31.989  42.701  1.00  0.00     0.251 S 
HETATM   20  O2  UNL     1      29.052  31.952  44.196  1.00  0.00    -0.572 OA
HETATM   21  O3  UNL     1      28.747  33.378  42.246  1.00  0.00    -0.572 OA
HETATM   22  O4  UNL     1      28.026  30.934  41.999  1.00  0.00    -0.572 OA
ENDBRANCH  18  19
ENDBRANCH  17  18
ENDBRANCH  13  17
BRANCH  16  23
HETATM   23  O9  UNL     1      30.413  31.528  36.923  1.00  0.00    -0.384 OA
ATOM     24  H9  UNL     1      30.428  32.477  36.872  1.00  0.00     0.210 HD
ENDBRANCH  16  23
BRANCH  15  25
HETATM   25  O6  UNL     1      29.342  28.976  38.751  1.00  0.00    -0.355 OA
ATOM     26  H6  UNL     1      29.701  28.175  39.113  1.00  0.00     0.213 HD
ENDBRANCH  15  25
BRANCH  15  27
HETATM   27  C7  UNL     1      31.478  29.490  37.939  1.00  0.00     0.346 C 
HETATM   28  O7  UNL     1      32.637  29.979  38.152  1.00  0.00    -0.257 OA
BRANCH  27  29
HETATM   29  O8  UNL     1      31.407  28.493  36.993  1.00  0.00    -0.202 OA
BRANCH  29  30
HETATM   30  N6  UNL     1      30.606  28.618  35.891  1.00  0.00    -0.302 N 
ATOM     31  H62 UNL     1      30.752  29.418  35.274  1.00  0.00     0.184 HD
ATOM     32  H61 UNL     1      29.879  27.933  35.687  1.00  0.00     0.184 HD
ENDBRANCH  29  30
ENDBRANCH  27  29
ENDBRANCH  15  27
TORSDOF 8
ENDMDL
MODEL 4
REMARK VINA RESULT: -5.755243437      2.729      3.421
REMARK  8 active torsions:
REMARK  status: ('A' for Active; 'I' for Inactive)
REMARK       I    between atoms: C1_4  and  N3_6 
REMARK       I    between atoms: C2_8  and  N5_10 
REMARK    1  A    between atoms: C4_13  and  C5_14 
REMARK    2  A    between atoms: C5_14  and  O1_15 
REMARK    3  A    between atoms: O1_15  and  S1_16 
REMARK    4  A    between atoms: C6_21  and  O6_22 
REMARK    5  A    between atoms: C6_21  and  C7_24 
REMARK    6  A    between atoms: C7_24  and  O8_26 
REMARK    7  A    between atoms: O8_26  and  N6_27 
REMARK    8  A    between atoms: C8_30  and  O9_31 
ROOT
HETATM    1  N1  UNL     1      29.693  27.319  39.106  1.00  0.00    -0.373 N 
ATOM      2  H11 UNL     1      30.372  27.895  39.603  1.00  0.00     0.158 HD
ATOM      3  H12 UNL     1      29.565  26.354  39.411  1.00  0.00     0.158 HD
HETATM    4  C1  UNL     1      29.040  27.839  38.130  1.00  0.00     0.188 C 
HETATM    5  N2  UNL     1      28.097  27.039  37.439  1.00  0.00    -0.064 NA
HETATM    6  N3  UNL     1      29.218  29.180  37.706  1.00  0.00    -0.305 N 
ATOM      7  H3  UNL     1      29.023  29.406  36.730  1.00  0.00     0.171 HD
HETATM    8  C2  UNL     1      29.613  30.134  38.482  1.00  0.00     0.194 C 
HETATM    9  N4  UNL     1      29.880  29.797  39.838  1.00  0.00    -0.063 NA
HETATM   10  N5  UNL     1      29.749  31.419  37.938  1.00  0.00    -0.333 N 
ATOM     11  H5  UNL     1      30.119  31.510  36.990  1.00  0.00     0.168 HD
HETATM   12  C3  UNL     1      29.434  32.471  38.566  1.00  0.00     0.055 C 
HETATM   13  C4  UNL     1      29.526  33.882  38.112  1.00  0.00     0.199 C 
HETATM   14  O5  UNL     1      28.324  34.399  38.586  1.00  0.00    -0.331 OA
HETATM   15  C6  UNL     1      28.178  33.908  39.868  1.00  0.00     0.288 C 
HETATM   16  C8  UNL     1      28.882  32.573  39.943  1.00  0.00     0.239 C 
ENDROOT
BRANCH  13  17
HETATM   17  C5  UNL     1      29.648  33.999  36.619  1.00  0.00     0.231 C 
BRANCH  17  18
HETATM   18  O1  UNL     1      28.605  33.429  35.935  1.00  0.00    -0.254 OA
BRANCH  18  19
HETATM   19  S1  UNL     1      29.241  32.527  34.667  1.00  0.00     0.251 S 
HETATM   20  O2  UNL     1      28.469  32.841  33.423  1.00  0.00    -0.572 OA
HETATM   21  O3  UNL     1      30.688  32.880  34.422  1.00  0.00    -0.572 OA
HETATM   22  O4  UNL     1      29.199  30.887  35.026  1.00  0.00    -0.572 OA
ENDBRANCH  18  19
ENDBRANCH  17  18
ENDBRANCH  13  17
BRANCH  16  23
HETATM   23  O9  UNL     1      29.942  32.693  40.817  1.00  0.00    -0.384 OA
ATOM     24  H9  UNL     1      29.809  33.480  41.332  1.00  0.00     0.210 HD
ENDBRANCH  16  23
BRANCH  15  25
HETATM   25  O6  UNL     1      26.838  33.680  40.191  1.00  0.00    -0.355 OA
ATOM     26  H6  UNL     1      26.500  34.337  40.787  1.00  0.00     0.213 HD
ENDBRANCH  15  25
BRANCH  15  27
HETATM   27  C7  UNL     1      28.733  34.897  40.832  1.00  0.00     0.346 C 
HETATM   28  O7  UNL     1      29.726  35.629  40.508  1.00  0.00    -0.257 OA
BRANCH  27  29
HETATM   29  O8  UNL     1      28.231  35.087  42.100  1.00  0.00    -0.202 OA
BRANCH  29  30
HETATM   30  N6  UNL     1      28.299  34.099  43.043  1.00  0.00    -0.302 N 
ATOM     31  H62 UNL     1      28.183  33.131  42.742  1.00  0.00     0.184 HD
ATOM     32  H61 UNL     1      28.461  34.319  44.026  1.00  0.00     0.184 HD
ENDBRANCH  29  30
ENDBRANCH  27  29
ENDBRANCH  15  27
TORSDOF 8
ENDMDL
MODEL 5
REMARK VINA RESULT: -5.678596786      3.206      5.966
REMARK  8 active torsions:
REMARK  status: ('A' for Active; 'I' for Inactive)
REMARK       I    between atoms: C1_4  and  N3_6 
REMARK       I    between atoms: C2_8  and  N5_10 
REMARK    1  A    between atoms: C4_13  and  C5_14 
REMARK    2  A    between atoms: C5_14  and  O1_15 
REMARK    3  A    between atoms: O1_15  and  S1_16 
REMARK    4  A    between atoms: C6_21  and  O6_22 
REMARK    5  A    between atoms: C6_21  and  C7_24 
REMARK    6  A    between atoms: C7_24  and  O8_26 
REMARK    7  A    between atoms: O8_26  and  N6_27 
REMARK    8  A    between atoms: C8_30  and  O9_31 
ROOT
HETATM    1  N1  UNL     1      25.892  35.028  37.104  1.00  0.00    -0.373 N 
ATOM      2  H11 UNL     1      26.843  34.985  36.736  1.00  0.00     0.158 HD
ATOM      3  H12 UNL     1      25.182  35.507  36.549  1.00  0.00     0.158 HD
HETATM    4  C1  UNL     1      25.645  34.480  38.238  1.00  0.00     0.188 C 
HETATM    5  N2  UNL     1      24.325  34.540  38.749  1.00  0.00    -0.064 NA
HETATM    6  N3  UNL     1      26.631  33.815  39.009  1.00  0.00    -0.305 N 
ATOM      7  H3  UNL     1      26.508  33.782  40.022  1.00  0.00     0.171 HD
HETATM    8  C2  UNL     1      27.677  33.249  38.506  1.00  0.00     0.194 C 
HETATM    9  N4  UNL     1      27.828  33.307  37.093  1.00  0.00    -0.063 NA
HETATM   10  N5  UNL     1      28.577  32.623  39.380  1.00  0.00    -0.333 N 
ATOM     11  H5  UNL     1      28.770  33.065  40.279  1.00  0.00     0.168 HD
HETATM   12  C3  UNL     1      29.163  31.535  39.104  1.00  0.00     0.055 C 
HETATM   13  C4  UNL     1      30.132  30.772  39.931  1.00  0.00     0.199 C 
HETATM   14  O5  UNL     1      29.694  29.466  39.726  1.00  0.00    -0.331 OA
HETATM   15  C6  UNL     1      29.435  29.361  38.374  1.00  0.00     0.288 C 
HETATM   16  C8  UNL     1      29.033  30.726  37.864  1.00  0.00     0.239 C 
ENDROOT
BRANCH  13  17
HETATM   17  C5  UNL     1      30.087  31.166  41.380  1.00  0.00     0.231 C 
BRANCH  17  18
HETATM   18  O1  UNL     1      30.764  32.327  41.656  1.00  0.00    -0.254 OA
BRANCH  18  19
HETATM   19  S1  UNL     1      29.845  33.223  42.742  1.00  0.00     0.251 S 
HETATM   20  O2  UNL     1      30.732  34.240  43.393  1.00  0.00    -0.572 OA
HETATM   21  O3  UNL     1      28.731  33.956  42.034  1.00  0.00    -0.572 OA
HETATM   22  O4  UNL     1      29.118  32.219  43.874  1.00  0.00    -0.572 OA
ENDBRANCH  18  19
ENDBRANCH  17  18
ENDBRANCH  13  17
BRANCH  16  23
HETATM   23  O9  UNL     1      29.996  31.155  36.975  1.00  0.00    -0.384 OA
ATOM     24  H9  UNL     1      30.064  30.507  36.282  1.00  0.00     0.210 HD
ENDBRANCH  16  23
BRANCH  15  25
HETATM   25  O6  UNL     1      28.367  28.498  38.112  1.00  0.00    -0.355 OA
ATOM     26  H6  UNL     1      27.699  28.546  38.786  1.00  0.00     0.213 HD
ENDBRANCH  15  25
BRANCH  15  27
HETATM   27  C7  UNL     1      30.645  28.832  37.687  1.00  0.00     0.346 C 
HETATM   28  O7  UNL     1      30.547  28.267  36.548  1.00  0.00    -0.257 OA
BRANCH  27  29
HETATM   29  O8  UNL     1      31.915  28.913  38.215  1.00  0.00    -0.202 OA
BRANCH  29  30
HETATM   30  N6  UNL     1      32.356  28.006  39.138  1.00  0.00    -0.302 N 
ATOM     31  H62 UNL     1      31.825  27.895  40.002  1.00  0.00     0.184 HD
ATOM     32  H61 UNL     1      33.195  27.451  38.972  1.00  0.00     0.184 HD
ENDBRANCH  29  30
ENDBRANCH  27  29
ENDBRANCH  15  27
TORSDOF 8
ENDMDL
