MODEL 1
REMARK VINA RESULT: -5.159081299      0.000      0.000
REMARK  4 active torsions:
REMARK  status: ('A' for Active; 'I' for Inactive)
REMARK    1  A    between atoms: C2_2  and  N1_5 
REMARK    2  A    between atoms: N1_5  and  O1_6 
REMARK    3  A    between atoms: N1_5  and  C5_8 
REMARK    4  A    between atoms: C5_8  and  C6_9 
ROOT
HETATM    1  N1  UNL     1      16.108  10.665  -1.270  1.00  0.00    -0.261 N 
ENDROOT
BRANCH   1   2
HETATM    2  C2  UNL     1      14.908  10.183  -1.890  1.00  0.00     0.048 C 
HETATM    3  C1  UNL     1      14.499   8.827  -1.340  1.00  0.00     0.040 C 
HETATM    4  C3  UNL     1      15.068  10.035  -3.374  1.00  0.00     0.040 C 
HETATM    5  C4  UNL     1      13.800  11.162  -1.536  1.00  0.00     0.040 C 
ENDBRANCH   1   2
BRANCH   1   6
HETATM    6  O1  UNL     1      17.209  10.890  -2.041  1.00  0.00    -0.287 OA
ATOM      7  H1  UNL     1      17.830  11.560  -1.778  1.00  0.00     0.244 HD
ENDBRANCH   1   6
BRANCH   1   8
HETATM    8  C5  UNL     1      16.154  10.883  -0.015  1.00  0.00     0.157 C 
BRANCH   8   9
HETATM    9  C6  UNL     1      17.409  11.487   0.578  1.00  0.00     0.124 A 
HETATM   10  N2  UNL     1      17.973  12.621   0.442  1.00  0.00    -0.285 N 
HETATM   11  N3  UNL     1      18.977  12.516   1.193  1.00  0.00    -0.267 N 
ATOM     12  H2  UNL     1      17.685  13.414  -0.131  1.00  0.00     0.188 HD
HETATM   13  S1  UNL     1      18.583  10.988   1.632  1.00  0.00     0.022 SA
ATOM     14  H3  UNL     1      19.744  13.143   1.436  1.00  0.00     0.195 HD
ENDBRANCH   8   9
ENDBRANCH   1   8
TORSDOF 4
ENDMDL
MODEL 2
REMARK VINA RESULT: -5.146602554      0.065      1.283
REMARK  4 active torsions:
REMARK  status: ('A' for Active; 'I' for Inactive)
REMARK    1  A    between atoms: C2_2  and  N1_5 
REMARK    2  A    between atoms: N1_5  and  O1_6 
REMARK    3  A    between atoms: N1_5  and  C5_8 
REMARK    4  A    between atoms: C5_8  and  C6_9 
ROOT
HETATM    1  N1  UNL     1      16.085  10.656  -1.224  1.00  0.00    -0.261 N 
ENDROOT
BRANCH   1   2
HETATM    2  C2  UNL     1      14.869  10.189  -1.824  1.00  0.00     0.048 C 
HETATM    3  C1  UNL     1      15.014  10.026  -3.328  1.00  0.00     0.040 C 
HETATM    4  C3  UNL     1      13.730  11.134  -1.584  1.00  0.00     0.040 C 
HETATM    5  C4  UNL     1      14.590   8.809  -1.249  1.00  0.00     0.040 C 
ENDBRANCH   1   2
BRANCH   1   6
HETATM    6  O1  UNL     1      17.173  10.879  -2.014  1.00  0.00    -0.287 OA
ATOM      7  H1  UNL     1      17.674  10.138  -2.333  1.00  0.00     0.244 HD
ENDBRANCH   1   6
BRANCH   1   8
HETATM    8  C5  UNL     1      16.157  10.864   0.032  1.00  0.00     0.157 C 
BRANCH   8   9
HETATM    9  C6  UNL     1      17.417  11.478   0.602  1.00  0.00     0.124 A 
HETATM   10  N2  UNL     1      17.968  12.619   0.458  1.00  0.00    -0.285 N 
HETATM   11  N3  UNL     1      18.987  12.521   1.189  1.00  0.00    -0.267 N 
ATOM     12  H2  UNL     1      17.660  13.410  -0.107  1.00  0.00     0.188 HD
HETATM   13  S1  UNL     1      18.617  10.988   1.631  1.00  0.00     0.022 SA
ATOM     14  H3  UNL     1      19.752  13.156   1.418  1.00  0.00     0.195 HD
ENDBRANCH   8   9
ENDBRANCH   1   8
TORSDOF 4
ENDMDL
MODEL 3
REMARK VINA RESULT: -5.128572782      0.712      1.475
REMARK  4 active torsions:
REMARK  status: ('A' for Active; 'I' for Inactive)
REMARK    1  A    between atoms: C2_2  and  N1_5 
REMARK    2  A    between atoms: N1_5  and  O1_6 
REMARK    3  A    between atoms: N1_5  and  C5_8 
REMARK    4  A    between atoms: C5_8  and  C6_9 
ROOT
HETATM    1  N1  UNL     1      16.267  10.472  -1.220  1.00  0.00    -0.261 N 
ENDROOT
BRANCH   1   2
HETATM    2  C2  UNL     1      14.991  10.113  -1.768  1.00  0.00     0.048 C 
HETATM    3  C1  UNL     1      13.938  11.167  -1.473  1.00  0.00     0.040 C 
HETATM    4  C3  UNL     1      14.491   8.813  -1.210  1.00  0.00     0.040 C 
HETATM    5  C4  UNL     1      15.155  10.055  -3.278  1.00  0.00     0.040 C 
ENDBRANCH   1   2
BRANCH   1   6
HETATM    6  O1  UNL     1      17.228  10.972  -2.047  1.00  0.00    -0.287 OA
ATOM      7  H1  UNL     1      17.303  10.629  -2.930  1.00  0.00     0.244 HD
ENDBRANCH   1   6
BRANCH   1   8
HETATM    8  C5  UNL     1      16.508  10.332   0.024  1.00  0.00     0.157 C 
BRANCH   8   9
HETATM    9  C6  UNL     1      17.121  11.486   0.787  1.00  0.00     0.124 A 
HETATM   10  N2  UNL     1      17.814  12.493   0.426  1.00  0.00    -0.285 N 
HETATM   11  N3  UNL     1      18.019  13.085   1.517  1.00  0.00    -0.267 N 
ATOM     12  H2  UNL     1      18.124  12.753  -0.510  1.00  0.00     0.188 HD
HETATM   13  S1  UNL     1      17.179  11.966   2.370  1.00  0.00     0.022 SA
ATOM     14  H3  UNL     1      18.519  13.937   1.773  1.00  0.00     0.195 HD
ENDBRANCH   8   9
ENDBRANCH   1   8
TORSDOF 4
ENDMDL
MODEL 4
REMARK VINA RESULT: -4.942087314      1.220      1.760
REMARK  4 active torsions:
REMARK  status: ('A' for Active; 'I' for Inactive)
REMARK    1  A    between atoms: C2_2  and  N1_5 
REMARK    2  A    between atoms: N1_5  and  O1_6 
REMARK    3  A    between atoms: N1_5  and  C5_8 
REMARK    4  A    between atoms: C5_8  and  C6_9 
ROOT
HETATM    1  N1  UNL     1      15.785  10.702  -0.557  1.00  0.00    -0.261 N 
ENDROOT
BRANCH   1   2
HETATM    2  C2  UNL     1      14.791  10.149  -1.432  1.00  0.00     0.048 C 
HETATM    3  C1  UNL     1      15.288  10.073  -2.865  1.00  0.00     0.040 C 
HETATM    4  C3  UNL     1      13.535  10.969  -1.436  1.00  0.00     0.040 C 
HETATM    5  C4  UNL     1      14.535   8.724  -0.971  1.00  0.00     0.040 C 
ENDBRANCH   1   2
BRANCH   1   6
HETATM    6  O1  UNL     1      15.430  11.060   0.710  1.00  0.00    -0.287 OA
ATOM      7  H1  UNL     1      14.614  10.733   1.072  1.00  0.00     0.244 HD
ENDBRANCH   1   6
BRANCH   1   8
HETATM    8  C5  UNL     1      16.988  10.858  -0.949  1.00  0.00     0.157 C 
BRANCH   8   9
HETATM    9  C6  UNL     1      17.982  11.517  -0.019  1.00  0.00     0.124 A 
HETATM   10  N2  UNL     1      17.977  12.625   0.612  1.00  0.00    -0.285 N 
HETATM   11  N3  UNL     1      19.082  12.599   1.213  1.00  0.00    -0.267 N 
ATOM     12  H2  UNL     1      17.260  13.349   0.625  1.00  0.00     0.188 HD
HETATM   13  S1  UNL     1      19.472  11.134   0.592  1.00  0.00     0.022 SA
ATOM     14  H3  UNL     1      19.555  13.245   1.846  1.00  0.00     0.195 HD
ENDBRANCH   8   9
ENDBRANCH   1   8
TORSDOF 4
ENDMDL
MODEL 5
REMARK VINA RESULT: -4.938374661      1.234      1.779
REMARK  4 active torsions:
REMARK  status: ('A' for Active; 'I' for Inactive)
REMARK    1  A    between atoms: C2_2  and  N1_5 
REMARK    2  A    between atoms: N1_5  and  O1_6 
REMARK    3  A    between atoms: N1_5  and  C5_8 
REMARK    4  A    between atoms: C5_8  and  C6_9 
ROOT
HETATM    1  N1  UNL     1      15.797  10.710  -0.550  1.00  0.00    -0.261 N 
ENDROOT
BRANCH   1   2
HETATM    2  C2  UNL     1      14.805  10.121  -1.402  1.00  0.00     0.048 C 
HETATM    3  C1  UNL     1      13.540  10.962  -1.453  1.00  0.00     0.040 C 
HETATM    4  C3  UNL     1      14.413   8.751  -0.936  1.00  0.00     0.040 C 
HETATM    5  C4  UNL     1      15.382  10.097  -2.808  1.00  0.00     0.040 C 
ENDBRANCH   1   2
BRANCH   1   6
HETATM    6  O1  UNL     1      15.446  11.097   0.709  1.00  0.00    -0.287 OA
ATOM      7  H1  UNL     1      14.830  11.811   0.820  1.00  0.00     0.244 HD
ENDBRANCH   1   6
BRANCH   1   8
HETATM    8  C5  UNL     1      16.994  10.873  -0.956  1.00  0.00     0.157 C 
BRANCH   8   9
HETATM    9  C6  UNL     1      18.001  11.519  -0.029  1.00  0.00     0.124 A 
HETATM   10  N2  UNL     1      17.996  12.609   0.632  1.00  0.00    -0.285 N 
HETATM   11  N3  UNL     1      19.114  12.580   1.209  1.00  0.00    -0.267 N 
ATOM     12  H2  UNL     1      17.271  13.323   0.681  1.00  0.00     0.188 HD
HETATM   13  S1  UNL     1      19.508  11.138   0.539  1.00  0.00     0.022 SA
ATOM     14  H3  UNL     1      19.593  13.214   1.849  1.00  0.00     0.195 HD
ENDBRANCH   8   9
ENDBRANCH   1   8
TORSDOF 4
ENDMDL
