MODEL 1
REMARK VINA RESULT: -4.596268562      0.000      0.000
REMARK  3 active torsions:
REMARK  status: ('A' for Active; 'I' for Inactive)
REMARK    1  A    between atoms: N1_4  and  C4_5 
REMARK    2  A    between atoms: C4_5  and  C6_7 
REMARK    3  A    between atoms: C6_7  and  N2_8 
ROOT
HETATM    1  C1  UNL     1      17.542   8.897   5.494  1.00  0.00     0.023 C 
HETATM    2  C2  UNL     1      16.282   9.591   5.903  1.00  0.00     0.060 C 
HETATM    3  C3  UNL     1      15.780   9.148   7.244  1.00  0.00     0.132 C 
HETATM    4  N1  UNL     1      14.682   9.982   7.697  1.00  0.00    -0.405 N 
HETATM    5  C7  UNL     1      13.633  10.105   6.761  1.00  0.00     0.127 C 
HETATM    6  C8  UNL     1      13.499   8.908   5.799  1.00  0.00     0.093 C 
HETATM    7  S1  UNL     1      14.978   9.062   4.714  1.00  0.00    -0.161 SA
ENDROOT
BRANCH   4   8
HETATM    8  C4  UNL     1      14.353   9.738   9.061  1.00  0.00     0.100 C 
HETATM    9  C5  UNL     1      12.924   9.421   9.332  1.00  0.00     0.033 C 
BRANCH   8  10
HETATM   10  C6  UNL     1      14.825  10.840   9.951  1.00  0.00     0.254 C 
BRANCH  10  11
HETATM   11  N2  UNL     1      14.019  12.005   9.786  1.00  0.00    -0.077 N 
ATOM     12  H23 UNL     1      13.558  12.018   8.877  1.00  0.00     0.274 HD
ATOM     13  H22 UNL     1      13.190  11.977  10.379  1.00  0.00     0.274 HD
ATOM     14  H21 UNL     1      14.568  12.850   9.944  1.00  0.00     0.274 HD
ENDBRANCH  10  11
ENDBRANCH   8  10
ENDBRANCH   4   8
TORSDOF 3
ENDMDL
MODEL 2
REMARK VINA RESULT: -4.584174288      6.028      7.439
REMARK  3 active torsions:
REMARK  status: ('A' for Active; 'I' for Inactive)
REMARK    1  A    between atoms: N1_4  and  C4_5 
REMARK    2  A    between atoms: C4_5  and  C6_7 
REMARK    3  A    between atoms: C6_7  and  N2_8 
ROOT
HETATM    1  C1  UNL     1      13.189  10.046  -1.421  1.00  0.00     0.023 C 
HETATM    2  C2  UNL     1      13.839  10.428  -0.128  1.00  0.00     0.060 C 
HETATM    3  C3  UNL     1      15.325  10.240  -0.144  1.00  0.00     0.132 C 
HETATM    4  N1  UNL     1      15.941  10.808   1.041  1.00  0.00    -0.405 N 
HETATM    5  C7  UNL     1      15.371  10.360   2.252  1.00  0.00     0.127 C 
HETATM    6  C8  UNL     1      14.727   8.962   2.171  1.00  0.00     0.093 C 
HETATM    7  S1  UNL     1      13.227   9.239   1.141  1.00  0.00    -0.161 SA
ENDROOT
BRANCH   4   8
HETATM    8  C4  UNL     1      17.361  10.858   0.933  1.00  0.00     0.100 C 
HETATM    9  C5  UNL     1      18.114  10.422   2.140  1.00  0.00     0.033 C 
BRANCH   8  10
HETATM   10  C6  UNL     1      17.834  12.198   0.474  1.00  0.00     0.254 C 
BRANCH  10  11
HETATM   11  N2  UNL     1      17.989  13.086   1.579  1.00  0.00    -0.077 N 
ATOM     12  H23 UNL     1      17.812  12.618   2.467  1.00  0.00     0.274 HD
ATOM     13  H22 UNL     1      18.967  13.335   1.728  1.00  0.00     0.274 HD
ATOM     14  H21 UNL     1      17.403  13.913   1.463  1.00  0.00     0.274 HD
ENDBRANCH  10  11
ENDBRANCH   8  10
ENDBRANCH   4   8
TORSDOF 3
ENDMDL
MODEL 3
REMARK VINA RESULT: -4.559645829      6.443      7.971
REMARK  3 active torsions:
REMARK  status: ('A' for Active; 'I' for Inactive)
REMARK    1  A    between atoms: N1_4  and  C4_5 
REMARK    2  A    between atoms: C4_5  and  C6_7 
REMARK    3  A    between atoms: C6_7  and  N2_8 
ROOT
HETATM    1  C1  UNL     1      13.581   9.100   1.991  1.00  0.00     0.023 C 
HETATM    2  C2  UNL     1      14.481   9.328   0.818  1.00  0.00     0.060 C 
HETATM    3  C3  UNL     1      15.377  10.517   0.991  1.00  0.00     0.132 C 
HETATM    4  N1  UNL     1      16.370  10.586  -0.064  1.00  0.00    -0.405 N 
HETATM    5  C7  UNL     1      15.827  10.527  -1.365  1.00  0.00     0.127 C 
HETATM    6  C8  UNL     1      14.381  11.048  -1.474  1.00  0.00     0.093 C 
HETATM    7  S1  UNL     1      13.394   9.760  -0.606  1.00  0.00    -0.161 SA
ENDROOT
BRANCH   4   8
HETATM    8  C4  UNL     1      17.375  11.558   0.211  1.00  0.00     0.100 C 
HETATM    9  C5  UNL     1      18.737  11.237  -0.295  1.00  0.00     0.033 C 
BRANCH   8  10
HETATM   10  C6  UNL     1      17.423  11.911   1.661  1.00  0.00     0.254 C 
BRANCH  10  11
HETATM   11  N2  UNL     1      17.859  13.257   1.840  1.00  0.00    -0.077 N 
ATOM     12  H23 UNL     1      18.043  13.466   2.820  1.00  0.00     0.274 HD
ATOM     13  H22 UNL     1      18.799  13.401   1.472  1.00  0.00     0.274 HD
ATOM     14  H21 UNL     1      17.190  13.911   1.433  1.00  0.00     0.274 HD
ENDBRANCH  10  11
ENDBRANCH   8  10
ENDBRANCH   4   8
TORSDOF 3
ENDMDL
MODEL 4
REMARK VINA RESULT: -4.558804020      5.892      6.966
REMARK  3 active torsions:
REMARK  status: ('A' for Active; 'I' for Inactive)
REMARK    1  A    between atoms: N1_4  and  C4_5 
REMARK    2  A    between atoms: C4_5  and  C6_7 
REMARK    3  A    between atoms: C6_7  and  N2_8 
ROOT
HETATM    1  C1  UNL     1      12.850   8.649   1.944  1.00  0.00     0.023 C 
HETATM    2  C2  UNL     1      14.152   8.983   1.286  1.00  0.00     0.060 C 
HETATM    3  C3  UNL     1      14.864  10.123   1.947  1.00  0.00     0.132 C 
HETATM    4  N1  UNL     1      16.205  10.284   1.417  1.00  0.00    -0.405 N 
HETATM    5  C7  UNL     1      16.257  10.382   0.010  1.00  0.00     0.127 C 
HETATM    6  C8  UNL     1      14.975  10.947  -0.633  1.00  0.00     0.093 C 
HETATM    7  S1  UNL     1      13.747   9.596  -0.404  1.00  0.00    -0.161 SA
ENDROOT
BRANCH   4   8
HETATM    8  C4  UNL     1      16.981  11.195   2.192  1.00  0.00     0.100 C 
HETATM    9  C5  UNL     1      16.242  11.926   3.256  1.00  0.00     0.033 C 
BRANCH   8  10
HETATM   10  C6  UNL     1      17.741  12.147   1.330  1.00  0.00     0.254 C 
BRANCH  10  11
HETATM   11  N2  UNL     1      17.812  13.435   1.939  1.00  0.00    -0.077 N 
ATOM     12  H23 UNL     1      17.137  13.531   2.696  1.00  0.00     0.274 HD
ATOM     13  H22 UNL     1      18.669  13.549   2.481  1.00  0.00     0.274 HD
ATOM     14  H21 UNL     1      17.706  14.172   1.241  1.00  0.00     0.274 HD
ENDBRANCH  10  11
ENDBRANCH   8  10
ENDBRANCH   4   8
TORSDOF 3
ENDMDL
MODEL 5
REMARK VINA RESULT: -4.557034077      2.637      3.798
REMARK  3 active torsions:
REMARK  status: ('A' for Active; 'I' for Inactive)
REMARK    1  A    between atoms: N1_4  and  C4_5 
REMARK    2  A    between atoms: C4_5  and  C6_7 
REMARK    3  A    between atoms: C6_7  and  N2_8 
ROOT
HETATM    1  C1  UNL     1      12.634   8.620   2.025  1.00  0.00     0.023 C 
HETATM    2  C2  UNL     1      13.879   8.899   2.807  1.00  0.00     0.060 C 
HETATM    3  C3  UNL     1      13.618   9.099   4.269  1.00  0.00     0.132 C 
HETATM    4  N1  UNL     1      14.858   9.162   5.021  1.00  0.00    -0.405 N 
HETATM    5  C7  UNL     1      15.783  10.103   4.522  1.00  0.00     0.127 C 
HETATM    6  C8  UNL     1      15.141  11.286   3.770  1.00  0.00     0.093 C 
HETATM    7  S1  UNL     1      14.521  10.522   2.215  1.00  0.00    -0.161 SA
ENDROOT
BRANCH   4   8
HETATM    8  C4  UNL     1      14.633   9.107   6.426  1.00  0.00     0.100 C 
HETATM    9  C5  UNL     1      13.705  10.135   6.971  1.00  0.00     0.033 C 
BRANCH   8  10
HETATM   10  C6  UNL     1      15.915   9.097   7.192  1.00  0.00     0.254 C 
BRANCH  10  11
HETATM   11  N2  UNL     1      16.322   7.761   7.480  1.00  0.00    -0.077 N 
ATOM     12  H23 UNL     1      16.617   7.657   8.450  1.00  0.00     0.274 HD
ATOM     13  H22 UNL     1      15.529   7.119   7.491  1.00  0.00     0.274 HD
ATOM     14  H21 UNL     1      17.046   7.455   6.829  1.00  0.00     0.274 HD
ENDBRANCH  10  11
ENDBRANCH   8  10
ENDBRANCH   4   8
TORSDOF 3
ENDMDL
