MODEL 1
REMARK VINA RESULT: -8.025626809      0.000      0.000
REMARK  10 active torsions:
REMARK  status: ('A' for Active; 'I' for Inactive)
REMARK    1  A    between atoms: N1_2  and  C3_4 
REMARK    2  A    between atoms: N5_17  and  C9_18 
REMARK    3  A    between atoms: C10_20  and  C11_21 
REMARK    4  A    between atoms: C11_21  and  O4_22 
REMARK    5  A    between atoms: C12_24  and  O5_25 
REMARK    6  A    between atoms: C12_24  and  C13_27 
REMARK    7  A    between atoms: C13_27  and  O6_28 
REMARK    8  A    between atoms: C14_30  and  O7_31 
REMARK    9  A    between atoms: C14_30  and  O8_33 
REMARK   10  A    between atoms: C15_35  and  O9_36 
ROOT
HETATM    1  C9  UNL     1      -1.157  24.531  18.406  1.00  0.00     0.177 C 
HETATM    2  O3  UNL     1      -2.156  24.621  19.357  1.00  0.00    -0.325 OA
HETATM    3  C10 UNL     1      -2.868  23.395  19.389  1.00  0.00     0.196 C 
HETATM    4  C12 UNL     1      -1.964  22.323  19.813  1.00  0.00     0.166 C 
HETATM    5  C14 UNL     1      -0.496  22.747  19.956  1.00  0.00     0.230 C 
HETATM    6  C15 UNL     1      -0.057  23.595  18.785  1.00  0.00     0.259 C 
ENDROOT
BRANCH   1   7
HETATM    7  N5  UNL     1      -0.768  25.743  17.756  1.00  0.00    -0.118 N 
HETATM    8  C3  UNL     1      -0.536  25.889  16.406  1.00  0.00     0.690 A 
HETATM    9  N2  UNL     1      -0.188  27.156  16.131  1.00  0.00    -0.173 N 
HETATM   10  C4  UNL     1      -0.198  27.815  17.302  1.00  0.00     0.160 A 
ATOM     11  H2  UNL     1       0.039  27.542  15.215  1.00  0.00     0.186 HD
HETATM   12  C5  UNL     1      -0.560  26.939  18.335  1.00  0.00     0.171 A 
HETATM   13  N4  UNL     1       0.069  29.096  17.615  1.00  0.00    -0.287 N 
HETATM   14  C6  UNL     1      -0.625  27.441  19.616  1.00  0.00     0.281 A 
HETATM   15  O1  UNL     1      -0.947  26.676  20.559  1.00  0.00    -0.265 OA
HETATM   16  N3  UNL     1      -0.345  28.754  19.893  1.00  0.00    -0.273 N 
HETATM   17  C7  UNL     1      -0.000  29.564  18.876  1.00  0.00     0.330 A 
ATOM     18  H3  UNL     1      -0.396  29.109  20.848  1.00  0.00     0.173 HD
HETATM   19  O2  UNL     1       0.250  30.769  19.172  1.00  0.00    -0.246 OA
HETATM   20  C8  UNL     1       0.453  30.059  16.583  1.00  0.00     0.163 C 
BRANCH   8  21
HETATM   21  N1  UNL     1      -0.668  24.804  15.476  1.00  0.00    -0.226 N 
HETATM   22  C1  UNL     1      -1.806  23.945  15.421  1.00  0.00     0.168 C 
HETATM   23  C2  UNL     1       0.417  24.545  14.515  1.00  0.00     0.168 C 
ENDBRANCH   8  21
ENDBRANCH   1   7
BRANCH   6  24
HETATM   24  O9  UNL     1       1.163  24.189  19.056  1.00  0.00    -0.382 OA
ATOM     25  H9  UNL     1       1.877  23.590  19.238  1.00  0.00     0.210 HD
ENDBRANCH   6  24
BRANCH   3  26
HETATM   26  C11 UNL     1      -4.175  23.583  20.050  1.00  0.00     0.200 C 
BRANCH  26  27
HETATM   27  O4  UNL     1      -4.493  24.829  20.508  1.00  0.00    -0.398 OA
ATOM     28  H4  UNL     1      -5.163  25.320  20.047  1.00  0.00     0.209 HD
ENDBRANCH  26  27
ENDBRANCH   3  26
BRANCH   5  29
HETATM   29  O7  UNL     1      -0.235  23.292  21.187  1.00  0.00    -0.361 OA
ATOM     30  H7  UNL     1       0.654  23.622  21.250  1.00  0.00     0.213 HD
ENDBRANCH   5  29
BRANCH   5  31
HETATM   31  O8  UNL     1       0.217  21.523  19.911  1.00  0.00    -0.361 OA
ATOM     32  H8  UNL     1       0.876  21.618  20.589  1.00  0.00     0.213 HD
ENDBRANCH   5  31
BRANCH   4  33
HETATM   33  O5  UNL     1      -1.926  21.391  18.721  1.00  0.00    -0.379 OA
ATOM     34  H5  UNL     1      -1.137  20.876  18.849  1.00  0.00     0.211 HD
ENDBRANCH   4  33
BRANCH   4  35
HETATM   35  C13 UNL     1      -2.332  21.492  20.989  1.00  0.00     0.210 C 
BRANCH  35  36
HETATM   36  O6  UNL     1      -2.241  20.128  20.839  1.00  0.00    -0.398 OA
ATOM     37  H6  UNL     1      -3.058  19.648  20.776  1.00  0.00     0.209 HD
ENDBRANCH  35  36
ENDBRANCH   4  35
TORSDOF 10
ENDMDL
MODEL 2
REMARK VINA RESULT: -7.153803405      1.390      1.639
REMARK  10 active torsions:
REMARK  status: ('A' for Active; 'I' for Inactive)
REMARK    1  A    between atoms: N1_2  and  C3_4 
REMARK    2  A    between atoms: N5_17  and  C9_18 
REMARK    3  A    between atoms: C10_20  and  C11_21 
REMARK    4  A    between atoms: C11_21  and  O4_22 
REMARK    5  A    between atoms: C12_24  and  O5_25 
REMARK    6  A    between atoms: C12_24  and  C13_27 
REMARK    7  A    between atoms: C13_27  and  O6_28 
REMARK    8  A    between atoms: C14_30  and  O7_31 
REMARK    9  A    between atoms: C14_30  and  O8_33 
REMARK   10  A    between atoms: C15_35  and  O9_36 
ROOT
HETATM    1  C9  UNL     1      -1.584  24.319  18.942  1.00  0.00     0.177 C 
HETATM    2  O3  UNL     1      -2.600  24.743  19.777  1.00  0.00    -0.325 OA
HETATM    3  C10 UNL     1      -3.210  23.607  20.368  1.00  0.00     0.196 C 
HETATM    4  C12 UNL     1      -2.228  22.912  21.204  1.00  0.00     0.166 C 
HETATM    5  C14 UNL     1      -0.802  23.470  21.108  1.00  0.00     0.230 C 
HETATM    6  C15 UNL     1      -0.416  23.740  19.673  1.00  0.00     0.259 C 
ENDROOT
BRANCH   1   7
HETATM    7  N5  UNL     1      -1.285  25.140  17.812  1.00  0.00    -0.118 N 
HETATM    8  C3  UNL     1      -1.406  24.764  16.493  1.00  0.00     0.690 A 
HETATM    9  N2  UNL     1      -1.045  25.774  15.688  1.00  0.00    -0.173 N 
HETATM   10  C4  UNL     1      -0.693  26.793  16.491  1.00  0.00     0.160 A 
ATOM     11  H2  UNL     1      -1.037  25.771  14.668  1.00  0.00     0.186 HD
HETATM   12  C5  UNL     1      -0.838  26.409  17.831  1.00  0.00     0.171 A 
HETATM   13  N4  UNL     1      -0.253  28.036  16.226  1.00  0.00    -0.287 N 
HETATM   14  C6  UNL     1      -0.522  27.330  18.806  1.00  0.00     0.281 A 
HETATM   15  O1  UNL     1      -0.644  27.010  20.015  1.00  0.00    -0.265 OA
HETATM   16  N3  UNL     1      -0.076  28.589  18.494  1.00  0.00    -0.273 N 
HETATM   17  C7  UNL     1       0.051  28.920  17.197  1.00  0.00     0.330 A 
ATOM     18  H3  UNL     1       0.154  29.259  19.228  1.00  0.00     0.173 HD
HETATM   19  O2  UNL     1       0.465  30.090  16.949  1.00  0.00    -0.246 OA
HETATM   20  C8  UNL     1      -0.079  28.496  14.848  1.00  0.00     0.163 C 
BRANCH   8  21
HETATM   21  N1  UNL     1      -1.864  23.462  16.098  1.00  0.00    -0.226 N 
HETATM   22  C1  UNL     1      -2.768  23.237  15.015  1.00  0.00     0.168 C 
HETATM   23  C2  UNL     1      -1.390  22.279  16.834  1.00  0.00     0.168 C 
ENDBRANCH   8  21
ENDBRANCH   1   7
BRANCH   6  24
HETATM   24  O9  UNL     1       0.747  24.488  19.623  1.00  0.00    -0.382 OA
ATOM     25  H9  UNL     1       1.407  24.176  19.016  1.00  0.00     0.210 HD
ENDBRANCH   6  24
BRANCH   3  26
HETATM   26  C11 UNL     1      -4.538  23.965  20.906  1.00  0.00     0.200 C 
BRANCH  26  27
HETATM   27  O4  UNL     1      -5.149  25.086  20.422  1.00  0.00    -0.398 OA
ATOM     28  H4  UNL     1      -5.165  25.861  20.971  1.00  0.00     0.209 HD
ENDBRANCH  26  27
ENDBRANCH   3  26
BRANCH   5  29
HETATM   29  O7  UNL     1      -0.605  24.526  21.962  1.00  0.00    -0.361 OA
ATOM     30  H7  UNL     1      -0.459  24.238  22.856  1.00  0.00     0.213 HD
ENDBRANCH   5  29
BRANCH   5  31
HETATM   31  O8  UNL     1       0.009  22.416  21.596  1.00  0.00    -0.361 OA
ATOM     32  H8  UNL     1       0.784  22.857  21.924  1.00  0.00     0.213 HD
ENDBRANCH   5  31
BRANCH   4  33
HETATM   33  O5  UNL     1      -2.098  21.597  20.640  1.00  0.00    -0.379 OA
ATOM     34  H5  UNL     1      -1.327  21.218  21.046  1.00  0.00     0.211 HD
ENDBRANCH   4  33
BRANCH   4  35
HETATM   35  C13 UNL     1      -2.545  22.665  22.634  1.00  0.00     0.210 C 
BRANCH  35  36
HETATM   36  O6  UNL     1      -2.243  21.419  23.132  1.00  0.00    -0.398 OA
ATOM     37  H6  UNL     1      -1.932  21.379  24.028  1.00  0.00     0.209 HD
ENDBRANCH  35  36
ENDBRANCH   4  35
TORSDOF 10
ENDMDL
MODEL 3
REMARK VINA RESULT: -6.805456027      1.669      3.089
REMARK  10 active torsions:
REMARK  status: ('A' for Active; 'I' for Inactive)
REMARK    1  A    between atoms: N1_2  and  C3_4 
REMARK    2  A    between atoms: N5_17  and  C9_18 
REMARK    3  A    between atoms: C10_20  and  C11_21 
REMARK    4  A    between atoms: C11_21  and  O4_22 
REMARK    5  A    between atoms: C12_24  and  O5_25 
REMARK    6  A    between atoms: C12_24  and  C13_27 
REMARK    7  A    between atoms: C13_27  and  O6_28 
REMARK    8  A    between atoms: C14_30  and  O7_31 
REMARK    9  A    between atoms: C14_30  and  O8_33 
REMARK   10  A    between atoms: C15_35  and  O9_36 
ROOT
HETATM    1  C9  UNL     1      -1.103  24.415  18.916  1.00  0.00     0.177 C 
HETATM    2  O3  UNL     1      -2.126  24.261  19.833  1.00  0.00    -0.325 OA
HETATM    3  C10 UNL     1      -2.822  23.061  19.544  1.00  0.00     0.196 C 
HETATM    4  C12 UNL     1      -1.915  21.923  19.717  1.00  0.00     0.166 C 
HETATM    5  C14 UNL     1      -0.456  22.309  19.998  1.00  0.00     0.230 C 
HETATM    6  C15 UNL     1       0.000  23.421  19.083  1.00  0.00     0.259 C 
ENDROOT
BRANCH   1   7
HETATM    7  N5  UNL     1      -0.714  25.751  18.593  1.00  0.00    -0.118 N 
HETATM    8  C3  UNL     1      -0.395  26.735  19.502  1.00  0.00     0.690 A 
HETATM    9  N2  UNL     1      -0.075  27.870  18.863  1.00  0.00    -0.173 N 
HETATM   10  C4  UNL     1      -0.190  27.612  17.549  1.00  0.00     0.160 A 
ATOM     11  H2  UNL     1       0.201  28.755  19.290  1.00  0.00     0.186 HD
HETATM   12  C5  UNL     1      -0.592  26.282  17.363  1.00  0.00     0.171 A 
HETATM   13  N4  UNL     1       0.007  28.379  16.462  1.00  0.00    -0.287 N 
HETATM   14  C6  UNL     1      -0.763  25.833  16.072  1.00  0.00     0.281 A 
HETATM   15  O1  UNL     1      -1.123  24.645  15.878  1.00  0.00    -0.265 OA
HETATM   16  N3  UNL     1      -0.552  26.647  14.989  1.00  0.00    -0.273 N 
HETATM   17  C7  UNL     1      -0.167  27.917  15.208  1.00  0.00     0.330 A 
ATOM     18  H3  UNL     1      -0.683  26.298  14.039  1.00  0.00     0.173 HD
HETATM   19  O2  UNL     1       0.018  28.638  14.184  1.00  0.00    -0.246 OA
HETATM   20  C8  UNL     1       0.426  29.774  16.590  1.00  0.00     0.163 C 
BRANCH   8  21
HETATM   21  N1  UNL     1      -0.417  26.515  20.920  1.00  0.00    -0.226 N 
HETATM   22  C1  UNL     1      -1.491  25.867  21.603  1.00  0.00     0.168 C 
HETATM   23  C2  UNL     1       0.719  26.972  21.737  1.00  0.00     0.168 C 
ENDBRANCH   8  21
ENDBRANCH   1   7
BRANCH   6  24
HETATM   24  O9  UNL     1       1.205  23.939  19.525  1.00  0.00    -0.382 OA
ATOM     25  H9  UNL     1       1.930  23.863  18.915  1.00  0.00     0.210 HD
ENDBRANCH   6  24
BRANCH   3  26
HETATM   26  C11 UNL     1      -4.147  23.072  20.195  1.00  0.00     0.200 C 
BRANCH  26  27
HETATM   27  O4  UNL     1      -4.668  24.275  20.576  1.00  0.00    -0.398 OA
ATOM     28  H4  UNL     1      -5.276  24.290  21.306  1.00  0.00     0.209 HD
ENDBRANCH  26  27
ENDBRANCH   3  26
BRANCH   5  29
HETATM   29  O7  UNL     1      -0.233  22.538  21.333  1.00  0.00    -0.361 OA
ATOM     30  H7  UNL     1      -0.023  21.737  21.800  1.00  0.00     0.213 HD
ENDBRANCH   5  29
BRANCH   5  31
HETATM   31  O8  UNL     1       0.274  21.139  19.674  1.00  0.00    -0.361 OA
ATOM     32  H8  UNL     1       1.144  21.462  19.471  1.00  0.00     0.213 HD
ENDBRANCH   5  31
BRANCH   4  33
HETATM   33  O5  UNL     1      -1.838  21.288  18.431  1.00  0.00    -0.379 OA
ATOM     34  H5  UNL     1      -0.911  21.229  18.228  1.00  0.00     0.211 HD
ENDBRANCH   4  33
BRANCH   4  35
HETATM   35  C13 UNL     1      -2.301  20.827  20.643  1.00  0.00     0.210 C 
BRANCH  35  36
HETATM   36  O6  UNL     1      -2.467  21.161  21.966  1.00  0.00    -0.398 OA
ATOM     37  H6  UNL     1      -3.296  21.555  22.209  1.00  0.00     0.209 HD
ENDBRANCH  35  36
ENDBRANCH   4  35
TORSDOF 10
ENDMDL
MODEL 4
REMARK VINA RESULT: -6.747467132      2.884      4.960
REMARK  10 active torsions:
REMARK  status: ('A' for Active; 'I' for Inactive)
REMARK    1  A    between atoms: N1_2  and  C3_4 
REMARK    2  A    between atoms: N5_17  and  C9_18 
REMARK    3  A    between atoms: C10_20  and  C11_21 
REMARK    4  A    between atoms: C11_21  and  O4_22 
REMARK    5  A    between atoms: C12_24  and  O5_25 
REMARK    6  A    between atoms: C12_24  and  C13_27 
REMARK    7  A    between atoms: C13_27  and  O6_28 
REMARK    8  A    between atoms: C14_30  and  O7_31 
REMARK    9  A    between atoms: C14_30  and  O8_33 
REMARK   10  A    between atoms: C15_35  and  O9_36 
ROOT
HETATM    1  C9  UNL     1      -0.184  26.737  16.983  1.00  0.00     0.177 C 
HETATM    2  O3  UNL     1       0.627  25.628  17.143  1.00  0.00    -0.325 OA
HETATM    3  C10 UNL     1      -0.038  24.691  17.973  1.00  0.00     0.196 C 
HETATM    4  C12 UNL     1      -1.261  24.238  17.305  1.00  0.00     0.166 C 
HETATM    5  C14 UNL     1      -1.586  24.979  16.001  1.00  0.00     0.230 C 
HETATM    6  C15 UNL     1      -1.401  26.470  16.160  1.00  0.00     0.259 C 
ENDROOT
BRANCH   1   7
HETATM    7  N5  UNL     1       0.466  27.992  16.774  1.00  0.00    -0.118 N 
HETATM    8  C3  UNL     1       0.265  29.132  17.520  1.00  0.00     0.690 A 
HETATM    9  N2  UNL     1       1.033  30.130  17.056  1.00  0.00    -0.173 N 
HETATM   10  C4  UNL     1       1.720  29.628  16.016  1.00  0.00     0.160 A 
ATOM     11  H2  UNL     1       1.084  31.082  17.420  1.00  0.00     0.186 HD
HETATM   12  C5  UNL     1       1.373  28.283  15.825  1.00  0.00     0.171 A 
HETATM   13  N4  UNL     1       2.625  30.179  15.187  1.00  0.00    -0.287 N 
HETATM   14  C6  UNL     1       1.982  27.598  14.797  1.00  0.00     0.281 A 
HETATM   15  O1  UNL     1       1.688  26.392  14.606  1.00  0.00    -0.265 OA
HETATM   16  N3  UNL     1       2.901  28.196  13.973  1.00  0.00    -0.273 N 
HETATM   17  C7  UNL     1       3.207  29.488  14.187  1.00  0.00     0.330 A 
ATOM     18  H3  UNL     1       3.342  27.674  13.216  1.00  0.00     0.173 HD
HETATM   19  O2  UNL     1       4.059  30.005  13.406  1.00  0.00    -0.246 OA
HETATM   20  C8  UNL     1       3.028  31.577  15.333  1.00  0.00     0.163 C 
BRANCH   8  21
HETATM   21  N1  UNL     1      -0.646  29.182  18.628  1.00  0.00    -0.226 N 
HETATM   22  C1  UNL     1      -1.646  30.190  18.784  1.00  0.00     0.168 C 
HETATM   23  C2  UNL     1      -0.565  28.150  19.673  1.00  0.00     0.168 C 
ENDBRANCH   8  21
ENDBRANCH   1   7
BRANCH   6  24
HETATM   24  O9  UNL     1      -1.429  27.089  14.922  1.00  0.00    -0.382 OA
ATOM     25  H9  UNL     1      -1.557  26.511  14.180  1.00  0.00     0.210 HD
ENDBRANCH   6  24
BRANCH   3  26
HETATM   26  C11 UNL     1       0.929  23.716  18.516  1.00  0.00     0.200 C 
BRANCH  26  27
HETATM   27  O4  UNL     1       2.039  23.429  17.777  1.00  0.00    -0.398 OA
ATOM     28  H4  UNL     1       2.657  22.794  18.121  1.00  0.00     0.209 HD
ENDBRANCH  26  27
ENDBRANCH   3  26
BRANCH   5  29
HETATM   29  O7  UNL     1      -0.937  24.432  14.923  1.00  0.00    -0.361 OA
ATOM     30  H7  UNL     1      -1.121  23.505  14.829  1.00  0.00     0.213 HD
ENDBRANCH   5  29
BRANCH   5  31
HETATM   31  O8  UNL     1      -2.965  24.721  15.799  1.00  0.00    -0.361 OA
ATOM     32  H8  UNL     1      -3.240  25.408  15.202  1.00  0.00     0.213 HD
ENDBRANCH   5  31
BRANCH   4  33
HETATM   33  O5  UNL     1      -2.342  24.619  18.171  1.00  0.00    -0.379 OA
ATOM     34  H5  UNL     1      -3.021  23.968  18.037  1.00  0.00     0.211 HD
ENDBRANCH   4  33
BRANCH   4  35
HETATM   35  C13 UNL     1      -1.465  22.783  17.086  1.00  0.00     0.210 C 
BRANCH  35  36
HETATM   36  O6  UNL     1      -2.711  22.279  17.379  1.00  0.00    -0.398 OA
ATOM     37  H6  UNL     1      -3.334  22.877  17.774  1.00  0.00     0.209 HD
ENDBRANCH  35  36
ENDBRANCH   4  35
TORSDOF 10
ENDMDL
MODEL 5
REMARK VINA RESULT: -6.740996867      3.607      6.825
REMARK  10 active torsions:
REMARK  status: ('A' for Active; 'I' for Inactive)
REMARK    1  A    between atoms: N1_2  and  C3_4 
REMARK    2  A    between atoms: N5_17  and  C9_18 
REMARK    3  A    between atoms: C10_20  and  C11_21 
REMARK    4  A    between atoms: C11_21  and  O4_22 
REMARK    5  A    between atoms: C12_24  and  O5_25 
REMARK    6  A    between atoms: C12_24  and  C13_27 
REMARK    7  A    between atoms: C13_27  and  O6_28 
REMARK    8  A    between atoms: C14_30  and  O7_31 
REMARK    9  A    between atoms: C14_30  and  O8_33 
REMARK   10  A    between atoms: C15_35  and  O9_36 
ROOT
HETATM    1  C9  UNL     1      -1.624  23.109  20.189  1.00  0.00     0.177 C 
HETATM    2  O3  UNL     1      -2.846  22.697  19.692  1.00  0.00    -0.325 OA
HETATM    3  C10 UNL     1      -3.203  23.533  18.604  1.00  0.00     0.196 C 
HETATM    4  C12 UNL     1      -2.223  23.368  17.528  1.00  0.00     0.166 C 
HETATM    5  C14 UNL     1      -1.017  22.491  17.893  1.00  0.00     0.230 C 
HETATM    6  C15 UNL     1      -0.484  22.839  19.262  1.00  0.00     0.259 C 
ENDROOT
BRANCH   1   7
HETATM    7  N5  UNL     1      -1.381  22.890  21.580  1.00  0.00    -0.118 N 
HETATM    8  C3  UNL     1      -0.959  23.844  22.479  1.00  0.00     0.690 A 
HETATM    9  N2  UNL     1      -0.830  23.304  23.701  1.00  0.00    -0.173 N 
HETATM   10  C4  UNL     1      -1.167  22.009  23.581  1.00  0.00     0.160 A 
ATOM     11  H2  UNL     1      -0.534  23.782  24.552  1.00  0.00     0.186 HD
HETATM   12  C5  UNL     1      -1.515  21.733  22.251  1.00  0.00     0.171 A 
HETATM   13  N4  UNL     1      -1.217  21.006  24.476  1.00  0.00    -0.287 N 
HETATM   14  C6  UNL     1      -1.892  20.446  21.935  1.00  0.00     0.281 A 
HETATM   15  O1  UNL     1      -2.209  20.173  20.751  1.00  0.00    -0.265 OA
HETATM   16  N3  UNL     1      -1.930  19.451  22.879  1.00  0.00    -0.273 N 
HETATM   17  C7  UNL     1      -1.588  19.755  24.143  1.00  0.00     0.330 A 
ATOM     18  H3  UNL     1      -2.211  18.503  22.628  1.00  0.00     0.173 HD
HETATM   19  O2  UNL     1      -1.636  18.811  24.986  1.00  0.00    -0.246 OA
HETATM   20  C8  UNL     1      -0.865  21.231  25.878  1.00  0.00     0.163 C 
BRANCH   8  21
HETATM   21  N1  UNL     1      -0.714  25.208  22.104  1.00  0.00    -0.226 N 
HETATM   22  C1  UNL     1      -0.992  25.732  20.805  1.00  0.00     0.168 C 
HETATM   23  C2  UNL     1      -0.147  26.136  23.095  1.00  0.00     0.168 C 
ENDBRANCH   8  21
ENDBRANCH   1   7
BRANCH   6  24
HETATM   24  O9  UNL     1       0.412  21.873  19.686  1.00  0.00    -0.382 OA
ATOM     25  H9  UNL     1       1.298  22.177  19.839  1.00  0.00     0.210 HD
ENDBRANCH   6  24
BRANCH   3  26
HETATM   26  C11 UNL     1      -4.649  23.421  18.329  1.00  0.00     0.200 C 
BRANCH  26  27
HETATM   27  O4  UNL     1      -5.107  23.824  17.108  1.00  0.00    -0.398 OA
ATOM     28  H4  UNL     1      -5.854  23.370  16.736  1.00  0.00     0.209 HD
ENDBRANCH  26  27
ENDBRANCH   3  26
BRANCH   5  29
HETATM   29  O7  UNL     1      -1.275  21.157  17.701  1.00  0.00    -0.361 OA
ATOM     30  H7  UNL     1      -2.176  20.936  17.908  1.00  0.00     0.213 HD
ENDBRANCH   5  29
BRANCH   5  31
HETATM   31  O8  UNL     1      -0.038  22.842  16.931  1.00  0.00    -0.361 OA
ATOM     32  H8  UNL     1       0.785  22.732  17.393  1.00  0.00     0.213 HD
ENDBRANCH   5  31
BRANCH   4  33
HETATM   33  O5  UNL     1      -1.632  24.664  17.337  1.00  0.00    -0.379 OA
ATOM     34  H5  UNL     1      -1.695  24.841  16.405  1.00  0.00     0.211 HD
ENDBRANCH   4  33
BRANCH   4  35
HETATM   35  C13 UNL     1      -2.697  22.981  16.174  1.00  0.00     0.210 C 
BRANCH  35  36
HETATM   36  O6  UNL     1      -2.539  23.909  15.171  1.00  0.00    -0.398 OA
ATOM     37  H6  UNL     1      -3.102  24.673  15.201  1.00  0.00     0.209 HD
ENDBRANCH  35  36
ENDBRANCH   4  35
TORSDOF 10
ENDMDL
