MODEL 1
REMARK VINA RESULT: -5.823920122      0.000      0.000
REMARK  4 active torsions:
REMARK  status: ('A' for Active; 'I' for Inactive)
REMARK    1  A    between atoms: C3_5  and  N2_6 
REMARK    2  A    between atoms: N4_11  and  C4_12 
REMARK    3  A    between atoms: C4_12  and  C5_13 
REMARK    4  A    between atoms: C5_13  and  N5_14 
ROOT
HETATM    1  C1  UNL     1       4.925  25.917  20.555  1.00  0.00     0.091 C 
HETATM    2  C2  UNL     1       6.330  26.104  20.134  1.00  0.00     0.111 A 
HETATM    3  N1  UNL     1       6.957  25.554  19.061  1.00  0.00    -0.178 N 
ATOM      4  H1  UNL     1       6.524  24.924  18.387  1.00  0.00     0.185 HD
HETATM    5  C3  UNL     1       8.234  25.969  19.023  1.00  0.00     0.692 A 
HETATM    6  N3  UNL     1       8.405  26.784  20.083  1.00  0.00    -0.129 N 
ATOM      7  H3  UNL     1       9.269  27.264  20.336  1.00  0.00     0.206 HD
HETATM    8  N4  UNL     1       7.257  26.856  20.740  1.00  0.00    -0.264 N 
ENDROOT
BRANCH   8   9
HETATM    9  C4  UNL     1       7.051  27.626  21.919  1.00  0.00     0.170 C 
BRANCH   9  10
HETATM   10  C5  UNL     1       7.131  26.762  23.186  1.00  0.00     0.137 C 
BRANCH  10  11
HETATM   11  N5  UNL     1       6.086  27.178  24.025  1.00  0.00    -0.419 N 
HETATM   12  C6  UNL     1       6.295  28.278  24.871  1.00  0.00     0.142 C 
HETATM   13  C7  UNL     1       4.920  26.416  24.140  1.00  0.00     0.142 C 
ENDBRANCH  10  11
ENDBRANCH   9  10
ENDBRANCH   8   9
BRANCH   5  14
HETATM   14  N2  UNL     1       9.160  25.674  18.163  1.00  0.00    -0.233 N 
ATOM     15  H22 UNL     1       9.209  26.045  17.214  1.00  0.00     0.174 HD
ATOM     16  H21 UNL     1       9.961  25.053  18.275  1.00  0.00     0.174 HD
ENDBRANCH   5  14
TORSDOF 4
ENDMDL
MODEL 2
REMARK VINA RESULT: -5.821408884      0.461      1.064
REMARK  4 active torsions:
REMARK  status: ('A' for Active; 'I' for Inactive)
REMARK    1  A    between atoms: C3_5  and  N2_6 
REMARK    2  A    between atoms: N4_11  and  C4_12 
REMARK    3  A    between atoms: C4_12  and  C5_13 
REMARK    4  A    between atoms: C5_13  and  N5_14 
ROOT
HETATM    1  C1  UNL     1       5.027  25.909  20.686  1.00  0.00     0.091 C 
HETATM    2  C2  UNL     1       6.396  26.101  20.158  1.00  0.00     0.111 A 
HETATM    3  N1  UNL     1       6.952  25.526  19.060  1.00  0.00    -0.178 N 
ATOM      4  H1  UNL     1       6.482  24.868  18.439  1.00  0.00     0.185 HD
HETATM    5  C3  UNL     1       8.217  25.956  18.918  1.00  0.00     0.692 A 
HETATM    6  N3  UNL     1       8.450  26.807  19.937  1.00  0.00    -0.129 N 
ATOM      7  H3  UNL     1       9.323  27.305  20.112  1.00  0.00     0.206 HD
HETATM    8  N4  UNL     1       7.351  26.884  20.673  1.00  0.00    -0.264 N 
ENDROOT
BRANCH   8   9
HETATM    9  C4  UNL     1       7.219  27.688  21.839  1.00  0.00     0.170 C 
BRANCH   9  10
HETATM   10  C5  UNL     1       7.533  26.897  23.117  1.00  0.00     0.137 C 
BRANCH  10  11
HETATM   11  N5  UNL     1       6.732  27.437  24.135  1.00  0.00    -0.419 N 
HETATM   12  C6  UNL     1       5.357  27.161  24.132  1.00  0.00     0.142 C 
HETATM   13  C7  UNL     1       7.260  28.365  25.037  1.00  0.00     0.142 C 
ENDBRANCH  10  11
ENDBRANCH   9  10
ENDBRANCH   8   9
BRANCH   5  14
HETATM   14  N2  UNL     1       9.083  25.646  18.003  1.00  0.00    -0.233 N 
ATOM     15  H22 UNL     1       9.634  24.787  17.993  1.00  0.00     0.174 HD
ATOM     16  H21 UNL     1       9.353  26.175  17.174  1.00  0.00     0.174 HD
ENDBRANCH   5  14
TORSDOF 4
ENDMDL
MODEL 3
REMARK VINA RESULT: -5.643728570      1.388      5.235
REMARK  4 active torsions:
REMARK  status: ('A' for Active; 'I' for Inactive)
REMARK    1  A    between atoms: C3_5  and  N2_6 
REMARK    2  A    between atoms: N4_11  and  C4_12 
REMARK    3  A    between atoms: C4_12  and  C5_13 
REMARK    4  A    between atoms: C5_13  and  N5_14 
ROOT
HETATM    1  C1  UNL     1       7.281  28.921  22.152  1.00  0.00     0.091 C 
HETATM    2  C2  UNL     1       6.383  27.931  22.786  1.00  0.00     0.111 A 
HETATM    3  N1  UNL     1       5.528  28.128  23.824  1.00  0.00    -0.178 N 
ATOM      4  H1  UNL     1       5.391  29.012  24.312  1.00  0.00     0.185 HD
HETATM    5  C3  UNL     1       4.891  26.980  24.108  1.00  0.00     0.692 A 
HETATM    6  N3  UNL     1       5.354  26.059  23.239  1.00  0.00    -0.129 N 
ATOM      7  H3  UNL     1       5.066  25.081  23.195  1.00  0.00     0.206 HD
HETATM    8  N4  UNL     1       6.247  26.641  22.453  1.00  0.00    -0.264 N 
ENDROOT
BRANCH   8   9
HETATM    9  C4  UNL     1       6.954  25.980  21.410  1.00  0.00     0.170 C 
BRANCH   9  10
HETATM   10  C5  UNL     1       6.235  26.114  20.060  1.00  0.00     0.137 C 
BRANCH  10  11
HETATM   11  N5  UNL     1       7.233  26.201  19.077  1.00  0.00    -0.419 N 
HETATM   12  C6  UNL     1       6.968  25.691  17.798  1.00  0.00     0.142 C 
HETATM   13  C7  UNL     1       8.521  26.634  19.408  1.00  0.00     0.142 C 
ENDBRANCH  10  11
ENDBRANCH   9  10
ENDBRANCH   8   9
BRANCH   5  14
HETATM   14  N2  UNL     1       4.001  26.749  25.024  1.00  0.00    -0.233 N 
ATOM     15  H22 UNL     1       4.174  26.807  26.028  1.00  0.00     0.174 HD
ATOM     16  H21 UNL     1       3.024  26.483  24.911  1.00  0.00     0.174 HD
ENDBRANCH   5  14
TORSDOF 4
ENDMDL
MODEL 4
REMARK VINA RESULT: -5.630848982      0.965      1.987
REMARK  4 active torsions:
REMARK  status: ('A' for Active; 'I' for Inactive)
REMARK    1  A    between atoms: C3_5  and  N2_6 
REMARK    2  A    between atoms: N4_11  and  C4_12 
REMARK    3  A    between atoms: C4_12  and  C5_13 
REMARK    4  A    between atoms: C5_13  and  N5_14 
ROOT
HETATM    1  C1  UNL     1       8.113  28.397  21.531  1.00  0.00     0.091 C 
HETATM    2  C2  UNL     1       7.891  27.229  20.650  1.00  0.00     0.111 A 
HETATM    3  N1  UNL     1       8.625  26.851  19.571  1.00  0.00    -0.178 N 
ATOM      4  H1  UNL     1       9.450  27.338  19.221  1.00  0.00     0.185 HD
HETATM    5  C3  UNL     1       8.099  25.736  19.036  1.00  0.00     0.692 A 
HETATM    6  N3  UNL     1       7.027  25.418  19.789  1.00  0.00    -0.129 N 
ATOM      7  H3  UNL     1       6.410  24.619  19.642  1.00  0.00     0.206 HD
HETATM    8  N4  UNL     1       6.914  26.321  20.752  1.00  0.00    -0.264 N 
ENDROOT
BRANCH   8   9
HETATM    9  C4  UNL     1       5.895  26.314  21.745  1.00  0.00     0.170 C 
BRANCH   9  10
HETATM   10  C5  UNL     1       6.468  26.081  23.150  1.00  0.00     0.137 C 
BRANCH  10  11
HETATM   11  N5  UNL     1       5.659  26.801  24.041  1.00  0.00    -0.419 N 
HETATM   12  C6  UNL     1       4.355  26.348  24.290  1.00  0.00     0.142 C 
HETATM   13  C7  UNL     1       6.082  28.035  24.546  1.00  0.00     0.142 C 
ENDBRANCH  10  11
ENDBRANCH   9  10
ENDBRANCH   8   9
BRANCH   5  14
HETATM   14  N2  UNL     1       8.502  25.062  18.003  1.00  0.00    -0.233 N 
ATOM     15  H22 UNL     1       9.459  25.059  17.649  1.00  0.00     0.174 HD
ATOM     16  H21 UNL     1       7.965  24.447  17.393  1.00  0.00     0.174 HD
ENDBRANCH   5  14
TORSDOF 4
ENDMDL
MODEL 5
REMARK VINA RESULT: -5.123279884      1.346      5.144
REMARK  4 active torsions:
REMARK  status: ('A' for Active; 'I' for Inactive)
REMARK    1  A    between atoms: C3_5  and  N2_6 
REMARK    2  A    between atoms: N4_11  and  C4_12 
REMARK    3  A    between atoms: C4_12  and  C5_13 
REMARK    4  A    between atoms: C5_13  and  N5_14 
ROOT
HETATM    1  C1  UNL     1       7.492  28.660  24.744  1.00  0.00     0.091 C 
HETATM    2  C2  UNL     1       6.469  27.699  24.275  1.00  0.00     0.111 A 
HETATM    3  N1  UNL     1       5.292  27.380  24.874  1.00  0.00    -0.178 N 
ATOM      4  H1  UNL     1       4.951  27.775  25.750  1.00  0.00     0.185 HD
HETATM    5  C3  UNL     1       4.644  26.463  24.136  1.00  0.00     0.692 A 
HETATM    6  N3  UNL     1       5.426  26.209  23.067  1.00  0.00    -0.129 N 
ATOM      7  H3  UNL     1       5.214  25.555  22.313  1.00  0.00     0.206 HD
HETATM    8  N4  UNL     1       6.516  26.956  23.163  1.00  0.00    -0.264 N 
ENDROOT
BRANCH   8   9
HETATM    9  C4  UNL     1       7.576  26.958  22.214  1.00  0.00     0.170 C 
BRANCH   9  10
HETATM   10  C5  UNL     1       7.264  27.860  21.012  1.00  0.00     0.137 C 
BRANCH  10  11
HETATM   11  N5  UNL     1       7.163  27.020  19.892  1.00  0.00    -0.419 N 
HETATM   12  C6  UNL     1       5.889  26.631  19.452  1.00  0.00     0.142 C 
HETATM   13  C7  UNL     1       8.306  26.449  19.326  1.00  0.00     0.142 C 
ENDBRANCH  10  11
ENDBRANCH   9  10
ENDBRANCH   8   9
BRANCH   5  14
HETATM   14  N2  UNL     1       3.496  25.902  24.360  1.00  0.00    -0.233 N 
ATOM     15  H22 UNL     1       3.309  25.248  25.121  1.00  0.00     0.174 HD
ATOM     16  H21 UNL     1       2.622  26.007  23.845  1.00  0.00     0.174 HD
ENDBRANCH   5  14
TORSDOF 4
ENDMDL
