MODEL 1
REMARK VINA RESULT: -6.489497248      0.000      0.000
REMARK  4 active torsions:
REMARK  status: ('A' for Active; 'I' for Inactive)
REMARK    1  A    between atoms: N2_5  and  C3_6 
REMARK    2  A    between atoms: C3_6  and  C4_7 
REMARK    3  A    between atoms: C4_7  and  C5_8 
REMARK    4  A    between atoms: C5_8  and  N3_9 
ROOT
HETATM    1  C3  UNL     1       7.812  27.256  22.766  1.00  0.00     0.151 C 
ENDROOT
BRANCH   1   2
HETATM    2  N2  UNL     1       6.534  27.058  23.410  1.00  0.00    -0.287 N 
HETATM    3  C2  UNL     1       5.875  28.011  24.081  1.00  0.00     0.201 A 
HETATM    4  N1  UNL     1       4.729  27.482  24.546  1.00  0.00    -0.346 N 
HETATM    5  C1  UNL     1       4.690  26.192  24.155  1.00  0.00     0.198 A 
ATOM      6  H1  UNL     1       4.019  27.967  25.095  1.00  0.00     0.167 HD
HETATM    7  N6  UNL     1       5.808  25.947  23.456  1.00  0.00    -0.293 N 
ATOM      8  H6  UNL     1       6.060  25.055  23.030  1.00  0.00     0.188 HD
ENDBRANCH   1   2
BRANCH   1   9
HETATM    9  C4  UNL     1       7.667  28.166  21.572  1.00  0.00     0.044 C 
BRANCH   9  10
HETATM   10  C5  UNL     1       6.971  27.481  20.415  1.00  0.00     0.153 C 
BRANCH  10  11
HETATM   11  N3  UNL     1       8.008  26.686  19.737  1.00  0.00    -0.272 N 
HETATM   12  C6  UNL     1       7.980  25.646  18.891  1.00  0.00     0.219 A 
HETATM   13  N4  UNL     1       9.319  25.642  18.847  1.00  0.00    -0.280 N 
HETATM   14  N5  UNL     1       9.319  26.662  19.677  1.00  0.00    -0.239 N 
ATOM     15  H4  UNL     1      10.032  25.087  18.374  1.00  0.00     0.189 HD
ATOM     16  H5  UNL     1      10.055  27.221  20.108  1.00  0.00     0.208 HD
ENDBRANCH  10  11
ENDBRANCH   9  10
ENDBRANCH   1   9
TORSDOF 4
ENDMDL
MODEL 2
REMARK VINA RESULT: -6.430929453      1.053      1.419
REMARK  4 active torsions:
REMARK  status: ('A' for Active; 'I' for Inactive)
REMARK    1  A    between atoms: N2_5  and  C3_6 
REMARK    2  A    between atoms: C3_6  and  C4_7 
REMARK    3  A    between atoms: C4_7  and  C5_8 
REMARK    4  A    between atoms: C5_8  and  N3_9 
ROOT
HETATM    1  C3  UNL     1       7.158  28.512  22.233  1.00  0.00     0.151 C 
ENDROOT
BRANCH   1   2
HETATM    2  N2  UNL     1       6.295  27.729  23.087  1.00  0.00    -0.287 N 
HETATM    3  C2  UNL     1       6.293  26.391  23.130  1.00  0.00     0.201 A 
HETATM    4  N1  UNL     1       5.371  26.000  24.029  1.00  0.00    -0.346 N 
HETATM    5  C1  UNL     1       4.806  27.113  24.540  1.00  0.00     0.198 A 
ATOM      6  H1  UNL     1       5.142  25.038  24.279  1.00  0.00     0.167 HD
HETATM    7  N6  UNL     1       5.386  28.169  23.950  1.00  0.00    -0.293 N 
ATOM      8  H6  UNL     1       5.166  29.147  24.134  1.00  0.00     0.188 HD
ENDBRANCH   1   2
BRANCH   1   9
HETATM    9  C4  UNL     1       7.224  27.908  20.852  1.00  0.00     0.044 C 
BRANCH   9  10
HETATM   10  C5  UNL     1       8.625  27.463  20.493  1.00  0.00     0.153 C 
BRANCH  10  11
HETATM   11  N3  UNL     1       8.466  26.434  19.453  1.00  0.00    -0.272 N 
HETATM   12  C6  UNL     1       7.441  26.037  18.684  1.00  0.00     0.219 A 
HETATM   13  N4  UNL     1       8.226  25.117  18.109  1.00  0.00    -0.280 N 
HETATM   14  N5  UNL     1       9.214  25.525  18.874  1.00  0.00    -0.239 N 
ATOM     15  H4  UNL     1       8.108  24.405  17.387  1.00  0.00     0.189 HD
ATOM     16  H5  UNL     1      10.189  25.243  18.977  1.00  0.00     0.208 HD
ENDBRANCH  10  11
ENDBRANCH   9  10
ENDBRANCH   1   9
TORSDOF 4
ENDMDL
MODEL 3
REMARK VINA RESULT: -6.292122396      1.220      5.374
REMARK  4 active torsions:
REMARK  status: ('A' for Active; 'I' for Inactive)
REMARK    1  A    between atoms: N2_5  and  C3_6 
REMARK    2  A    between atoms: C3_6  and  C4_7 
REMARK    3  A    between atoms: C4_7  and  C5_8 
REMARK    4  A    between atoms: C5_8  and  N3_9 
ROOT
HETATM    1  C3  UNL     1       8.353  27.364  20.601  1.00  0.00     0.151 C 
ENDROOT
BRANCH   1   2
HETATM    2  N2  UNL     1       8.075  26.586  19.416  1.00  0.00    -0.287 N 
HETATM    3  C2  UNL     1       6.844  26.310  18.970  1.00  0.00     0.201 A 
HETATM    4  N1  UNL     1       6.958  25.570  17.851  1.00  0.00    -0.346 N 
HETATM    5  C1  UNL     1       8.273  25.394  17.614  1.00  0.00     0.198 A 
ATOM      6  H1  UNL     1       6.189  25.209  17.286  1.00  0.00     0.167 HD
HETATM    7  N6  UNL     1       8.948  26.026  18.586  1.00  0.00    -0.293 N 
ATOM      8  H6  UNL     1       9.963  26.070  18.673  1.00  0.00     0.188 HD
ENDBRANCH   1   2
BRANCH   1   9
HETATM    9  C4  UNL     1       7.073  27.894  21.198  1.00  0.00     0.044 C 
BRANCH   9  10
HETATM   10  C5  UNL     1       7.298  28.526  22.555  1.00  0.00     0.153 C 
BRANCH  10  11
HETATM   11  N3  UNL     1       6.215  28.024  23.416  1.00  0.00    -0.272 N 
HETATM   12  C6  UNL     1       5.746  26.801  23.706  1.00  0.00     0.219 A 
HETATM   13  N4  UNL     1       4.827  27.343  24.516  1.00  0.00    -0.280 N 
HETATM   14  N5  UNL     1       5.306  28.530  24.216  1.00  0.00    -0.239 N 
ATOM     15  H4  UNL     1       4.078  26.988  25.111  1.00  0.00     0.189 HD
ATOM     16  H5  UNL     1       5.064  29.480  24.498  1.00  0.00     0.208 HD
ENDBRANCH  10  11
ENDBRANCH   9  10
ENDBRANCH   1   9
TORSDOF 4
ENDMDL
MODEL 4
REMARK VINA RESULT: -6.271209155      1.232      1.635
REMARK  4 active torsions:
REMARK  status: ('A' for Active; 'I' for Inactive)
REMARK    1  A    between atoms: N2_5  and  C3_6 
REMARK    2  A    between atoms: C3_6  and  C4_7 
REMARK    3  A    between atoms: C4_7  and  C5_8 
REMARK    4  A    between atoms: C5_8  and  N3_9 
ROOT
HETATM    1  C3  UNL     1       6.242  26.310  22.068  1.00  0.00     0.151 C 
ENDROOT
BRANCH   1   2
HETATM    2  N2  UNL     1       6.411  27.148  23.233  1.00  0.00    -0.287 N 
HETATM    3  C2  UNL     1       5.454  27.936  23.737  1.00  0.00     0.201 A 
HETATM    4  N1  UNL     1       5.954  28.568  24.814  1.00  0.00    -0.346 N 
HETATM    5  C1  UNL     1       7.230  28.160  24.967  1.00  0.00     0.198 A 
ATOM      6  H1  UNL     1       5.459  29.235  25.406  1.00  0.00     0.167 HD
HETATM    7  N6  UNL     1       7.496  27.285  23.986  1.00  0.00    -0.293 N 
ATOM      8  H6  UNL     1       8.384  26.805  23.843  1.00  0.00     0.188 HD
ENDBRANCH   1   2
BRANCH   1   9
HETATM    9  C4  UNL     1       6.433  27.114  20.806  1.00  0.00     0.044 C 
BRANCH   9  10
HETATM   10  C5  UNL     1       7.894  27.250  20.434  1.00  0.00     0.153 C 
BRANCH  10  11
HETATM   11  N3  UNL     1       8.116  26.309  19.325  1.00  0.00    -0.272 N 
HETATM   12  C6  UNL     1       7.352  25.855  18.321  1.00  0.00     0.219 A 
HETATM   13  N4  UNL     1       8.369  25.101  17.884  1.00  0.00    -0.280 N 
HETATM   14  N5  UNL     1       9.098  25.562  18.877  1.00  0.00    -0.239 N 
ATOM     15  H4  UNL     1       8.516  24.449  17.113  1.00  0.00     0.189 HD
ATOM     16  H5  UNL     1      10.058  25.401  19.181  1.00  0.00     0.208 HD
ENDBRANCH  10  11
ENDBRANCH   9  10
ENDBRANCH   1   9
TORSDOF 4
ENDMDL
MODEL 5
REMARK VINA RESULT: -6.254802111      1.125      5.434
REMARK  4 active torsions:
REMARK  status: ('A' for Active; 'I' for Inactive)
REMARK    1  A    between atoms: N2_5  and  C3_6 
REMARK    2  A    between atoms: C3_6  and  C4_7 
REMARK    3  A    between atoms: C4_7  and  C5_8 
REMARK    4  A    between atoms: C5_8  and  N3_9 
ROOT
HETATM    1  C3  UNL     1       8.110  27.528  20.914  1.00  0.00     0.151 C 
ENDROOT
BRANCH   1   2
HETATM    2  N2  UNL     1       7.988  26.732  19.714  1.00  0.00    -0.287 N 
HETATM    3  C2  UNL     1       6.822  26.414  19.139  1.00  0.00     0.201 A 
HETATM    4  N1  UNL     1       7.081  25.670  18.048  1.00  0.00    -0.346 N 
HETATM    5  C1  UNL     1       8.419  25.534  17.958  1.00  0.00     0.198 A 
ATOM      6  H1  UNL     1       6.390  25.280  17.406  1.00  0.00     0.167 HD
HETATM    7  N6  UNL     1       8.963  26.195  18.991  1.00  0.00    -0.293 N 
ATOM      8  H6  UNL     1       9.961  26.272  19.188  1.00  0.00     0.188 HD
ENDBRANCH   1   2
BRANCH   1   9
HETATM    9  C4  UNL     1       6.856  27.425  21.747  1.00  0.00     0.044 C 
BRANCH   9  10
HETATM   10  C5  UNL     1       7.002  26.422  22.871  1.00  0.00     0.153 C 
BRANCH  10  11
HETATM   11  N3  UNL     1       5.805  26.584  23.712  1.00  0.00    -0.272 N 
HETATM   12  C6  UNL     1       5.196  27.639  24.272  1.00  0.00     0.219 A 
HETATM   13  N4  UNL     1       4.268  26.828  24.796  1.00  0.00    -0.280 N 
HETATM   14  N5  UNL     1       4.883  25.811  24.236  1.00  0.00    -0.239 N 
ATOM     15  H4  UNL     1       3.440  26.948  25.380  1.00  0.00     0.189 HD
ATOM     16  H5  UNL     1       4.711  24.805  24.217  1.00  0.00     0.208 HD
ENDBRANCH  10  11
ENDBRANCH   9  10
ENDBRANCH   1   9
TORSDOF 4
ENDMDL
