MODEL 1
REMARK VINA RESULT: -5.133007632      0.000      0.000
REMARK  5 active torsions:
REMARK  status: ('A' for Active; 'I' for Inactive)
REMARK    1  A    between atoms: C3_5  and  N2_6 
REMARK    2  A    between atoms: N2_6  and  C4_8 
REMARK    3  A    between atoms: C4_8  and  C5_9 
REMARK    4  A    between atoms: C5_9  and  C6_10 
REMARK    5  A    between atoms: C6_10  and  N3_11 
ROOT
HETATM    1  C1  UNL     1       3.014  24.829  15.031  1.00  0.00     0.046 C 
HETATM    2  C2  UNL     1       2.877  26.111  14.805  1.00  0.00     0.066 A 
HETATM    3  N1  UNL     1       3.864  27.018  14.742  1.00  0.00    -0.191 N 
ATOM      4  H1  UNL     1       4.855  26.813  14.865  1.00  0.00     0.184 HD
HETATM    5  C3  UNL     1       3.355  28.237  14.494  1.00  0.00     0.679 A 
HETATM    6  N4  UNL     1       2.020  28.125  14.394  1.00  0.00    -0.191 N 
ATOM      7  H4  UNL     1       1.366  28.885  14.209  1.00  0.00     0.184 HD
HETATM    8  C7  UNL     1       1.699  26.833  14.580  1.00  0.00     0.066 A 
HETATM    9  C8  UNL     1       0.497  26.314  14.561  1.00  0.00     0.046 C 
ENDROOT
BRANCH   5  10
HETATM   10  N2  UNL     1       4.033  29.351  14.369  1.00  0.00    -0.226 N 
ATOM     11  H2  UNL     1       3.735  30.059  13.699  1.00  0.00     0.177 HD
BRANCH  10  12
HETATM   12  C4  UNL     1       5.205  29.571  15.184  1.00  0.00     0.139 C 
BRANCH  12  13
HETATM   13  C5  UNL     1       6.189  30.364  14.325  1.00  0.00     0.047 C 
BRANCH  13  14
HETATM   14  C6  UNL     1       7.512  29.615  14.409  1.00  0.00     0.231 C 
BRANCH  14  15
HETATM   15  N3  UNL     1       7.430  28.302  13.808  1.00  0.00    -0.079 N 
ATOM     16  H33 UNL     1       6.563  28.189  13.284  1.00  0.00     0.274 HD
ATOM     17  H32 UNL     1       8.095  28.204  13.041  1.00  0.00     0.274 HD
ATOM     18  H31 UNL     1       7.546  27.559  14.498  1.00  0.00     0.274 HD
ENDBRANCH  14  15
ENDBRANCH  13  14
ENDBRANCH  12  13
ENDBRANCH  10  12
ENDBRANCH   5  10
TORSDOF 5
ENDMDL
MODEL 2
REMARK VINA RESULT: -5.117991465      0.076      1.607
REMARK  5 active torsions:
REMARK  status: ('A' for Active; 'I' for Inactive)
REMARK    1  A    between atoms: C3_5  and  N2_6 
REMARK    2  A    between atoms: N2_6  and  C4_8 
REMARK    3  A    between atoms: C4_8  and  C5_9 
REMARK    4  A    between atoms: C5_9  and  C6_10 
REMARK    5  A    between atoms: C6_10  and  N3_11 
ROOT
HETATM    1  C1  UNL     1       0.514  26.343  14.516  1.00  0.00     0.046 C 
HETATM    2  C2  UNL     1       1.728  26.830  14.557  1.00  0.00     0.066 A 
HETATM    3  N1  UNL     1       2.074  28.119  14.415  1.00  0.00    -0.191 N 
ATOM      4  H1  UNL     1       1.420  28.885  14.256  1.00  0.00     0.184 HD
HETATM    5  C3  UNL     1       3.407  28.253  14.513  1.00  0.00     0.679 A 
HETATM    6  N4  UNL     1       3.940  27.038  14.721  1.00  0.00    -0.191 N 
ATOM      7  H4  UNL     1       4.931  26.828  14.836  1.00  0.00     0.184 HD
HETATM    8  C7  UNL     1       2.934  26.147  14.752  1.00  0.00     0.066 A 
HETATM    9  C8  UNL     1       3.038  24.854  14.933  1.00  0.00     0.046 C 
ENDROOT
BRANCH   5  10
HETATM   10  N2  UNL     1       4.084  29.372  14.422  1.00  0.00    -0.226 N 
ATOM     11  H2  UNL     1       3.783  30.100  13.775  1.00  0.00     0.177 HD
BRANCH  10  12
HETATM   12  C4  UNL     1       5.255  29.569  15.243  1.00  0.00     0.139 C 
BRANCH  12  13
HETATM   13  C5  UNL     1       6.256  30.351  14.393  1.00  0.00     0.047 C 
BRANCH  13  14
HETATM   14  C6  UNL     1       7.550  29.549  14.432  1.00  0.00     0.231 C 
BRANCH  14  15
HETATM   15  N3  UNL     1       7.394  28.241  13.836  1.00  0.00    -0.079 N 
ATOM     16  H33 UNL     1       6.468  27.856  14.025  1.00  0.00     0.274 HD
ATOM     17  H32 UNL     1       7.339  28.301  12.819  1.00  0.00     0.274 HD
ATOM     18  H31 UNL     1       8.130  27.598  14.130  1.00  0.00     0.274 HD
ENDBRANCH  14  15
ENDBRANCH  13  14
ENDBRANCH  12  13
ENDBRANCH  10  12
ENDBRANCH   5  10
TORSDOF 5
ENDMDL
MODEL 3
REMARK VINA RESULT: -4.932719070      2.470      3.479
REMARK  5 active torsions:
REMARK  status: ('A' for Active; 'I' for Inactive)
REMARK    1  A    between atoms: C3_5  and  N2_6 
REMARK    2  A    between atoms: N2_6  and  C4_8 
REMARK    3  A    between atoms: C4_8  and  C5_9 
REMARK    4  A    between atoms: C5_9  and  C6_10 
REMARK    5  A    between atoms: C6_10  and  N3_11 
ROOT
HETATM    1  C1  UNL     1       3.531  24.272  15.190  1.00  0.00     0.046 C 
HETATM    2  C2  UNL     1       3.374  25.496  14.754  1.00  0.00     0.066 A 
HETATM    3  N1  UNL     1       2.210  26.152  14.623  1.00  0.00    -0.191 N 
ATOM      4  H1  UNL     1       1.294  25.767  14.853  1.00  0.00     0.184 HD
HETATM    5  C3  UNL     1       2.428  27.388  14.147  1.00  0.00     0.679 A 
HETATM    6  N4  UNL     1       3.750  27.544  13.963  1.00  0.00    -0.191 N 
ATOM      7  H4  UNL     1       4.213  28.381  13.610  1.00  0.00     0.184 HD
HETATM    8  C7  UNL     1       4.354  26.400  14.327  1.00  0.00     0.066 A 
HETATM    9  C8  UNL     1       5.639  26.148  14.296  1.00  0.00     0.046 C 
ENDROOT
BRANCH   5  10
HETATM   10  N2  UNL     1       1.516  28.297  13.899  1.00  0.00    -0.226 N 
ATOM     11  H2  UNL     1       0.598  28.019  13.552  1.00  0.00     0.177 HD
BRANCH  10  12
HETATM   12  C4  UNL     1       1.817  29.692  14.118  1.00  0.00     0.139 C 
BRANCH  12  13
HETATM   13  C5  UNL     1       1.276  30.449  12.905  1.00  0.00     0.047 C 
BRANCH  13  14
HETATM   14  C6  UNL     1       2.393  31.388  12.470  1.00  0.00     0.231 C 
BRANCH  14  15
HETATM   15  N3  UNL     1       3.674  30.720  12.423  1.00  0.00    -0.079 N 
ATOM     16  H33 UNL     1       4.381  31.236  12.947  1.00  0.00     0.274 HD
ATOM     17  H32 UNL     1       3.664  29.860  12.971  1.00  0.00     0.274 HD
ATOM     18  H31 UNL     1       3.978  30.544  11.465  1.00  0.00     0.274 HD
ENDBRANCH  14  15
ENDBRANCH  13  14
ENDBRANCH  12  13
ENDBRANCH  10  12
ENDBRANCH   5  10
TORSDOF 5
ENDMDL
MODEL 4
REMARK VINA RESULT: -4.928818917      2.462      3.389
REMARK  5 active torsions:
REMARK  status: ('A' for Active; 'I' for Inactive)
REMARK    1  A    between atoms: C3_5  and  N2_6 
REMARK    2  A    between atoms: N2_6  and  C4_8 
REMARK    3  A    between atoms: C4_8  and  C5_9 
REMARK    4  A    between atoms: C5_9  and  C6_10 
REMARK    5  A    between atoms: C6_10  and  N3_11 
ROOT
HETATM    1  C1  UNL     1       5.652  26.165  14.340  1.00  0.00     0.046 C 
HETATM    2  C2  UNL     1       4.365  26.400  14.356  1.00  0.00     0.066 A 
HETATM    3  N1  UNL     1       3.758  27.533  13.969  1.00  0.00    -0.191 N 
ATOM      4  H1  UNL     1       4.236  28.359  13.610  1.00  0.00     0.184 HD
HETATM    5  C3  UNL     1       2.428  27.420  14.123  1.00  0.00     0.679 A 
HETATM    6  N4  UNL     1       2.162  26.199  14.617  1.00  0.00    -0.191 N 
ATOM      7  H4  UNL     1       1.238  25.828  14.837  1.00  0.00     0.184 HD
HETATM    8  C7  UNL     1       3.331  25.553  14.769  1.00  0.00     0.066 A 
HETATM    9  C8  UNL     1       3.500  24.337  15.226  1.00  0.00     0.046 C 
ENDROOT
BRANCH   5  10
HETATM   10  N2  UNL     1       1.533  28.336  13.844  1.00  0.00    -0.226 N 
ATOM     11  H2  UNL     1       0.622  28.065  13.475  1.00  0.00     0.177 HD
BRANCH  10  12
HETATM   12  C4  UNL     1       1.842  29.729  14.062  1.00  0.00     0.139 C 
BRANCH  12  13
HETATM   13  C5  UNL     1       1.290  30.491  12.858  1.00  0.00     0.047 C 
BRANCH  13  14
HETATM   14  C6  UNL     1       2.397  31.441  12.423  1.00  0.00     0.231 C 
BRANCH  14  15
HETATM   15  N3  UNL     1       3.678  30.777  12.342  1.00  0.00    -0.079 N 
ATOM     16  H33 UNL     1       3.925  30.337  13.228  1.00  0.00     0.274 HD
ATOM     17  H32 UNL     1       3.626  29.941  11.758  1.00  0.00     0.274 HD
ATOM     18  H31 UNL     1       4.415  31.406  12.022  1.00  0.00     0.274 HD
ENDBRANCH  14  15
ENDBRANCH  13  14
ENDBRANCH  12  13
ENDBRANCH  10  12
ENDBRANCH   5  10
TORSDOF 5
ENDMDL
MODEL 5
REMARK VINA RESULT: -4.732883649      1.985      4.395
REMARK  5 active torsions:
REMARK  status: ('A' for Active; 'I' for Inactive)
REMARK    1  A    between atoms: C3_5  and  N2_6 
REMARK    2  A    between atoms: N2_6  and  C4_8 
REMARK    3  A    between atoms: C4_8  and  C5_9 
REMARK    4  A    between atoms: C5_9  and  C6_10 
REMARK    5  A    between atoms: C6_10  and  N3_11 
ROOT
HETATM    1  C1  UNL     1       7.020  29.787  14.724  1.00  0.00     0.046 C 
HETATM    2  C2  UNL     1       6.008  28.957  14.738  1.00  0.00     0.066 A 
HETATM    3  N1  UNL     1       4.735  29.258  15.038  1.00  0.00    -0.191 N 
ATOM      4  H1  UNL     1       4.399  30.186  15.294  1.00  0.00     0.184 HD
HETATM    5  C3  UNL     1       3.967  28.159  14.950  1.00  0.00     0.679 A 
HETATM    6  N4  UNL     1       4.747  27.126  14.589  1.00  0.00    -0.191 N 
ATOM      7  H4  UNL     1       4.442  26.165  14.444  1.00  0.00     0.184 HD
HETATM    8  C7  UNL     1       6.003  27.587  14.452  1.00  0.00     0.066 A 
HETATM    9  C8  UNL     1       7.059  26.891  14.111  1.00  0.00     0.046 C 
ENDROOT
BRANCH   5  10
HETATM   10  N2  UNL     1       2.678  28.092  15.176  1.00  0.00    -0.226 N 
ATOM     11  H2  UNL     1       2.297  27.337  15.746  1.00  0.00     0.177 HD
BRANCH  10  12
HETATM   12  C4  UNL     1       1.800  29.091  14.615  1.00  0.00     0.139 C 
BRANCH  12  13
HETATM   13  C5  UNL     1       2.010  29.055  13.102  1.00  0.00     0.047 C 
BRANCH  13  14
HETATM   14  C6  UNL     1       2.068  30.509  12.655  1.00  0.00     0.231 C 
BRANCH  14  15
HETATM   15  N3  UNL     1       3.418  30.927  12.348  1.00  0.00    -0.079 N 
ATOM     16  H33 UNL     1       3.761  30.477  11.500  1.00  0.00     0.274 HD
ATOM     17  H32 UNL     1       3.443  31.898  12.036  1.00  0.00     0.274 HD
ATOM     18  H31 UNL     1       4.052  30.774  13.133  1.00  0.00     0.274 HD
ENDBRANCH  14  15
ENDBRANCH  13  14
ENDBRANCH  12  13
ENDBRANCH  10  12
ENDBRANCH   5  10
TORSDOF 5
ENDMDL
