MODEL 1
REMARK VINA RESULT: -6.838290928      0.000      0.000
REMARK  5 active torsions:
REMARK  status: ('A' for Active; 'I' for Inactive)
REMARK    1  A    between atoms: N1_1  and  N2_4 
REMARK    2  A    between atoms: C1_6  and  C2_7 
REMARK    3  A    between atoms: N4_14  and  C7_16 
REMARK    4  A    between atoms: C7_16  and  C8_17 
REMARK    5  A    between atoms: C8_17  and  N5_18 
ROOT
HETATM    1  C2  UNL     1       3.066  28.482  14.518  1.00  0.00     0.025 A 
HETATM    2  C3  UNL     1       1.830  28.717  13.862  1.00  0.00     0.018 A 
HETATM    3  C4  UNL     1       1.647  29.816  13.074  1.00  0.00     0.018 A 
HETATM    4  C5  UNL     1       2.660  30.725  12.895  1.00  0.00     0.089 A 
HETATM    5  N3  UNL     1       3.828  30.508  13.510  1.00  0.00    -0.352 N 
ATOM      6  H3  UNL     1       4.585  31.180  13.383  1.00  0.00     0.166 HD
HETATM    7  C6  UNL     1       4.035  29.433  14.293  1.00  0.00     0.112 A 
HETATM    8  N4  UNL     1       5.200  29.359  14.814  1.00  0.00    -0.374 N 
ATOM      9  H4  UNL     1       5.391  28.556  15.412  1.00  0.00     0.161 HD
ENDROOT
BRANCH   1  10
HETATM   10  C1  UNL     1       3.188  27.317  15.324  1.00  0.00     0.121 C 
HETATM   11  N2  UNL     1       3.554  26.145  15.154  1.00  0.00    -0.318 N 
ATOM     12  H2  UNL     1       3.494  25.595  16.011  1.00  0.00     0.185 HD
BRANCH  11  13
HETATM   13  N1  UNL     1       4.022  25.398  14.091  1.00  0.00    -0.345 N 
ATOM     14  H12 UNL     1       3.642  25.745  13.211  1.00  0.00     0.176 HD
ATOM     15  H11 UNL     1       4.645  24.598  13.976  1.00  0.00     0.176 HD
ENDBRANCH  11  13
ENDBRANCH   1  10
BRANCH   8  16
HETATM   16  C7  UNL     1       6.250  30.291  14.635  1.00  0.00     0.148 C 
BRANCH  16  17
HETATM   17  C8  UNL     1       7.624  29.648  14.478  1.00  0.00     0.249 C 
BRANCH  17  18
HETATM   18  N5  UNL     1       7.458  28.378  13.799  1.00  0.00    -0.078 N 
ATOM     19  H53 UNL     1       6.846  28.444  12.986  1.00  0.00     0.274 HD
ATOM     20  H52 UNL     1       8.303  28.080  13.311  1.00  0.00     0.274 HD
ATOM     21  H51 UNL     1       7.134  27.690  14.478  1.00  0.00     0.274 HD
ENDBRANCH  17  18
ENDBRANCH  16  17
ENDBRANCH   8  16
TORSDOF 5
ENDMDL
MODEL 2
REMARK VINA RESULT: -6.682187496      1.447      1.864
REMARK  5 active torsions:
REMARK  status: ('A' for Active; 'I' for Inactive)
REMARK    1  A    between atoms: N1_1  and  N2_4 
REMARK    2  A    between atoms: C1_6  and  C2_7 
REMARK    3  A    between atoms: N4_14  and  C7_16 
REMARK    4  A    between atoms: C7_16  and  C8_17 
REMARK    5  A    between atoms: C8_17  and  N5_18 
ROOT
HETATM    1  C2  UNL     1       3.443  26.797  14.468  1.00  0.00     0.025 A 
HETATM    2  C3  UNL     1       2.037  26.604  14.492  1.00  0.00     0.018 A 
HETATM    3  C4  UNL     1       1.184  27.657  14.647  1.00  0.00     0.018 A 
HETATM    4  C5  UNL     1       1.666  28.935  14.783  1.00  0.00     0.089 A 
HETATM    5  N3  UNL     1       2.990  29.123  14.760  1.00  0.00    -0.352 N 
ATOM      6  H3  UNL     1       3.357  30.070  14.862  1.00  0.00     0.166 HD
HETATM    7  C6  UNL     1       3.855  28.102  14.609  1.00  0.00     0.112 A 
HETATM    8  N4  UNL     1       5.089  28.434  14.606  1.00  0.00    -0.374 N 
ATOM      9  H4  UNL     1       5.771  27.684  14.493  1.00  0.00     0.161 HD
ENDROOT
BRANCH   1  10
HETATM   10  C1  UNL     1       4.275  25.655  14.303  1.00  0.00     0.121 C 
HETATM   11  N2  UNL     1       4.420  24.563  14.873  1.00  0.00    -0.318 N 
ATOM     12  H2  UNL     1       5.149  23.997  14.438  1.00  0.00     0.185 HD
BRANCH  11  13
HETATM   13  N1  UNL     1       3.840  23.924  15.951  1.00  0.00    -0.345 N 
ATOM     14  H12 UNL     1       3.409  23.047  15.660  1.00  0.00     0.176 HD
ATOM     15  H11 UNL     1       3.742  24.113  16.948  1.00  0.00     0.176 HD
ENDBRANCH  11  13
ENDBRANCH   1  10
BRANCH   8  16
HETATM   16  C7  UNL     1       5.595  29.748  14.746  1.00  0.00     0.148 C 
BRANCH  16  17
HETATM   17  C8  UNL     1       7.112  29.840  14.620  1.00  0.00     0.249 C 
BRANCH  17  18
HETATM   18  N5  UNL     1       7.569  28.743  13.790  1.00  0.00    -0.078 N 
ATOM     19  H53 UNL     1       6.874  28.003  13.700  1.00  0.00     0.274 HD
ATOM     20  H52 UNL     1       7.630  28.996  12.804  1.00  0.00     0.274 HD
ATOM     21  H51 UNL     1       8.455  28.405  14.164  1.00  0.00     0.274 HD
ENDBRANCH  17  18
ENDBRANCH  16  17
ENDBRANCH   8  16
TORSDOF 5
ENDMDL
MODEL 3
REMARK VINA RESULT: -6.400675495      1.690      3.966
REMARK  5 active torsions:
REMARK  status: ('A' for Active; 'I' for Inactive)
REMARK    1  A    between atoms: N1_1  and  N2_4 
REMARK    2  A    between atoms: C1_6  and  C2_7 
REMARK    3  A    between atoms: N4_14  and  C7_16 
REMARK    4  A    between atoms: C7_16  and  C8_17 
REMARK    5  A    between atoms: C8_17  and  N5_18 
ROOT
HETATM    1  C2  UNL     1       4.098  28.975  14.494  1.00  0.00     0.025 A 
HETATM    2  C3  UNL     1       3.191  29.929  13.965  1.00  0.00     0.018 A 
HETATM    3  C4  UNL     1       2.130  29.544  13.198  1.00  0.00     0.018 A 
HETATM    4  C5  UNL     1       1.913  28.218  12.919  1.00  0.00     0.089 A 
HETATM    5  N3  UNL     1       2.765  27.313  13.415  1.00  0.00    -0.352 N 
ATOM      6  H3  UNL     1       2.610  26.326  13.212  1.00  0.00     0.166 HD
HETATM    7  C6  UNL     1       3.819  27.665  14.174  1.00  0.00     0.112 A 
HETATM    8  N4  UNL     1       4.544  26.693  14.578  1.00  0.00    -0.374 N 
ATOM      9  H4  UNL     1       5.351  26.925  15.157  1.00  0.00     0.161 HD
ENDROOT
BRANCH   1  10
HETATM   10  C1  UNL     1       5.182  29.444  15.286  1.00  0.00     0.121 C 
HETATM   11  N2  UNL     1       6.359  29.778  15.084  1.00  0.00    -0.318 N 
ATOM     12  H2  UNL     1       6.829  30.067  15.942  1.00  0.00     0.185 HD
BRANCH  11  13
HETATM   13  N1  UNL     1       7.193  29.855  13.985  1.00  0.00    -0.345 N 
ATOM     14  H12 UNL     1       6.656  30.039  13.138  1.00  0.00     0.176 HD
ATOM     15  H11 UNL     1       8.196  29.774  13.821  1.00  0.00     0.176 HD
ENDBRANCH  11  13
ENDBRANCH   1  10
BRANCH   8  16
HETATM   16  C7  UNL     1       4.328  25.323  14.295  1.00  0.00     0.148 C 
BRANCH  16  17
HETATM   17  C8  UNL     1       3.314  24.656  15.218  1.00  0.00     0.249 C 
BRANCH  17  18
HETATM   18  N5  UNL     1       4.026  23.755  16.103  1.00  0.00    -0.078 N 
ATOM     19  H53 UNL     1       3.891  23.983  17.088  1.00  0.00     0.274 HD
ATOM     20  H52 UNL     1       3.619  22.820  16.121  1.00  0.00     0.274 HD
ATOM     21  H51 UNL     1       5.009  23.750  15.833  1.00  0.00     0.274 HD
ENDBRANCH  17  18
ENDBRANCH  16  17
ENDBRANCH   8  16
TORSDOF 5
ENDMDL
MODEL 4
REMARK VINA RESULT: -6.090885994      1.146      3.232
REMARK  5 active torsions:
REMARK  status: ('A' for Active; 'I' for Inactive)
REMARK    1  A    between atoms: N1_1  and  N2_4 
REMARK    2  A    between atoms: C1_6  and  C2_7 
REMARK    3  A    between atoms: N4_14  and  C7_16 
REMARK    4  A    between atoms: C7_16  and  C8_17 
REMARK    5  A    between atoms: C8_17  and  N5_18 
ROOT
HETATM    1  C2  UNL     1       2.430  28.573  14.146  1.00  0.00     0.025 A 
HETATM    2  C3  UNL     1       1.661  27.382  14.090  1.00  0.00     0.018 A 
HETATM    3  C4  UNL     1       2.160  26.198  14.550  1.00  0.00     0.018 A 
HETATM    4  C5  UNL     1       3.423  26.130  15.082  1.00  0.00     0.089 A 
HETATM    5  N3  UNL     1       4.152  27.250  15.138  1.00  0.00    -0.352 N 
ATOM      6  H3  UNL     1       5.093  27.208  15.532  1.00  0.00     0.166 HD
HETATM    7  C6  UNL     1       3.685  28.430  14.691  1.00  0.00     0.112 A 
HETATM    8  N4  UNL     1       4.495  29.413  14.811  1.00  0.00    -0.374 N 
ATOM      9  H4  UNL     1       4.171  30.323  14.483  1.00  0.00     0.161 HD
ENDROOT
BRANCH   1  10
HETATM   10  C1  UNL     1       1.849  29.772  13.649  1.00  0.00     0.121 C 
HETATM   11  N2  UNL     1       2.212  30.707  12.920  1.00  0.00    -0.318 N 
ATOM     12  H2  UNL     1       1.478  31.405  12.797  1.00  0.00     0.185 HD
BRANCH  11  13
HETATM   13  N1  UNL     1       3.363  31.039  12.234  1.00  0.00    -0.345 N 
ATOM     14  H12 UNL     1       3.258  31.940  11.768  1.00  0.00     0.176 HD
ATOM     15  H11 UNL     1       4.275  30.608  12.083  1.00  0.00     0.176 HD
ENDBRANCH  11  13
ENDBRANCH   1  10
BRANCH   8  16
HETATM   16  C7  UNL     1       5.798  29.353  15.358  1.00  0.00     0.148 C 
BRANCH  16  17
HETATM   17  C8  UNL     1       6.886  29.853  14.413  1.00  0.00     0.249 C 
BRANCH  17  18
HETATM   18  N5  UNL     1       7.520  28.703  13.797  1.00  0.00    -0.078 N 
ATOM     19  H53 UNL     1       8.167  28.227  14.426  1.00  0.00     0.274 HD
ATOM     20  H52 UNL     1       6.873  27.928  13.654  1.00  0.00     0.274 HD
ATOM     21  H51 UNL     1       7.966  29.007  12.933  1.00  0.00     0.274 HD
ENDBRANCH  17  18
ENDBRANCH  16  17
ENDBRANCH   8  16
TORSDOF 5
ENDMDL
MODEL 5
REMARK VINA RESULT: -5.943628044      1.351      1.642
REMARK  5 active torsions:
REMARK  status: ('A' for Active; 'I' for Inactive)
REMARK    1  A    between atoms: N1_1  and  N2_4 
REMARK    2  A    between atoms: C1_6  and  C2_7 
REMARK    3  A    between atoms: N4_14  and  C7_16 
REMARK    4  A    between atoms: C7_16  and  C8_17 
REMARK    5  A    between atoms: C8_17  and  N5_18 
ROOT
HETATM    1  C2  UNL     1       3.017  28.943  14.784  1.00  0.00     0.025 A 
HETATM    2  C3  UNL     1       1.763  29.153  14.156  1.00  0.00     0.018 A 
HETATM    3  C4  UNL     1       1.618  30.072  13.159  1.00  0.00     0.018 A 
HETATM    4  C5  UNL     1       2.689  30.820  12.736  1.00  0.00     0.089 A 
HETATM    5  N3  UNL     1       3.874  30.626  13.324  1.00  0.00    -0.352 N 
ATOM      6  H3  UNL     1       4.675  31.178  13.015  1.00  0.00     0.166 HD
HETATM    7  C6  UNL     1       4.045  29.726  14.310  1.00  0.00     0.112 A 
HETATM    8  N4  UNL     1       5.233  29.650  14.775  1.00  0.00    -0.374 N 
ATOM      9  H4  UNL     1       5.397  28.977  15.523  1.00  0.00     0.161 HD
ENDROOT
BRANCH   1  10
HETATM   10  C1  UNL     1       3.098  27.968  15.817  1.00  0.00     0.121 C 
HETATM   11  N2  UNL     1       3.452  27.951  17.006  1.00  0.00    -0.318 N 
ATOM     12  H2  UNL     1       3.357  27.024  17.421  1.00  0.00     0.185 HD
BRANCH  11  13
HETATM   13  N1  UNL     1       3.943  28.875  17.907  1.00  0.00    -0.345 N 
ATOM     14  H12 UNL     1       4.507  29.578  17.431  1.00  0.00     0.176 HD
ATOM     15  H11 UNL     1       3.879  29.020  18.914  1.00  0.00     0.176 HD
ENDBRANCH  11  13
ENDBRANCH   1  10
BRANCH   8  16
HETATM   16  C7  UNL     1       6.343  30.417  14.345  1.00  0.00     0.148 C 
BRANCH  16  17
HETATM   17  C8  UNL     1       7.665  29.659  14.380  1.00  0.00     0.249 C 
BRANCH  17  18
HETATM   18  N5  UNL     1       7.447  28.333  13.835  1.00  0.00    -0.078 N 
ATOM     19  H53 UNL     1       7.112  28.355  12.872  1.00  0.00     0.274 HD
ATOM     20  H52 UNL     1       8.317  27.829  13.667  1.00  0.00     0.274 HD
ATOM     21  H51 UNL     1       6.815  27.830  14.457  1.00  0.00     0.274 HD
ENDBRANCH  17  18
ENDBRANCH  16  17
ENDBRANCH   8  16
TORSDOF 5
ENDMDL
