MODEL 1
REMARK VINA RESULT: -6.775666414      0.000      0.000
REMARK  3 active torsions:
REMARK  status: ('A' for Active; 'I' for Inactive)
REMARK    1  A    between atoms: C4_4  and  O1_5 
REMARK    2  A    between atoms: O1_5  and  C5_6 
REMARK    3  A    between atoms: C5_6  and  C6_7 
ROOT
HETATM    1  C1  UNL     1       0.382  26.455  14.698  1.00  0.00     0.019 C 
HETATM    2  C2  UNL     1       1.555  26.710  14.624  1.00  0.00    -0.055 C 
HETATM    3  C3  UNL     1       2.954  27.032  14.546  1.00  0.00     0.140 A 
HETATM    4  C4  UNL     1       3.538  28.289  14.548  1.00  0.00     0.180 A 
HETATM    5  N3  UNL     1       4.885  28.153  14.458  1.00  0.00    -0.331 N 
ATOM      6  H3  UNL     1       5.570  28.908  14.439  1.00  0.00     0.168 HD
HETATM    7  C7  UNL     1       5.149  26.830  14.399  1.00  0.00     0.185 A 
HETATM    8  N4  UNL     1       3.980  26.164  14.453  1.00  0.00    -0.337 N 
HETATM    9  C8  UNL     1       3.911  24.705  14.410  1.00  0.00     0.158 C 
ENDROOT
BRANCH   4  10
HETATM   10  O1  UNL     1       2.825  29.473  14.632  1.00  0.00    -0.326 OA
BRANCH  10  11
HETATM   11  C5  UNL     1       1.935  29.813  13.563  1.00  0.00     0.250 C 
BRANCH  11  12
HETATM   12  C6  UNL     1       2.540  30.786  12.652  1.00  0.00     0.111 C 
HETATM   13  N1  UNL     1       3.781  30.734  12.305  1.00  0.00    -0.389 N 
ATOM     14  H12 UNL     1       4.346  29.979  12.691  1.00  0.00     0.157 HD
ATOM     15  H11 UNL     1       4.202  31.412  11.671  1.00  0.00     0.157 HD
HETATM   16  N2  UNL     1       1.752  31.838  12.114  1.00  0.00    -0.086 NA
ENDBRANCH  11  12
ENDBRANCH  10  11
ENDBRANCH   4  10
TORSDOF 3
ENDMDL
MODEL 2
REMARK VINA RESULT: -6.360592893      2.232      3.837
REMARK  3 active torsions:
REMARK  status: ('A' for Active; 'I' for Inactive)
REMARK    1  A    between atoms: C4_4  and  O1_5 
REMARK    2  A    between atoms: O1_5  and  C5_6 
REMARK    3  A    between atoms: C5_6  and  C6_7 
ROOT
HETATM    1  C1  UNL     1       1.556  30.642  12.858  1.00  0.00     0.019 C 
HETATM    2  C2  UNL     1       2.124  29.770  13.463  1.00  0.00    -0.055 C 
HETATM    3  C3  UNL     1       2.817  28.743  14.193  1.00  0.00     0.140 A 
HETATM    4  C4  UNL     1       4.122  28.762  14.655  1.00  0.00     0.180 A 
HETATM    5  N3  UNL     1       4.384  27.594  15.295  1.00  0.00    -0.331 N 
ATOM      6  H3  UNL     1       5.265  27.330  15.736  1.00  0.00     0.168 HD
HETATM    7  C7  UNL     1       3.260  26.848  15.237  1.00  0.00     0.185 A 
HETATM    8  N4  UNL     1       2.322  27.548  14.571  1.00  0.00    -0.337 N 
HETATM    9  C8  UNL     1       0.981  27.022  14.331  1.00  0.00     0.158 C 
ENDROOT
BRANCH   4  10
HETATM   10  O1  UNL     1       4.992  29.825  14.474  1.00  0.00    -0.326 OA
BRANCH  10  11
HETATM   11  C5  UNL     1       6.212  29.847  15.223  1.00  0.00     0.250 C 
BRANCH  11  12
HETATM   12  C6  UNL     1       7.304  29.211  14.486  1.00  0.00     0.111 C 
HETATM   13  N1  UNL     1       8.281  29.881  13.976  1.00  0.00    -0.389 N 
ATOM     14  H12 UNL     1       8.274  30.893  14.102  1.00  0.00     0.157 HD
ATOM     15  H11 UNL     1       9.042  29.438  13.462  1.00  0.00     0.157 HD
HETATM   16  N2  UNL     1       7.314  27.801  14.311  1.00  0.00    -0.086 NA
ENDBRANCH  11  12
ENDBRANCH  10  11
ENDBRANCH   4  10
TORSDOF 3
ENDMDL
MODEL 3
REMARK VINA RESULT: -6.251715313      1.454      2.755
REMARK  3 active torsions:
REMARK  status: ('A' for Active; 'I' for Inactive)
REMARK    1  A    between atoms: C4_4  and  O1_5 
REMARK    2  A    between atoms: O1_5  and  C5_6 
REMARK    3  A    between atoms: C5_6  and  C6_7 
ROOT
HETATM    1  C1  UNL     1       6.478  30.187  14.930  1.00  0.00     0.019 C 
HETATM    2  C2  UNL     1       5.755  29.242  14.754  1.00  0.00    -0.055 C 
HETATM    3  C3  UNL     1       4.876  28.125  14.535  1.00  0.00     0.140 A 
HETATM    4  C4  UNL     1       3.493  28.132  14.472  1.00  0.00     0.180 A 
HETATM    5  N3  UNL     1       3.051  26.868  14.251  1.00  0.00    -0.331 N 
ATOM      6  H3  UNL     1       2.079  26.573  14.160  1.00  0.00     0.168 HD
HETATM    7  C7  UNL     1       4.141  26.074  14.177  1.00  0.00     0.185 A 
HETATM    8  N4  UNL     1       5.235  26.840  14.349  1.00  0.00    -0.337 N 
HETATM    9  C8  UNL     1       6.585  26.285  14.325  1.00  0.00     0.158 C 
ENDROOT
BRANCH   4  10
HETATM   10  O1  UNL     1       2.717  29.271  14.616  1.00  0.00    -0.326 OA
BRANCH  10  11
HETATM   11  C5  UNL     1       1.846  29.647  13.544  1.00  0.00     0.250 C 
BRANCH  11  12
HETATM   12  C6  UNL     1       2.454  30.673  12.696  1.00  0.00     0.111 C 
HETATM   13  N1  UNL     1       3.706  30.669  12.390  1.00  0.00    -0.389 N 
ATOM     14  H12 UNL     1       4.279  29.913  12.764  1.00  0.00     0.157 HD
ATOM     15  H11 UNL     1       4.130  31.384  11.800  1.00  0.00     0.157 HD
HETATM   16  N2  UNL     1       1.655  31.726  12.175  1.00  0.00    -0.086 NA
ENDBRANCH  11  12
ENDBRANCH  10  11
ENDBRANCH   4  10
TORSDOF 3
ENDMDL
MODEL 4
REMARK VINA RESULT: -6.095212143      2.044      3.555
REMARK  3 active torsions:
REMARK  status: ('A' for Active; 'I' for Inactive)
REMARK    1  A    between atoms: C4_4  and  O1_5 
REMARK    2  A    between atoms: O1_5  and  C5_6 
REMARK    3  A    between atoms: C5_6  and  C6_7 
ROOT
HETATM    1  C1  UNL     1       2.559  29.961  13.625  1.00  0.00     0.019 C 
HETATM    2  C2  UNL     1       2.804  28.829  13.951  1.00  0.00    -0.055 C 
HETATM    3  C3  UNL     1       3.114  27.482  14.348  1.00  0.00     0.140 A 
HETATM    4  C4  UNL     1       4.366  26.921  14.543  1.00  0.00     0.180 A 
HETATM    5  N3  UNL     1       4.218  25.624  14.913  1.00  0.00    -0.331 N 
ATOM      6  H3  UNL     1       4.968  24.965  15.122  1.00  0.00     0.168 HD
HETATM    7  C7  UNL     1       2.892  25.370  14.950  1.00  0.00     0.185 A 
HETATM    8  N4  UNL     1       2.236  26.495  14.609  1.00  0.00    -0.337 N 
HETATM    9  C8  UNL     1       0.779  26.559  14.551  1.00  0.00     0.158 C 
ENDROOT
BRANCH   4  10
HETATM   10  O1  UNL     1       5.557  27.608  14.376  1.00  0.00    -0.326 OA
BRANCH  10  11
HETATM   11  C5  UNL     1       5.768  28.806  15.132  1.00  0.00     0.250 C 
BRANCH  11  12
HETATM   12  C6  UNL     1       6.585  29.768  14.391  1.00  0.00     0.111 C 
HETATM   13  N1  UNL     1       6.074  30.663  13.616  1.00  0.00    -0.389 N 
ATOM     14  H12 UNL     1       5.059  30.685  13.529  1.00  0.00     0.157 HD
ATOM     15  H11 UNL     1       6.644  31.333  13.100  1.00  0.00     0.157 HD
HETATM   16  N2  UNL     1       8.000  29.738  14.514  1.00  0.00    -0.086 NA
ENDBRANCH  11  12
ENDBRANCH  10  11
ENDBRANCH   4  10
TORSDOF 3
ENDMDL
MODEL 5
REMARK VINA RESULT: -6.043020118      2.182      3.834
REMARK  3 active torsions:
REMARK  status: ('A' for Active; 'I' for Inactive)
REMARK    1  A    between atoms: C4_4  and  O1_5 
REMARK    2  A    between atoms: O1_5  and  C5_6 
REMARK    3  A    between atoms: C5_6  and  C6_7 
ROOT
HETATM    1  C1  UNL     1       3.804  24.575  14.927  1.00  0.00     0.019 C 
HETATM    2  C2  UNL     1       3.392  25.705  14.883  1.00  0.00    -0.055 C 
HETATM    3  C3  UNL     1       2.918  27.061  14.824  1.00  0.00     0.140 A 
HETATM    4  C4  UNL     1       3.659  28.226  14.939  1.00  0.00     0.180 A 
HETATM    5  N3  UNL     1       2.830  29.294  14.828  1.00  0.00    -0.331 N 
ATOM      6  H3  UNL     1       3.098  30.277  14.874  1.00  0.00     0.168 HD
HETATM    7  C7  UNL     1       1.582  28.810  14.646  1.00  0.00     0.185 A 
HETATM    8  N4  UNL     1       1.646  27.465  14.645  1.00  0.00    -0.337 N 
HETATM    9  C8  UNL     1       0.461  26.629  14.470  1.00  0.00     0.158 C 
ENDROOT
BRANCH   4  10
HETATM   10  O1  UNL     1       5.030  28.254  15.136  1.00  0.00    -0.326 OA
BRANCH  10  11
HETATM   11  C5  UNL     1       5.736  29.470  14.864  1.00  0.00     0.250 C 
BRANCH  11  12
HETATM   12  C6  UNL     1       7.141  29.213  14.543  1.00  0.00     0.111 C 
HETATM   13  N1  UNL     1       7.502  28.367  13.640  1.00  0.00    -0.389 N 
ATOM     14  H12 UNL     1       6.767  27.867  13.141  1.00  0.00     0.157 HD
ATOM     15  H11 UNL     1       8.481  28.187  13.417  1.00  0.00     0.157 HD
HETATM   16  N2  UNL     1       8.166  29.909  15.239  1.00  0.00    -0.086 NA
ENDBRANCH  11  12
ENDBRANCH  10  11
ENDBRANCH   4  10
TORSDOF 3
ENDMDL
