MODEL 1
REMARK VINA RESULT: -5.959589884      0.000      0.000
REMARK  6 active torsions:
REMARK  status: ('A' for Active; 'I' for Inactive)
REMARK    1  A    between atoms: S1_2  and  C2_3 
REMARK    2  A    between atoms: C3_4  and  C4_5 
REMARK       I    between atoms: C4_5  and  N1_7 
REMARK    3  A    between atoms: N1_7  and  N2_8 
REMARK    4  A    between atoms: N2_8  and  C5_10 
REMARK    5  A    between atoms: C8_20  and  S2_21 
REMARK    6  A    between atoms: S2_21  and  N7_22 
ROOT
HETATM    1  C2  UNL     1      37.263  -3.030  12.765  1.00  0.00     0.059 A 
HETATM    2  C3  UNL     1      36.606  -2.459  11.743  1.00  0.00     0.136 A 
HETATM    3  N6  UNL     1      37.277  -1.362  11.288  1.00  0.00    -0.352 N 
ATOM      4  H6  UNL     1      36.985  -0.766  10.514  1.00  0.00     0.166 HD
HETATM    5  C6  UNL     1      38.384  -1.197  12.027  1.00  0.00     0.030 A 
HETATM    6  C7  UNL     1      39.307  -0.024  11.904  1.00  0.00     0.070 C 
HETATM    7  C8  UNL     1      38.436  -2.205  12.951  1.00  0.00     0.120 A 
ENDROOT
BRANCH   2   8
HETATM    8  C4  UNL     1      35.242  -2.801  11.175  1.00  0.00     0.363 C 
HETATM    9  O1  UNL     1      34.582  -1.772  10.941  1.00  0.00    -0.247 OA
HETATM   10  N1  UNL     1      34.913  -4.142  11.028  1.00  0.00    -0.281 NA
BRANCH  10  11
HETATM   11  N2  UNL     1      34.583  -5.407  10.882  1.00  0.00    -0.226 N 
ATOM     12  H2  UNL     1      34.692  -5.797   9.946  1.00  0.00     0.199 HD
BRANCH  11  13
HETATM   13  C5  UNL     1      34.114  -6.252  11.835  1.00  0.00     0.343 A 
HETATM   14  N3  UNL     1      32.695  -6.532  11.648  1.00  0.00    -0.284 N 
HETATM   15  N4  UNL     1      33.033  -7.746  11.687  1.00  0.00    -0.244 N 
ATOM     16  H3  UNL     1      31.833  -5.998  11.538  1.00  0.00     0.185 HD
HETATM   17  N5  UNL     1      34.453  -7.622  11.867  1.00  0.00    -0.075 NA
ATOM     18  H4  UNL     1      32.457  -8.585  11.611  1.00  0.00     0.203 HD
ENDBRANCH  11  13
ENDBRANCH  10  11
ENDBRANCH   2   8
BRANCH   1  19
HETATM   19  S1  UNL     1      36.906  -4.440  13.736  1.00  0.00    -0.130 SA
HETATM   20  C1  UNL     1      37.567  -6.000  13.243  1.00  0.00     0.095 C 
ENDBRANCH   1  19
BRANCH   7  21
HETATM   21  S2  UNL     1      39.740  -2.477  14.007  1.00  0.00     0.260 S 
HETATM   22  O2  UNL     1      40.328  -3.832  13.738  1.00  0.00    -0.201 OA
HETATM   23  O3  UNL     1      40.816  -1.461  13.921  1.00  0.00    -0.201 OA
BRANCH  21  24
HETATM   24  N7  UNL     1      39.193  -2.516  15.670  1.00  0.00    -0.324 N 
ATOM     25  H72 UNL     1      38.443  -1.929  16.034  1.00  0.00     0.169 HD
ATOM     26  H71 UNL     1      39.726  -3.198  16.209  1.00  0.00     0.169 HD
ENDBRANCH  21  24
ENDBRANCH   7  21
TORSDOF 6
ENDMDL
MODEL 2
REMARK VINA RESULT: -5.943259796      2.346      3.423
REMARK  6 active torsions:
REMARK  status: ('A' for Active; 'I' for Inactive)
REMARK    1  A    between atoms: S1_2  and  C2_3 
REMARK    2  A    between atoms: C3_4  and  C4_5 
REMARK       I    between atoms: C4_5  and  N1_7 
REMARK    3  A    between atoms: N1_7  and  N2_8 
REMARK    4  A    between atoms: N2_8  and  C5_10 
REMARK    5  A    between atoms: C8_20  and  S2_21 
REMARK    6  A    between atoms: S2_21  and  N7_22 
ROOT
HETATM    1  C2  UNL     1      36.067  -5.032  12.584  1.00  0.00     0.059 A 
HETATM    2  C3  UNL     1      34.863  -5.162  12.004  1.00  0.00     0.136 A 
HETATM    3  N6  UNL     1      34.437  -3.969  11.500  1.00  0.00    -0.352 N 
ATOM      4  H6  UNL     1      33.558  -3.812  11.006  1.00  0.00     0.166 HD
HETATM    5  C6  UNL     1      35.362  -3.034  11.763  1.00  0.00     0.030 A 
HETATM    6  C7  UNL     1      35.186  -1.576  11.474  1.00  0.00     0.070 C 
HETATM    7  C8  UNL     1      36.400  -3.635  12.424  1.00  0.00     0.120 A 
ENDROOT
BRANCH   2   8
HETATM    8  C4  UNL     1      33.946  -6.370  11.968  1.00  0.00     0.363 C 
HETATM    9  O1  UNL     1      33.006  -6.244  12.773  1.00  0.00    -0.247 OA
HETATM   10  N1  UNL     1      34.274  -7.414  11.114  1.00  0.00    -0.281 NA
BRANCH  10  11
HETATM   11  N2  UNL     1      34.570  -8.415  10.312  1.00  0.00    -0.226 N 
ATOM     12  H2  UNL     1      35.179  -8.197   9.524  1.00  0.00     0.199 HD
BRANCH  11  13
HETATM   13  C5  UNL     1      34.158  -9.704  10.415  1.00  0.00     0.343 A 
HETATM   14  N3  UNL     1      32.727  -9.786  10.688  1.00  0.00    -0.284 N 
HETATM   15  N4  UNL     1      32.683 -10.553   9.688  1.00  0.00    -0.244 N 
ATOM     16  H3  UNL     1      32.070  -9.403  11.368  1.00  0.00     0.185 HD
HETATM   17  N5  UNL     1      34.066 -10.561   9.298  1.00  0.00    -0.075 NA
ATOM     18  H4  UNL     1      31.886 -11.034   9.272  1.00  0.00     0.203 HD
ENDBRANCH  11  13
ENDBRANCH  10  11
ENDBRANCH   2   8
BRANCH   1  19
HETATM   19  S1  UNL     1      37.104  -6.190  13.383  1.00  0.00    -0.130 SA
HETATM   20  C1  UNL     1      37.640  -7.612  12.486  1.00  0.00     0.095 C 
ENDBRANCH   1  19
BRANCH   7  21
HETATM   21  S2  UNL     1      37.858  -2.862  12.829  1.00  0.00     0.260 S 
HETATM   22  O2  UNL     1      37.607  -1.855  13.915  1.00  0.00    -0.201 OA
HETATM   23  O3  UNL     1      38.935  -3.782  13.268  1.00  0.00    -0.201 OA
BRANCH  21  24
HETATM   24  N7  UNL     1      38.476  -1.951  11.468  1.00  0.00    -0.324 N 
ATOM     25  H72 UNL     1      37.883  -1.486  10.780  1.00  0.00     0.169 HD
ATOM     26  H71 UNL     1      39.496  -1.954  11.465  1.00  0.00     0.169 HD
ENDBRANCH  21  24
ENDBRANCH   7  21
TORSDOF 6
ENDMDL
MODEL 3
REMARK VINA RESULT: -5.926604245      2.496      3.650
REMARK  6 active torsions:
REMARK  status: ('A' for Active; 'I' for Inactive)
REMARK    1  A    between atoms: S1_2  and  C2_3 
REMARK    2  A    between atoms: C3_4  and  C4_5 
REMARK       I    between atoms: C4_5  and  N1_7 
REMARK    3  A    between atoms: N1_7  and  N2_8 
REMARK    4  A    between atoms: N2_8  and  C5_10 
REMARK    5  A    between atoms: C8_20  and  S2_21 
REMARK    6  A    between atoms: S2_21  and  N7_22 
ROOT
HETATM    1  C2  UNL     1      37.142  -2.229  13.209  1.00  0.00     0.059 A 
HETATM    2  C3  UNL     1      37.303  -3.068  14.245  1.00  0.00     0.136 A 
HETATM    3  N6  UNL     1      37.657  -2.386  15.371  1.00  0.00    -0.352 N 
ATOM      4  H6  UNL     1      37.826  -2.800  16.288  1.00  0.00     0.166 HD
HETATM    5  C6  UNL     1      37.745  -1.081  15.075  1.00  0.00     0.030 A 
HETATM    6  C7  UNL     1      38.233  -0.036  16.030  1.00  0.00     0.070 C 
HETATM    7  C8  UNL     1      37.428  -0.920  13.753  1.00  0.00     0.120 A 
ENDROOT
BRANCH   2   8
HETATM    8  C4  UNL     1      37.264  -4.584  14.260  1.00  0.00     0.363 C 
HETATM    9  O1  UNL     1      38.133  -5.049  15.020  1.00  0.00    -0.247 OA
HETATM   10  N1  UNL     1      36.338  -5.222  13.444  1.00  0.00    -0.281 NA
BRANCH  10  11
HETATM   11  N2  UNL     1      35.469  -5.844  12.677  1.00  0.00    -0.226 N 
ATOM     12  H2  UNL     1      35.848  -6.312  11.854  1.00  0.00     0.199 HD
BRANCH  11  13
HETATM   13  C5  UNL     1      34.127  -5.934  12.856  1.00  0.00     0.343 A 
HETATM   14  N3  UNL     1      33.412  -5.826  11.589  1.00  0.00    -0.284 N 
HETATM   15  N4  UNL     1      32.855  -6.905  11.926  1.00  0.00    -0.244 N 
ATOM     16  H3  UNL     1      33.377  -5.180  10.800  1.00  0.00     0.185 HD
HETATM   17  N5  UNL     1      33.486  -7.145  13.194  1.00  0.00    -0.075 NA
ATOM     18  H4  UNL     1      32.151  -7.456  11.434  1.00  0.00     0.203 HD
ENDBRANCH  11  13
ENDBRANCH  10  11
ENDBRANCH   2   8
BRANCH   1  19
HETATM   19  S1  UNL     1      36.695  -2.509  11.543  1.00  0.00    -0.130 SA
HETATM   20  C1  UNL     1      34.984  -2.517  11.112  1.00  0.00     0.095 C 
ENDBRANCH   1  19
BRANCH   7  21
HETATM   21  S2  UNL     1      37.269   0.584  12.977  1.00  0.00     0.260 S 
HETATM   22  O2  UNL     1      38.594   1.290  12.979  1.00  0.00    -0.201 OA
HETATM   23  O3  UNL     1      36.770   0.501  11.583  1.00  0.00    -0.201 OA
BRANCH  21  24
HETATM   24  N7  UNL     1      36.173   1.624  13.860  1.00  0.00    -0.324 N 
ATOM     25  H72 UNL     1      35.947   1.503  14.848  1.00  0.00     0.169 HD
ATOM     26  H71 UNL     1      35.801   2.354  13.254  1.00  0.00     0.169 HD
ENDBRANCH  21  24
ENDBRANCH   7  21
TORSDOF 6
ENDMDL
MODEL 4
REMARK VINA RESULT: -5.908142535      1.467      1.516
REMARK  6 active torsions:
REMARK  status: ('A' for Active; 'I' for Inactive)
REMARK    1  A    between atoms: S1_2  and  C2_3 
REMARK    2  A    between atoms: C3_4  and  C4_5 
REMARK       I    between atoms: C4_5  and  N1_7 
REMARK    3  A    between atoms: N1_7  and  N2_8 
REMARK    4  A    between atoms: N2_8  and  C5_10 
REMARK    5  A    between atoms: C8_20  and  S2_21 
REMARK    6  A    between atoms: S2_21  and  N7_22 
ROOT
HETATM    1  C2  UNL     1      36.485  -3.382  13.484  1.00  0.00     0.059 A 
HETATM    2  C3  UNL     1      36.012  -2.622  12.483  1.00  0.00     0.136 A 
HETATM    3  N6  UNL     1      36.435  -1.332  12.612  1.00  0.00    -0.352 N 
ATOM      4  H6  UNL     1      36.217  -0.568  11.973  1.00  0.00     0.166 HD
HETATM    5  C6  UNL     1      37.185  -1.233  13.720  1.00  0.00     0.030 A 
HETATM    6  C7  UNL     1      37.720   0.057  14.257  1.00  0.00     0.070 C 
HETATM    7  C8  UNL     1      37.261  -2.473  14.297  1.00  0.00     0.120 A 
ENDROOT
BRANCH   2   8
HETATM    8  C4  UNL     1      35.031  -2.990  11.386  1.00  0.00     0.363 C 
HETATM    9  O1  UNL     1      34.491  -1.976  10.908  1.00  0.00    -0.247 OA
HETATM   10  N1  UNL     1      34.848  -4.336  11.098  1.00  0.00    -0.281 NA
BRANCH  10  11
HETATM   11  N2  UNL     1      34.659  -5.606  10.812  1.00  0.00    -0.226 N 
ATOM     12  H2  UNL     1      34.889  -5.893   9.861  1.00  0.00     0.199 HD
BRANCH  11  13
HETATM   13  C5  UNL     1      34.194  -6.578  11.637  1.00  0.00     0.343 A 
HETATM   14  N3  UNL     1      32.737  -6.652  11.605  1.00  0.00    -0.284 N 
HETATM   15  N4  UNL     1      32.905  -7.876  11.355  1.00  0.00    -0.244 N 
ATOM     16  H3  UNL     1      31.951  -6.013  11.728  1.00  0.00     0.185 HD
HETATM   17  N5  UNL     1      34.340  -7.952  11.349  1.00  0.00    -0.075 NA
ATOM     18  H4  UNL     1      32.214  -8.609  11.199  1.00  0.00     0.203 HD
ENDBRANCH  11  13
ENDBRANCH  10  11
ENDBRANCH   2   8
BRANCH   1  19
HETATM   19  S1  UNL     1      36.291  -5.081  13.846  1.00  0.00    -0.130 SA
HETATM   20  C1  UNL     1      37.447  -6.231  13.170  1.00  0.00     0.095 C 
ENDBRANCH   1  19
BRANCH   7  21
HETATM   21  S2  UNL     1      38.226  -2.850  15.644  1.00  0.00     0.260 S 
HETATM   22  O2  UNL     1      38.268  -4.340  15.829  1.00  0.00    -0.201 OA
HETATM   23  O3  UNL     1      39.616  -2.338  15.561  1.00  0.00    -0.201 OA
BRANCH  21  24
HETATM   24  N7  UNL     1      37.522  -2.207  17.111  1.00  0.00    -0.324 N 
ATOM     25  H72 UNL     1      37.095  -2.783  17.836  1.00  0.00     0.169 HD
ATOM     26  H71 UNL     1      37.600  -1.190  17.133  1.00  0.00     0.169 HD
ENDBRANCH  21  24
ENDBRANCH   7  21
TORSDOF 6
ENDMDL
MODEL 5
REMARK VINA RESULT: -5.854553643      2.356      3.588
REMARK  6 active torsions:
REMARK  status: ('A' for Active; 'I' for Inactive)
REMARK    1  A    between atoms: S1_2  and  C2_3 
REMARK    2  A    between atoms: C3_4  and  C4_5 
REMARK       I    between atoms: C4_5  and  N1_7 
REMARK    3  A    between atoms: N1_7  and  N2_8 
REMARK    4  A    between atoms: N2_8  and  C5_10 
REMARK    5  A    between atoms: C8_20  and  S2_21 
REMARK    6  A    between atoms: S2_21  and  N7_22 
ROOT
HETATM    1  C2  UNL     1      37.358  -2.317  13.891  1.00  0.00     0.059 A 
HETATM    2  C3  UNL     1      36.814  -3.487  13.521  1.00  0.00     0.136 A 
HETATM    3  N6  UNL     1      35.966  -3.316  12.466  1.00  0.00    -0.352 N 
ATOM      4  H6  UNL     1      35.440  -4.055  12.000  1.00  0.00     0.166 HD
HETATM    5  C6  UNL     1      35.938  -2.015  12.142  1.00  0.00     0.030 A 
HETATM    6  C7  UNL     1      35.023  -1.427  11.114  1.00  0.00     0.070 C 
HETATM    7  C8  UNL     1      36.788  -1.347  12.983  1.00  0.00     0.120 A 
ENDROOT
BRANCH   2   8
HETATM    8  C4  UNL     1      36.932  -4.847  14.183  1.00  0.00     0.363 C 
HETATM    9  O1  UNL     1      37.794  -4.835  15.081  1.00  0.00    -0.247 OA
HETATM   10  N1  UNL     1      36.134  -5.878  13.706  1.00  0.00    -0.281 NA
BRANCH  10  11
HETATM   11  N2  UNL     1      35.386  -6.867  13.267  1.00  0.00    -0.226 N 
ATOM     12  H2  UNL     1      35.377  -7.713  13.837  1.00  0.00     0.199 HD
BRANCH  11  13
HETATM   13  C5  UNL     1      34.627  -6.892  12.142  1.00  0.00     0.343 A 
HETATM   14  N3  UNL     1      33.284  -7.390  12.416  1.00  0.00    -0.284 N 
HETATM   15  N4  UNL     1      32.887  -6.333  11.857  1.00  0.00    -0.244 N 
ATOM     16  H3  UNL     1      32.863  -8.210  12.854  1.00  0.00     0.185 HD
HETATM   17  N5  UNL     1      34.143  -5.717  11.528  1.00  0.00    -0.075 NA
ATOM     18  H4  UNL     1      31.937  -6.004  11.685  1.00  0.00     0.203 HD
ENDBRANCH  11  13
ENDBRANCH  10  11
ENDBRANCH   2   8
BRANCH   1  19
HETATM   19  S1  UNL     1      38.500  -1.911  15.150  1.00  0.00    -0.130 SA
HETATM   20  C1  UNL     1      37.887  -1.504  16.754  1.00  0.00     0.095 C 
ENDBRANCH   1  19
BRANCH   7  21
HETATM   21  S2  UNL     1      37.178   0.302  12.846  1.00  0.00     0.260 S 
HETATM   22  O2  UNL     1      38.644   0.447  12.558  1.00  0.00    -0.201 OA
HETATM   23  O3  UNL     1      36.410   1.026  11.804  1.00  0.00    -0.201 OA
BRANCH  21  24
HETATM   24  N7  UNL     1      36.905   1.131  14.363  1.00  0.00    -0.324 N 
ATOM     25  H72 UNL     1      36.397   2.012  14.445  1.00  0.00     0.169 HD
ATOM     26  H71 UNL     1      37.321   0.614  15.137  1.00  0.00     0.169 HD
ENDBRANCH  21  24
ENDBRANCH   7  21
TORSDOF 6
ENDMDL
