MODEL 1
REMARK VINA RESULT: -6.757578932      0.000      0.000
REMARK  6 active torsions:
REMARK  status: ('A' for Active; 'I' for Inactive)
REMARK    1  A    between atoms: O1_2  and  C2_3 
REMARK    2  A    between atoms: C6_10  and  N2_11 
REMARK    3  A    between atoms: C10_17  and  N4_18 
REMARK       I    between atoms: N4_18  and  C11_20 
REMARK       I    between atoms: C11_20  and  N5_21 
REMARK       I    between atoms: C11_20  and  N6_25 
REMARK    4  A    between atoms: C12_31  and  N8_32 
REMARK    5  A    between atoms: N8_32  and  N9_34 
REMARK    6  A    between atoms: N9_34  and  O3_36 
ROOT
HETATM    1  C2  UNL     1      36.026  -5.873  12.732  1.00  0.00     0.114 C 
HETATM    2  C3  UNL     1      37.043  -5.592  13.620  1.00  0.00     0.060 C 
HETATM    3  C4  UNL     1      37.367  -4.368  14.178  1.00  0.00     0.066 A 
HETATM    4  C5  UNL     1      38.364  -4.480  15.115  1.00  0.00     0.272 A 
HETATM    5  O2  UNL     1      38.859  -5.623  15.363  1.00  0.00    -0.267 OA
HETATM    6  N1  UNL     1      38.768  -3.376  15.725  1.00  0.00    -0.155 N 
ATOM      7  H1  UNL     1      39.509  -3.451  16.422  1.00  0.00     0.187 HD
HETATM    8  C6  UNL     1      38.244  -2.141  15.468  1.00  0.00     0.683 A 
HETATM    9  N3  UNL     1      37.273  -2.067  14.548  1.00  0.00    -0.187 N 
ATOM     10  H3  UNL     1      36.874  -1.150  14.347  1.00  0.00     0.184 HD
HETATM   11  C9  UNL     1      36.789  -3.132  13.869  1.00  0.00     0.108 A 
HETATM   12  C10 UNL     1      35.795  -2.821  12.972  1.00  0.00     0.134 C 
HETATM   13  N7  UNL     1      35.066  -3.659  12.229  1.00  0.00    -0.324 N 
ATOM     14  H7  UNL     1      34.299  -3.227  11.713  1.00  0.00     0.169 HD
HETATM   15  C12 UNL     1      35.195  -5.008  12.058  1.00  0.00     0.157 C 
ENDROOT
BRANCH  12  16
HETATM   16  N4  UNL     1      35.540  -1.599  12.838  1.00  0.00    -0.325 N 
HETATM   17  C11 UNL     1      36.298  -0.575  12.213  1.00  0.00     0.481 C 
HETATM   18  N5  UNL     1      35.905   0.764  12.636  1.00  0.00    -0.033 N 
HETATM   19  N6  UNL     1      36.302  -0.593  10.785  1.00  0.00    -0.033 N 
ATOM     20  H53 UNL     1      34.907   0.912  12.494  1.00  0.00     0.278 HD
ATOM     21  H52 UNL     1      35.945   0.851  13.651  1.00  0.00     0.278 HD
ATOM     22  H51 UNL     1      36.450   1.500  12.186  1.00  0.00     0.278 HD
ATOM     23  H63 UNL     1      36.608  -1.506  10.449  1.00  0.00     0.278 HD
ATOM     24  H62 UNL     1      35.345  -0.581  10.434  1.00  0.00     0.278 HD
ATOM     25  H61 UNL     1      36.847   0.143  10.335  1.00  0.00     0.278 HD
ATOM     26  H4  UNL     1      34.653  -1.295  13.239  1.00  0.00     0.165 HD
ENDBRANCH  12  16
BRANCH  15  27
HETATM   27  N8  UNL     1      34.454  -5.556  11.156  1.00  0.00    -0.264 N 
ATOM     28  H8  UNL     1      34.707  -5.399  10.181  1.00  0.00     0.190 HD
BRANCH  27  29
HETATM   29  N9  UNL     1      33.348  -6.337  11.407  1.00  0.00    -0.208 N 
ATOM     30  H9  UNL     1      32.966  -6.895  10.643  1.00  0.00     0.215 HD
BRANCH  29  31
HETATM   31  O3  UNL     1      32.784  -6.398  12.530  1.00  0.00    -0.274 OA
ATOM     32  H3  UNL     1      33.219  -6.705  13.317  1.00  0.00     0.246 HD
ENDBRANCH  29  31
ENDBRANCH  27  29
ENDBRANCH  15  27
BRANCH   8  33
HETATM   33  N2  UNL     1      38.720  -0.994  16.154  1.00  0.00    -0.226 N 
HETATM   34  C7  UNL     1      39.788  -1.080  17.110  1.00  0.00     0.168 C 
HETATM   35  C8  UNL     1      38.127   0.297  15.901  1.00  0.00     0.168 C 
ENDBRANCH   8  33
BRANCH   1  36
HETATM   36  O1  UNL     1      35.837  -7.221  12.505  1.00  0.00    -0.352 OA
HETATM   37  C1  UNL     1      35.735  -8.173  13.548  1.00  0.00     0.210 C 
ENDBRANCH   1  36
TORSDOF 6
ENDMDL
MODEL 2
REMARK VINA RESULT: -6.648986007      6.047      9.017
REMARK  6 active torsions:
REMARK  status: ('A' for Active; 'I' for Inactive)
REMARK    1  A    between atoms: O1_2  and  C2_3 
REMARK    2  A    between atoms: C6_10  and  N2_11 
REMARK    3  A    between atoms: C10_17  and  N4_18 
REMARK       I    between atoms: N4_18  and  C11_20 
REMARK       I    between atoms: C11_20  and  N5_21 
REMARK       I    between atoms: C11_20  and  N6_25 
REMARK    4  A    between atoms: C12_31  and  N8_32 
REMARK    5  A    between atoms: N8_32  and  N9_34 
REMARK    6  A    between atoms: N9_34  and  O3_36 
ROOT
HETATM    1  C2  UNL     1      37.762   3.021  19.542  1.00  0.00     0.114 C 
HETATM    2  C3  UNL     1      38.440   3.555  18.466  1.00  0.00     0.060 C 
HETATM    3  C4  UNL     1      38.450   3.100  17.160  1.00  0.00     0.066 A 
HETATM    4  C5  UNL     1      39.138   3.948  16.327  1.00  0.00     0.272 A 
HETATM    5  O2  UNL     1      39.664   5.000  16.808  1.00  0.00    -0.267 OA
HETATM    6  N1  UNL     1      39.222   3.624  15.046  1.00  0.00    -0.155 N 
ATOM      7  H1  UNL     1      39.733   4.249  14.422  1.00  0.00     0.187 HD
HETATM    8  C6  UNL     1      38.661   2.497  14.517  1.00  0.00     0.683 A 
HETATM    9  N3  UNL     1      37.996   1.691  15.357  1.00  0.00    -0.187 N 
ATOM     10  H3  UNL     1      37.573   0.846  14.974  1.00  0.00     0.184 HD
HETATM   11  C9  UNL     1      37.852   1.930  16.681  1.00  0.00     0.108 A 
HETATM   12  C10 UNL     1      37.132   0.968  17.348  1.00  0.00     0.134 C 
HETATM   13  N7  UNL     1      36.748   0.968  18.628  1.00  0.00    -0.324 N 
ATOM     14  H7  UNL     1      36.121   0.208  18.893  1.00  0.00     0.169 HD
HETATM   15  C12 UNL     1      37.071   1.834  19.634  1.00  0.00     0.157 C 
ENDROOT
BRANCH  12  16
HETATM   16  N4  UNL     1      36.793  -0.033  16.669  1.00  0.00    -0.325 N 
HETATM   17  C11 UNL     1      37.471  -1.261  16.458  1.00  0.00     0.481 C 
HETATM   18  N5  UNL     1      36.993  -1.981  15.283  1.00  0.00    -0.033 N 
HETATM   19  N6  UNL     1      37.459  -2.172  17.557  1.00  0.00    -0.033 N 
ATOM     20  H53 UNL     1      35.985  -2.126  15.330  1.00  0.00     0.278 HD
ATOM     21  H52 UNL     1      37.039  -1.393  14.452  1.00  0.00     0.278 HD
ATOM     22  H51 UNL     1      37.481  -2.864  15.131  1.00  0.00     0.278 HD
ATOM     23  H63 UNL     1      37.822  -1.714  18.393  1.00  0.00     0.278 HD
ATOM     24  H62 UNL     1      36.499  -2.351  17.851  1.00  0.00     0.278 HD
ATOM     25  H61 UNL     1      37.946  -3.055  17.405  1.00  0.00     0.278 HD
ATOM     26  H4  UNL     1      35.892   0.049  16.198  1.00  0.00     0.165 HD
ENDBRANCH  12  16
BRANCH  15  27
HETATM   27  N8  UNL     1      36.689   1.517  20.824  1.00  0.00    -0.264 N 
ATOM     28  H8  UNL     1      37.123   0.700  21.254  1.00  0.00     0.190 HD
BRANCH  27  29
HETATM   29  N9  UNL     1      35.742   2.193  21.559  1.00  0.00    -0.208 N 
ATOM     30  H9  UNL     1      34.775   2.176  21.235  1.00  0.00     0.215 HD
BRANCH  29  31
HETATM   31  O3  UNL     1      36.008   2.832  22.609  1.00  0.00    -0.274 OA
ATOM     32  H3  UNL     1      36.009   3.781  22.658  1.00  0.00     0.246 HD
ENDBRANCH  29  31
ENDBRANCH  27  29
ENDBRANCH  15  27
BRANCH   8  33
HETATM   33  N2  UNL     1      38.786   2.204  13.135  1.00  0.00    -0.226 N 
HETATM   34  C7  UNL     1      39.571   3.030  12.261  1.00  0.00     0.168 C 
HETATM   35  C8  UNL     1      38.114   1.057  12.575  1.00  0.00     0.168 C 
ENDBRANCH   8  33
BRANCH   1  36
HETATM   36  O1  UNL     1      37.798   3.809  20.675  1.00  0.00    -0.352 OA
HETATM   37  C1  UNL     1      38.469   5.053  20.728  1.00  0.00     0.210 C 
ENDBRANCH   1  36
TORSDOF 6
ENDMDL
MODEL 3
REMARK VINA RESULT: -6.490628375      1.700      1.963
REMARK  6 active torsions:
REMARK  status: ('A' for Active; 'I' for Inactive)
REMARK    1  A    between atoms: O1_2  and  C2_3 
REMARK    2  A    between atoms: C6_10  and  N2_11 
REMARK    3  A    between atoms: C10_17  and  N4_18 
REMARK       I    between atoms: N4_18  and  C11_20 
REMARK       I    between atoms: C11_20  and  N5_21 
REMARK       I    between atoms: C11_20  and  N6_25 
REMARK    4  A    between atoms: C12_31  and  N8_32 
REMARK    5  A    between atoms: N8_32  and  N9_34 
REMARK    6  A    between atoms: N9_34  and  O3_36 
ROOT
HETATM    1  C2  UNL     1      35.611  -6.392  12.739  1.00  0.00     0.114 C 
HETATM    2  C3  UNL     1      36.836  -6.313  13.368  1.00  0.00     0.060 C 
HETATM    3  C4  UNL     1      37.678  -5.218  13.450  1.00  0.00     0.066 A 
HETATM    4  C5  UNL     1      38.760  -5.463  14.258  1.00  0.00     0.272 A 
HETATM    5  O2  UNL     1      38.875  -6.598  14.816  1.00  0.00    -0.267 OA
HETATM    6  N1  UNL     1      39.645  -4.491  14.419  1.00  0.00    -0.155 N 
ATOM      7  H1  UNL     1      40.453  -4.666  15.018  1.00  0.00     0.187 HD
HETATM    8  C6  UNL     1      39.533  -3.266  13.825  1.00  0.00     0.683 A 
HETATM    9  N3  UNL     1      38.465  -3.060  13.043  1.00  0.00    -0.187 N 
ATOM     10  H3  UNL     1      38.370  -2.150  12.593  1.00  0.00     0.184 HD
HETATM   11  C9  UNL     1      37.505  -3.985  12.812  1.00  0.00     0.108 A 
HETATM   12  C10 UNL     1      36.502  -3.555  11.976  1.00  0.00     0.134 C 
HETATM   13  N7  UNL     1      35.382  -4.199  11.635  1.00  0.00    -0.324 N 
ATOM     14  H7  UNL     1      34.715  -3.653  11.091  1.00  0.00     0.169 HD
HETATM   15  C12 UNL     1      34.998  -5.482  11.909  1.00  0.00     0.157 C 
ENDROOT
BRANCH  12  16
HETATM   16  N4  UNL     1      36.660  -2.416  11.471  1.00  0.00    -0.325 N 
HETATM   17  C11 UNL     1      35.746  -1.337  11.358  1.00  0.00     0.481 C 
HETATM   18  N5  UNL     1      36.133  -0.366  10.341  1.00  0.00    -0.033 N 
HETATM   19  N6  UNL     1      35.485  -0.618  12.564  1.00  0.00    -0.033 N 
ATOM     20  H53 UNL     1      37.080  -0.026  10.505  1.00  0.00     0.278 HD
ATOM     21  H52 UNL     1      36.273  -0.820   9.439  1.00  0.00     0.278 HD
ATOM     22  H51 UNL     1      35.477   0.410  10.259  1.00  0.00     0.278 HD
ATOM     23  H63 UNL     1      35.175  -1.261  13.292  1.00  0.00     0.278 HD
ATOM     24  H62 UNL     1      36.362  -0.291  12.971  1.00  0.00     0.278 HD
ATOM     25  H61 UNL     1      34.829   0.158  12.482  1.00  0.00     0.278 HD
ATOM     26  H4  UNL     1      37.586  -2.239  11.084  1.00  0.00     0.165 HD
ENDBRANCH  12  16
BRANCH  15  27
HETATM   27  N8  UNL     1      33.931  -5.909  11.325  1.00  0.00    -0.264 N 
ATOM     28  H8  UNL     1      33.975  -6.064  10.319  1.00  0.00     0.190 HD
BRANCH  27  29
HETATM   29  N9  UNL     1      32.735  -6.172  11.955  1.00  0.00    -0.208 N 
ATOM     30  H9  UNL     1      32.758  -6.503  12.920  1.00  0.00     0.215 HD
BRANCH  29  31
HETATM   31  O3  UNL     1      31.615  -6.024  11.402  1.00  0.00    -0.274 OA
ATOM     32  H3  UNL     1      31.504  -5.645  10.538  1.00  0.00     0.246 HD
ENDBRANCH  29  31
ENDBRANCH  27  29
ENDBRANCH  15  27
BRANCH   8  33
HETATM   33  N2  UNL     1      40.516  -2.265  14.036  1.00  0.00    -0.226 N 
HETATM   34  C7  UNL     1      40.360  -0.937  13.512  1.00  0.00     0.168 C 
HETATM   35  C8  UNL     1      41.707  -2.570  14.791  1.00  0.00     0.168 C 
ENDBRANCH   8  33
BRANCH   1  36
HETATM   36  O1  UNL     1      34.925  -7.562  12.994  1.00  0.00    -0.352 OA
HETATM   37  C1  UNL     1      34.686  -8.048  14.301  1.00  0.00     0.210 C 
ENDBRANCH   1  36
TORSDOF 6
ENDMDL
MODEL 4
REMARK VINA RESULT: -6.386169839      2.193      2.519
REMARK  6 active torsions:
REMARK  status: ('A' for Active; 'I' for Inactive)
REMARK    1  A    between atoms: O1_2  and  C2_3 
REMARK    2  A    between atoms: C6_10  and  N2_11 
REMARK    3  A    between atoms: C10_17  and  N4_18 
REMARK       I    between atoms: N4_18  and  C11_20 
REMARK       I    between atoms: C11_20  and  N5_21 
REMARK       I    between atoms: C11_20  and  N6_25 
REMARK    4  A    between atoms: C12_31  and  N8_32 
REMARK    5  A    between atoms: N8_32  and  N9_34 
REMARK    6  A    between atoms: N9_34  and  O3_36 
ROOT
HETATM    1  C2  UNL     1      35.022  -6.249  13.426  1.00  0.00     0.114 C 
HETATM    2  C3  UNL     1      36.369  -6.432  13.658  1.00  0.00     0.060 C 
HETATM    3  C4  UNL     1      37.402  -5.551  13.392  1.00  0.00     0.066 A 
HETATM    4  C5  UNL     1      38.605  -6.015  13.865  1.00  0.00     0.272 A 
HETATM    5  O2  UNL     1      38.648  -7.135  14.463  1.00  0.00    -0.267 OA
HETATM    6  N1  UNL     1      39.677  -5.262  13.673  1.00  0.00    -0.155 N 
ATOM      7  H1  UNL     1      40.575  -5.600  14.021  1.00  0.00     0.187 HD
HETATM    8  C6  UNL     1      39.644  -4.056  13.033  1.00  0.00     0.683 A 
HETATM    9  N3  UNL     1      38.454  -3.633  12.584  1.00  0.00    -0.187 N 
ATOM     10  H3  UNL     1      38.417  -2.734  12.104  1.00  0.00     0.184 HD
HETATM   11  C9  UNL     1      37.301  -4.324  12.728  1.00  0.00     0.108 A 
HETATM   12  C10 UNL     1      36.202  -3.700  12.189  1.00  0.00     0.134 C 
HETATM   13  N7  UNL     1      34.923  -4.085  12.251  1.00  0.00    -0.324 N 
ATOM     14  H7  UNL     1      34.250  -3.414  11.881  1.00  0.00     0.169 HD
HETATM   15  C12 UNL     1      34.386  -5.243  12.737  1.00  0.00     0.157 C 
ENDROOT
BRANCH  12  16
HETATM   16  N4  UNL     1      36.428  -2.635  11.562  1.00  0.00    -0.325 N 
HETATM   17  C11 UNL     1      35.807  -1.365  11.672  1.00  0.00     0.481 C 
HETATM   18  N5  UNL     1      36.024  -0.521  10.502  1.00  0.00    -0.033 N 
HETATM   19  N6  UNL     1      36.159  -0.601  12.826  1.00  0.00    -0.033 N 
ATOM     20  H53 UNL     1      37.019  -0.424  10.303  1.00  0.00     0.278 HD
ATOM     21  H52 UNL     1      35.729  -0.998   9.650  1.00  0.00     0.278 HD
ATOM     22  H51 UNL     1      35.577   0.392  10.580  1.00  0.00     0.278 HD
ATOM     23  H63 UNL     1      35.986  -1.146  13.670  1.00  0.00     0.278 HD
ATOM     24  H62 UNL     1      37.172  -0.498  12.880  1.00  0.00     0.278 HD
ATOM     25  H61 UNL     1      35.712   0.312  12.904  1.00  0.00     0.278 HD
ATOM     26  H4  UNL     1      37.174  -2.692  10.869  1.00  0.00     0.165 HD
ENDBRANCH  12  16
BRANCH  15  27
HETATM   27  N8  UNL     1      33.127  -5.433  12.533  1.00  0.00    -0.264 N 
ATOM     28  H8  UNL     1      32.473  -4.913  13.118  1.00  0.00     0.190 HD
BRANCH  27  29
HETATM   29  N9  UNL     1      32.596  -6.282  11.587  1.00  0.00    -0.208 N 
ATOM     30  H9  UNL     1      31.961  -5.893  10.890  1.00  0.00     0.215 HD
BRANCH  29  31
HETATM   31  O3  UNL     1      32.855  -7.512  11.539  1.00  0.00    -0.274 OA
ATOM     32  H3  UNL     1      32.572  -8.078  10.830  1.00  0.00     0.246 HD
ENDBRANCH  29  31
ENDBRANCH  27  29
ENDBRANCH  15  27
BRANCH   8  33
HETATM   33  N2  UNL     1      40.828  -3.295  12.858  1.00  0.00    -0.226 N 
HETATM   34  C7  UNL     1      41.373  -2.497  13.921  1.00  0.00     0.168 C 
HETATM   35  C8  UNL     1      41.514  -3.308  11.589  1.00  0.00     0.168 C 
ENDBRANCH   8  33
BRANCH   1  36
HETATM   36  O1  UNL     1      34.221  -7.231  13.973  1.00  0.00    -0.352 OA
HETATM   37  C1  UNL     1      34.719  -8.484  14.403  1.00  0.00     0.210 C 
ENDBRANCH   1  36
TORSDOF 6
ENDMDL
MODEL 5
REMARK VINA RESULT: -6.376156828      2.226      3.959
REMARK  6 active torsions:
REMARK  status: ('A' for Active; 'I' for Inactive)
REMARK    1  A    between atoms: O1_2  and  C2_3 
REMARK    2  A    between atoms: C6_10  and  N2_11 
REMARK    3  A    between atoms: C10_17  and  N4_18 
REMARK       I    between atoms: N4_18  and  C11_20 
REMARK       I    between atoms: C11_20  and  N5_21 
REMARK       I    between atoms: C11_20  and  N6_25 
REMARK    4  A    between atoms: C12_31  and  N8_32 
REMARK    5  A    between atoms: N8_32  and  N9_34 
REMARK    6  A    between atoms: N9_34  and  O3_36 
ROOT
HETATM    1  C2  UNL     1      34.962  -5.269  12.332  1.00  0.00     0.114 C 
HETATM    2  C3  UNL     1      34.823  -3.952  11.947  1.00  0.00     0.060 C 
HETATM    3  C4  UNL     1      35.525  -2.854  12.413  1.00  0.00     0.066 A 
HETATM    4  C5  UNL     1      35.208  -1.712  11.719  1.00  0.00     0.272 A 
HETATM    5  O2  UNL     1      34.358  -1.773  10.776  1.00  0.00    -0.267 OA
HETATM    6  N1  UNL     1      35.813  -0.587  12.068  1.00  0.00    -0.155 N 
ATOM      7  H1  UNL     1      35.583   0.265  11.557  1.00  0.00     0.187 HD
HETATM    8  C6  UNL     1      36.730  -0.510  13.078  1.00  0.00     0.683 A 
HETATM    9  N3  UNL     1      37.015  -1.642  13.735  1.00  0.00    -0.187 N 
ATOM     10  H3  UNL     1      37.698  -1.597  14.492  1.00  0.00     0.184 HD
HETATM   11  C9  UNL     1      36.455  -2.841  13.457  1.00  0.00     0.108 A 
HETATM   12  C10 UNL     1      36.896  -3.866  14.260  1.00  0.00     0.134 C 
HETATM   13  N7  UNL     1      36.600  -5.166  14.172  1.00  0.00    -0.324 N 
ATOM     14  H7  UNL     1      37.127  -5.775  14.799  1.00  0.00     0.169 HD
HETATM   15  C12 UNL     1      35.695  -5.801  13.368  1.00  0.00     0.157 C 
ENDROOT
BRANCH  12  16
HETATM   16  N4  UNL     1      37.675  -3.538  15.189  1.00  0.00    -0.325 N 
HETATM   17  C11 UNL     1      38.943  -4.066  15.542  1.00  0.00     0.481 C 
HETATM   18  N5  UNL     1      39.334  -3.746  16.910  1.00  0.00    -0.033 N 
HETATM   19  N6  UNL     1      40.026  -3.699  14.687  1.00  0.00    -0.033 N 
ATOM     20  H53 UNL     1      39.300  -2.740  17.072  1.00  0.00     0.278 HD
ATOM     21  H52 UNL     1      38.618  -4.045  17.572  1.00  0.00     0.278 HD
ATOM     22  H51 UNL     1      40.246  -4.125  17.164  1.00  0.00     0.278 HD
ATOM     23  H63 UNL     1      39.805  -3.941  13.721  1.00  0.00     0.278 HD
ATOM     24  H62 UNL     1      40.081  -2.683  14.611  1.00  0.00     0.278 HD
ATOM     25  H61 UNL     1      40.938  -4.078  14.941  1.00  0.00     0.278 HD
ATOM     26  H4  UNL     1      37.345  -2.775  15.780  1.00  0.00     0.165 HD
ENDBRANCH  12  16
BRANCH  15  27
HETATM   27  N8  UNL     1      35.491  -7.053  13.594  1.00  0.00    -0.264 N 
ATOM     28  H8  UNL     1      36.164  -7.716  13.210  1.00  0.00     0.190 HD
BRANCH  27  29
HETATM   29  N9  UNL     1      34.435  -7.567  14.314  1.00  0.00    -0.208 N 
ATOM     30  H9  UNL     1      34.514  -7.604  15.331  1.00  0.00     0.215 HD
BRANCH  29  31
HETATM   31  O3  UNL     1      33.378  -7.994  13.783  1.00  0.00    -0.274 OA
ATOM     32  H3  UNL     1      32.773  -8.581  14.220  1.00  0.00     0.246 HD
ENDBRANCH  29  31
ENDBRANCH  27  29
ENDBRANCH  15  27
BRANCH   8  33
HETATM   33  N2  UNL     1      37.344   0.726  13.406  1.00  0.00    -0.226 N 
HETATM   34  C7  UNL     1      38.577   0.780  14.140  1.00  0.00     0.168 C 
HETATM   35  C8  UNL     1      36.729   1.968  13.004  1.00  0.00     0.168 C 
ENDBRANCH   8  33
BRANCH   1  36
HETATM   36  O1  UNL     1      34.254  -6.159  11.551  1.00  0.00    -0.352 OA
HETATM   37  C1  UNL     1      34.853  -6.940  10.534  1.00  0.00     0.210 C 
ENDBRANCH   1  36
TORSDOF 6
ENDMDL
