MODEL 1
REMARK VINA RESULT: -5.201041406      0.000      0.000
REMARK  7 active torsions:
REMARK  status: ('A' for Active; 'I' for Inactive)
REMARK    1  A    between atoms: C2_2  and  S1_4 
REMARK    2  A    between atoms: S1_4  and  N1_7 
REMARK    3  A    between atoms: C3_8  and  N2_9 
REMARK    4  A    between atoms: N2_9  and  C5_11 
REMARK    5  A    between atoms: C5_11  and  C6_12 
REMARK    6  A    between atoms: C6_12  and  N3_13 
REMARK    7  A    between atoms: C8_20  and  N5_21 
ROOT
HETATM    1  N1  UNL     1      37.875   1.263  12.807  1.00  0.00    -0.046 N 
HETATM    2  C3  UNL     1      39.192   1.434  12.632  1.00  0.00     0.699 A 
HETATM    3  N4  UNL     1      39.766   0.240  12.291  1.00  0.00    -0.183 N 
ATOM      4  H4  UNL     1      40.756   0.089  12.102  1.00  0.00     0.184 HD
HETATM    5  C7  UNL     1      38.808  -0.701  12.248  1.00  0.00     0.139 A 
HETATM    6  C8  UNL     1      38.840  -2.068  11.959  1.00  0.00     0.146 A 
HETATM    7  N6  UNL     1      37.681  -2.735  12.005  1.00  0.00    -0.175 N 
ATOM      8  H6  UNL     1      37.670  -3.734  11.799  1.00  0.00     0.186 HD
HETATM    9  C9  UNL     1      36.530  -2.115  12.317  1.00  0.00     0.679 A 
HETATM   10  N7  UNL     1      35.406  -2.779  12.357  1.00  0.00    -0.234 N 
ATOM     11  H71 UNL     1      34.533  -2.308  12.594  1.00  0.00     0.174 HD
ATOM     12  H72 UNL     1      35.412  -3.777  12.148  1.00  0.00     0.174 HD
HETATM   13  N8  UNL     1      36.522  -0.787  12.595  1.00  0.00    -0.173 N 
ATOM     14  H8  UNL     1      35.636  -0.337  12.830  1.00  0.00     0.186 HD
HETATM   15  C10 UNL     1      37.641  -0.044  12.572  1.00  0.00     0.186 A 
ENDROOT
BRANCH   2  16
HETATM   16  N2  UNL     1      40.025   2.574  12.753  1.00  0.00    -0.219 N 
HETATM   17  C4  UNL     1      40.802   2.766  13.952  1.00  0.00     0.168 C 
BRANCH  16  18
HETATM   18  C5  UNL     1      40.053   3.531  11.670  1.00  0.00     0.168 C 
BRANCH  18  19
HETATM   19  C6  UNL     1      39.945   4.961  12.195  1.00  0.00     0.250 C 
BRANCH  19  20
HETATM   20  N3  UNL     1      38.637   5.457  11.808  1.00  0.00    -0.078 N 
ATOM     21  H33 UNL     1      38.470   5.405  10.803  1.00  0.00     0.274 HD
ATOM     22  H32 UNL     1      37.874   4.844  12.098  1.00  0.00     0.274 HD
ATOM     23  H31 UNL     1      38.554   6.403  12.180  1.00  0.00     0.274 HD
ENDBRANCH  19  20
ENDBRANCH  18  19
ENDBRANCH  16  18
ENDBRANCH   2  16
BRANCH   1  24
HETATM   24  S1  UNL     1      36.771   2.500  13.218  1.00  0.00     0.318 S 
HETATM   25  O2  UNL     1      35.395   1.997  13.527  1.00  0.00    -0.196 OA
HETATM   26  O3  UNL     1      36.583   3.417  12.011  1.00  0.00    -0.196 OA
BRANCH  24  27
HETATM   27  C2  UNL     1      37.314   3.393  14.599  1.00  0.00     0.260 C 
HETATM   28  C1  UNL     1      37.598   2.678  15.871  1.00  0.00     0.111 C 
HETATM   29  O1  UNL     1      37.477   4.599  14.585  1.00  0.00    -0.279 OA
ENDBRANCH  24  27
ENDBRANCH   1  24
BRANCH   6  30
HETATM   30  N5  UNL     1      39.954  -2.630  11.670  1.00  0.00    -0.383 N 
ATOM     31  H52 UNL     1      40.510  -2.372  10.854  1.00  0.00     0.157 HD
ATOM     32  H51 UNL     1      40.316  -3.373  12.268  1.00  0.00     0.157 HD
ENDBRANCH   6  30
TORSDOF 7
ENDMDL
MODEL 2
REMARK VINA RESULT: -5.132567232      5.257      8.810
REMARK  7 active torsions:
REMARK  status: ('A' for Active; 'I' for Inactive)
REMARK    1  A    between atoms: C2_2  and  S1_4 
REMARK    2  A    between atoms: S1_4  and  N1_7 
REMARK    3  A    between atoms: C3_8  and  N2_9 
REMARK    4  A    between atoms: N2_9  and  C5_11 
REMARK    5  A    between atoms: C5_11  and  C6_12 
REMARK    6  A    between atoms: C6_12  and  N3_13 
REMARK    7  A    between atoms: C8_20  and  N5_21 
ROOT
HETATM    1  N1  UNL     1      36.336  -4.969  12.752  1.00  0.00    -0.046 N 
HETATM    2  C3  UNL     1      35.257  -5.198  11.990  1.00  0.00     0.699 A 
HETATM    3  N4  UNL     1      34.755  -4.008  11.541  1.00  0.00    -0.183 N 
ATOM      4  H4  UNL     1      33.937  -3.896  10.943  1.00  0.00     0.184 HD
HETATM    5  C7  UNL     1      35.518  -3.011  12.020  1.00  0.00     0.139 A 
HETATM    6  C8  UNL     1      35.455  -1.621  11.876  1.00  0.00     0.146 A 
HETATM    7  N6  UNL     1      36.390  -0.894  12.499  1.00  0.00    -0.175 N 
ATOM      8  H6  UNL     1      36.373   0.121  12.414  1.00  0.00     0.186 HD
HETATM    9  C9  UNL     1      37.353  -1.477  13.235  1.00  0.00     0.679 A 
HETATM   10  N7  UNL     1      38.259  -0.755  13.836  1.00  0.00    -0.234 N 
ATOM     11  H71 UNL     1      38.989  -1.197  14.394  1.00  0.00     0.174 HD
ATOM     12  H72 UNL     1      38.228   0.260  13.740  1.00  0.00     0.174 HD
HETATM   13  N8  UNL     1      37.394  -2.828  13.362  1.00  0.00    -0.173 N 
ATOM     14  H8  UNL     1      38.134  -3.248  13.926  1.00  0.00     0.186 HD
HETATM   15  C10 UNL     1      36.494  -3.630  12.770  1.00  0.00     0.186 A 
ENDROOT
BRANCH   2  16
HETATM   16  N2  UNL     1      34.596  -6.395  11.618  1.00  0.00    -0.219 N 
HETATM   17  C4  UNL     1      33.361  -6.758  12.266  1.00  0.00     0.168 C 
BRANCH  16  18
HETATM   18  C5  UNL     1      35.196  -7.234  10.606  1.00  0.00     0.168 C 
BRANCH  18  19
HETATM   19  C6  UNL     1      34.808  -8.697  10.803  1.00  0.00     0.250 C 
BRANCH  19  20
HETATM   20  N3  UNL     1      35.716  -9.249  11.791  1.00  0.00    -0.078 N 
ATOM     21  H33 UNL     1      36.513  -9.733  11.377  1.00  0.00     0.274 HD
ATOM     22  H32 UNL     1      36.244  -8.534  12.293  1.00  0.00     0.274 HD
ATOM     23  H31 UNL     1      35.162  -9.844  12.407  1.00  0.00     0.274 HD
ENDBRANCH  19  20
ENDBRANCH  18  19
ENDBRANCH  16  18
ENDBRANCH   2  16
BRANCH   1  24
HETATM   24  S1  UNL     1      37.285  -6.177  13.497  1.00  0.00     0.318 S 
HETATM   25  O2  UNL     1      36.491  -7.353  13.975  1.00  0.00    -0.196 OA
HETATM   26  O3  UNL     1      37.916  -5.601  14.762  1.00  0.00    -0.196 OA
BRANCH  24  27
HETATM   27  C2  UNL     1      38.497  -6.780  12.416  1.00  0.00     0.260 C 
HETATM   28  C1  UNL     1      39.775  -6.039  12.259  1.00  0.00     0.111 C 
HETATM   29  O1  UNL     1      38.354  -7.797  11.764  1.00  0.00    -0.279 OA
ENDBRANCH  24  27
ENDBRANCH   1  24
BRANCH   6  30
HETATM   30  N5  UNL     1      34.522  -1.098  11.172  1.00  0.00    -0.383 N 
ATOM     31  H52 UNL     1      33.728  -1.632  10.820  1.00  0.00     0.157 HD
ATOM     32  H51 UNL     1      34.561  -0.105  10.940  1.00  0.00     0.157 HD
ENDBRANCH   6  30
TORSDOF 7
ENDMDL
MODEL 3
REMARK VINA RESULT: -5.100111117      2.752      4.981
REMARK  7 active torsions:
REMARK  status: ('A' for Active; 'I' for Inactive)
REMARK    1  A    between atoms: C2_2  and  S1_4 
REMARK    2  A    between atoms: S1_4  and  N1_7 
REMARK    3  A    between atoms: C3_8  and  N2_9 
REMARK    4  A    between atoms: N2_9  and  C5_11 
REMARK    5  A    between atoms: C5_11  and  C6_12 
REMARK    6  A    between atoms: C6_12  and  N3_13 
REMARK    7  A    between atoms: C8_20  and  N5_21 
ROOT
HETATM    1  N1  UNL     1      37.488   1.328  14.235  1.00  0.00    -0.046 N 
HETATM    2  C3  UNL     1      37.548   0.114  13.671  1.00  0.00     0.699 A 
HETATM    3  N4  UNL     1      37.576  -0.842  14.648  1.00  0.00    -0.183 N 
ATOM      4  H4  UNL     1      37.621  -1.849  14.494  1.00  0.00     0.184 HD
HETATM    5  C7  UNL     1      37.532  -0.235  15.846  1.00  0.00     0.139 A 
HETATM    6  C8  UNL     1      37.537  -0.726  17.155  1.00  0.00     0.146 A 
HETATM    7  N6  UNL     1      37.485   0.168  18.149  1.00  0.00    -0.175 N 
ATOM      8  H6  UNL     1      37.486  -0.158  19.115  1.00  0.00     0.186 HD
HETATM    9  C9  UNL     1      37.431   1.487  17.900  1.00  0.00     0.679 A 
HETATM   10  N7  UNL     1      37.379   2.348  18.880  1.00  0.00    -0.234 N 
ATOM     11  H71 UNL     1      37.338   3.349  18.691  1.00  0.00     0.174 HD
ATOM     12  H72 UNL     1      37.380   2.006  19.840  1.00  0.00     0.174 HD
HETATM   13  N8  UNL     1      37.429   1.943  16.621  1.00  0.00    -0.173 N 
ATOM     14  H8  UNL     1      37.387   2.949  16.456  1.00  0.00     0.186 HD
HETATM   15  C10 UNL     1      37.479   1.114  15.566  1.00  0.00     0.186 A 
ENDROOT
BRANCH   2  16
HETATM   16  N2  UNL     1      37.600  -0.301  12.317  1.00  0.00    -0.219 N 
HETATM   17  C4  UNL     1      38.867  -0.337  11.630  1.00  0.00     0.168 C 
BRANCH  16  18
HETATM   18  C5  UNL     1      36.368  -0.658  11.652  1.00  0.00     0.168 C 
BRANCH  18  19
HETATM   19  C6  UNL     1      36.322  -2.152  11.342  1.00  0.00     0.250 C 
BRANCH  19  20
HETATM   20  N3  UNL     1      34.939  -2.483  11.051  1.00  0.00    -0.078 N 
ATOM     21  H33 UNL     1      34.486  -1.807  10.437  1.00  0.00     0.274 HD
ATOM     22  H32 UNL     1      34.841  -3.297  10.443  1.00  0.00     0.274 HD
ATOM     23  H31 UNL     1      34.463  -2.593  11.947  1.00  0.00     0.274 HD
ENDBRANCH  19  20
ENDBRANCH  18  19
ENDBRANCH  16  18
ENDBRANCH   2  16
BRANCH   1  24
HETATM   24  S1  UNL     1      37.414   2.804  13.379  1.00  0.00     0.318 S 
HETATM   25  O2  UNL     1      36.953   3.959  14.214  1.00  0.00    -0.196 OA
HETATM   26  O3  UNL     1      36.365   2.685  12.276  1.00  0.00    -0.196 OA
BRANCH  24  27
HETATM   27  C2  UNL     1      38.961   3.229  12.724  1.00  0.00     0.260 C 
HETATM   28  C1  UNL     1      40.198   2.735  13.382  1.00  0.00     0.111 C 
HETATM   29  O1  UNL     1      39.091   3.925  11.735  1.00  0.00    -0.279 OA
ENDBRANCH  24  27
ENDBRANCH   1  24
BRANCH   6  30
HETATM   30  N5  UNL     1      37.595  -1.989  17.358  1.00  0.00    -0.383 N 
ATOM     31  H52 UNL     1      38.453  -2.530  17.249  1.00  0.00     0.157 HD
ATOM     32  H51 UNL     1      36.754  -2.496  17.636  1.00  0.00     0.157 HD
ENDBRANCH   6  30
TORSDOF 7
ENDMDL
MODEL 4
REMARK VINA RESULT: -5.081665551      5.265      7.134
REMARK  7 active torsions:
REMARK  status: ('A' for Active; 'I' for Inactive)
REMARK    1  A    between atoms: C2_2  and  S1_4 
REMARK    2  A    between atoms: S1_4  and  N1_7 
REMARK    3  A    between atoms: C3_8  and  N2_9 
REMARK    4  A    between atoms: N2_9  and  C5_11 
REMARK    5  A    between atoms: C5_11  and  C6_12 
REMARK    6  A    between atoms: C6_12  and  N3_13 
REMARK    7  A    between atoms: C8_20  and  N5_21 
ROOT
HETATM    1  N1  UNL     1      36.527  -4.805  12.725  1.00  0.00    -0.046 N 
HETATM    2  C3  UNL     1      37.508  -5.586  13.198  1.00  0.00     0.699 A 
HETATM    3  N4  UNL     1      37.046  -6.865  13.338  1.00  0.00    -0.183 N 
ATOM      4  H4  UNL     1      37.588  -7.659  13.679  1.00  0.00     0.184 HD
HETATM    5  C7  UNL     1      35.760  -6.903  12.952  1.00  0.00     0.139 A 
HETATM    6  C8  UNL     1      34.821  -7.937  12.894  1.00  0.00     0.146 A 
HETATM    7  N6  UNL     1      33.595  -7.633  12.452  1.00  0.00    -0.175 N 
ATOM      8  H6  UNL     1      32.887  -8.365  12.397  1.00  0.00     0.186 HD
HETATM    9  C9  UNL     1      33.278  -6.382  12.078  1.00  0.00     0.679 A 
HETATM   10  N7  UNL     1      32.078  -6.100  11.647  1.00  0.00    -0.234 N 
ATOM     11  H71 UNL     1      31.838  -5.150  11.363  1.00  0.00     0.174 HD
ATOM     12  H72 UNL     1      31.382  -6.843  11.598  1.00  0.00     0.174 HD
HETATM   13  N8  UNL     1      34.205  -5.392  12.143  1.00  0.00    -0.173 N 
ATOM     14  H8  UNL     1      33.941  -4.449  11.854  1.00  0.00     0.186 HD
HETATM   15  C10 UNL     1      35.457  -5.612  12.575  1.00  0.00     0.186 A 
ENDROOT
BRANCH   2  16
HETATM   16  N2  UNL     1      38.849  -5.307  13.564  1.00  0.00    -0.219 N 
HETATM   17  C4  UNL     1      39.921  -5.660  12.666  1.00  0.00     0.168 C 
BRANCH  16  18
HETATM   18  C5  UNL     1      39.106  -4.692  14.845  1.00  0.00     0.168 C 
BRANCH  18  19
HETATM   19  C6  UNL     1      40.163  -3.596  14.729  1.00  0.00     0.250 C 
BRANCH  19  20
HETATM   20  N3  UNL     1      39.455  -2.335  14.612  1.00  0.00    -0.078 N 
ATOM     21  H33 UNL     1      39.626  -1.861  13.724  1.00  0.00     0.274 HD
ATOM     22  H32 UNL     1      38.447  -2.449  14.506  1.00  0.00     0.274 HD
ATOM     23  H31 UNL     1      39.712  -1.771  15.422  1.00  0.00     0.274 HD
ENDBRANCH  19  20
ENDBRANCH  18  19
ENDBRANCH  16  18
ENDBRANCH   2  16
BRANCH   1  24
HETATM   24  S1  UNL     1      36.679  -3.140  12.381  1.00  0.00     0.318 S 
HETATM   25  O2  UNL     1      38.025  -2.758  11.847  1.00  0.00    -0.196 OA
HETATM   26  O3  UNL     1      36.545  -2.351  13.682  1.00  0.00    -0.196 OA
BRANCH  24  27
HETATM   27  C2  UNL     1      35.500  -2.628  11.219  1.00  0.00     0.260 C 
HETATM   28  C1  UNL     1      34.873  -1.287  11.351  1.00  0.00     0.111 C 
HETATM   29  O1  UNL     1      35.150  -3.322  10.283  1.00  0.00    -0.279 OA
ENDBRANCH  24  27
ENDBRANCH   1  24
BRANCH   6  30
HETATM   30  N5  UNL     1      35.154  -9.117  13.263  1.00  0.00    -0.383 N 
ATOM     31  H52 UNL     1      35.826  -9.296  14.009  1.00  0.00     0.157 HD
ATOM     32  H51 UNL     1      34.743  -9.927  12.798  1.00  0.00     0.157 HD
ENDBRANCH   6  30
TORSDOF 7
ENDMDL
MODEL 5
REMARK VINA RESULT: -5.077191620      2.912      4.978
REMARK  7 active torsions:
REMARK  status: ('A' for Active; 'I' for Inactive)
REMARK    1  A    between atoms: C2_2  and  S1_4 
REMARK    2  A    between atoms: S1_4  and  N1_7 
REMARK    3  A    between atoms: C3_8  and  N2_9 
REMARK    4  A    between atoms: N2_9  and  C5_11 
REMARK    5  A    between atoms: C5_11  and  C6_12 
REMARK    6  A    between atoms: C6_12  and  N3_13 
REMARK    7  A    between atoms: C8_20  and  N5_21 
ROOT
HETATM    1  N1  UNL     1      37.741   1.292  14.518  1.00  0.00    -0.046 N 
HETATM    2  C3  UNL     1      37.677   0.130  13.853  1.00  0.00     0.699 A 
HETATM    3  N4  UNL     1      37.676  -0.906  14.745  1.00  0.00    -0.183 N 
ATOM      4  H4  UNL     1      37.634  -1.896  14.505  1.00  0.00     0.184 HD
HETATM    5  C7  UNL     1      37.740  -0.404  15.989  1.00  0.00     0.139 A 
HETATM    6  C8  UNL     1      37.770  -1.006  17.251  1.00  0.00     0.146 A 
HETATM    7  N6  UNL     1      37.837  -0.200  18.317  1.00  0.00    -0.175 N 
ATOM      8  H6  UNL     1      37.860  -0.608  19.251  1.00  0.00     0.186 HD
HETATM    9  C9  UNL     1      37.876   1.136  18.181  1.00  0.00     0.679 A 
HETATM   10  N7  UNL     1      37.941   1.910  19.231  1.00  0.00    -0.234 N 
ATOM     11  H71 UNL     1      37.970   2.924  19.127  1.00  0.00     0.174 HD
ATOM     12  H72 UNL     1      37.962   1.487  20.158  1.00  0.00     0.174 HD
HETATM   13  N8  UNL     1      37.848   1.701  16.947  1.00  0.00    -0.173 N 
ATOM     14  H8  UNL     1      37.878   2.718  16.868  1.00  0.00     0.186 HD
HETATM   15  C10 UNL     1      37.780   0.964  15.826  1.00  0.00     0.186 A 
ENDROOT
BRANCH   2  16
HETATM   16  N2  UNL     1      37.629  -0.168  12.469  1.00  0.00    -0.219 N 
HETATM   17  C4  UNL     1      38.834  -0.565  11.783  1.00  0.00     0.168 C 
BRANCH  16  18
HETATM   18  C5  UNL     1      36.368  -0.044  11.774  1.00  0.00     0.168 C 
BRANCH  18  19
HETATM   19  C6  UNL     1      35.862  -1.406  11.304  1.00  0.00     0.250 C 
BRANCH  19  20
HETATM   20  N3  UNL     1      35.256  -2.053  12.453  1.00  0.00    -0.078 N 
ATOM     21  H33 UNL     1      35.937  -2.342  13.156  1.00  0.00     0.274 HD
ATOM     22  H32 UNL     1      34.725  -1.411  13.042  1.00  0.00     0.274 HD
ATOM     23  H31 UNL     1      34.694  -2.828  12.098  1.00  0.00     0.274 HD
ENDBRANCH  19  20
ENDBRANCH  18  19
ENDBRANCH  16  18
ENDBRANCH   2  16
BRANCH   1  24
HETATM   24  S1  UNL     1      37.743   2.838  13.793  1.00  0.00     0.318 S 
HETATM   25  O2  UNL     1      38.397   2.869  12.447  1.00  0.00    -0.196 OA
HETATM   26  O3  UNL     1      38.582   3.785  14.649  1.00  0.00    -0.196 OA
BRANCH  24  27
HETATM   27  C2  UNL     1      36.131   3.442  13.596  1.00  0.00     0.260 C 
HETATM   28  C1  UNL     1      35.909   4.902  13.432  1.00  0.00     0.111 C 
HETATM   29  O1  UNL     1      35.151   2.721  13.585  1.00  0.00    -0.279 OA
ENDBRANCH  24  27
ENDBRANCH   1  24
BRANCH   6  30
HETATM   30  N5  UNL     1      37.737  -2.282  17.345  1.00  0.00    -0.383 N 
ATOM     31  H52 UNL     1      38.168  -2.900  16.657  1.00  0.00     0.157 HD
ATOM     32  H51 UNL     1      37.259  -2.719  18.133  1.00  0.00     0.157 HD
ENDBRANCH   6  30
TORSDOF 7
ENDMDL
