MODEL 1
REMARK VINA RESULT: -6.513294673      0.000      0.000
REMARK  7 active torsions:
REMARK  status: ('A' for Active; 'I' for Inactive)
REMARK    1  A    between atoms: N1_2  and  C2_4 
REMARK    2  A    between atoms: C2_4  and  O1_5 
REMARK    3  A    between atoms: C3_7  and  S1_8 
REMARK    4  A    between atoms: S1_8  and  C4_9 
REMARK    5  A    between atoms: C7_16  and  C8_17 
REMARK    6  A    between atoms: C10_22  and  N6_23 
REMARK    7  A    between atoms: C11_26  and  N7_27 
ROOT
HETATM    1  C4  UNL     1      36.285  -4.001  13.473  1.00  0.00     0.151 C 
HETATM    2  N2  UNL     1      36.689  -2.960  12.599  1.00  0.00    -0.321 N 
ATOM      3  H2  UNL     1      36.741  -3.166  11.601  1.00  0.00     0.169 HD
HETATM    4  C5  UNL     1      37.012  -1.702  13.012  1.00  0.00     0.140 A 
HETATM    5  C6  UNL     1      37.660  -1.370  14.206  1.00  0.00     0.109 A 
HETATM    6  N3  UNL     1      37.676  -0.079  14.314  1.00  0.00    -0.333 N 
ATOM      7  H3  UNL     1      38.073   0.456  15.086  1.00  0.00     0.168 HD
HETATM    8  C7  UNL     1      37.063   0.437  13.205  1.00  0.00     0.175 A 
HETATM    9  N5  UNL     1      36.664  -0.569  12.406  1.00  0.00    -0.318 N 
HETATM   10  C9  UNL     1      36.055  -0.427  11.073  1.00  0.00     0.159 C 
HETATM   11  C10 UNL     1      38.277  -2.300  15.019  1.00  0.00     0.101 C 
HETATM   12  C11 UNL     1      38.031  -3.663  15.198  1.00  0.00     0.130 C 
HETATM   13  N8  UNL     1      37.097  -4.354  14.483  1.00  0.00    -0.321 N 
ATOM     14  H8  UNL     1      36.996  -5.327  14.772  1.00  0.00     0.169 HD
ENDROOT
BRANCH   1  15
HETATM   15  S1  UNL     1      34.773  -4.785  13.100  1.00  0.00    -0.061 SA
BRANCH  15  16
HETATM   16  C3  UNL     1      34.827  -6.064  11.880  1.00  0.00     0.108 C 
HETATM   17  C2  UNL     1      33.641  -6.857  11.676  1.00  0.00     0.141 C 
BRANCH  17  18
HETATM   18  N1  UNL     1      33.389  -8.162  11.379  1.00  0.00    -0.375 N 
HETATM   19  C1  UNL     1      34.408  -8.906  10.584  1.00  0.00     0.148 C 
ATOM     20  H1  UNL     1      32.530  -8.616  11.690  1.00  0.00     0.161 HD
ENDBRANCH  17  18
BRANCH  17  21
HETATM   21  O1  UNL     1      32.468  -6.171  11.781  1.00  0.00    -0.346 OA
ATOM     22  H1  UNL     1      32.637  -5.236  11.753  1.00  0.00     0.219 HD
ENDBRANCH  17  21
ENDBRANCH  15  16
ENDBRANCH   1  15
BRANCH  12  23
HETATM   23  N7  UNL     1      38.734  -4.268  15.998  1.00  0.00    -0.384 N 
ATOM     24  H72 UNL     1      38.914  -3.852  16.911  1.00  0.00     0.157 HD
ATOM     25  H71 UNL     1      39.073  -5.191  15.728  1.00  0.00     0.157 HD
ENDBRANCH  12  23
BRANCH  11  26
HETATM   26  N6  UNL     1      39.312  -1.860  15.687  1.00  0.00    -0.394 N 
ATOM     27  H62 UNL     1      39.731  -1.020  15.288  1.00  0.00     0.156 HD
ATOM     28  H61 UNL     1      39.532  -2.374  16.539  1.00  0.00     0.156 HD
ENDBRANCH  11  26
BRANCH   8  29
HETATM   29  C8  UNL     1      36.706   1.844  12.945  1.00  0.00     0.299 C 
HETATM   30  N4  UNL     1      35.488   2.368  13.430  1.00  0.00    -0.054 NA
HETATM   31  O2  UNL     1      37.525   2.568  12.294  1.00  0.00    -0.268 OA
ENDBRANCH   8  29
TORSDOF 7
ENDMDL
MODEL 2
REMARK VINA RESULT: -6.274448287      3.553      4.156
REMARK  7 active torsions:
REMARK  status: ('A' for Active; 'I' for Inactive)
REMARK    1  A    between atoms: N1_2  and  C2_4 
REMARK    2  A    between atoms: C2_4  and  O1_5 
REMARK    3  A    between atoms: C3_7  and  S1_8 
REMARK    4  A    between atoms: S1_8  and  C4_9 
REMARK    5  A    between atoms: C7_16  and  C8_17 
REMARK    6  A    between atoms: C10_22  and  N6_23 
REMARK    7  A    between atoms: C11_26  and  N7_27 
ROOT
HETATM    1  C4  UNL     1      38.818  -2.206  15.005  1.00  0.00     0.151 C 
HETATM    2  N2  UNL     1      39.055  -0.882  14.554  1.00  0.00    -0.321 N 
ATOM      3  H2  UNL     1      39.864  -0.718  13.954  1.00  0.00     0.169 HD
HETATM    4  C5  UNL     1      38.267   0.183  14.874  1.00  0.00     0.140 A 
HETATM    5  C6  UNL     1      37.613   0.386  16.093  1.00  0.00     0.109 A 
HETATM    6  N3  UNL     1      36.858   1.432  15.980  1.00  0.00    -0.333 N 
ATOM      7  H3  UNL     1      36.253   1.819  16.705  1.00  0.00     0.168 HD
HETATM    8  C7  UNL     1      37.016   1.923  14.713  1.00  0.00     0.175 A 
HETATM    9  N5  UNL     1      37.890   1.152  14.042  1.00  0.00    -0.318 N 
HETATM   10  C9  UNL     1      38.403   1.403  12.684  1.00  0.00     0.159 C 
HETATM   11  C10 UNL     1      37.879  -0.354  17.228  1.00  0.00     0.101 C 
HETATM   12  C11 UNL     1      38.363  -1.655  17.378  1.00  0.00     0.130 C 
HETATM   13  N8  UNL     1      38.740  -2.438  16.326  1.00  0.00    -0.321 N 
ATOM     14  H8  UNL     1      39.015  -3.383  16.595  1.00  0.00     0.169 HD
ENDROOT
BRANCH   1  15
HETATM   15  S1  UNL     1      38.720  -3.439  13.778  1.00  0.00    -0.061 SA
BRANCH  15  16
HETATM   16  C3  UNL     1      37.438  -3.253  12.573  1.00  0.00     0.108 C 
HETATM   17  C2  UNL     1      37.499  -2.118  11.688  1.00  0.00     0.141 C 
BRANCH  17  18
HETATM   18  N1  UNL     1      36.583  -1.288  11.115  1.00  0.00    -0.375 N 
HETATM   19  C1  UNL     1      35.138  -1.588  11.329  1.00  0.00     0.148 C 
ATOM     20  H1  UNL     1      36.877  -0.487  10.556  1.00  0.00     0.161 HD
ENDBRANCH  17  18
BRANCH  17  21
HETATM   21  O1  UNL     1      38.755  -1.766  11.293  1.00  0.00    -0.346 OA
ATOM     22  H1  UNL     1      39.356  -1.837  12.025  1.00  0.00     0.219 HD
ENDBRANCH  17  21
ENDBRANCH  15  16
ENDBRANCH   1  15
BRANCH  12  23
HETATM   23  N7  UNL     1      38.506  -2.082  18.517  1.00  0.00    -0.384 N 
ATOM     24  H72 UNL     1      38.562  -1.419  19.290  1.00  0.00     0.157 HD
ATOM     25  H71 UNL     1      38.517  -3.094  18.646  1.00  0.00     0.157 HD
ENDBRANCH  12  23
BRANCH  11  26
HETATM   26  N6  UNL     1      37.720   0.281  18.361  1.00  0.00    -0.394 N 
ATOM     27  H62 UNL     1      37.548   1.281  18.250  1.00  0.00     0.156 HD
ATOM     28  H61 UNL     1      37.733  -0.304  19.195  1.00  0.00     0.156 HD
ENDBRANCH  11  26
BRANCH   8  29
HETATM   29  C8  UNL     1      36.256   3.007  14.064  1.00  0.00     0.299 C 
HETATM   30  N4  UNL     1      36.743   4.331  14.094  1.00  0.00    -0.054 NA
HETATM   31  O2  UNL     1      35.170   2.715  13.469  1.00  0.00    -0.268 OA
ENDBRANCH   8  29
TORSDOF 7
ENDMDL
MODEL 3
REMARK VINA RESULT: -6.104218323      2.264      2.829
REMARK  7 active torsions:
REMARK  status: ('A' for Active; 'I' for Inactive)
REMARK    1  A    between atoms: N1_2  and  C2_4 
REMARK    2  A    between atoms: C2_4  and  O1_5 
REMARK    3  A    between atoms: C3_7  and  S1_8 
REMARK    4  A    between atoms: S1_8  and  C4_9 
REMARK    5  A    between atoms: C7_16  and  C8_17 
REMARK    6  A    between atoms: C10_22  and  N6_23 
REMARK    7  A    between atoms: C11_26  and  N7_27 
ROOT
HETATM    1  C4  UNL     1      38.016  -2.412  14.733  1.00  0.00     0.151 C 
HETATM    2  N2  UNL     1      38.430  -1.143  14.253  1.00  0.00    -0.321 N 
ATOM      3  H2  UNL     1      39.180  -1.113  13.562  1.00  0.00     0.169 HD
HETATM    4  C5  UNL     1      37.885   0.038  14.660  1.00  0.00     0.140 A 
HETATM    5  C6  UNL     1      37.424   0.332  15.947  1.00  0.00     0.109 A 
HETATM    6  N3  UNL     1      36.857   1.496  15.919  1.00  0.00    -0.333 N 
ATOM      7  H3  UNL     1      36.419   1.971  16.709  1.00  0.00     0.168 HD
HETATM    8  C7  UNL     1      36.952   1.974  14.641  1.00  0.00     0.175 A 
HETATM    9  N5  UNL     1      37.593   1.073  13.874  1.00  0.00    -0.318 N 
HETATM   10  C9  UNL     1      37.981   1.255  12.465  1.00  0.00     0.159 C 
HETATM   11  C10 UNL     1      37.684  -0.464  17.045  1.00  0.00     0.101 C 
HETATM   12  C11 UNL     1      37.944  -1.832  17.140  1.00  0.00     0.130 C 
HETATM   13  N8  UNL     1      38.051  -2.650  16.054  1.00  0.00    -0.321 N 
ATOM     14  H8  UNL     1      38.184  -3.633  16.292  1.00  0.00     0.169 HD
ENDROOT
BRANCH   1  15
HETATM   15  S1  UNL     1      37.559  -3.586  13.528  1.00  0.00    -0.061 SA
BRANCH  15  16
HETATM   16  C3  UNL     1      35.975  -3.367  12.773  1.00  0.00     0.108 C 
HETATM   17  C2  UNL     1      35.048  -4.470  12.812  1.00  0.00     0.141 C 
BRANCH  17  18
HETATM   18  N1  UNL     1      34.108  -4.974  11.964  1.00  0.00    -0.375 N 
HETATM   19  C1  UNL     1      33.472  -6.275  12.321  1.00  0.00     0.148 C 
ATOM     20  H1  UNL     1      33.848  -4.478  11.112  1.00  0.00     0.161 HD
ENDBRANCH  17  18
BRANCH  17  21
HETATM   21  O1  UNL     1      35.073  -5.199  13.963  1.00  0.00    -0.346 OA
ATOM     22  H1  UNL     1      34.190  -5.456  14.202  1.00  0.00     0.219 HD
ENDBRANCH  17  21
ENDBRANCH  15  16
ENDBRANCH   1  15
BRANCH  12  23
HETATM   23  N7  UNL     1      38.140  -2.298  18.256  1.00  0.00    -0.384 N 
ATOM     24  H72 UNL     1      37.647  -3.147  18.531  1.00  0.00     0.157 HD
ATOM     25  H71 UNL     1      38.830  -1.835  18.849  1.00  0.00     0.157 HD
ENDBRANCH  12  23
BRANCH  11  26
HETATM   26  N6  UNL     1      37.772   0.170  18.186  1.00  0.00    -0.394 N 
ATOM     27  H62 UNL     1      38.596  -0.082  18.732  1.00  0.00     0.156 HD
ATOM     28  H61 UNL     1      37.045   0.864  18.358  1.00  0.00     0.156 HD
ENDBRANCH  11  26
BRANCH   8  29
HETATM   29  C8  UNL     1      36.326   3.187  14.083  1.00  0.00     0.299 C 
HETATM   30  N4  UNL     1      37.013   4.419  14.116  1.00  0.00    -0.054 NA
HETATM   31  O2  UNL     1      35.170   3.088  13.561  1.00  0.00    -0.268 OA
ENDBRANCH   8  29
TORSDOF 7
ENDMDL
MODEL 4
REMARK VINA RESULT: -6.083381943      2.510      7.170
REMARK  7 active torsions:
REMARK  status: ('A' for Active; 'I' for Inactive)
REMARK    1  A    between atoms: N1_2  and  C2_4 
REMARK    2  A    between atoms: C2_4  and  O1_5 
REMARK    3  A    between atoms: C3_7  and  S1_8 
REMARK    4  A    between atoms: S1_8  and  C4_9 
REMARK    5  A    between atoms: C7_16  and  C8_17 
REMARK    6  A    between atoms: C10_22  and  N6_23 
REMARK    7  A    between atoms: C11_26  and  N7_27 
ROOT
HETATM    1  C4  UNL     1      37.469  -1.943  14.463  1.00  0.00     0.151 C 
HETATM    2  N2  UNL     1      37.556  -3.165  13.748  1.00  0.00    -0.321 N 
ATOM      3  H2  UNL     1      38.409  -3.716  13.842  1.00  0.00     0.169 HD
HETATM    4  C5  UNL     1      36.566  -3.647  12.944  1.00  0.00     0.140 A 
HETATM    5  C6  UNL     1      35.710  -2.884  12.145  1.00  0.00     0.109 A 
HETATM    6  N3  UNL     1      34.822  -3.674  11.631  1.00  0.00    -0.333 N 
ATOM      7  H3  UNL     1      34.059  -3.400  11.011  1.00  0.00     0.168 HD
HETATM    8  C7  UNL     1      35.091  -4.942  12.068  1.00  0.00     0.175 A 
HETATM    9  N5  UNL     1      36.171  -4.917  12.871  1.00  0.00    -0.318 N 
HETATM   10  C9  UNL     1      36.838  -6.089  13.463  1.00  0.00     0.159 C 
HETATM   11  C10 UNL     1      35.914  -1.544  11.879  1.00  0.00     0.101 C 
HETATM   12  C11 UNL     1      36.574  -0.558  12.615  1.00  0.00     0.130 C 
HETATM   13  N8  UNL     1      37.227  -0.809  13.785  1.00  0.00    -0.321 N 
ATOM     14  H8  UNL     1      37.607   0.026  14.232  1.00  0.00     0.169 HD
ENDROOT
BRANCH   1  15
HETATM   15  S1  UNL     1      37.759  -2.026  16.180  1.00  0.00    -0.061 SA
BRANCH  15  16
HETATM   16  C3  UNL     1      38.447  -0.581  16.934  1.00  0.00     0.108 C 
HETATM   17  C2  UNL     1      37.615   0.591  17.037  1.00  0.00     0.141 C 
BRANCH  17  18
HETATM   18  N1  UNL     1      37.822   1.935  16.952  1.00  0.00    -0.375 N 
HETATM   19  C1  UNL     1      37.574   2.597  15.638  1.00  0.00     0.148 C 
ATOM     20  H1  UNL     1      38.137   2.471  17.760  1.00  0.00     0.161 HD
ENDBRANCH  17  18
BRANCH  17  21
HETATM   21  O1  UNL     1      36.302   0.340  17.299  1.00  0.00    -0.346 OA
ATOM     22  H1  UNL     1      35.885  -0.033  16.532  1.00  0.00     0.219 HD
ENDBRANCH  17  21
ENDBRANCH  15  16
ENDBRANCH   1  15
BRANCH  12  23
HETATM   23  N7  UNL     1      36.607   0.574  12.147  1.00  0.00    -0.384 N 
ATOM     24  H72 UNL     1      36.567   0.692  11.135  1.00  0.00     0.157 HD
ATOM     25  H71 UNL     1      36.628   1.357  12.801  1.00  0.00     0.157 HD
ENDBRANCH  12  23
BRANCH  11  26
HETATM   26  N6  UNL     1      35.484  -1.133  10.715  1.00  0.00    -0.394 N 
ATOM     27  H62 UNL     1      35.823  -1.691   9.931  1.00  0.00     0.156 HD
ATOM     28  H61 UNL     1      34.830  -0.351  10.743  1.00  0.00     0.156 HD
ENDBRANCH  11  26
BRANCH   8  29
HETATM   29  C8  UNL     1      34.275  -6.154  11.877  1.00  0.00     0.299 C 
HETATM   30  N4  UNL     1      33.091  -6.337  12.624  1.00  0.00    -0.054 NA
HETATM   31  O2  UNL     1      34.654  -7.012  11.017  1.00  0.00    -0.268 OA
ENDBRANCH   8  29
TORSDOF 7
ENDMDL
MODEL 5
REMARK VINA RESULT: -6.066660951      2.551      3.343
REMARK  7 active torsions:
REMARK  status: ('A' for Active; 'I' for Inactive)
REMARK    1  A    between atoms: N1_2  and  C2_4 
REMARK    2  A    between atoms: C2_4  and  O1_5 
REMARK    3  A    between atoms: C3_7  and  S1_8 
REMARK    4  A    between atoms: S1_8  and  C4_9 
REMARK    5  A    between atoms: C7_16  and  C8_17 
REMARK    6  A    between atoms: C10_22  and  N6_23 
REMARK    7  A    between atoms: C11_26  and  N7_27 
ROOT
HETATM    1  C4  UNL     1      38.453  -1.819  14.312  1.00  0.00     0.151 C 
HETATM    2  N2  UNL     1      38.873  -0.477  14.128  1.00  0.00    -0.321 N 
ATOM      3  H2  UNL     1      39.766  -0.313  13.663  1.00  0.00     0.169 HD
HETATM    4  C5  UNL     1      38.153   0.607  14.533  1.00  0.00     0.140 A 
HETATM    5  C6  UNL     1      37.364   0.688  15.685  1.00  0.00     0.109 A 
HETATM    6  N3  UNL     1      36.733   1.818  15.667  1.00  0.00    -0.333 N 
ATOM      7  H3  UNL     1      36.076   2.152  16.373  1.00  0.00     0.168 HD
HETATM    8  C7  UNL     1      37.105   2.484  14.532  1.00  0.00     0.175 A 
HETATM    9  N5  UNL     1      37.985   1.734  13.843  1.00  0.00    -0.318 N 
HETATM   10  C9  UNL     1      38.696   2.138  12.618  1.00  0.00     0.159 C 
HETATM   11  C10 UNL     1      37.404  -0.250  16.698  1.00  0.00     0.101 C 
HETATM   12  C11 UNL     1      37.739  -1.605  16.675  1.00  0.00     0.130 C 
HETATM   13  N8  UNL     1      38.177  -2.248  15.555  1.00  0.00    -0.321 N 
ATOM     14  H8  UNL     1      38.323  -3.249  15.686  1.00  0.00     0.169 HD
ENDROOT
BRANCH   1  15
HETATM   15  S1  UNL     1      38.404  -2.821  12.887  1.00  0.00    -0.061 SA
BRANCH  15  16
HETATM   16  C3  UNL     1      36.951  -2.698  11.886  1.00  0.00     0.108 C 
HETATM   17  C2  UNL     1      35.715  -3.213  12.419  1.00  0.00     0.141 C 
BRANCH  17  18
HETATM   18  N1  UNL     1      34.629  -3.852  11.901  1.00  0.00    -0.375 N 
HETATM   19  C1  UNL     1      34.351  -5.242  12.363  1.00  0.00     0.148 C 
ATOM     20  H1  UNL     1      34.025  -3.393  11.219  1.00  0.00     0.161 HD
ENDBRANCH  17  18
BRANCH  17  21
HETATM   21  O1  UNL     1      35.545  -3.020  13.758  1.00  0.00    -0.346 OA
ATOM     22  H1  UNL     1      36.190  -2.402  14.080  1.00  0.00     0.219 HD
ENDBRANCH  17  21
ENDBRANCH  15  16
ENDBRANCH   1  15
BRANCH  12  23
HETATM   23  N7  UNL     1      37.687  -2.222  17.732  1.00  0.00    -0.384 N 
ATOM     24  H72 UNL     1      38.111  -1.814  18.565  1.00  0.00     0.157 HD
ATOM     25  H71 UNL     1      37.176  -3.105  17.741  1.00  0.00     0.157 HD
ENDBRANCH  12  23
BRANCH  11  26
HETATM   26  N6  UNL     1      37.155   0.211  17.897  1.00  0.00    -0.394 N 
ATOM     27  H62 UNL     1      37.879  -0.013  18.580  1.00  0.00     0.156 HD
ATOM     28  H61 UNL     1      36.309   0.773  17.981  1.00  0.00     0.156 HD
ENDBRANCH  11  26
BRANCH   8  29
HETATM   29  C8  UNL     1      36.545   3.738  13.996  1.00  0.00     0.299 C 
HETATM   30  N4  UNL     1      35.274   3.741  13.381  1.00  0.00    -0.054 NA
HETATM   31  O2  UNL     1      37.223   4.807  14.119  1.00  0.00    -0.268 OA
ENDBRANCH   8  29
TORSDOF 7
ENDMDL
