MODEL 1
REMARK VINA RESULT: -6.594745415      0.000      0.000
REMARK  6 active torsions:
REMARK  status: ('A' for Active; 'I' for Inactive)
REMARK    1  A    between atoms: C6_8  and  C7_9 
REMARK    2  A    between atoms: C8_12  and  C9_13 
REMARK    3  A    between atoms: C9_13  and  C10_14 
REMARK    4  A    between atoms: C10_14  and  N4_15 
REMARK    5  A    between atoms: C10_14  and  C11_19 
REMARK    6  A    between atoms: C12_27  and  N8_28 
ROOT
HETATM    1  N1  UNL     1      35.918  -7.444  13.747  1.00  0.00    -0.191 NA
HETATM    2  C1  UNL     1      35.840  -6.351  13.371  1.00  0.00     0.105 C 
HETATM    3  C2  UNL     1      35.755  -4.998  12.901  1.00  0.00     0.112 A 
HETATM    4  C3  UNL     1      36.607  -4.035  13.461  1.00  0.00     0.100 A 
HETATM    5  C4  UNL     1      37.579  -4.481  14.409  1.00  0.00     0.103 C 
HETATM    6  N2  UNL     1      38.377  -4.892  15.159  1.00  0.00    -0.191 NA
HETATM    7  C5  UNL     1      36.559  -2.729  13.043  1.00  0.00     0.114 A 
HETATM    8  C6  UNL     1      37.248  -1.580  13.368  1.00  0.00     0.085 A 
HETATM    9  C8  UNL     1      36.731  -0.558  12.534  1.00  0.00     0.048 A 
HETATM   10  N5  UNL     1      35.803  -1.149  11.807  1.00  0.00    -0.282 N 
ATOM     11  H5  UNL     1      35.246  -0.660  11.107  1.00  0.00     0.189 HD
HETATM   12  N6  UNL     1      35.665  -2.413  12.069  1.00  0.00    -0.193 N 
HETATM   13  N7  UNL     1      34.850  -3.329  11.530  1.00  0.00    -0.263 N 
ATOM     14  H7  UNL     1      34.195  -3.043  10.801  1.00  0.00     0.190 HD
HETATM   15  C12 UNL     1      34.873  -4.609  11.921  1.00  0.00     0.138 A 
ENDROOT
BRANCH  15  16
HETATM   16  N8  UNL     1      34.102  -5.514  11.424  1.00  0.00    -0.383 N 
ATOM     17  H82 UNL     1      33.690  -6.264  11.979  1.00  0.00     0.157 HD
ATOM     18  H81 UNL     1      33.903  -5.464  10.425  1.00  0.00     0.157 HD
ENDBRANCH  15  16
BRANCH   8  19
HETATM   19  C7  UNL     1      38.205  -1.336  14.422  1.00  0.00     0.269 C 
HETATM   20  N3  UNL     1      37.708  -1.023  15.751  1.00  0.00    -0.057 NA
HETATM   21  O1  UNL     1      39.421  -1.381  14.234  1.00  0.00    -0.271 OA
ENDBRANCH   8  19
BRANCH   9  22
HETATM   22  C9  UNL     1      37.236   0.806  12.598  1.00  0.00     0.103 C 
BRANCH  22  23
HETATM   23  C10 UNL     1      36.333   1.754  13.341  1.00  0.00     0.289 C 
BRANCH  23  24
HETATM   24  N4  UNL     1      36.436   1.682  14.763  1.00  0.00    -0.065 N 
ATOM     25  H43 UNL     1      36.126   0.768  15.095  1.00  0.00     0.275 HD
ATOM     26  H42 UNL     1      37.416   1.649  15.046  1.00  0.00     0.275 HD
ATOM     27  H41 UNL     1      35.948   2.426  15.263  1.00  0.00     0.275 HD
ENDBRANCH  23  24
BRANCH  23  28
HETATM   28  C11 UNL     1      36.446   3.145  12.892  1.00  0.00     0.204 C 
HETATM   29  O2  UNL     1      37.436   3.498  12.216  1.00  0.00    -0.646 OA
HETATM   30  O3  UNL     1      35.506   4.123  13.170  1.00  0.00    -0.646 OA
ENDBRANCH  23  28
ENDBRANCH  22  23
ENDBRANCH   9  22
TORSDOF 6
ENDMDL
MODEL 2
REMARK VINA RESULT: -6.591718395      4.274      7.361
REMARK  6 active torsions:
REMARK  status: ('A' for Active; 'I' for Inactive)
REMARK    1  A    between atoms: C6_8  and  C7_9 
REMARK    2  A    between atoms: C8_12  and  C9_13 
REMARK    3  A    between atoms: C9_13  and  C10_14 
REMARK    4  A    between atoms: C10_14  and  N4_15 
REMARK    5  A    between atoms: C10_14  and  C11_19 
REMARK    6  A    between atoms: C12_27  and  N8_28 
ROOT
HETATM    1  N1  UNL     1      37.808  -1.216  14.601  1.00  0.00    -0.191 NA
HETATM    2  C1  UNL     1      37.201  -1.936  13.926  1.00  0.00     0.105 C 
HETATM    3  C2  UNL     1      36.444  -2.832  13.100  1.00  0.00     0.112 A 
HETATM    4  C3  UNL     1      36.709  -4.207  13.179  1.00  0.00     0.100 A 
HETATM    5  C4  UNL     1      37.660  -4.645  14.152  1.00  0.00     0.103 C 
HETATM    6  N2  UNL     1      38.423  -4.963  14.980  1.00  0.00    -0.191 NA
HETATM    7  C5  UNL     1      36.010  -5.101  12.407  1.00  0.00     0.114 A 
HETATM    8  C6  UNL     1      36.016  -6.471  12.263  1.00  0.00     0.085 A 
HETATM    9  C8  UNL     1      35.012  -6.775  11.311  1.00  0.00     0.048 A 
HETATM   10  N5  UNL     1      34.508  -5.607  10.965  1.00  0.00    -0.282 N 
ATOM     11  H5  UNL     1      33.757  -5.503  10.282  1.00  0.00     0.189 HD
HETATM   12  N6  UNL     1      35.058  -4.601  11.575  1.00  0.00    -0.193 N 
HETATM   13  N7  UNL     1      34.801  -3.290  11.496  1.00  0.00    -0.263 N 
ATOM     14  H7  UNL     1      34.076  -2.963  10.856  1.00  0.00     0.190 HD
HETATM   15  C12 UNL     1      35.469  -2.396  12.236  1.00  0.00     0.138 A 
ENDROOT
BRANCH  15  16
HETATM   16  N8  UNL     1      35.248  -1.128  12.183  1.00  0.00    -0.383 N 
ATOM     17  H82 UNL     1      35.290  -0.518  12.999  1.00  0.00     0.157 HD
ATOM     18  H81 UNL     1      35.019  -0.730  11.272  1.00  0.00     0.157 HD
ENDBRANCH  15  16
BRANCH   8  19
HETATM   19  C7  UNL     1      36.915  -7.461  12.811  1.00  0.00     0.269 C 
HETATM   20  N3  UNL     1      38.104  -7.812  12.054  1.00  0.00    -0.057 NA
HETATM   21  O1  UNL     1      36.709  -8.015  13.891  1.00  0.00    -0.271 OA
ENDBRANCH   8  19
BRANCH   9  22
HETATM   22  C9  UNL     1      34.729  -8.147  10.912  1.00  0.00     0.103 C 
BRANCH  22  23
HETATM   23  C10 UNL     1      33.450  -8.695  11.487  1.00  0.00     0.289 C 
BRANCH  23  24
HETATM   24  N4  UNL     1      32.832  -9.713  10.699  1.00  0.00    -0.065 N 
ATOM     25  H43 UNL     1      33.011  -9.551   9.707  1.00  0.00     0.275 HD
ATOM     26  H42 UNL     1      33.319 -10.601  10.823  1.00  0.00     0.275 HD
ATOM     27  H41 UNL     1      31.833  -9.831  10.864  1.00  0.00     0.275 HD
ENDBRANCH  23  24
BRANCH  23  28
HETATM   28  C11 UNL     1      33.573  -9.133  12.880  1.00  0.00     0.204 C 
HETATM   29  O2  UNL     1      33.869 -10.320  13.131  1.00  0.00    -0.646 OA
HETATM   30  O3  UNL     1      33.379  -8.299  13.969  1.00  0.00    -0.646 OA
ENDBRANCH  23  28
ENDBRANCH  22  23
ENDBRANCH   9  22
TORSDOF 6
ENDMDL
MODEL 3
REMARK VINA RESULT: -6.498217365      3.215      6.927
REMARK  6 active torsions:
REMARK  status: ('A' for Active; 'I' for Inactive)
REMARK    1  A    between atoms: C6_8  and  C7_9 
REMARK    2  A    between atoms: C8_12  and  C9_13 
REMARK    3  A    between atoms: C9_13  and  C10_14 
REMARK    4  A    between atoms: C10_14  and  N4_15 
REMARK    5  A    between atoms: C10_14  and  C11_19 
REMARK    6  A    between atoms: C12_27  and  N8_28 
ROOT
HETATM    1  N1  UNL     1      38.361   4.196  18.971  1.00  0.00    -0.191 NA
HETATM    2  C1  UNL     1      38.190   3.244  18.335  1.00  0.00     0.105 C 
HETATM    3  C2  UNL     1      37.990   2.065  17.542  1.00  0.00     0.112 A 
HETATM    4  C3  UNL     1      38.003   2.182  16.145  1.00  0.00     0.100 A 
HETATM    5  C4  UNL     1      38.308   3.463  15.590  1.00  0.00     0.103 C 
HETATM    6  N2  UNL     1      38.590   4.521  15.177  1.00  0.00    -0.191 NA
HETATM    7  C5  UNL     1      37.815   1.081  15.348  1.00  0.00     0.114 A 
HETATM    8  C6  UNL     1      37.788   0.861  13.988  1.00  0.00     0.085 A 
HETATM    9  C8  UNL     1      37.580  -0.529  13.814  1.00  0.00     0.048 A 
HETATM   10  N5  UNL     1      37.494  -1.015  15.037  1.00  0.00    -0.282 N 
ATOM     11  H5  UNL     1      37.340  -2.004  15.236  1.00  0.00     0.189 HD
HETATM   12  N6  UNL     1      37.623  -0.116  15.964  1.00  0.00    -0.193 N 
HETATM   13  N7  UNL     1      37.610  -0.233  17.298  1.00  0.00    -0.263 N 
ATOM     14  H7  UNL     1      37.462  -1.153  17.714  1.00  0.00     0.190 HD
HETATM   15  C12 UNL     1      37.788   0.824  18.099  1.00  0.00     0.138 A 
ENDROOT
BRANCH  15  16
HETATM   16  N8  UNL     1      37.780   0.746  19.385  1.00  0.00    -0.383 N 
ATOM     17  H82 UNL     1      38.450   1.233  19.980  1.00  0.00     0.157 HD
ATOM     18  H81 UNL     1      37.062   0.163  19.815  1.00  0.00     0.157 HD
ENDBRANCH  15  16
BRANCH   8  19
HETATM   19  C7  UNL     1      37.808   1.803  12.892  1.00  0.00     0.269 C 
HETATM   20  N3  UNL     1      36.546   2.346  12.421  1.00  0.00    -0.057 NA
HETATM   21  O1  UNL     1      38.853   2.158  12.345  1.00  0.00    -0.271 OA
ENDBRANCH   8  19
BRANCH   9  22
HETATM   22  C9  UNL     1      37.503  -1.130  12.490  1.00  0.00     0.103 C 
BRANCH  22  23
HETATM   23  C10 UNL     1      36.133  -1.060  11.869  1.00  0.00     0.289 C 
BRANCH  23  24
HETATM   24  N4  UNL     1      36.093  -0.437  10.585  1.00  0.00    -0.065 N 
ATOM     25  H43 UNL     1      36.342  -1.108   9.857  1.00  0.00     0.275 HD
ATOM     26  H42 UNL     1      35.129  -0.237  10.318  1.00  0.00     0.275 HD
ATOM     27  H41 UNL     1      36.666   0.404  10.503  1.00  0.00     0.275 HD
ENDBRANCH  23  24
BRANCH  23  28
HETATM   28  C11 UNL     1      35.440  -2.351  11.830  1.00  0.00     0.204 C 
HETATM   29  O2  UNL     1      35.329  -3.025  12.877  1.00  0.00    -0.646 OA
HETATM   30  O3  UNL     1      34.882  -2.892  10.684  1.00  0.00    -0.646 OA
ENDBRANCH  23  28
ENDBRANCH  22  23
ENDBRANCH   9  22
TORSDOF 6
ENDMDL
MODEL 4
REMARK VINA RESULT: -6.372760195      2.268      3.002
REMARK  6 active torsions:
REMARK  status: ('A' for Active; 'I' for Inactive)
REMARK    1  A    between atoms: C6_8  and  C7_9 
REMARK    2  A    between atoms: C8_12  and  C9_13 
REMARK    3  A    between atoms: C9_13  and  C10_14 
REMARK    4  A    between atoms: C10_14  and  N4_15 
REMARK    5  A    between atoms: C10_14  and  C11_19 
REMARK    6  A    between atoms: C12_27  and  N8_28 
ROOT
HETATM    1  N1  UNL     1      35.362  -9.401  11.228  1.00  0.00    -0.191 NA
HETATM    2  C1  UNL     1      35.314  -8.283  11.529  1.00  0.00     0.105 C 
HETATM    3  C2  UNL     1      35.262  -6.896  11.892  1.00  0.00     0.112 A 
HETATM    4  C3  UNL     1      36.451  -6.249  12.258  1.00  0.00     0.100 A 
HETATM    5  C4  UNL     1      37.668  -6.993  12.157  1.00  0.00     0.103 C 
HETATM    6  N2  UNL     1      38.643  -7.627  12.034  1.00  0.00    -0.191 NA
HETATM    7  C5  UNL     1      36.448  -4.924  12.613  1.00  0.00     0.114 A 
HETATM    8  C6  UNL     1      37.414  -4.019  12.995  1.00  0.00     0.085 A 
HETATM    9  C8  UNL     1      36.748  -2.785  13.192  1.00  0.00     0.048 A 
HETATM   10  N5  UNL     1      35.480  -3.038  12.931  1.00  0.00    -0.282 N 
ATOM     11  H5  UNL     1      34.746  -2.333  12.990  1.00  0.00     0.189 HD
HETATM   12  N6  UNL     1      35.255  -4.271  12.590  1.00  0.00    -0.193 N 
HETATM   13  N7  UNL     1      34.117  -4.883  12.242  1.00  0.00    -0.263 N 
ATOM     14  H7  UNL     1      33.247  -4.350  12.241  1.00  0.00     0.190 HD
HETATM   15  C12 UNL     1      34.091  -6.176  11.893  1.00  0.00     0.138 A 
ENDROOT
BRANCH  15  16
HETATM   16  N8  UNL     1      33.014  -6.795  11.555  1.00  0.00    -0.383 N 
ATOM     17  H82 UNL     1      32.364  -7.198  12.229  1.00  0.00     0.157 HD
ATOM     18  H81 UNL     1      32.815  -6.879  10.558  1.00  0.00     0.157 HD
ENDBRANCH  15  16
BRANCH   8  19
HETATM   19  C7  UNL     1      38.811  -4.224  13.302  1.00  0.00     0.269 C 
HETATM   20  N3  UNL     1      39.169  -4.688  14.631  1.00  0.00    -0.057 NA
HETATM   21  O1  UNL     1      39.705  -4.018  12.480  1.00  0.00    -0.271 OA
ENDBRANCH   8  19
BRANCH   9  22
HETATM   22  C9  UNL     1      37.467  -1.586  13.599  1.00  0.00     0.103 C 
BRANCH  22  23
HETATM   23  C10 UNL     1      37.839  -0.682  12.455  1.00  0.00     0.289 C 
BRANCH  23  24
HETATM   24  N4  UNL     1      38.562  -1.322  11.403  1.00  0.00    -0.065 N 
ATOM     25  H43 UNL     1      39.246  -1.973  11.788  1.00  0.00     0.275 HD
ATOM     26  H42 UNL     1      37.958  -1.976  10.904  1.00  0.00     0.275 HD
ATOM     27  H41 UNL     1      39.011  -0.683  10.746  1.00  0.00     0.275 HD
ENDBRANCH  23  24
BRANCH  23  28
HETATM   28  C11 UNL     1      36.706   0.072  11.910  1.00  0.00     0.204 C 
HETATM   29  O2  UNL     1      36.332  -0.137  10.736  1.00  0.00    -0.646 OA
HETATM   30  O3  UNL     1      36.000   1.025  12.624  1.00  0.00    -0.646 OA
ENDBRANCH  23  28
ENDBRANCH  22  23
ENDBRANCH   9  22
TORSDOF 6
ENDMDL
MODEL 5
REMARK VINA RESULT: -6.349367891      2.902      6.749
REMARK  6 active torsions:
REMARK  status: ('A' for Active; 'I' for Inactive)
REMARK    1  A    between atoms: C6_8  and  C7_9 
REMARK    2  A    between atoms: C8_12  and  C9_13 
REMARK    3  A    between atoms: C9_13  and  C10_14 
REMARK    4  A    between atoms: C10_14  and  N4_15 
REMARK    5  A    between atoms: C10_14  and  C11_19 
REMARK    6  A    between atoms: C12_27  and  N8_28 
ROOT
HETATM    1  N1  UNL     1      38.603   3.794  16.917  1.00  0.00    -0.191 NA
HETATM    2  C1  UNL     1      38.266   2.721  16.640  1.00  0.00     0.105 C 
HETATM    3  C2  UNL     1      37.860   1.390  16.292  1.00  0.00     0.112 A 
HETATM    4  C3  UNL     1      37.923   0.995  14.948  1.00  0.00     0.100 A 
HETATM    5  C4  UNL     1      38.479   1.920  14.011  1.00  0.00     0.103 C 
HETATM    6  N2  UNL     1      38.966   2.694  13.282  1.00  0.00    -0.191 NA
HETATM    7  C5  UNL     1      37.544  -0.269  14.570  1.00  0.00     0.114 A 
HETATM    8  C6  UNL     1      37.503  -0.953  13.375  1.00  0.00     0.085 A 
HETATM    9  C8  UNL     1      37.036  -2.255  13.678  1.00  0.00     0.048 A 
HETATM   10  N5  UNL     1      36.835  -2.249  14.981  1.00  0.00    -0.282 N 
ATOM     11  H5  UNL     1      36.491  -3.059  15.497  1.00  0.00     0.189 HD
HETATM   12  N6  UNL     1      37.115  -1.113  15.545  1.00  0.00    -0.193 N 
HETATM   13  N7  UNL     1      37.054  -0.742  16.830  1.00  0.00    -0.263 N 
ATOM     14  H7  UNL     1      36.724  -1.412  17.525  1.00  0.00     0.190 HD
HETATM   15  C12 UNL     1      37.414   0.485  17.226  1.00  0.00     0.138 A 
ENDROOT
BRANCH  15  16
HETATM   16  N8  UNL     1      37.365   0.875  18.453  1.00  0.00    -0.383 N 
ATOM     17  H82 UNL     1      36.900   1.732  18.750  1.00  0.00     0.157 HD
ATOM     18  H81 UNL     1      37.820   0.286  19.150  1.00  0.00     0.157 HD
ENDBRANCH  15  16
BRANCH   8  19
HETATM   19  C7  UNL     1      37.724  -0.484  12.026  1.00  0.00     0.269 C 
HETATM   20  N3  UNL     1      36.594   0.037  11.277  1.00  0.00    -0.057 NA
HETATM   21  O1  UNL     1      38.833  -0.511  11.491  1.00  0.00    -0.271 OA
ENDBRANCH   8  19
BRANCH   9  22
HETATM   22  C9  UNL     1      36.873  -3.267  12.644  1.00  0.00     0.103 C 
BRANCH  22  23
HETATM   23  C10 UNL     1      35.451  -3.436  12.178  1.00  0.00     0.289 C 
BRANCH  23  24
HETATM   24  N4  UNL     1      35.190  -2.928  10.870  1.00  0.00    -0.065 N 
ATOM     25  H43 UNL     1      35.285  -3.669  10.175  1.00  0.00     0.275 HD
ATOM     26  H42 UNL     1      34.198  -2.714  10.765  1.00  0.00     0.275 HD
ATOM     27  H41 UNL     1      35.756  -2.120  10.607  1.00  0.00     0.275 HD
ENDBRANCH  23  24
BRANCH  23  28
HETATM   28  C11 UNL     1      34.954  -4.810  12.300  1.00  0.00     0.204 C 
HETATM   29  O2  UNL     1      34.850  -5.332  13.430  1.00  0.00    -0.646 OA
HETATM   30  O3  UNL     1      34.579  -5.592  11.220  1.00  0.00    -0.646 OA
ENDBRANCH  23  28
ENDBRANCH  22  23
ENDBRANCH   9  22
TORSDOF 6
ENDMDL
