MODEL 1
REMARK VINA RESULT: -5.905766852      0.000      0.000
REMARK  8 active torsions:
REMARK  status: ('A' for Active; 'I' for Inactive)
REMARK    1  A    between atoms: C2_2  and  C4_4 
REMARK    2  A    between atoms: C2_2  and  O1_9 
REMARK    3  A    between atoms: C4_4  and  N1_5 
REMARK    4  A    between atoms: O1_9  and  N2_10 
REMARK    5  A    between atoms: N2_10  and  C5_12 
REMARK    6  A    between atoms: C5_12  and  C6_13 
REMARK    7  A    between atoms: C11_28  and  C12_29 
REMARK    8  A    between atoms: C12_29  and  N7_30 
ROOT
HETATM    1  C12 UNL     1      39.109   6.069  22.388  1.00  0.00     0.324 C 
HETATM    2  C13 UNL     1      39.680   6.833  23.652  1.00  0.00     0.097 C 
HETATM    3  N8  UNL     1      40.088   7.399  24.613  1.00  0.00    -0.195 NA
ENDROOT
BRANCH   1   4
HETATM    4  C11 UNL     1      38.566   4.929  23.076  1.00  0.00     0.019 A 
HETATM    5  C10 UNL     1      39.461   3.931  23.554  1.00  0.00     0.062 A 
HETATM    6  C9  UNL     1      39.084   2.883  24.347  1.00  0.00     0.114 A 
HETATM    7  N5  UNL     1      37.801   2.792  24.698  1.00  0.00    -0.275 N 
HETATM    8  N6  UNL     1      39.944   2.029  24.729  1.00  0.00    -0.384 N 
HETATM    9  N4  UNL     1      36.940   3.690  24.280  1.00  0.00    -0.202 N 
ATOM     10  H5  UNL     1      37.489   2.023  25.292  1.00  0.00     0.189 HD
HETATM   11  C8  UNL     1      35.680   3.520  24.687  1.00  0.00     0.348 A 
HETATM   12  C14 UNL     1      37.268   4.764  23.468  1.00  0.00     0.088 A 
HETATM   13  N3  UNL     1      34.736   4.383  24.313  1.00  0.00    -0.273 N 
HETATM   14  O3  UNL     1      35.330   2.551  25.434  1.00  0.00    -0.245 OA
HETATM   15  C7  UNL     1      34.984   5.425  23.535  1.00  0.00     0.263 A 
ATOM     16  H3  UNL     1      33.782   4.234  24.640  1.00  0.00     0.173 HD
HETATM   17  C6  UNL     1      36.298   5.638  23.079  1.00  0.00     0.079 A 
HETATM   18  O2  UNL     1      34.118   6.235  23.179  1.00  0.00    -0.267 OA
ATOM     19  H62 UNL     1      39.662   1.247  25.321  1.00  0.00     0.157 HD
ATOM     20  H61 UNL     1      40.926   2.099  24.461  1.00  0.00     0.157 HD
BRANCH  17  21
HETATM   21  C5  UNL     1      36.480   6.700  22.141  1.00  0.00     0.133 C 
BRANCH  21  22
HETATM   22  N2  UNL     1      36.229   7.962  22.525  1.00  0.00    -0.276 N 
ATOM     23  H2  UNL     1      35.645   8.522  21.903  1.00  0.00     0.193 HD
BRANCH  22  24
HETATM   24  O1  UNL     1      36.660   8.552  23.624  1.00  0.00    -0.269 OA
BRANCH  24  25
HETATM   25  C2  UNL     1      35.990   9.068  24.711  1.00  0.00     0.105 C 
HETATM   26  C1  UNL     1      36.594  10.363  25.243  1.00  0.00     0.050 C 
HETATM   27  C3  UNL     1      35.842   8.126  25.873  1.00  0.00     0.050 C 
BRANCH  25  28
HETATM   28  C4  UNL     1      34.573   9.432  24.254  1.00  0.00     0.269 C 
BRANCH  28  29
HETATM   29  N1  UNL     1      33.577   8.647  24.913  1.00  0.00    -0.076 N 
ATOM     30  H13 UNL     1      33.061   8.071  24.248  1.00  0.00     0.274 HD
ATOM     31  H12 UNL     1      34.001   7.907  25.472  1.00  0.00     0.274 HD
ATOM     32  H11 UNL     1      32.947   9.220  25.474  1.00  0.00     0.274 HD
ENDBRANCH  28  29
ENDBRANCH  25  28
ENDBRANCH  24  25
ENDBRANCH  22  24
ENDBRANCH  21  22
ENDBRANCH  17  21
ENDBRANCH   1   4
BRANCH   1  33
HETATM   33  N7  UNL     1      40.439   5.854  21.795  1.00  0.00    -0.058 N 
ATOM     34  H73 UNL     1      41.168   6.078  22.472  1.00  0.00     0.276 HD
ATOM     35  H72 UNL     1      40.614   4.857  21.671  1.00  0.00     0.276 HD
ATOM     36  H71 UNL     1      40.602   6.353  20.921  1.00  0.00     0.276 HD
ENDBRANCH   1  33
TORSDOF 8
ENDMDL
MODEL 2
REMARK VINA RESULT: -5.672653035      2.621      6.200
REMARK  8 active torsions:
REMARK  status: ('A' for Active; 'I' for Inactive)
REMARK    1  A    between atoms: C2_2  and  C4_4 
REMARK    2  A    between atoms: C2_2  and  O1_9 
REMARK    3  A    between atoms: C4_4  and  N1_5 
REMARK    4  A    between atoms: O1_9  and  N2_10 
REMARK    5  A    between atoms: N2_10  and  C5_12 
REMARK    6  A    between atoms: C5_12  and  C6_13 
REMARK    7  A    between atoms: C11_28  and  C12_29 
REMARK    8  A    between atoms: C12_29  and  N7_30 
ROOT
HETATM    1  C12 UNL     1      36.834   3.881  23.395  1.00  0.00     0.324 C 
HETATM    2  C13 UNL     1      35.940   3.144  24.473  1.00  0.00     0.097 C 
HETATM    3  N8  UNL     1      35.272   2.610  25.297  1.00  0.00    -0.195 NA
ENDROOT
BRANCH   1   4
HETATM    4  C11 UNL     1      36.334   5.213  23.603  1.00  0.00     0.019 A 
HETATM    5  C10 UNL     1      34.942   5.389  23.843  1.00  0.00     0.062 A 
HETATM    6  C9  UNL     1      34.374   6.580  24.201  1.00  0.00     0.114 A 
HETATM    7  N5  UNL     1      35.170   7.640  24.336  1.00  0.00    -0.275 N 
HETATM    8  N6  UNL     1      33.120   6.657  24.395  1.00  0.00    -0.384 N 
HETATM    9  N4  UNL     1      36.461   7.524  24.124  1.00  0.00    -0.202 N 
ATOM     10  H5  UNL     1      34.777   8.542  24.605  1.00  0.00     0.189 HD
HETATM   11  C8  UNL     1      37.178   8.638  24.288  1.00  0.00     0.348 A 
HETATM   12  C14 UNL     1      37.085   6.344  23.750  1.00  0.00     0.088 A 
HETATM   13  N3  UNL     1      38.496   8.616  24.094  1.00  0.00    -0.273 N 
HETATM   14  O3  UNL     1      36.651   9.744  24.630  1.00  0.00    -0.245 OA
HETATM   15  C7  UNL     1      39.151   7.523  23.732  1.00  0.00     0.263 A 
ATOM     16  H3  UNL     1      39.024   9.478  24.230  1.00  0.00     0.173 HD
HETATM   17  C6  UNL     1      38.431   6.329  23.543  1.00  0.00     0.079 A 
HETATM   18  O2  UNL     1      40.374   7.487  23.548  1.00  0.00    -0.267 OA
ATOM     19  H62 UNL     1      32.696   7.546  24.661  1.00  0.00     0.157 HD
ATOM     20  H61 UNL     1      32.510   5.846  24.291  1.00  0.00     0.157 HD
BRANCH  17  21
HETATM   21  C5  UNL     1      39.168   5.219  23.028  1.00  0.00     0.133 C 
BRANCH  21  22
HETATM   22  N2  UNL     1      39.491   5.197  21.725  1.00  0.00    -0.276 N 
ATOM     23  H2  UNL     1      40.201   5.862  21.418  1.00  0.00     0.193 HD
BRANCH  22  24
HETATM   24  O1  UNL     1      38.984   4.403  20.800  1.00  0.00    -0.269 OA
BRANCH  24  25
HETATM   25  C2  UNL     1      39.482   3.277  20.183  1.00  0.00     0.105 C 
HETATM   26  C1  UNL     1      39.550   2.059  21.097  1.00  0.00     0.050 C 
HETATM   27  C3  UNL     1      40.834   3.444  19.549  1.00  0.00     0.050 C 
BRANCH  25  28
HETATM   28  C4  UNL     1      38.511   2.895  19.060  1.00  0.00     0.269 C 
BRANCH  28  29
HETATM   29  N1  UNL     1      37.691   1.780  19.415  1.00  0.00    -0.076 N 
ATOM     30  H13 UNL     1      37.742   1.044  18.710  1.00  0.00     0.274 HD
ATOM     31  H12 UNL     1      38.083   1.271  20.208  1.00  0.00     0.274 HD
ATOM     32  H11 UNL     1      36.725   2.056  19.593  1.00  0.00     0.274 HD
ENDBRANCH  28  29
ENDBRANCH  25  28
ENDBRANCH  24  25
ENDBRANCH  22  24
ENDBRANCH  21  22
ENDBRANCH  17  21
ENDBRANCH   1   4
BRANCH   1  33
HETATM   33  N7  UNL     1      36.227   3.166  22.260  1.00  0.00    -0.058 N 
ATOM     34  H73 UNL     1      35.590   2.445  22.596  1.00  0.00     0.276 HD
ATOM     35  H72 UNL     1      35.567   3.771  21.773  1.00  0.00     0.276 HD
ATOM     36  H71 UNL     1      36.896   2.769  21.600  1.00  0.00     0.276 HD
ENDBRANCH   1  33
TORSDOF 8
ENDMDL
MODEL 3
REMARK VINA RESULT: -5.639190760      2.082      6.207
REMARK  8 active torsions:
REMARK  status: ('A' for Active; 'I' for Inactive)
REMARK    1  A    between atoms: C2_2  and  C4_4 
REMARK    2  A    between atoms: C2_2  and  O1_9 
REMARK    3  A    between atoms: C4_4  and  N1_5 
REMARK    4  A    between atoms: O1_9  and  N2_10 
REMARK    5  A    between atoms: N2_10  and  C5_12 
REMARK    6  A    between atoms: C5_12  and  C6_13 
REMARK    7  A    between atoms: C11_28  and  C12_29 
REMARK    8  A    between atoms: C12_29  and  N7_30 
ROOT
HETATM    1  C12 UNL     1      36.661   3.964  23.244  1.00  0.00     0.324 C 
HETATM    2  C13 UNL     1      36.017   3.212  24.478  1.00  0.00     0.097 C 
HETATM    3  N8  UNL     1      35.538   2.666  25.419  1.00  0.00    -0.195 NA
ENDROOT
BRANCH   1   4
HETATM    4  C11 UNL     1      36.204   5.289  23.561  1.00  0.00     0.019 A 
HETATM    5  C10 UNL     1      34.815   5.495  23.790  1.00  0.00     0.062 A 
HETATM    6  C9  UNL     1      34.281   6.670  24.242  1.00  0.00     0.114 A 
HETATM    7  N5  UNL     1      35.111   7.683  24.486  1.00  0.00    -0.275 N 
HETATM    8  N6  UNL     1      33.027   6.776  24.418  1.00  0.00    -0.384 N 
HETATM    9  N4  UNL     1      36.401   7.539  24.288  1.00  0.00    -0.202 N 
ATOM     10  H5  UNL     1      34.744   8.572  24.827  1.00  0.00     0.189 HD
HETATM   11  C8  UNL     1      37.154   8.606  24.565  1.00  0.00     0.348 A 
HETATM   12  C14 UNL     1      36.991   6.375  23.822  1.00  0.00     0.088 A 
HETATM   13  N3  UNL     1      38.474   8.552  24.394  1.00  0.00    -0.273 N 
HETATM   14  O3  UNL     1      36.658   9.696  24.995  1.00  0.00    -0.245 OA
HETATM   15  C7  UNL     1      39.097   7.473  23.948  1.00  0.00     0.263 A 
ATOM     16  H3  UNL     1      39.029   9.379  24.616  1.00  0.00     0.173 HD
HETATM   17  C6  UNL     1      38.340   6.327  23.640  1.00  0.00     0.079 A 
HETATM   18  O2  UNL     1      40.322   7.408  23.785  1.00  0.00    -0.267 OA
ATOM     19  H62 UNL     1      32.628   7.652  24.755  1.00  0.00     0.157 HD
ATOM     20  H61 UNL     1      32.391   6.000  24.231  1.00  0.00     0.157 HD
BRANCH  17  21
HETATM   21  C5  UNL     1      39.048   5.241  23.042  1.00  0.00     0.133 C 
BRANCH  21  22
HETATM   22  N2  UNL     1      39.981   4.595  23.760  1.00  0.00    -0.276 N 
ATOM     23  H2  UNL     1      40.877   5.070  23.880  1.00  0.00     0.193 HD
BRANCH  22  24
HETATM   24  O1  UNL     1      39.860   3.409  24.327  1.00  0.00    -0.269 OA
BRANCH  24  25
HETATM   25  C2  UNL     1      40.398   2.181  24.010  1.00  0.00     0.105 C 
HETATM   26  C1  UNL     1      41.207   1.559  25.142  1.00  0.00     0.050 C 
HETATM   27  C3  UNL     1      41.254   2.160  22.775  1.00  0.00     0.050 C 
BRANCH  25  28
HETATM   28  C4  UNL     1      39.234   1.215  23.758  1.00  0.00     0.269 C 
BRANCH  28  29
HETATM   29  N1  UNL     1      38.480   0.962  24.946  1.00  0.00    -0.076 N 
ATOM     30  H13 UNL     1      38.461  -0.034  25.167  1.00  0.00     0.274 HD
ATOM     31  H12 UNL     1      38.969   1.302  25.773  1.00  0.00     0.274 HD
ATOM     32  H11 UNL     1      37.536   1.346  24.889  1.00  0.00     0.274 HD
ENDBRANCH  28  29
ENDBRANCH  25  28
ENDBRANCH  24  25
ENDBRANCH  22  24
ENDBRANCH  21  22
ENDBRANCH  17  21
ENDBRANCH   1   4
BRANCH   1  33
HETATM   33  N7  UNL     1      35.839   3.249  22.254  1.00  0.00    -0.058 N 
ATOM     34  H73 UNL     1      34.990   2.891  22.692  1.00  0.00     0.276 HD
ATOM     35  H72 UNL     1      35.431   3.908  21.591  1.00  0.00     0.276 HD
ATOM     36  H71 UNL     1      36.323   2.502  21.757  1.00  0.00     0.276 HD
ENDBRANCH   1  33
TORSDOF 8
ENDMDL
MODEL 4
REMARK VINA RESULT: -5.596692040      2.565      5.596
REMARK  8 active torsions:
REMARK  status: ('A' for Active; 'I' for Inactive)
REMARK    1  A    between atoms: C2_2  and  C4_4 
REMARK    2  A    between atoms: C2_2  and  O1_9 
REMARK    3  A    between atoms: C4_4  and  N1_5 
REMARK    4  A    between atoms: O1_9  and  N2_10 
REMARK    5  A    between atoms: N2_10  and  C5_12 
REMARK    6  A    between atoms: C5_12  and  C6_13 
REMARK    7  A    between atoms: C11_28  and  C12_29 
REMARK    8  A    between atoms: C12_29  and  N7_30 
ROOT
HETATM    1  C12 UNL     1      37.862   7.031  22.672  1.00  0.00     0.324 C 
HETATM    2  C13 UNL     1      36.965   7.346  21.407  1.00  0.00     0.097 C 
HETATM    3  N8  UNL     1      36.282   7.560  20.459  1.00  0.00    -0.195 NA
ENDROOT
BRANCH   1   4
HETATM    4  C11 UNL     1      36.898   6.262  23.411  1.00  0.00     0.019 A 
HETATM    5  C10 UNL     1      35.590   6.796  23.585  1.00  0.00     0.062 A 
HETATM    6  C9  UNL     1      34.549   6.101  24.135  1.00  0.00     0.114 A 
HETATM    7  N5  UNL     1      34.770   4.847  24.530  1.00  0.00    -0.275 N 
HETATM    8  N6  UNL     1      33.409   6.650  24.261  1.00  0.00    -0.384 N 
HETATM    9  N4  UNL     1      35.961   4.314  24.389  1.00  0.00    -0.202 N 
ATOM     10  H5  UNL     1      34.012   4.301  24.941  1.00  0.00     0.189 HD
HETATM   11  C8  UNL     1      36.086   3.052  24.806  1.00  0.00     0.348 A 
HETATM   12  C14 UNL     1      37.051   4.977  23.848  1.00  0.00     0.088 A 
HETATM   13  N3  UNL     1      37.259   2.429  24.703  1.00  0.00    -0.273 N 
HETATM   14  O3  UNL     1      35.115   2.402  25.309  1.00  0.00    -0.245 OA
HETATM   15  C7  UNL     1      38.338   3.008  24.200  1.00  0.00     0.263 A 
ATOM     16  H3  UNL     1      37.329   1.464  25.025  1.00  0.00     0.173 HD
HETATM   17  C6  UNL     1      38.251   4.339  23.753  1.00  0.00     0.079 A 
HETATM   18  O2  UNL     1      39.434   2.442  24.098  1.00  0.00    -0.267 OA
ATOM     19  H62 UNL     1      32.633   6.131  24.671  1.00  0.00     0.157 HD
ATOM     20  H61 UNL     1      33.240   7.610  23.959  1.00  0.00     0.157 HD
BRANCH  17  21
HETATM   21  C5  UNL     1      39.475   4.952  23.343  1.00  0.00     0.133 C 
BRANCH  21  22
HETATM   22  N2  UNL     1      40.079   4.519  22.224  1.00  0.00    -0.276 N 
ATOM     23  H2  UNL     1      41.096   4.436  22.257  1.00  0.00     0.193 HD
BRANCH  22  24
HETATM   24  O1  UNL     1      39.494   4.189  21.088  1.00  0.00    -0.269 OA
BRANCH  24  25
HETATM   25  C2  UNL     1      39.507   3.024  20.353  1.00  0.00     0.105 C 
HETATM   26  C1  UNL     1      40.601   2.049  20.773  1.00  0.00     0.050 C 
HETATM   27  C3  UNL     1      39.613   3.212  18.865  1.00  0.00     0.050 C 
BRANCH  25  28
HETATM   28  C4  UNL     1      38.184   2.296  20.615  1.00  0.00     0.269 C 
BRANCH  28  29
HETATM   29  N1  UNL     1      37.624   1.754  19.417  1.00  0.00    -0.076 N 
ATOM     30  H13 UNL     1      36.606   1.830  19.417  1.00  0.00     0.274 HD
ATOM     31  H12 UNL     1      37.830   2.345  18.612  1.00  0.00     0.274 HD
ATOM     32  H11 UNL     1      37.922   0.792  19.256  1.00  0.00     0.274 HD
ENDBRANCH  28  29
ENDBRANCH  25  28
ENDBRANCH  24  25
ENDBRANCH  22  24
ENDBRANCH  21  22
ENDBRANCH  17  21
ENDBRANCH   1   4
BRANCH   1  33
HETATM   33  N7  UNL     1      37.963   8.443  23.075  1.00  0.00    -0.058 N 
ATOM     34  H73 UNL     1      37.125   8.727  23.581  1.00  0.00     0.276 HD
ATOM     35  H72 UNL     1      38.660   8.552  23.812  1.00  0.00     0.276 HD
ATOM     36  H71 UNL     1      38.151   9.092  22.311  1.00  0.00     0.276 HD
ENDBRANCH   1  33
TORSDOF 8
ENDMDL
MODEL 5
REMARK VINA RESULT: -5.531312124      2.207      6.341
REMARK  8 active torsions:
REMARK  status: ('A' for Active; 'I' for Inactive)
REMARK    1  A    between atoms: C2_2  and  C4_4 
REMARK    2  A    between atoms: C2_2  and  O1_9 
REMARK    3  A    between atoms: C4_4  and  N1_5 
REMARK    4  A    between atoms: O1_9  and  N2_10 
REMARK    5  A    between atoms: N2_10  and  C5_12 
REMARK    6  A    between atoms: C5_12  and  C6_13 
REMARK    7  A    between atoms: C11_28  and  C12_29 
REMARK    8  A    between atoms: C12_29  and  N7_30 
ROOT
HETATM    1  C12 UNL     1      36.684   3.987  23.287  1.00  0.00     0.324 C 
HETATM    2  C13 UNL     1      35.990   3.237  24.495  1.00  0.00     0.097 C 
HETATM    3  N8  UNL     1      35.474   2.693  25.417  1.00  0.00    -0.195 NA
ENDROOT
BRANCH   1   4
HETATM    4  C11 UNL     1      36.210   5.312  23.580  1.00  0.00     0.019 A 
HETATM    5  C10 UNL     1      34.817   5.506  23.796  1.00  0.00     0.062 A 
HETATM    6  C9  UNL     1      34.267   6.682  24.226  1.00  0.00     0.114 A 
HETATM    7  N5  UNL     1      35.084   7.708  24.461  1.00  0.00    -0.275 N 
HETATM    8  N6  UNL     1      33.010   6.777  24.391  1.00  0.00    -0.384 N 
HETATM    9  N4  UNL     1      36.377   7.575  24.275  1.00  0.00    -0.202 N 
ATOM     10  H5  UNL     1      34.704   8.598  24.786  1.00  0.00     0.189 HD
HETATM   11  C8  UNL     1      37.116   8.654  24.542  1.00  0.00     0.348 A 
HETATM   12  C14 UNL     1      36.983   6.410  23.831  1.00  0.00     0.088 A 
HETATM   13  N3  UNL     1      38.438   8.612  24.382  1.00  0.00    -0.273 N 
HETATM   14  O3  UNL     1      36.606   9.745  24.952  1.00  0.00    -0.245 OA
HETATM   15  C7  UNL     1      39.077   7.533  23.957  1.00  0.00     0.263 A 
ATOM     16  H3  UNL     1      38.982   9.448  24.596  1.00  0.00     0.173 HD
HETATM   17  C6  UNL     1      38.334   6.375  23.660  1.00  0.00     0.079 A 
HETATM   18  O2  UNL     1      40.303   7.479  23.804  1.00  0.00    -0.267 OA
ATOM     19  H62 UNL     1      32.600   7.654  24.712  1.00  0.00     0.157 HD
ATOM     20  H61 UNL     1      32.384   5.991  24.211  1.00  0.00     0.157 HD
BRANCH  17  21
HETATM   21  C5  UNL     1      39.059   5.287  23.084  1.00  0.00     0.133 C 
BRANCH  21  22
HETATM   22  N2  UNL     1      40.022   4.689  23.805  1.00  0.00    -0.276 N 
ATOM     23  H2  UNL     1      40.227   5.093  24.719  1.00  0.00     0.193 HD
BRANCH  22  24
HETATM   24  O1  UNL     1      40.732   3.634  23.451  1.00  0.00    -0.269 OA
BRANCH  24  25
HETATM   25  C2  UNL     1      40.784   2.353  23.954  1.00  0.00     0.105 C 
HETATM   26  C1  UNL     1      41.602   1.393  23.098  1.00  0.00     0.050 C 
HETATM   27  C3  UNL     1      39.448   1.712  24.204  1.00  0.00     0.050 C 
BRANCH  25  28
HETATM   28  C4  UNL     1      41.505   2.414  25.306  1.00  0.00     0.269 C 
BRANCH  28  29
HETATM   29  N1  UNL     1      41.275   1.242  26.091  1.00  0.00    -0.076 N 
ATOM     30  H13 UNL     1      42.153   0.787  26.341  1.00  0.00     0.274 HD
ATOM     31  H12 UNL     1      40.946   1.482  27.025  1.00  0.00     0.274 HD
ATOM     32  H11 UNL     1      40.639   0.591  25.630  1.00  0.00     0.274 HD
ENDBRANCH  28  29
ENDBRANCH  25  28
ENDBRANCH  24  25
ENDBRANCH  22  24
ENDBRANCH  21  22
ENDBRANCH  17  21
ENDBRANCH   1   4
BRANCH   1  33
HETATM   33  N7  UNL     1      35.906   3.267  22.266  1.00  0.00    -0.058 N 
ATOM     34  H73 UNL     1      35.573   2.378  22.636  1.00  0.00     0.276 HD
ATOM     35  H72 UNL     1      35.015   3.736  22.104  1.00  0.00     0.276 HD
ATOM     36  H71 UNL     1      36.394   3.122  21.382  1.00  0.00     0.276 HD
ENDBRANCH   1  33
TORSDOF 8
ENDMDL
