MODEL 1
REMARK VINA RESULT: -6.978035670      0.000      0.000
REMARK  6 active torsions:
REMARK  status: ('A' for Active; 'I' for Inactive)
REMARK    1  A    between atoms: C2_3  and  C3_5 
REMARK    2  A    between atoms: C3_5  and  N2_6 
REMARK    3  A    between atoms: C4_12  and  N4_13 
REMARK    4  A    between atoms: N4_13  and  C5_15 
REMARK    5  A    between atoms: C5_15  and  C6_16 
REMARK    6  A    between atoms: C5_15  and  C7_19 
ROOT
HETATM    1  N1  UNL     1      37.141  -1.542  23.888  1.00  0.00    -0.188 NA
HETATM    2  C1  UNL     1      37.074  -0.393  23.994  1.00  0.00     0.143 C 
HETATM    3  C2  UNL     1      37.056   1.008  24.154  1.00  0.00     0.290 C 
HETATM    4  O1  UNL     1      36.680   1.473  25.286  1.00  0.00    -0.276 OA
ENDROOT
BRANCH   3   5
HETATM    5  C3  UNL     1      37.469   1.954  23.093  1.00  0.00     0.314 A 
HETATM    6  N3  UNL     1      36.377   2.832  22.689  1.00  0.00    -0.179 N 
HETATM    7  C4  UNL     1      36.515   4.249  22.754  1.00  0.00     0.678 A 
ATOM      8  H3  UNL     1      35.503   2.426  22.355  1.00  0.00     0.181 HD
HETATM    9  N5  UNL     1      37.670   4.715  23.120  1.00  0.00    -0.191 N 
HETATM   10  C8  UNL     1      38.820   3.991  23.474  1.00  0.00     0.061 A 
ATOM     11  H5  UNL     1      37.752   5.732  23.155  1.00  0.00     0.184 HD
HETATM   12  C9  UNL     1      39.974   4.593  23.871  1.00  0.00     0.053 A 
HETATM   13  C14 UNL     1      38.713   2.610  23.411  1.00  0.00     0.034 A 
HETATM   14  C10 UNL     1      41.095   3.845  24.224  1.00  0.00     0.046 A 
HETATM   15  C11 UNL     1      42.264   4.523  24.814  1.00  0.00     0.099 C 
HETATM   16  C12 UNL     1      41.009   2.481  24.157  1.00  0.00     0.023 A 
HETATM   17  N6  UNL     1      43.172   5.024  25.307  1.00  0.00    -0.191 NA
HETATM   18  C13 UNL     1      39.831   1.860  23.759  1.00  0.00     0.016 A 
BRANCH   5  19
HETATM   19  N2  UNL     1      37.656   1.038  21.900  1.00  0.00    -0.039 N 
ATOM     20  H23 UNL     1      38.195   0.193  22.086  1.00  0.00     0.278 HD
ATOM     21  H22 UNL     1      36.813   0.551  21.595  1.00  0.00     0.278 HD
ATOM     22  H21 UNL     1      38.065   1.664  21.206  1.00  0.00     0.278 HD
ENDBRANCH   5  19
BRANCH   7  23
HETATM   23  N4  UNL     1      35.511   5.191  22.458  1.00  0.00    -0.202 N 
ATOM     24  H4  UNL     1      34.658   4.919  21.969  1.00  0.00     0.179 HD
BRANCH  23  25
HETATM   25  C5  UNL     1      35.736   6.582  22.878  1.00  0.00     0.301 C 
BRANCH  25  26
HETATM   26  C6  UNL     1      35.639   7.489  21.700  1.00  0.00     0.208 C 
HETATM   27  O2  UNL     1      36.510   7.386  20.828  1.00  0.00    -0.646 OA
HETATM   28  O3  UNL     1      34.580   8.418  21.647  1.00  0.00    -0.646 OA
ENDBRANCH  25  26
BRANCH  25  29
HETATM   29  C7  UNL     1      34.610   6.950  23.835  1.00  0.00     0.208 C 
HETATM   30  O4  UNL     1      34.935   7.583  24.858  1.00  0.00    -0.646 OA
HETATM   31  O5  UNL     1      33.303   6.615  23.602  1.00  0.00    -0.646 OA
ENDBRANCH  25  29
ENDBRANCH  23  25
ENDBRANCH   7  23
ENDBRANCH   3   5
TORSDOF 6
ENDMDL
MODEL 2
REMARK VINA RESULT: -6.806584546      1.151      1.414
REMARK  6 active torsions:
REMARK  status: ('A' for Active; 'I' for Inactive)
REMARK    1  A    between atoms: C2_3  and  C3_5 
REMARK    2  A    between atoms: C3_5  and  N2_6 
REMARK    3  A    between atoms: C4_12  and  N4_13 
REMARK    4  A    between atoms: N4_13  and  C5_15 
REMARK    5  A    between atoms: C5_15  and  C6_16 
REMARK    6  A    between atoms: C5_15  and  C7_19 
ROOT
HETATM    1  N1  UNL     1      37.143  -0.151  24.629  1.00  0.00    -0.188 NA
HETATM    2  C1  UNL     1      36.969   0.981  24.475  1.00  0.00     0.143 C 
HETATM    3  C2  UNL     1      36.814   2.375  24.327  1.00  0.00     0.290 C 
HETATM    4  O1  UNL     1      36.214   3.010  25.262  1.00  0.00    -0.276 OA
ENDROOT
BRANCH   3   5
HETATM    5  C3  UNL     1      37.329   3.133  23.164  1.00  0.00     0.314 A 
HETATM    6  N3  UNL     1      36.348   4.083  22.654  1.00  0.00    -0.179 N 
HETATM    7  C4  UNL     1      36.656   5.471  22.552  1.00  0.00     0.678 A 
ATOM      8  H3  UNL     1      35.428   3.750  22.366  1.00  0.00     0.181 HD
HETATM    9  N5  UNL     1      37.862   5.833  22.867  1.00  0.00    -0.191 N 
HETATM   10  C8  UNL     1      38.920   5.021  23.309  1.00  0.00     0.061 A 
ATOM     11  H5  UNL     1      38.067   6.829  22.782  1.00  0.00     0.184 HD
HETATM   12  C9  UNL     1      40.142   5.521  23.638  1.00  0.00     0.053 A 
HETATM   13  C14 UNL     1      38.646   3.666  23.409  1.00  0.00     0.034 A 
HETATM   14  C10 UNL     1      41.167   4.689  24.082  1.00  0.00     0.046 A 
HETATM   15  C11 UNL     1      42.416   5.285  24.594  1.00  0.00     0.099 C 
HETATM   16  C12 UNL     1      40.917   3.348  24.175  1.00  0.00     0.023 A 
HETATM   17  N6  UNL     1      43.382   5.727  25.029  1.00  0.00    -0.191 NA
HETATM   18  C13 UNL     1      39.668   2.832  23.848  1.00  0.00     0.016 A 
BRANCH   5  19
HETATM   19  N2  UNL     1      37.392   2.067  22.087  1.00  0.00    -0.039 N 
ATOM     20  H23 UNL     1      38.084   2.235  21.357  1.00  0.00     0.278 HD
ATOM     21  H22 UNL     1      37.780   1.174  22.388  1.00  0.00     0.278 HD
ATOM     22  H21 UNL     1      36.426   2.029  21.763  1.00  0.00     0.278 HD
ENDBRANCH   5  19
BRANCH   7  23
HETATM   23  N4  UNL     1      35.771   6.486  22.142  1.00  0.00    -0.202 N 
ATOM     24  H4  UNL     1      35.453   6.552  21.175  1.00  0.00     0.179 HD
BRANCH  23  25
HETATM   25  C5  UNL     1      35.322   7.450  23.158  1.00  0.00     0.301 C 
BRANCH  25  26
HETATM   26  C6  UNL     1      34.537   8.539  22.511  1.00  0.00     0.208 C 
HETATM   27  O2  UNL     1      34.448   8.523  21.278  1.00  0.00    -0.646 OA
HETATM   28  O3  UNL     1      33.953   9.529  23.328  1.00  0.00    -0.646 OA
ENDBRANCH  25  26
BRANCH  25  29
HETATM   29  C7  UNL     1      34.385   6.706  24.101  1.00  0.00     0.208 C 
HETATM   30  O4  UNL     1      33.210   6.558  23.713  1.00  0.00    -0.646 OA
HETATM   31  O5  UNL     1      34.793   6.214  25.312  1.00  0.00    -0.646 OA
ENDBRANCH  25  29
ENDBRANCH  23  25
ENDBRANCH   7  23
ENDBRANCH   3   5
TORSDOF 6
ENDMDL
MODEL 3
REMARK VINA RESULT: -6.781619203      3.456      7.048
REMARK  6 active torsions:
REMARK  status: ('A' for Active; 'I' for Inactive)
REMARK    1  A    between atoms: C2_3  and  C3_5 
REMARK    2  A    between atoms: C3_5  and  N2_6 
REMARK    3  A    between atoms: C4_12  and  N4_13 
REMARK    4  A    between atoms: N4_13  and  C5_15 
REMARK    5  A    between atoms: C5_15  and  C6_16 
REMARK    6  A    between atoms: C5_15  and  C7_19 
ROOT
HETATM    1  N1  UNL     1      41.115   5.320  20.480  1.00  0.00    -0.188 NA
HETATM    2  C1  UNL     1      40.502   4.721  21.255  1.00  0.00     0.143 C 
HETATM    3  C2  UNL     1      39.719   4.049  22.217  1.00  0.00     0.290 C 
HETATM    4  O1  UNL     1      40.095   4.110  23.439  1.00  0.00    -0.276 OA
ENDROOT
BRANCH   3   5
HETATM    5  C3  UNL     1      38.483   3.305  21.885  1.00  0.00     0.314 A 
HETATM    6  N3  UNL     1      38.561   1.907  22.295  1.00  0.00    -0.179 N 
HETATM    7  C4  UNL     1      37.588   1.347  23.173  1.00  0.00     0.678 A 
ATOM      8  H3  UNL     1      39.322   1.323  21.949  1.00  0.00     0.181 HD
HETATM    9  N5  UNL     1      36.602   2.112  23.529  1.00  0.00    -0.191 N 
HETATM   10  C8  UNL     1      36.370   3.448  23.161  1.00  0.00     0.061 A 
ATOM     11  H5  UNL     1      35.912   1.693  24.153  1.00  0.00     0.184 HD
HETATM   12  C9  UNL     1      35.308   4.163  23.624  1.00  0.00     0.053 A 
HETATM   13  C14 UNL     1      37.300   4.013  22.302  1.00  0.00     0.034 A 
HETATM   14  C10 UNL     1      35.112   5.490  23.247  1.00  0.00     0.046 A 
HETATM   15  C11 UNL     1      34.054   6.282  23.903  1.00  0.00     0.099 C 
HETATM   16  C12 UNL     1      36.014   6.059  22.391  1.00  0.00     0.023 A 
HETATM   17  N6  UNL     1      33.261   6.928  24.424  1.00  0.00    -0.191 NA
HETATM   18  C13 UNL     1      37.104   5.336  21.921  1.00  0.00     0.016 A 
BRANCH   5  19
HETATM   19  N2  UNL     1      38.543   3.239  20.371  1.00  0.00    -0.039 N 
ATOM     20  H23 UNL     1      38.781   2.324  19.990  1.00  0.00     0.278 HD
ATOM     21  H22 UNL     1      37.641   3.310  19.902  1.00  0.00     0.278 HD
ATOM     22  H21 UNL     1      39.203   3.983  20.147  1.00  0.00     0.278 HD
ENDBRANCH   5  19
BRANCH   7  23
HETATM   23  N4  UNL     1      37.598   0.037  23.690  1.00  0.00    -0.202 N 
ATOM     24  H4  UNL     1      37.454  -0.140  24.684  1.00  0.00     0.179 HD
BRANCH  23  25
HETATM   25  C5  UNL     1      37.825  -1.066  22.745  1.00  0.00     0.301 C 
BRANCH  25  26
HETATM   26  C6  UNL     1      39.207  -1.598  22.909  1.00  0.00     0.208 C 
HETATM   27  O2  UNL     1      39.887  -1.144  23.837  1.00  0.00    -0.646 OA
HETATM   28  O3  UNL     1      39.670  -2.570  21.999  1.00  0.00    -0.646 OA
ENDBRANCH  25  26
BRANCH  25  29
HETATM   29  C7  UNL     1      36.857  -2.182  23.116  1.00  0.00     0.208 C 
HETATM   30  O4  UNL     1      35.882  -2.347  22.357  1.00  0.00    -0.646 OA
HETATM   31  O5  UNL     1      37.031  -2.976  24.219  1.00  0.00    -0.646 OA
ENDBRANCH  25  29
ENDBRANCH  23  25
ENDBRANCH   7  23
ENDBRANCH   3   5
TORSDOF 6
ENDMDL
MODEL 4
REMARK VINA RESULT: -6.755870725      3.274      6.613
REMARK  6 active torsions:
REMARK  status: ('A' for Active; 'I' for Inactive)
REMARK    1  A    between atoms: C2_3  and  C3_5 
REMARK    2  A    between atoms: C3_5  and  N2_6 
REMARK    3  A    between atoms: C4_12  and  N4_13 
REMARK    4  A    between atoms: N4_13  and  C5_15 
REMARK    5  A    between atoms: C5_15  and  C6_16 
REMARK    6  A    between atoms: C5_15  and  C7_19 
ROOT
HETATM    1  N1  UNL     1      42.409   5.280  22.421  1.00  0.00    -0.188 NA
HETATM    2  C1  UNL     1      41.471   4.660  22.689  1.00  0.00     0.143 C 
HETATM    3  C2  UNL     1      40.294   3.964  23.035  1.00  0.00     0.290 C 
HETATM    4  O1  UNL     1      40.112   3.678  24.269  1.00  0.00    -0.276 OA
ENDROOT
BRANCH   3   5
HETATM    5  C3  UNL     1      39.260   3.575  22.050  1.00  0.00     0.314 A 
HETATM    6  N3  UNL     1      39.212   2.131  21.851  1.00  0.00    -0.179 N 
HETATM    7  C4  UNL     1      38.004   1.403  22.059  1.00  0.00     0.678 A 
ATOM      8  H3  UNL     1      40.054   1.635  21.560  1.00  0.00     0.181 HD
HETATM    9  N5  UNL     1      36.945   2.089  22.362  1.00  0.00    -0.191 N 
HETATM   10  C8  UNL     1      36.834   3.480  22.521  1.00  0.00     0.061 A 
ATOM     11  H5  UNL     1      36.088   1.553  22.501  1.00  0.00     0.184 HD
HETATM   12  C9  UNL     1      35.668   4.090  22.870  1.00  0.00     0.053 A 
HETATM   13  C14 UNL     1      37.995   4.211  22.317  1.00  0.00     0.034 A 
HETATM   14  C10 UNL     1      35.594   5.471  23.029  1.00  0.00     0.046 A 
HETATM   15  C11 UNL     1      34.364   6.075  23.575  1.00  0.00     0.099 C 
HETATM   16  C12 UNL     1      36.727   6.207  22.820  1.00  0.00     0.023 A 
HETATM   17  N6  UNL     1      33.429   6.563  24.031  1.00  0.00    -0.191 NA
HETATM   18  C13 UNL     1      37.924   5.591  22.472  1.00  0.00     0.016 A 
BRANCH   5  19
HETATM   19  N2  UNL     1      39.840   4.097  20.750  1.00  0.00    -0.039 N 
ATOM     20  H23 UNL     1      39.674   3.505  19.937  1.00  0.00     0.278 HD
ATOM     21  H22 UNL     1      39.371   4.919  20.370  1.00  0.00     0.278 HD
ATOM     22  H21 UNL     1      40.822   4.234  20.989  1.00  0.00     0.278 HD
ENDBRANCH   5  19
BRANCH   7  23
HETATM   23  N4  UNL     1      37.855   0.006  21.966  1.00  0.00    -0.202 N 
ATOM     24  H4  UNL     1      37.480  -0.431  21.124  1.00  0.00     0.179 HD
BRANCH  23  25
HETATM   25  C5  UNL     1      38.257  -0.801  23.127  1.00  0.00     0.301 C 
BRANCH  25  26
HETATM   26  C6  UNL     1      38.334   0.061  24.341  1.00  0.00     0.208 C 
HETATM   27  O2  UNL     1      39.442   0.519  24.645  1.00  0.00    -0.646 OA
HETATM   28  O3  UNL     1      37.157   0.295  25.080  1.00  0.00    -0.646 OA
ENDBRANCH  25  26
BRANCH  25  29
HETATM   29  C7  UNL     1      37.159  -1.829  23.363  1.00  0.00     0.208 C 
HETATM   30  O4  UNL     1      36.110  -1.682  22.706  1.00  0.00    -0.646 OA
HETATM   31  O5  UNL     1      37.297  -2.871  24.241  1.00  0.00    -0.646 OA
ENDBRANCH  25  29
ENDBRANCH  23  25
ENDBRANCH   7  23
ENDBRANCH   3   5
TORSDOF 6
ENDMDL
MODEL 5
REMARK VINA RESULT: -6.745306468      3.448      6.993
REMARK  6 active torsions:
REMARK  status: ('A' for Active; 'I' for Inactive)
REMARK    1  A    between atoms: C2_3  and  C3_5 
REMARK    2  A    between atoms: C3_5  and  N2_6 
REMARK    3  A    between atoms: C4_12  and  N4_13 
REMARK    4  A    between atoms: N4_13  and  C5_15 
REMARK    5  A    between atoms: C5_15  and  C6_16 
REMARK    6  A    between atoms: C5_15  and  C7_19 
ROOT
HETATM    1  N1  UNL     1      41.913   5.629  23.878  1.00  0.00    -0.188 NA
HETATM    2  C1  UNL     1      41.162   4.751  23.854  1.00  0.00     0.143 C 
HETATM    3  C2  UNL     1      40.197   3.721  23.859  1.00  0.00     0.290 C 
HETATM    4  O1  UNL     1      40.089   3.012  24.918  1.00  0.00    -0.276 OA
ENDROOT
BRANCH   3   5
HETATM    5  C3  UNL     1      39.300   3.443  22.715  1.00  0.00     0.314 A 
HETATM    6  N3  UNL     1      39.215   2.016  22.424  1.00  0.00    -0.179 N 
HETATM    7  C4  UNL     1      37.957   1.344  22.413  1.00  0.00     0.678 A 
ATOM      8  H3  UNL     1      40.066   1.492  22.224  1.00  0.00     0.181 HD
HETATM    9  N5  UNL     1      36.898   2.069  22.605  1.00  0.00    -0.191 N 
HETATM   10  C8  UNL     1      36.829   3.454  22.833  1.00  0.00     0.061 A 
ATOM     11  H5  UNL     1      36.006   1.573  22.589  1.00  0.00     0.184 HD
HETATM   12  C9  UNL     1      35.654   4.105  23.051  1.00  0.00     0.053 A 
HETATM   13  C14 UNL     1      38.039   4.130  22.841  1.00  0.00     0.034 A 
HETATM   14  C10 UNL     1      35.621   5.478  23.283  1.00  0.00     0.046 A 
HETATM   15  C11 UNL     1      34.353   6.116  23.686  1.00  0.00     0.099 C 
HETATM   16  C12 UNL     1      36.805   6.162  23.282  1.00  0.00     0.023 A 
HETATM   17  N6  UNL     1      33.387   6.629  24.035  1.00  0.00    -0.191 NA
HETATM   18  C13 UNL     1      38.009   5.502  23.068  1.00  0.00     0.016 A 
BRANCH   5  19
HETATM   19  N2  UNL     1      40.083   4.003  21.545  1.00  0.00    -0.039 N 
ATOM     20  H23 UNL     1      41.036   4.292  21.765  1.00  0.00     0.278 HD
ATOM     21  H22 UNL     1      40.348   3.319  20.837  1.00  0.00     0.278 HD
ATOM     22  H21 UNL     1      39.474   4.751  21.213  1.00  0.00     0.278 HD
ENDBRANCH   5  19
BRANCH   7  23
HETATM   23  N4  UNL     1      37.759  -0.035  22.214  1.00  0.00    -0.202 N 
ATOM     24  H4  UNL     1      37.477  -0.403  21.306  1.00  0.00     0.179 HD
BRANCH  23  25
HETATM   25  C5  UNL     1      37.973  -0.927  23.363  1.00  0.00     0.301 C 
BRANCH  25  26
HETATM   26  C6  UNL     1      37.003  -2.057  23.316  1.00  0.00     0.208 C 
HETATM   27  O2  UNL     1      36.181  -2.064  22.391  1.00  0.00    -0.646 OA
HETATM   28  O3  UNL     1      37.061  -3.041  24.323  1.00  0.00    -0.646 OA
ENDBRANCH  25  26
BRANCH  25  29
HETATM   29  C7  UNL     1      39.371  -1.515  23.222  1.00  0.00     0.208 C 
HETATM   30  O4  UNL     1      40.295  -0.890  23.778  1.00  0.00    -0.646 OA
HETATM   31  O5  UNL     1      39.620  -2.670  22.529  1.00  0.00    -0.646 OA
ENDBRANCH  25  29
ENDBRANCH  23  25
ENDBRANCH   7  23
ENDBRANCH   3   5
TORSDOF 6
ENDMDL
