MODEL 1
REMARK VINA RESULT: -5.875769563      0.000      0.000
REMARK  6 active torsions:
REMARK  status: ('A' for Active; 'I' for Inactive)
REMARK    1  A    between atoms: N1_2  and  C2_4 
REMARK    2  A    between atoms: C4_9  and  N4_10 
REMARK    3  A    between atoms: C10_24  and  N10_25 
REMARK    4  A    between atoms: N10_25  and  C11_27 
REMARK    5  A    between atoms: C11_27  and  C12_28 
REMARK    6  A    between atoms: C12_28  and  N11_29 
ROOT
HETATM    1  C2  UNL     1      37.436   0.650  24.370  1.00  0.00     0.147 A 
HETATM    2  N2  UNL     1      36.623  -0.242  23.781  1.00  0.00    -0.325 N 
ATOM      3  H2  UNL     1      35.616  -0.098  23.848  1.00  0.00     0.169 HD
HETATM    4  C3  UNL     1      37.072  -1.317  23.106  1.00  0.00     0.162 A 
HETATM    5  N3  UNL     1      36.187  -2.250  22.501  1.00  0.00    -0.079 NA
HETATM    6  C4  UNL     1      38.453  -1.449  23.054  1.00  0.00     0.155 A 
HETATM    7  N9  UNL     1      39.279  -0.583  23.628  1.00  0.00    -0.322 N 
ATOM      8  H9  UNL     1      40.285  -0.729  23.559  1.00  0.00     0.169 HD
HETATM    9  C10 UNL     1      38.802   0.503  24.310  1.00  0.00     0.151 A 
ENDROOT
BRANCH   6  10
HETATM   10  N4  UNL     1      38.954  -2.589  22.321  1.00  0.00    -0.277 N 
HETATM   11  C5  UNL     1      39.089  -3.818  23.023  1.00  0.00     0.200 A 
HETATM   12  N5  UNL     1      38.710  -3.868  24.388  1.00  0.00    -0.063 NA
HETATM   13  N6  UNL     1      39.541  -4.881  22.460  1.00  0.00    -0.304 N 
HETATM   14  C6  UNL     1      39.923  -4.860  21.108  1.00  0.00     0.192 A 
ATOM     15  H6  UNL     1      39.623  -5.744  22.997  1.00  0.00     0.171 HD
HETATM   16  N7  UNL     1      40.416  -6.073  20.538  1.00  0.00    -0.063 NA
HETATM   17  N8  UNL     1      39.820  -3.783  20.440  1.00  0.00    -0.338 N 
HETATM   18  C7  UNL     1      39.334  -2.513  20.931  1.00  0.00     0.109 A 
ATOM     19  H8  UNL     1      40.109  -3.818  19.463  1.00  0.00     0.164 HD
HETATM   20  C8  UNL     1      38.240  -2.064  20.006  1.00  0.00     0.063 C 
HETATM   21  C9  UNL     1      40.488  -1.523  20.722  1.00  0.00     0.063 C 
ENDBRANCH   6  10
BRANCH   9  22
HETATM   22  N10 UNL     1      39.661   1.260  24.818  1.00  0.00    -0.348 N 
ATOM     23  H10 UNL     1      39.948   0.905  25.731  1.00  0.00     0.167 HD
BRANCH  22  24
HETATM   24  C11 UNL     1      40.342   2.431  24.523  1.00  0.00     0.106 C 
BRANCH  24  25
HETATM   25  C12 UNL     1      40.285   2.819  23.046  1.00  0.00     0.101 C 
BRANCH  25  26
HETATM   26  N11 UNL     1      39.154   3.551  22.654  1.00  0.00    -0.397 N 
HETATM   27  C13 UNL     1      38.641   4.554  23.492  1.00  0.00     0.148 C 
HETATM   28  C14 UNL     1      38.333   3.039  21.624  1.00  0.00     0.148 C 
ENDBRANCH  25  26
ENDBRANCH  24  25
ENDBRANCH  22  24
ENDBRANCH   9  22
BRANCH   1  29
HETATM   29  N1  UNL     1      36.927   1.650  24.994  1.00  0.00    -0.378 N 
HETATM   30  C1  UNL     1      35.638   2.222  24.802  1.00  0.00     0.148 C 
ATOM     31  H1  UNL     1      37.513   2.083  25.709  1.00  0.00     0.160 HD
ENDBRANCH   1  29
TORSDOF 6
ENDMDL
MODEL 2
REMARK VINA RESULT: -5.868051689      4.586      9.781
REMARK  6 active torsions:
REMARK  status: ('A' for Active; 'I' for Inactive)
REMARK    1  A    between atoms: N1_2  and  C2_4 
REMARK    2  A    between atoms: C4_9  and  N4_10 
REMARK    3  A    between atoms: C10_24  and  N10_25 
REMARK    4  A    between atoms: N10_25  and  C11_27 
REMARK    5  A    between atoms: C11_27  and  C12_28 
REMARK    6  A    between atoms: C12_28  and  N11_29 
ROOT
HETATM    1  C2  UNL     1      36.640   3.979  22.580  1.00  0.00     0.147 A 
HETATM    2  N2  UNL     1      36.467   5.086  21.840  1.00  0.00    -0.325 N 
ATOM      3  H2  UNL     1      36.633   5.028  20.835  1.00  0.00     0.169 HD
HETATM    4  C3  UNL     1      36.084   6.268  22.357  1.00  0.00     0.162 A 
HETATM    5  N3  UNL     1      35.920   7.426  21.550  1.00  0.00    -0.079 NA
HETATM    6  C4  UNL     1      35.875   6.274  23.730  1.00  0.00     0.155 A 
HETATM    7  N9  UNL     1      36.039   5.195  24.485  1.00  0.00    -0.322 N 
ATOM      8  H9  UNL     1      35.872   5.256  25.489  1.00  0.00     0.169 HD
HETATM    9  C10 UNL     1      36.429   4.003  23.939  1.00  0.00     0.151 A 
ENDROOT
BRANCH   6  10
HETATM   10  N4  UNL     1      35.449   7.531  24.301  1.00  0.00    -0.277 N 
HETATM   11  C5  UNL     1      34.052   7.743  24.462  1.00  0.00     0.200 A 
HETATM   12  N5  UNL     1      33.159   6.713  24.077  1.00  0.00    -0.063 NA
HETATM   13  N6  UNL     1      33.578   8.834  24.945  1.00  0.00    -0.304 N 
HETATM   14  C6  UNL     1      34.441   9.871  25.336  1.00  0.00     0.192 A 
ATOM     15  H6  UNL     1      32.570   8.949  25.045  1.00  0.00     0.171 HD
HETATM   16  N7  UNL     1      33.855  11.060  25.868  1.00  0.00    -0.063 NA
HETATM   17  N8  UNL     1      35.699   9.727  25.210  1.00  0.00    -0.338 N 
HETATM   18  C7  UNL     1      36.379   8.565  24.684  1.00  0.00     0.109 A 
ATOM     19  H8  UNL     1      36.283  10.507  25.508  1.00  0.00     0.164 HD
HETATM   20  C8  UNL     1      37.399   8.145  25.703  1.00  0.00     0.063 C 
HETATM   21  C9  UNL     1      37.181   9.069  23.477  1.00  0.00     0.063 C 
ENDBRANCH   6  10
BRANCH   9  22
HETATM   22  N10 UNL     1      36.560   3.044  24.735  1.00  0.00    -0.348 N 
ATOM     23  H10 UNL     1      37.360   3.201  25.348  1.00  0.00     0.167 HD
BRANCH  22  24
HETATM   24  C11 UNL     1      35.951   1.836  25.039  1.00  0.00     0.106 C 
BRANCH  24  25
HETATM   25  C12 UNL     1      36.937   0.707  25.332  1.00  0.00     0.101 C 
BRANCH  25  26
HETATM   26  N11 UNL     1      37.662   0.234  24.228  1.00  0.00    -0.397 N 
HETATM   27  C13 UNL     1      37.113  -0.755  23.397  1.00  0.00     0.148 C 
HETATM   28  C14 UNL     1      39.055   0.472  24.173  1.00  0.00     0.148 C 
ENDBRANCH  25  26
ENDBRANCH  24  25
ENDBRANCH  22  24
ENDBRANCH   9  22
BRANCH   1  29
HETATM   29  N1  UNL     1      37.006   2.889  22.009  1.00  0.00    -0.378 N 
HETATM   30  C1  UNL     1      38.188   2.669  21.247  1.00  0.00     0.148 C 
ATOM     31  H1  UNL     1      36.379   2.091  22.112  1.00  0.00     0.160 HD
ENDBRANCH   1  29
TORSDOF 6
ENDMDL
MODEL 3
REMARK VINA RESULT: -5.789133348      1.228      2.122
REMARK  6 active torsions:
REMARK  status: ('A' for Active; 'I' for Inactive)
REMARK    1  A    between atoms: N1_2  and  C2_4 
REMARK    2  A    between atoms: C4_9  and  N4_10 
REMARK    3  A    between atoms: C10_24  and  N10_25 
REMARK    4  A    between atoms: N10_25  and  C11_27 
REMARK    5  A    between atoms: C11_27  and  C12_28 
REMARK    6  A    between atoms: C12_28  and  N11_29 
ROOT
HETATM    1  C2  UNL     1      37.371   0.658  24.383  1.00  0.00     0.147 A 
HETATM    2  N2  UNL     1      36.572  -0.229  23.767  1.00  0.00    -0.325 N 
ATOM      3  H2  UNL     1      35.563  -0.088  23.817  1.00  0.00     0.169 HD
HETATM    4  C3  UNL     1      37.035  -1.294  23.088  1.00  0.00     0.162 A 
HETATM    5  N3  UNL     1      36.165  -2.222  22.455  1.00  0.00    -0.079 NA
HETATM    6  C4  UNL     1      38.418  -1.423  23.061  1.00  0.00     0.155 A 
HETATM    7  N9  UNL     1      39.230  -0.563  23.661  1.00  0.00    -0.322 N 
ATOM      8  H9  UNL     1      40.238  -0.705  23.610  1.00  0.00     0.169 HD
HETATM    9  C10 UNL     1      38.738   0.514  24.347  1.00  0.00     0.151 A 
ENDROOT
BRANCH   6  10
HETATM   10  N4  UNL     1      38.935  -2.553  22.324  1.00  0.00    -0.277 N 
HETATM   11  C5  UNL     1      39.062  -3.790  23.014  1.00  0.00     0.200 A 
HETATM   12  N5  UNL     1      38.658  -3.857  24.370  1.00  0.00    -0.063 NA
HETATM   13  N6  UNL     1      39.527  -4.844  22.446  1.00  0.00    -0.304 N 
HETATM   14  C6  UNL     1      39.933  -4.806  21.102  1.00  0.00     0.192 A 
ATOM     15  H6  UNL     1      39.602  -5.713  22.975  1.00  0.00     0.171 HD
HETATM   16  N7  UNL     1      40.440  -6.011  20.527  1.00  0.00    -0.063 NA
HETATM   17  N8  UNL     1      39.839  -3.721  20.445  1.00  0.00    -0.338 N 
HETATM   18  C7  UNL     1      39.341  -2.459  20.942  1.00  0.00     0.109 A 
ATOM     19  H8  UNL     1      40.146  -3.745  19.473  1.00  0.00     0.164 HD
HETATM   20  C8  UNL     1      38.262  -2.002  20.002  1.00  0.00     0.063 C 
HETATM   21  C9  UNL     1      40.495  -1.463  20.766  1.00  0.00     0.063 C 
ENDBRANCH   6  10
BRANCH   9  22
HETATM   22  N10 UNL     1      39.586   1.267  24.882  1.00  0.00    -0.348 N 
ATOM     23  H10 UNL     1      39.534   1.190  25.898  1.00  0.00     0.167 HD
BRANCH  22  24
HETATM   24  C11 UNL     1      40.571   2.171  24.517  1.00  0.00     0.106 C 
BRANCH  24  25
HETATM   25  C12 UNL     1      41.931   1.890  25.155  1.00  0.00     0.101 C 
BRANCH  25  26
HETATM   26  N11 UNL     1      42.560   0.705  24.744  1.00  0.00    -0.397 N 
HETATM   27  C13 UNL     1      42.780   0.463  23.378  1.00  0.00     0.148 C 
HETATM   28  C14 UNL     1      42.629  -0.381  25.647  1.00  0.00     0.148 C 
ENDBRANCH  25  26
ENDBRANCH  24  25
ENDBRANCH  22  24
ENDBRANCH   9  22
BRANCH   1  29
HETATM   29  N1  UNL     1      36.848   1.649  25.010  1.00  0.00    -0.378 N 
HETATM   30  C1  UNL     1      35.511   2.127  24.906  1.00  0.00     0.148 C 
ATOM     31  H1  UNL     1      37.459   2.150  25.655  1.00  0.00     0.160 HD
ENDBRANCH   1  29
TORSDOF 6
ENDMDL
MODEL 4
REMARK VINA RESULT: -5.403172371      2.569      4.254
REMARK  6 active torsions:
REMARK  status: ('A' for Active; 'I' for Inactive)
REMARK    1  A    between atoms: N1_2  and  C2_4 
REMARK    2  A    between atoms: C4_9  and  N4_10 
REMARK    3  A    between atoms: C10_24  and  N10_25 
REMARK    4  A    between atoms: N10_25  and  C11_27 
REMARK    5  A    between atoms: C11_27  and  C12_28 
REMARK    6  A    between atoms: C12_28  and  N11_29 
ROOT
HETATM    1  C2  UNL     1      39.734   1.594  23.959  1.00  0.00     0.147 A 
HETATM    2  N2  UNL     1      40.603   1.384  22.957  1.00  0.00    -0.325 N 
ATOM      3  H2  UNL     1      41.570   1.679  23.084  1.00  0.00     0.169 HD
HETATM    4  C3  UNL     1      40.261   0.802  21.792  1.00  0.00     0.162 A 
HETATM    5  N3  UNL     1      41.200   0.602  20.745  1.00  0.00    -0.079 NA
HETATM    6  C4  UNL     1      38.928   0.424  21.688  1.00  0.00     0.155 A 
HETATM    7  N9  UNL     1      38.049   0.621  22.662  1.00  0.00    -0.322 N 
ATOM      8  H9  UNL     1      37.082   0.324  22.533  1.00  0.00     0.169 HD
HETATM    9  C10 UNL     1      38.417   1.215  23.839  1.00  0.00     0.151 A 
ENDROOT
BRANCH   6  10
HETATM   10  N4  UNL     1      38.546  -0.216  20.451  1.00  0.00    -0.277 N 
HETATM   11  C5  UNL     1      38.143   0.619  19.373  1.00  0.00     0.200 A 
HETATM   12  N5  UNL     1      38.158   2.024  19.557  1.00  0.00    -0.063 NA
HETATM   13  N6  UNL     1      37.770   0.141  18.241  1.00  0.00    -0.304 N 
HETATM   14  C6  UNL     1      37.747  -1.248  18.030  1.00  0.00     0.192 A 
ATOM     15  H6  UNL     1      37.489   0.772  17.491  1.00  0.00     0.171 HD
HETATM   16  N7  UNL     1      37.325  -1.719  16.749  1.00  0.00    -0.063 NA
HETATM   17  N8  UNL     1      38.097  -2.034  18.966  1.00  0.00    -0.338 N 
HETATM   18  C7  UNL     1      38.538  -1.650  20.288  1.00  0.00     0.109 A 
ATOM     19  H8  UNL     1      38.064  -3.033  18.764  1.00  0.00     0.164 HD
HETATM   20  C8  UNL     1      39.862  -2.315  20.530  1.00  0.00     0.063 C 
HETATM   21  C9  UNL     1      37.553  -2.316  21.259  1.00  0.00     0.063 C 
ENDBRANCH   6  10
BRANCH   9  22
HETATM   22  N10 UNL     1      37.514   1.359  24.695  1.00  0.00    -0.348 N 
ATOM     23  H10 UNL     1      37.865   1.118  25.622  1.00  0.00     0.167 HD
BRANCH  22  24
HETATM   24  C11 UNL     1      36.185   1.745  24.770  1.00  0.00     0.106 C 
BRANCH  24  25
HETATM   25  C12 UNL     1      35.989   3.203  25.182  1.00  0.00     0.101 C 
BRANCH  25  26
HETATM   26  N11 UNL     1      35.891   4.123  24.127  1.00  0.00    -0.397 N 
HETATM   27  C13 UNL     1      35.488   5.444  24.382  1.00  0.00     0.148 C 
HETATM   28  C14 UNL     1      35.833   3.638  22.801  1.00  0.00     0.148 C 
ENDBRANCH  25  26
ENDBRANCH  24  25
ENDBRANCH  22  24
ENDBRANCH   9  22
BRANCH   1  29
HETATM   29  N1  UNL     1      40.141   2.156  25.039  1.00  0.00    -0.378 N 
HETATM   30  C1  UNL     1      41.482   2.486  25.388  1.00  0.00     0.148 C 
ATOM     31  H1  UNL     1      39.425   2.392  25.725  1.00  0.00     0.160 HD
ENDBRANCH   1  29
TORSDOF 6
ENDMDL
MODEL 5
REMARK VINA RESULT: -5.347417500      2.412      3.808
REMARK  6 active torsions:
REMARK  status: ('A' for Active; 'I' for Inactive)
REMARK    1  A    between atoms: N1_2  and  C2_4 
REMARK    2  A    between atoms: C4_9  and  N4_10 
REMARK    3  A    between atoms: C10_24  and  N10_25 
REMARK    4  A    between atoms: N10_25  and  C11_27 
REMARK    5  A    between atoms: C11_27  and  C12_28 
REMARK    6  A    between atoms: C12_28  and  N11_29 
ROOT
HETATM    1  C2  UNL     1      37.402   2.600  22.176  1.00  0.00     0.147 A 
HETATM    2  N2  UNL     1      37.373   2.057  23.405  1.00  0.00    -0.325 N 
ATOM      3  H2  UNL     1      37.097   2.648  24.189  1.00  0.00     0.169 HD
HETATM    4  C3  UNL     1      37.690   0.773  23.652  1.00  0.00     0.162 A 
HETATM    5  N3  UNL     1      37.661   0.228  24.964  1.00  0.00    -0.079 NA
HETATM    6  C4  UNL     1      38.055   0.028  22.538  1.00  0.00     0.155 A 
HETATM    7  N9  UNL     1      38.093   0.540  21.314  1.00  0.00    -0.322 N 
ATOM      8  H9  UNL     1      38.369  -0.052  20.531  1.00  0.00     0.169 HD
HETATM    9  C10 UNL     1      37.767   1.848  21.084  1.00  0.00     0.151 A 
ENDROOT
BRANCH   6  10
HETATM   10  N4  UNL     1      38.384  -1.357  22.781  1.00  0.00    -0.277 N 
HETATM   11  C5  UNL     1      37.308  -2.279  22.907  1.00  0.00     0.200 A 
HETATM   12  N5  UNL     1      35.982  -1.800  22.767  1.00  0.00    -0.063 NA
HETATM   13  N6  UNL     1      37.501  -3.527  23.139  1.00  0.00    -0.304 N 
HETATM   14  C6  UNL     1      38.806  -4.029  23.281  1.00  0.00     0.192 A 
ATOM     15  H6  UNL     1      36.704  -4.157  23.222  1.00  0.00     0.171 HD
HETATM   16  N7  UNL     1      38.956  -5.426  23.538  1.00  0.00    -0.063 NA
HETATM   17  N8  UNL     1      39.799  -3.242  23.179  1.00  0.00    -0.338 N 
HETATM   18  C7  UNL     1      39.743  -1.821  22.921  1.00  0.00     0.109 A 
ATOM     19  H8  UNL     1      40.725  -3.654  23.289  1.00  0.00     0.164 HD
HETATM   20  C8  UNL     1      40.624  -1.545  21.736  1.00  0.00     0.063 C 
HETATM   21  C9  UNL     1      40.437  -1.159  24.119  1.00  0.00     0.063 C 
ENDBRANCH   6  10
BRANCH   9  22
HETATM   22  N10 UNL     1      37.836   2.238  19.895  1.00  0.00    -0.348 N 
ATOM     23  H10 UNL     1      36.959   2.048  19.410  1.00  0.00     0.167 HD
BRANCH  22  24
HETATM   24  C11 UNL     1      38.739   2.846  19.036  1.00  0.00     0.106 C 
BRANCH  24  25
HETATM   25  C12 UNL     1      39.900   1.943  18.623  1.00  0.00     0.101 C 
BRANCH  25  26
HETATM   26  N11 UNL     1      39.588   0.944  17.689  1.00  0.00    -0.397 N 
HETATM   27  C13 UNL     1      39.556  -0.403  18.084  1.00  0.00     0.148 C 
HETATM   28  C14 UNL     1      39.674   1.246  16.310  1.00  0.00     0.148 C 
ENDBRANCH  25  26
ENDBRANCH  24  25
ENDBRANCH  22  24
ENDBRANCH   9  22
BRANCH   1  29
HETATM   29  N1  UNL     1      37.084   3.835  22.025  1.00  0.00    -0.378 N 
HETATM   30  C1  UNL     1      36.149   4.586  22.794  1.00  0.00     0.148 C 
ATOM     31  H1  UNL     1      37.553   4.335  21.270  1.00  0.00     0.160 HD
ENDBRANCH   1  29
TORSDOF 6
ENDMDL
