MODEL 1
REMARK VINA RESULT: -7.298110380      0.000      0.000
REMARK  7 active torsions:
REMARK  status: ('A' for Active; 'I' for Inactive)
REMARK    1  A    between atoms: C9_11  and  C10_12 
REMARK    2  A    between atoms: C10_12  and  C11_13 
REMARK    3  A    between atoms: C12_16  and  C13_17 
REMARK    4  A    between atoms: C13_17  and  C14_19 
REMARK    5  A    between atoms: C14_19  and  N5_25 
REMARK    6  A    between atoms: N3_20  and  N4_22 
REMARK    7  A    between atoms: N5_25  and  N6_27 
ROOT
HETATM    1  C11 UNL     1      36.950   2.609  23.345  1.00  0.00     0.104 A 
HETATM    2  N2  UNL     1      36.562   3.778  23.823  1.00  0.00    -0.328 N 
ATOM      3  H2  UNL     1      36.124   3.812  24.744  1.00  0.00     0.169 HD
HETATM    4  C12 UNL     1      36.725   4.947  23.125  1.00  0.00     0.176 A 
HETATM    5  N7  UNL     1      37.297   4.865  21.931  1.00  0.00    -0.173 N 
ATOM      6  H7  UNL     1      37.434   5.716  21.386  1.00  0.00     0.186 HD
HETATM    7  C15 UNL     1      37.705   3.677  21.416  1.00  0.00     0.678 A 
HETATM    8  N8  UNL     1      38.262   3.579  20.262  1.00  0.00    -0.234 N 
ATOM      9  H81 UNL     1      38.568   2.685  19.874  1.00  0.00     0.174 HD
ATOM     10  H82 UNL     1      38.403   4.423  19.708  1.00  0.00     0.174 HD
HETATM   11  N9  UNL     1      37.519   2.565  22.146  1.00  0.00    -0.180 N 
ATOM     12  H9  UNL     1      37.820   1.666  21.770  1.00  0.00     0.185 HD
ENDROOT
BRANCH   1  13
HETATM   13  C10 UNL     1      36.744   1.369  24.140  1.00  0.00     0.136 C 
BRANCH  13  14
HETATM   14  C9  UNL     1      37.947   0.506  24.086  1.00  0.00     0.044 A 
HETATM   15  C8  UNL     1      37.892  -0.727  23.463  1.00  0.00     0.065 A 
HETATM   16  C4  UNL     1      39.019  -1.525  23.397  1.00  0.00    -0.006 A 
HETATM   17  N1  UNL     1      36.747  -1.170  22.919  1.00  0.00    -0.364 N 
HETATM   18  C3  UNL     1      40.183  -1.062  23.964  1.00  0.00     0.038 A 
HETATM   19  C5  UNL     1      39.011  -2.777  22.784  1.00  0.00     0.015 A 
HETATM   20  C2  UNL     1      40.220   0.164  24.579  1.00  0.00     0.006 A 
HETATM   21  C1  UNL     1      41.516   0.630  25.184  1.00  0.00     0.068 C 
HETATM   22  N10 UNL     1      39.112   0.904  24.622  1.00  0.00    -0.361 N 
ATOM     23  H10 UNL     1      39.151   1.814  25.083  1.00  0.00     0.165 HD
HETATM   24  C6  UNL     1      37.823  -3.201  22.238  1.00  0.00     0.018 A 
HETATM   25  C7  UNL     1      36.731  -2.368  22.332  1.00  0.00     0.088 A 
ATOM     26  H1  UNL     1      35.903  -0.599  22.955  1.00  0.00     0.165 HD
ENDBRANCH  13  14
ENDBRANCH   1  13
BRANCH   4  27
HETATM   27  C13 UNL     1      36.257   6.185  23.762  1.00  0.00     0.262 C 
HETATM   28  O1  UNL     1      37.049   7.207  23.706  1.00  0.00    -0.280 OA
BRANCH  27  29
HETATM   29  C14 UNL     1      35.023   6.367  24.431  1.00  0.00     0.189 C 
HETATM   30  N3  UNL     1      33.858   6.326  23.902  1.00  0.00    -0.288 N 
ATOM     31  H3  UNL     1      33.791   6.145  22.900  1.00  0.00     0.188 HD
BRANCH  30  32
HETATM   32  N4  UNL     1      32.678   6.514  24.616  1.00  0.00    -0.343 N 
ATOM     33  H42 UNL     1      32.727   6.407  25.629  1.00  0.00     0.176 HD
ATOM     34  H41 UNL     1      31.785   6.748  24.183  1.00  0.00     0.176 HD
ENDBRANCH  30  32
BRANCH  29  35
HETATM   35  N5  UNL     1      35.095   6.628  25.877  1.00  0.00    -0.288 N 
ATOM     36  H5  UNL     1      34.893   5.908  26.572  1.00  0.00     0.188 HD
BRANCH  35  37
HETATM   37  N6  UNL     1      35.458   7.923  26.234  1.00  0.00    -0.343 N 
ATOM     38  H62 UNL     1      36.415   8.257  26.122  1.00  0.00     0.176 HD
ATOM     39  H61 UNL     1      34.706   8.501  26.610  1.00  0.00     0.176 HD
ENDBRANCH  35  37
ENDBRANCH  29  35
ENDBRANCH  27  29
ENDBRANCH   4  27
TORSDOF 7
ENDMDL
MODEL 2
REMARK VINA RESULT: -7.253146491      1.647      2.195
REMARK  7 active torsions:
REMARK  status: ('A' for Active; 'I' for Inactive)
REMARK    1  A    between atoms: C9_11  and  C10_12 
REMARK    2  A    between atoms: C10_12  and  C11_13 
REMARK    3  A    between atoms: C12_16  and  C13_17 
REMARK    4  A    between atoms: C13_17  and  C14_19 
REMARK    5  A    between atoms: C14_19  and  N5_25 
REMARK    6  A    between atoms: N3_20  and  N4_22 
REMARK    7  A    between atoms: N5_25  and  N6_27 
ROOT
HETATM    1  C11 UNL     1      36.115   3.609  23.859  1.00  0.00     0.104 A 
HETATM    2  N2  UNL     1      35.273   4.539  24.273  1.00  0.00    -0.328 N 
ATOM      3  H2  UNL     1      34.696   4.351  25.093  1.00  0.00     0.169 HD
HETATM    4  C12 UNL     1      35.145   5.749  23.639  1.00  0.00     0.176 A 
HETATM    5  N7  UNL     1      35.911   5.959  22.576  1.00  0.00    -0.173 N 
ATOM      6  H7  UNL     1      35.841   6.849  22.082  1.00  0.00     0.186 HD
HETATM    7  C15 UNL     1      36.784   5.021  22.130  1.00  0.00     0.678 A 
HETATM    8  N8  UNL     1      37.534   5.208  21.102  1.00  0.00    -0.234 N 
ATOM      9  H81 UNL     1      38.190   4.502  20.766  1.00  0.00     0.174 HD
ATOM     10  H82 UNL     1      37.472   6.093  20.600  1.00  0.00     0.174 HD
HETATM   11  N9  UNL     1      36.865   3.855  22.791  1.00  0.00    -0.180 N 
ATOM     12  H9  UNL     1      37.517   3.142  22.465  1.00  0.00     0.185 HD
ENDROOT
BRANCH   1  13
HETATM   13  C10 UNL     1      36.210   2.311  24.579  1.00  0.00     0.136 C 
BRANCH  13  14
HETATM   14  C9  UNL     1      37.552   1.710  24.400  1.00  0.00     0.044 A 
HETATM   15  C8  UNL     1      37.683   0.451  23.843  1.00  0.00     0.065 A 
HETATM   16  C4  UNL     1      38.936  -0.102  23.660  1.00  0.00    -0.006 A 
HETATM   17  N1  UNL     1      36.599  -0.252  23.478  1.00  0.00    -0.364 N 
HETATM   18  C3  UNL     1      40.037   0.626  24.044  1.00  0.00     0.038 A 
HETATM   19  C5  UNL     1      39.117  -1.369  23.108  1.00  0.00     0.015 A 
HETATM   20  C2  UNL     1      39.889   1.874  24.595  1.00  0.00     0.006 A 
HETATM   21  C1  UNL     1      41.122   2.636  24.999  1.00  0.00     0.068 C 
HETATM   22  N10 UNL     1      38.664   2.374  24.756  1.00  0.00    -0.361 N 
ATOM     23  H10 UNL     1      38.566   3.303  25.169  1.00  0.00     0.165 HD
HETATM   24  C6  UNL     1      37.988  -2.064  22.746  1.00  0.00     0.018 A 
HETATM   25  C7  UNL     1      36.765  -1.467  22.950  1.00  0.00     0.088 A 
ATOM     26  H1  UNL     1      35.665   0.135  23.603  1.00  0.00     0.165 HD
ENDBRANCH  13  14
ENDBRANCH   1  13
BRANCH   4  27
HETATM   27  C13 UNL     1      34.178   6.704  24.195  1.00  0.00     0.262 C 
HETATM   28  O1  UNL     1      32.925   6.407  24.070  1.00  0.00    -0.280 OA
BRANCH  27  29
HETATM   29  C14 UNL     1      34.485   7.918  24.854  1.00  0.00     0.189 C 
HETATM   30  N3  UNL     1      35.229   8.056  25.887  1.00  0.00    -0.288 N 
ATOM     31  H3  UNL     1      35.651   7.219  26.290  1.00  0.00     0.188 HD
BRANCH  30  32
HETATM   32  N4  UNL     1      35.494   9.282  26.491  1.00  0.00    -0.343 N 
ATOM     33  H42 UNL     1      35.682  10.071  25.874  1.00  0.00     0.176 HD
ATOM     34  H41 UNL     1      35.509   9.425  27.501  1.00  0.00     0.176 HD
ENDBRANCH  30  32
BRANCH  29  35
HETATM   35  N5  UNL     1      33.888   9.138  24.289  1.00  0.00    -0.288 N 
ATOM     36  H5  UNL     1      33.573   9.912  24.874  1.00  0.00     0.188 HD
BRANCH  35  37
HETATM   37  N6  UNL     1      33.783   9.166  22.901  1.00  0.00    -0.343 N 
ATOM     38  H62 UNL     1      34.540   8.833  22.305  1.00  0.00     0.176 HD
ATOM     39  H61 UNL     1      32.906   9.537  22.536  1.00  0.00     0.176 HD
ENDBRANCH  35  37
ENDBRANCH  29  35
ENDBRANCH  27  29
ENDBRANCH   4  27
TORSDOF 7
ENDMDL
MODEL 3
REMARK VINA RESULT: -7.199776129      0.566      2.504
REMARK  7 active torsions:
REMARK  status: ('A' for Active; 'I' for Inactive)
REMARK    1  A    between atoms: C9_11  and  C10_12 
REMARK    2  A    between atoms: C10_12  and  C11_13 
REMARK    3  A    between atoms: C12_16  and  C13_17 
REMARK    4  A    between atoms: C13_17  and  C14_19 
REMARK    5  A    between atoms: C14_19  and  N5_25 
REMARK    6  A    between atoms: N3_20  and  N4_22 
REMARK    7  A    between atoms: N5_25  and  N6_27 
ROOT
HETATM    1  C11 UNL     1      36.927   2.501  23.631  1.00  0.00     0.104 A 
HETATM    2  N2  UNL     1      36.533   3.708  23.996  1.00  0.00    -0.328 N 
ATOM      3  H2  UNL     1      36.133   3.835  24.925  1.00  0.00     0.169 HD
HETATM    4  C12 UNL     1      36.643   4.797  23.169  1.00  0.00     0.176 A 
HETATM    5  N7  UNL     1      37.168   4.594  21.968  1.00  0.00    -0.173 N 
ATOM      6  H7  UNL     1      37.265   5.383  21.328  1.00  0.00     0.186 HD
HETATM    7  C15 UNL     1      37.581   3.365  21.567  1.00  0.00     0.678 A 
HETATM    8  N8  UNL     1      38.092   3.150  20.407  1.00  0.00    -0.234 N 
ATOM      9  H81 UNL     1      38.401   2.225  20.107  1.00  0.00     0.174 HD
ATOM     10  H82 UNL     1      38.193   3.931  19.760  1.00  0.00     0.174 HD
HETATM   11  N9  UNL     1      37.447   2.335  22.420  1.00  0.00    -0.180 N 
ATOM     12  H9  UNL     1      37.753   1.407  22.132  1.00  0.00     0.185 HD
ENDROOT
BRANCH   1  13
HETATM   13  C10 UNL     1      36.780   1.351  24.563  1.00  0.00     0.136 C 
BRANCH  13  14
HETATM   14  C9  UNL     1      37.472   0.154  24.033  1.00  0.00     0.044 A 
HETATM   15  C8  UNL     1      38.836   0.003  24.210  1.00  0.00     0.065 A 
HETATM   16  C4  UNL     1      39.479  -1.122  23.730  1.00  0.00    -0.006 A 
HETATM   17  N1  UNL     1      39.554   0.946  24.840  1.00  0.00    -0.364 N 
HETATM   18  C3  UNL     1      38.733  -2.077  23.081  1.00  0.00     0.038 A 
HETATM   19  C5  UNL     1      40.851  -1.317  23.880  1.00  0.00     0.015 A 
HETATM   20  C2  UNL     1      37.381  -1.911  22.915  1.00  0.00     0.006 A 
HETATM   21  C1  UNL     1      36.604  -2.983  22.199  1.00  0.00     0.068 C 
HETATM   22  N10 UNL     1      36.796  -0.811  23.390  1.00  0.00    -0.361 N 
ATOM     23  H10 UNL     1      35.790  -0.699  23.259  1.00  0.00     0.165 HD
HETATM   24  C6  UNL     1      41.558  -0.333  24.529  1.00  0.00     0.018 A 
HETATM   25  C7  UNL     1      40.869   0.768  24.986  1.00  0.00     0.088 A 
ATOM     26  H1  UNL     1      39.101   1.785  25.203  1.00  0.00     0.165 HD
ENDBRANCH  13  14
ENDBRANCH   1  13
BRANCH   4  27
HETATM   27  C13 UNL     1      36.175   6.089  23.687  1.00  0.00     0.262 C 
HETATM   28  O1  UNL     1      36.945   7.110  23.493  1.00  0.00    -0.280 OA
BRANCH  27  29
HETATM   29  C14 UNL     1      34.962   6.323  24.378  1.00  0.00     0.189 C 
HETATM   30  N3  UNL     1      33.785   6.309  23.876  1.00  0.00    -0.288 N 
ATOM     31  H3  UNL     1      33.691   6.110  22.879  1.00  0.00     0.188 HD
BRANCH  30  32
HETATM   32  N4  UNL     1      32.627   6.547  24.611  1.00  0.00    -0.343 N 
ATOM     33  H42 UNL     1      32.589   6.163  25.554  1.00  0.00     0.176 HD
ATOM     34  H41 UNL     1      31.831   7.078  24.257  1.00  0.00     0.176 HD
ENDBRANCH  30  32
BRANCH  29  35
HETATM   35  N5  UNL     1      35.074   6.609  25.817  1.00  0.00    -0.288 N 
ATOM     36  H5  UNL     1      34.872   5.908  26.530  1.00  0.00     0.188 HD
BRANCH  35  37
HETATM   37  N6  UNL     1      35.475   7.902  26.141  1.00  0.00    -0.343 N 
ATOM     38  H62 UNL     1      35.835   8.539  25.431  1.00  0.00     0.176 HD
ATOM     39  H61 UNL     1      35.382   8.156  27.124  1.00  0.00     0.176 HD
ENDBRANCH  35  37
ENDBRANCH  29  35
ENDBRANCH  27  29
ENDBRANCH   4  27
TORSDOF 7
ENDMDL
MODEL 4
REMARK VINA RESULT: -7.161986535      2.892      8.427
REMARK  7 active torsions:
REMARK  status: ('A' for Active; 'I' for Inactive)
REMARK    1  A    between atoms: C9_11  and  C10_12 
REMARK    2  A    between atoms: C10_12  and  C11_13 
REMARK    3  A    between atoms: C12_16  and  C13_17 
REMARK    4  A    between atoms: C13_17  and  C14_19 
REMARK    5  A    between atoms: C14_19  and  N5_25 
REMARK    6  A    between atoms: N3_20  and  N4_22 
REMARK    7  A    between atoms: N5_25  and  N6_27 
ROOT
HETATM    1  C11 UNL     1      34.964   5.748  23.750  1.00  0.00     0.104 A 
HETATM    2  N2  UNL     1      34.978   4.541  24.287  1.00  0.00    -0.328 N 
ATOM      3  H2  UNL     1      34.310   4.324  25.026  1.00  0.00     0.169 HD
HETATM    4  C12 UNL     1      35.859   3.569  23.885  1.00  0.00     0.176 A 
HETATM    5  N7  UNL     1      36.713   3.888  22.922  1.00  0.00    -0.173 N 
ATOM      6  H7  UNL     1      37.382   3.188  22.600  1.00  0.00     0.186 HD
HETATM    7  C15 UNL     1      36.721   5.120  22.354  1.00  0.00     0.678 A 
HETATM    8  N8  UNL     1      37.542   5.446  21.419  1.00  0.00    -0.234 N 
ATOM      9  H81 UNL     1      37.548   6.373  20.992  1.00  0.00     0.174 HD
ATOM     10  H82 UNL     1      38.215   4.754  21.089  1.00  0.00     0.174 HD
HETATM   11  N9  UNL     1      35.835   6.031  22.788  1.00  0.00    -0.180 N 
ATOM     12  H9  UNL     1      35.831   6.961  22.370  1.00  0.00     0.185 HD
ENDROOT
BRANCH   1  13
HETATM   13  C10 UNL     1      33.992   6.768  24.226  1.00  0.00     0.136 C 
BRANCH  13  14
HETATM   14  C9  UNL     1      34.690   7.873  24.922  1.00  0.00     0.044 A 
HETATM   15  C8  UNL     1      34.662   9.153  24.400  1.00  0.00     0.065 A 
HETATM   16  C4  UNL     1      35.299  10.188  25.059  1.00  0.00    -0.006 A 
HETATM   17  N1  UNL     1      34.025   9.409  23.246  1.00  0.00    -0.364 N 
HETATM   18  C3  UNL     1      35.953   9.911  26.237  1.00  0.00     0.038 A 
HETATM   19  C5  UNL     1      35.303  11.493  24.569  1.00  0.00     0.015 A 
HETATM   20  C2  UNL     1      35.970   8.635  26.741  1.00  0.00     0.006 A 
HETATM   21  C1  UNL     1      36.697   8.379  28.033  1.00  0.00     0.068 C 
HETATM   22  N10 UNL     1      35.345   7.663  26.075  1.00  0.00    -0.361 N 
ATOM     23  H10 UNL     1      35.366   6.718  26.460  1.00  0.00     0.165 HD
HETATM   24  C6  UNL     1      34.643  11.722  23.386  1.00  0.00     0.018 A 
HETATM   25  C7  UNL     1      34.026  10.656  22.769  1.00  0.00     0.088 A 
ATOM     26  H1  UNL     1      33.549   8.662  22.742  1.00  0.00     0.165 HD
ENDBRANCH  13  14
ENDBRANCH   1  13
BRANCH   4  27
HETATM   27  C13 UNL     1      35.775   2.264  24.554  1.00  0.00     0.262 C 
HETATM   28  O1  UNL     1      34.862   2.129  25.461  1.00  0.00    -0.280 OA
BRANCH  27  29
HETATM   29  C14 UNL     1      36.597   1.140  24.300  1.00  0.00     0.189 C 
HETATM   30  N3  UNL     1      36.384   0.223  23.434  1.00  0.00    -0.288 N 
ATOM     31  H3  UNL     1      35.544   0.290  22.858  1.00  0.00     0.188 HD
BRANCH  30  32
HETATM   32  N4  UNL     1      37.234  -0.862  23.231  1.00  0.00    -0.343 N 
ATOM     33  H42 UNL     1      38.158  -0.813  23.659  1.00  0.00     0.176 HD
ATOM     34  H41 UNL     1      36.981  -1.686  22.686  1.00  0.00     0.176 HD
ENDBRANCH  30  32
BRANCH  29  35
HETATM   35  N5  UNL     1      37.815   1.023  25.117  1.00  0.00    -0.288 N 
ATOM     36  H5  UNL     1      37.873   0.403  25.924  1.00  0.00     0.188 HD
BRANCH  35  37
HETATM   37  N6  UNL     1      38.885   1.818  24.713  1.00  0.00    -0.343 N 
ATOM     38  H62 UNL     1      39.373   2.425  25.371  1.00  0.00     0.176 HD
ATOM     39  H61 UNL     1      39.136   1.746  23.728  1.00  0.00     0.176 HD
ENDBRANCH  35  37
ENDBRANCH  29  35
ENDBRANCH  27  29
ENDBRANCH   4  27
TORSDOF 7
ENDMDL
MODEL 5
REMARK VINA RESULT: -7.109855069      2.230      3.955
REMARK  7 active torsions:
REMARK  status: ('A' for Active; 'I' for Inactive)
REMARK    1  A    between atoms: C9_11  and  C10_12 
REMARK    2  A    between atoms: C10_12  and  C11_13 
REMARK    3  A    between atoms: C12_16  and  C13_17 
REMARK    4  A    between atoms: C13_17  and  C14_19 
REMARK    5  A    between atoms: C14_19  and  N5_25 
REMARK    6  A    between atoms: N3_20  and  N4_22 
REMARK    7  A    between atoms: N5_25  and  N6_27 
ROOT
HETATM    1  C11 UNL     1      37.306  -0.215  23.663  1.00  0.00     0.104 A 
HETATM    2  N2  UNL     1      36.477   0.802  23.820  1.00  0.00    -0.328 N 
ATOM      3  H2  UNL     1      35.500   0.686  23.550  1.00  0.00     0.169 HD
HETATM    4  C12 UNL     1      36.883   2.008  24.331  1.00  0.00     0.176 A 
HETATM    5  N7  UNL     1      38.160   2.122  24.671  1.00  0.00    -0.173 N 
ATOM      6  H7  UNL     1      38.495   3.006  25.055  1.00  0.00     0.186 HD
HETATM    7  C15 UNL     1      39.033   1.094  24.521  1.00  0.00     0.678 A 
HETATM    8  N8  UNL     1      40.274   1.187  24.845  1.00  0.00    -0.234 N 
ATOM      9  H81 UNL     1      40.930   0.414  24.731  1.00  0.00     0.174 HD
ATOM     10  H82 UNL     1      40.619   2.066  25.229  1.00  0.00     0.174 HD
HETATM   11  N9  UNL     1      38.578  -0.063  24.014  1.00  0.00    -0.180 N 
ATOM     12  H9  UNL     1      39.224  -0.843  23.895  1.00  0.00     0.185 HD
ENDROOT
BRANCH   1  13
HETATM   13  C10 UNL     1      36.817  -1.500  23.098  1.00  0.00     0.136 C 
BRANCH  13  14
HETATM   14  C9  UNL     1      37.557  -1.845  21.862  1.00  0.00     0.044 A 
HETATM   15  C8  UNL     1      38.431  -2.917  21.850  1.00  0.00     0.065 A 
HETATM   16  C4  UNL     1      39.109  -3.250  20.693  1.00  0.00    -0.006 A 
HETATM   17  N1  UNL     1      38.640  -3.643  22.960  1.00  0.00    -0.364 N 
HETATM   18  C3  UNL     1      38.891  -2.494  19.565  1.00  0.00     0.038 A 
HETATM   19  C5  UNL     1      40.004  -4.317  20.633  1.00  0.00     0.015 A 
HETATM   20  C2  UNL     1      38.020  -1.434  19.594  1.00  0.00     0.006 A 
HETATM   21  C1  UNL     1      37.811  -0.635  18.337  1.00  0.00     0.068 C 
HETATM   22  N10 UNL     1      37.385  -1.143  20.731  1.00  0.00    -0.361 N 
ATOM     23  H10 UNL     1      36.741  -0.352  20.740  1.00  0.00     0.165 HD
HETATM   24  C6  UNL     1      40.196  -5.040  21.786  1.00  0.00     0.018 A 
HETATM   25  C7  UNL     1      39.497  -4.666  22.912  1.00  0.00     0.088 A 
ATOM     26  H1  UNL     1      38.152  -3.417  23.826  1.00  0.00     0.165 HD
ENDBRANCH  13  14
ENDBRANCH   1  13
BRANCH   4  27
HETATM   27  C13 UNL     1      35.868   3.062  24.461  1.00  0.00     0.262 C 
HETATM   28  O1  UNL     1      35.005   2.928  25.416  1.00  0.00    -0.280 OA
BRANCH  27  29
HETATM   29  C14 UNL     1      35.745   4.210  23.643  1.00  0.00     0.189 C 
HETATM   30  N3  UNL     1      36.420   4.467  22.587  1.00  0.00    -0.288 N 
ATOM     31  H3  UNL     1      37.121   3.789  22.288  1.00  0.00     0.188 HD
BRANCH  30  32
HETATM   32  N4  UNL     1      36.251   5.618  21.822  1.00  0.00    -0.343 N 
ATOM     33  H42 UNL     1      37.096   6.113  21.537  1.00  0.00     0.176 HD
ATOM     34  H41 UNL     1      35.342   5.983  21.539  1.00  0.00     0.176 HD
ENDBRANCH  30  32
BRANCH  29  35
HETATM   35  N5  UNL     1      34.738   5.201  24.055  1.00  0.00    -0.288 N 
ATOM     36  H5  UNL     1      33.880   5.358  23.526  1.00  0.00     0.188 HD
BRANCH  35  37
HETATM   37  N6  UNL     1      35.035   5.910  25.215  1.00  0.00    -0.343 N 
ATOM     38  H62 UNL     1      35.489   5.461  26.010  1.00  0.00     0.176 HD
ATOM     39  H61 UNL     1      34.769   6.894  25.207  1.00  0.00     0.176 HD
ENDBRANCH  35  37
ENDBRANCH  29  35
ENDBRANCH  27  29
ENDBRANCH   4  27
TORSDOF 7
ENDMDL
