MODEL 1
REMARK VINA RESULT: -6.857472132      0.000      0.000
REMARK  7 active torsions:
REMARK  status: ('A' for Active; 'I' for Inactive)
REMARK    1  A    between atoms: O1_2  and  C2_3 
REMARK    2  A    between atoms: C2_3  and  N1_4 
REMARK    3  A    between atoms: C2_3  and  C3_8 
REMARK       I    between atoms: C3_8  and  N2_10 
REMARK    4  A    between atoms: N2_10  and  C4_12 
REMARK    5  A    between atoms: C4_12  and  O3_13 
REMARK    6  A    between atoms: C4_12  and  C5_15 
REMARK    7  A    between atoms: C10_27  and  N7_28 
ROOT
HETATM    1  C5  UNL     1      37.106   2.902  23.756  1.00  0.00     0.084 A 
HETATM    2  C6  UNL     1      35.901   3.105  24.526  1.00  0.00     0.134 A 
HETATM    3  N3  UNL     1      35.327   2.004  25.208  1.00  0.00    -0.082 NA
HETATM    4  N4  UNL     1      35.298   4.283  24.628  1.00  0.00    -0.329 N 
ATOM      5  H4  UNL     1      34.448   4.366  25.186  1.00  0.00     0.168 HD
HETATM    6  C7  UNL     1      35.787   5.362  24.011  1.00  0.00     0.123 A 
HETATM    7  N5  UNL     1      35.166   6.482  24.142  1.00  0.00    -0.384 N 
ATOM      8  H51 UNL     1      35.539   7.306  23.672  1.00  0.00     0.157 HD
ATOM      9  H52 UNL     1      34.316   6.580  24.697  1.00  0.00     0.157 HD
HETATM   10  C8  UNL     1      36.936   5.230  23.262  1.00  0.00     0.115 A 
HETATM   11  C9  UNL     1      37.471   6.375  22.621  1.00  0.00     0.105 C 
HETATM   12  N6  UNL     1      37.890   7.330  22.117  1.00  0.00    -0.191 NA
HETATM   13  C10 UNL     1      37.607   3.985  23.129  1.00  0.00     0.073 A 
ENDROOT
BRANCH  13  14
HETATM   14  N7  UNL     1      38.770   4.000  22.323  1.00  0.00    -0.375 N 
HETATM   15  C11 UNL     1      38.634   3.676  20.894  1.00  0.00     0.149 C 
HETATM   16  C12 UNL     1      39.947   3.983  20.229  1.00  0.00     0.187 C 
HETATM   17  O4  UNL     1      40.983   3.283  20.785  1.00  0.00    -0.388 OA
HETATM   18  C13 UNL     1      41.090   3.365  22.141  1.00  0.00     0.187 C 
HETATM   19  C14 UNL     1      40.088   4.248  22.826  1.00  0.00     0.149 C 
ENDBRANCH  13  14
BRANCH   1  20
HETATM   20  C4  UNL     1      37.634   1.582  23.741  1.00  0.00     0.158 C 
BRANCH  20  21
HETATM   21  N2  UNL     1      37.488   0.521  22.878  1.00  0.00    -0.303 N 
HETATM   22  C3  UNL     1      37.140  -0.808  23.370  1.00  0.00     0.280 C 
HETATM   23  O2  UNL     1      36.973  -0.980  24.582  1.00  0.00    -0.268 OA
ATOM     24  H2  UNL     1      37.625   0.665  21.877  1.00  0.00     0.171 HD
BRANCH  22  25
HETATM   25  C2  UNL     1      36.991  -1.921  22.424  1.00  0.00     0.411 C 
BRANCH  25  26
HETATM   26  O1  UNL     1      35.838  -2.637  22.630  1.00  0.00    -0.357 OA
HETATM   27  C1  UNL     1      36.081  -4.003  22.623  1.00  0.00     0.204 C 
ENDBRANCH  25  26
BRANCH  25  28
HETATM   28  N1  UNL     1      37.092  -1.402  21.064  1.00  0.00    -0.044 N 
ATOM     29  H13 UNL     1      37.584  -2.057  20.457  1.00  0.00     0.278 HD
ATOM     30  H12 UNL     1      36.182  -1.402  20.603  1.00  0.00     0.278 HD
ATOM     31  H11 UNL     1      37.520  -0.477  21.028  1.00  0.00     0.278 HD
ENDBRANCH  25  28
ENDBRANCH  22  25
ENDBRANCH  20  21
BRANCH  20  32
HETATM   32  O3  UNL     1      38.430   1.289  24.751  1.00  0.00    -0.345 OA
ATOM     33  H3  UNL     1      38.495   2.006  25.371  1.00  0.00     0.219 HD
ENDBRANCH  20  32
ENDBRANCH   1  20
TORSDOF 7
ENDMDL
MODEL 2
REMARK VINA RESULT: -6.661383118      1.205      1.210
REMARK  7 active torsions:
REMARK  status: ('A' for Active; 'I' for Inactive)
REMARK    1  A    between atoms: O1_2  and  C2_3 
REMARK    2  A    between atoms: C2_3  and  N1_4 
REMARK    3  A    between atoms: C2_3  and  C3_8 
REMARK       I    between atoms: C3_8  and  N2_10 
REMARK    4  A    between atoms: N2_10  and  C4_12 
REMARK    5  A    between atoms: C4_12  and  O3_13 
REMARK    6  A    between atoms: C4_12  and  C5_15 
REMARK    7  A    between atoms: C10_27  and  N7_28 
ROOT
HETATM    1  C5  UNL     1      36.890   2.400  24.031  1.00  0.00     0.084 A 
HETATM    2  C6  UNL     1      35.747   3.041  24.638  1.00  0.00     0.134 A 
HETATM    3  N3  UNL     1      34.808   2.248  25.342  1.00  0.00    -0.082 NA
HETATM    4  N4  UNL     1      35.531   4.349  24.569  1.00  0.00    -0.329 N 
ATOM      5  H4  UNL     1      34.704   4.745  25.018  1.00  0.00     0.168 HD
HETATM    6  C7  UNL     1      36.378   5.154  23.922  1.00  0.00     0.123 A 
HETATM    7  N5  UNL     1      36.123   6.414  23.885  1.00  0.00    -0.384 N 
ATOM      8  H51 UNL     1      36.769   7.029  23.392  1.00  0.00     0.157 HD
ATOM      9  H52 UNL     1      35.301   6.825  24.329  1.00  0.00     0.157 HD
HETATM   10  C8  UNL     1      37.488   4.599  23.324  1.00  0.00     0.115 A 
HETATM   11  C9  UNL     1      38.400   5.450  22.652  1.00  0.00     0.105 C 
HETATM   12  N6  UNL     1      39.134   6.172  22.120  1.00  0.00    -0.191 NA
HETATM   13  C10 UNL     1      37.751   3.204  23.375  1.00  0.00     0.073 A 
ENDROOT
BRANCH  13  14
HETATM   14  N7  UNL     1      38.925   2.778  22.709  1.00  0.00    -0.375 N 
HETATM   15  C11 UNL     1      38.803   2.282  21.328  1.00  0.00     0.149 C 
HETATM   16  C12 UNL     1      40.193   2.115  20.779  1.00  0.00     0.187 C 
HETATM   17  O4  UNL     1      40.947   1.259  21.535  1.00  0.00    -0.388 OA
HETATM   18  C13 UNL     1      40.977   1.522  22.872  1.00  0.00     0.187 C 
HETATM   19  C14 UNL     1      40.220   2.738  23.318  1.00  0.00     0.149 C 
ENDBRANCH  13  14
BRANCH   1  20
HETATM   20  C4  UNL     1      36.985   0.990  24.189  1.00  0.00     0.158 C 
BRANCH  20  21
HETATM   21  N2  UNL     1      36.596  -0.072  23.406  1.00  0.00    -0.303 N 
HETATM   22  C3  UNL     1      37.560  -1.076  22.967  1.00  0.00     0.280 C 
HETATM   23  O2  UNL     1      38.743  -0.968  23.305  1.00  0.00    -0.268 OA
ATOM     24  H2  UNL     1      35.618  -0.159  23.129  1.00  0.00     0.171 HD
BRANCH  22  25
HETATM   25  C2  UNL     1      37.115  -2.199  22.132  1.00  0.00     0.411 C 
BRANCH  25  26
HETATM   26  O1  UNL     1      35.934  -2.745  22.569  1.00  0.00    -0.357 OA
HETATM   27  C1  UNL     1      36.002  -4.129  22.616  1.00  0.00     0.204 C 
ENDBRANCH  25  26
BRANCH  25  28
HETATM   28  N1  UNL     1      37.047  -1.757  20.743  1.00  0.00    -0.044 N 
ATOM     29  H13 UNL     1      36.639  -0.825  20.674  1.00  0.00     0.278 HD
ATOM     30  H12 UNL     1      37.977  -1.556  20.376  1.00  0.00     0.278 HD
ATOM     31  H11 UNL     1      36.553  -2.419  20.144  1.00  0.00     0.278 HD
ENDBRANCH  25  28
ENDBRANCH  22  25
ENDBRANCH  20  21
BRANCH  20  32
HETATM   32  O3  UNL     1      37.561   0.593  25.307  1.00  0.00    -0.345 OA
ATOM     33  H3  UNL     1      38.223   1.206  25.603  1.00  0.00     0.219 HD
ENDBRANCH  20  32
ENDBRANCH   1  20
TORSDOF 7
ENDMDL
MODEL 3
REMARK VINA RESULT: -6.658906904      1.005      1.387
REMARK  7 active torsions:
REMARK  status: ('A' for Active; 'I' for Inactive)
REMARK    1  A    between atoms: O1_2  and  C2_3 
REMARK    2  A    between atoms: C2_3  and  N1_4 
REMARK    3  A    between atoms: C2_3  and  C3_8 
REMARK       I    between atoms: C3_8  and  N2_10 
REMARK    4  A    between atoms: N2_10  and  C4_12 
REMARK    5  A    between atoms: C4_12  and  O3_13 
REMARK    6  A    between atoms: C4_12  and  C5_15 
REMARK    7  A    between atoms: C10_27  and  N7_28 
ROOT
HETATM    1  C5  UNL     1      36.875   2.486  24.000  1.00  0.00     0.084 A 
HETATM    2  C6  UNL     1      35.725   3.102  24.620  1.00  0.00     0.134 A 
HETATM    3  N3  UNL     1      34.817   2.292  25.344  1.00  0.00    -0.082 NA
HETATM    4  N4  UNL     1      35.474   4.404  24.543  1.00  0.00    -0.329 N 
ATOM      5  H4  UNL     1      34.644   4.783  25.001  1.00  0.00     0.168 HD
HETATM    6  C7  UNL     1      36.290   5.224  23.876  1.00  0.00     0.123 A 
HETATM    7  N5  UNL     1      36.002   6.478  23.833  1.00  0.00    -0.384 N 
ATOM      8  H51 UNL     1      36.625   7.105  23.324  1.00  0.00     0.157 HD
ATOM      9  H52 UNL     1      35.177   6.871  24.286  1.00  0.00     0.157 HD
HETATM   10  C8  UNL     1      37.405   4.693  23.265  1.00  0.00     0.115 A 
HETATM   11  C9  UNL     1      38.285   5.561  22.573  1.00  0.00     0.105 C 
HETATM   12  N6  UNL     1      38.991   6.297  22.023  1.00  0.00    -0.191 NA
HETATM   13  C10 UNL     1      37.704   3.306  23.324  1.00  0.00     0.073 A 
ENDROOT
BRANCH  13  14
HETATM   14  N7  UNL     1      38.879   2.904  22.644  1.00  0.00    -0.375 N 
HETATM   15  C11 UNL     1      40.152   2.912  23.383  1.00  0.00     0.149 C 
HETATM   16  C12 UNL     1      41.183   2.236  22.522  1.00  0.00     0.187 C 
HETATM   17  O4  UNL     1      41.326   2.852  21.309  1.00  0.00    -0.388 OA
HETATM   18  C13 UNL     1      40.173   3.064  20.615  1.00  0.00     0.187 C 
HETATM   19  C14 UNL     1      38.917   2.551  21.257  1.00  0.00     0.149 C 
ENDBRANCH  13  14
BRANCH   1  20
HETATM   20  C4  UNL     1      37.009   1.080  24.168  1.00  0.00     0.158 C 
BRANCH  20  21
HETATM   21  N2  UNL     1      36.632   0.001  23.403  1.00  0.00    -0.303 N 
HETATM   22  C3  UNL     1      37.628  -0.865  22.781  1.00  0.00     0.280 C 
HETATM   23  O2  UNL     1      38.828  -0.624  22.947  1.00  0.00    -0.268 OA
ATOM     24  H2  UNL     1      35.640  -0.196  23.268  1.00  0.00     0.171 HD
BRANCH  22  25
HETATM   25  C2  UNL     1      37.194  -2.010  21.969  1.00  0.00     0.411 C 
BRANCH  25  26
HETATM   26  O1  UNL     1      36.023  -2.563  22.421  1.00  0.00    -0.357 OA
HETATM   27  C1  UNL     1      36.151  -3.929  22.622  1.00  0.00     0.204 C 
ENDBRANCH  25  26
BRANCH  25  28
HETATM   28  N1  UNL     1      37.115  -1.595  20.572  1.00  0.00    -0.044 N 
ATOM     29  H13 UNL     1      37.842  -0.915  20.350  1.00  0.00     0.278 HD
ATOM     30  H12 UNL     1      37.401  -2.350  19.949  1.00  0.00     0.278 HD
ATOM     31  H11 UNL     1      36.193  -1.240  20.320  1.00  0.00     0.278 HD
ENDBRANCH  25  28
ENDBRANCH  22  25
ENDBRANCH  20  21
BRANCH  20  32
HETATM   32  O3  UNL     1      37.616   0.708  25.278  1.00  0.00    -0.345 OA
ATOM     33  H3  UNL     1      37.633   1.404  25.924  1.00  0.00     0.219 HD
ENDBRANCH  20  32
ENDBRANCH   1  20
TORSDOF 7
ENDMDL
MODEL 4
REMARK VINA RESULT: -5.971648489      2.063      2.760
REMARK  7 active torsions:
REMARK  status: ('A' for Active; 'I' for Inactive)
REMARK    1  A    between atoms: O1_2  and  C2_3 
REMARK    2  A    between atoms: C2_3  and  N1_4 
REMARK    3  A    between atoms: C2_3  and  C3_8 
REMARK       I    between atoms: C3_8  and  N2_10 
REMARK    4  A    between atoms: N2_10  and  C4_12 
REMARK    5  A    between atoms: C4_12  and  O3_13 
REMARK    6  A    between atoms: C4_12  and  C5_15 
REMARK    7  A    between atoms: C10_27  and  N7_28 
ROOT
HETATM    1  C5  UNL     1      37.892   2.491  23.966  1.00  0.00     0.084 A 
HETATM    2  C6  UNL     1      36.922   3.558  23.892  1.00  0.00     0.134 A 
HETATM    3  N3  UNL     1      35.546   3.246  24.013  1.00  0.00    -0.082 NA
HETATM    4  N4  UNL     1      37.259   4.830  23.715  1.00  0.00    -0.329 N 
ATOM      5  H4  UNL     1      36.528   5.542  23.670  1.00  0.00     0.168 HD
HETATM    6  C7  UNL     1      38.538   5.193  23.594  1.00  0.00     0.123 A 
HETATM    7  N5  UNL     1      38.812   6.439  23.425  1.00  0.00    -0.384 N 
ATOM      8  H51 UNL     1      39.789   6.717  23.333  1.00  0.00     0.157 HD
ATOM      9  H52 UNL     1      38.093   7.161  23.378  1.00  0.00     0.157 HD
HETATM   10  C8  UNL     1      39.509   4.218  23.658  1.00  0.00     0.115 A 
HETATM   11  C9  UNL     1      40.870   4.599  23.550  1.00  0.00     0.105 C 
HETATM   12  N6  UNL     1      41.973   4.942  23.470  1.00  0.00    -0.191 NA
HETATM   13  C10 UNL     1      39.186   2.847  23.845  1.00  0.00     0.073 A 
ENDROOT
BRANCH  13  14
HETATM   14  N7  UNL     1      40.288   1.959  23.883  1.00  0.00    -0.375 N 
HETATM   15  C11 UNL     1      40.658   1.253  22.646  1.00  0.00     0.149 C 
HETATM   16  C12 UNL     1      41.973   0.565  22.890  1.00  0.00     0.187 C 
HETATM   17  O4  UNL     1      41.911  -0.306  23.943  1.00  0.00    -0.388 OA
HETATM   18  C13 UNL     1      41.403   0.202  25.101  1.00  0.00     0.187 C 
HETATM   19  C14 UNL     1      41.027   1.654  25.070  1.00  0.00     0.149 C 
ENDBRANCH  13  14
BRANCH   1  20
HETATM   20  C4  UNL     1      37.378   1.179  24.158  1.00  0.00     0.158 C 
BRANCH  20  21
HETATM   21  N2  UNL     1      36.933   0.208  23.291  1.00  0.00    -0.303 N 
HETATM   22  C3  UNL     1      37.594  -1.090  23.212  1.00  0.00     0.280 C 
HETATM   23  O2  UNL     1      38.568  -1.319  23.936  1.00  0.00    -0.268 OA
ATOM     24  H2  UNL     1      36.127   0.399  22.694  1.00  0.00     0.171 HD
BRANCH  22  25
HETATM   25  C2  UNL     1      37.095  -2.107  22.276  1.00  0.00     0.411 C 
BRANCH  25  26
HETATM   26  O1  UNL     1      35.888  -2.633  22.664  1.00  0.00    -0.357 OA
HETATM   27  C1  UNL     1      35.910  -4.020  22.648  1.00  0.00     0.204 C 
ENDBRANCH  25  26
BRANCH  25  28
HETATM   28  N1  UNL     1      37.051  -1.534  20.935  1.00  0.00    -0.044 N 
ATOM     29  H13 UNL     1      37.938  -1.668  20.450  1.00  0.00     0.278 HD
ATOM     30  H12 UNL     1      36.446  -2.081  20.323  1.00  0.00     0.278 HD
ATOM     31  H11 UNL     1      36.778  -0.552  20.937  1.00  0.00     0.278 HD
ENDBRANCH  25  28
ENDBRANCH  22  25
ENDBRANCH  20  21
BRANCH  20  32
HETATM   32  O3  UNL     1      37.304   0.789  25.415  1.00  0.00    -0.345 OA
ATOM     33  H3  UNL     1      38.076   1.036  25.910  1.00  0.00     0.219 HD
ENDBRANCH  20  32
ENDBRANCH   1  20
TORSDOF 7
ENDMDL
MODEL 5
REMARK VINA RESULT: -5.950773375      2.973      6.488
REMARK  7 active torsions:
REMARK  status: ('A' for Active; 'I' for Inactive)
REMARK    1  A    between atoms: O1_2  and  C2_3 
REMARK    2  A    between atoms: C2_3  and  N1_4 
REMARK    3  A    between atoms: C2_3  and  C3_8 
REMARK       I    between atoms: C3_8  and  N2_10 
REMARK    4  A    between atoms: N2_10  and  C4_12 
REMARK    5  A    between atoms: C4_12  and  O3_13 
REMARK    6  A    between atoms: C4_12  and  C5_15 
REMARK    7  A    between atoms: C10_27  and  N7_28 
ROOT
HETATM    1  C5  UNL     1      38.403   4.791  23.085  1.00  0.00     0.084 A 
HETATM    2  C6  UNL     1      39.334   5.880  22.900  1.00  0.00     0.134 A 
HETATM    3  N3  UNL     1      38.882   7.075  22.288  1.00  0.00    -0.082 NA
HETATM    4  N4  UNL     1      40.605   5.816  23.279  1.00  0.00    -0.329 N 
ATOM      5  H4  UNL     1      41.216   6.618  23.121  1.00  0.00     0.168 HD
HETATM    6  C7  UNL     1      41.095   4.720  23.862  1.00  0.00     0.123 A 
HETATM    7  N5  UNL     1      42.334   4.710  24.211  1.00  0.00    -0.384 N 
ATOM      8  H51 UNL     1      42.708   3.873  24.658  1.00  0.00     0.157 HD
ATOM      9  H52 UNL     1      42.957   5.503  24.061  1.00  0.00     0.157 HD
HETATM   10  C8  UNL     1      40.253   3.648  24.066  1.00  0.00     0.115 A 
HETATM   11  C9  UNL     1      40.763   2.489  24.703  1.00  0.00     0.105 C 
HETATM   12  N6  UNL     1      41.205   1.560  25.235  1.00  0.00    -0.191 NA
HETATM   13  C10 UNL     1      38.889   3.680  23.673  1.00  0.00     0.073 A 
ENDROOT
BRANCH  13  14
HETATM   14  N7  UNL     1      38.148   2.504  23.940  1.00  0.00    -0.375 N 
HETATM   15  C11 UNL     1      38.322   1.350  23.043  1.00  0.00     0.149 C 
HETATM   16  C12 UNL     1      37.617   0.177  23.666  1.00  0.00     0.187 C 
HETATM   17  O4  UNL     1      36.289   0.427  23.877  1.00  0.00    -0.388 OA
HETATM   18  C13 UNL     1      36.004   1.580  24.546  1.00  0.00     0.187 C 
HETATM   19  C14 UNL     1      37.187   2.387  24.995  1.00  0.00     0.149 C 
ENDBRANCH  13  14
BRANCH   1  20
HETATM   20  C4  UNL     1      37.075   5.008  22.626  1.00  0.00     0.158 C 
BRANCH  20  21
HETATM   21  N2  UNL     1      36.183   6.044  22.782  1.00  0.00    -0.303 N 
HETATM   22  C3  UNL     1      35.103   5.966  23.760  1.00  0.00     0.280 C 
HETATM   23  O2  UNL     1      34.990   4.953  24.458  1.00  0.00    -0.268 OA
ATOM     24  H2  UNL     1      36.280   6.880  22.205  1.00  0.00     0.171 HD
BRANCH  22  25
HETATM   25  C2  UNL     1      34.167   7.089  23.904  1.00  0.00     0.411 C 
BRANCH  25  26
HETATM   26  O1  UNL     1      33.930   7.733  22.716  1.00  0.00    -0.357 OA
HETATM   27  C1  UNL     1      34.326   9.061  22.770  1.00  0.00     0.204 C 
ENDBRANCH  25  26
BRANCH  25  28
HETATM   28  N1  UNL     1      32.942   6.605  24.533  1.00  0.00    -0.044 N 
ATOM     29  H13 UNL     1      32.315   7.378  24.757  1.00  0.00     0.278 HD
ATOM     30  H12 UNL     1      32.357   6.108  23.862  1.00  0.00     0.278 HD
ATOM     31  H11 UNL     1      33.125   6.031  25.356  1.00  0.00     0.278 HD
ENDBRANCH  25  28
ENDBRANCH  22  25
ENDBRANCH  20  21
BRANCH  20  32
HETATM   32  O3  UNL     1      36.570   4.030  21.900  1.00  0.00    -0.345 OA
ATOM     33  H3  UNL     1      36.997   3.959  21.054  1.00  0.00     0.219 HD
ENDBRANCH  20  32
ENDBRANCH   1  20
TORSDOF 7
ENDMDL
