MODEL 1
REMARK VINA RESULT: -6.875927332      0.000      0.000
REMARK  6 active torsions:
REMARK  status: ('A' for Active; 'I' for Inactive)
REMARK    1  A    between atoms: C3_4  and  N2_5 
REMARK    2  A    between atoms: N2_5  and  C4_7 
REMARK    3  A    between atoms: N3_8  and  N4_10 
REMARK    4  A    between atoms: C5_17  and  N7_18 
REMARK    5  A    between atoms: C6_22  and  C7_23 
REMARK    6  A    between atoms: C8_30  and  N13_31 
ROOT
HETATM    1  N1  UNL     1      38.316   7.280  14.163  1.00  0.00    -0.191 NA
HETATM    2  C1  UNL     1      38.183   6.169  13.871  1.00  0.00     0.107 C 
HETATM    3  C2  UNL     1      38.000   4.797  13.493  1.00  0.00     0.133 A 
HETATM    4  C3  UNL     1      36.745   4.261  13.624  1.00  0.00     0.146 A 
HETATM    5  N6  UNL     1      36.560   2.975  13.273  1.00  0.00    -0.172 N 
ATOM      6  H6  UNL     1      35.625   2.579  13.370  1.00  0.00     0.186 HD
HETATM    7  C5  UNL     1      37.537   2.184  12.801  1.00  0.00     0.720 A 
HETATM    8  N12 UNL     1      38.757   2.728  12.682  1.00  0.00    -0.172 N 
ATOM      9  H12 UNL     1      39.519   2.150  12.326  1.00  0.00     0.186 HD
HETATM   10  C8  UNL     1      39.015   4.010  13.015  1.00  0.00     0.139 A 
ENDROOT
BRANCH   4  11
HETATM   11  N2  UNL     1      35.656   5.030  14.114  1.00  0.00    -0.336 N 
ATOM     12  H2  UNL     1      35.590   5.247  15.109  1.00  0.00     0.168 HD
BRANCH  11  13
HETATM   13  C4  UNL     1      34.658   5.498  13.215  1.00  0.00     0.200 C 
HETATM   14  N3  UNL     1      34.448   6.764  13.124  1.00  0.00    -0.282 N 
ATOM     15  H3  UNL     1      33.734   7.113  12.483  1.00  0.00     0.189 HD
BRANCH  14  16
HETATM   16  N4  UNL     1      35.186   7.664  13.892  1.00  0.00    -0.248 N 
HETATM   17  N5  UNL     1      34.644   8.718  14.310  1.00  0.00    -0.331 N 
ATOM     18  H52 UNL     1      33.667   8.900  14.079  1.00  0.00     0.178 HD
ATOM     19  H51 UNL     1      35.183   9.375  14.872  1.00  0.00     0.178 HD
ATOM     20  H4  UNL     1      36.161   7.467  14.114  1.00  0.00     0.207 HD
ENDBRANCH  14  16
ENDBRANCH  11  13
ENDBRANCH   4  11
BRANCH  10  21
HETATM   21  N13 UNL     1      40.201   4.509  12.890  1.00  0.00    -0.384 N 
ATOM     22 2H13 UNL     1      41.003   4.093  13.364  1.00  0.00     0.157 HD
ATOM     23 1H13 UNL     1      40.338   5.334  12.306  1.00  0.00     0.157 HD
ENDBRANCH  10  21
BRANCH   7  24
HETATM   24  N7  UNL     1      37.307   0.818  12.436  1.00  0.00    -0.003 N 
HETATM   25  N8  UNL     1      38.150   0.080  11.733  1.00  0.00     0.018 NA
HETATM   26  N9  UNL     1      37.681  -1.141  11.546  1.00  0.00    -0.264 N 
HETATM   27  C6  UNL     1      36.486  -1.170  12.160  1.00  0.00     0.171 A 
ATOM     28  H9  UNL     1      38.131  -1.903  11.039  1.00  0.00     0.186 HD
HETATM   29  N11 UNL     1      36.264   0.059  12.714  1.00  0.00    -0.247 N 
ATOM     30  H11 UNL     1      35.440   0.340  13.246  1.00  0.00     0.191 HD
BRANCH  27  31
HETATM   31  C7  UNL     1      35.614  -2.324  12.208  1.00  0.00     0.159 C 
HETATM   32  N10 UNL     1      34.741  -2.575  11.127  1.00  0.00    -0.086 NA
HETATM   33  S1  UNL     1      35.620  -3.332  13.480  1.00  0.00    -0.060 SA
ENDBRANCH  27  31
ENDBRANCH   7  24
TORSDOF 6
ENDMDL
MODEL 2
REMARK VINA RESULT: -6.693788006      4.097      6.484
REMARK  6 active torsions:
REMARK  status: ('A' for Active; 'I' for Inactive)
REMARK    1  A    between atoms: C3_4  and  N2_5 
REMARK    2  A    between atoms: N2_5  and  C4_7 
REMARK    3  A    between atoms: N3_8  and  N4_10 
REMARK    4  A    between atoms: C5_17  and  N7_18 
REMARK    5  A    between atoms: C6_22  and  C7_23 
REMARK    6  A    between atoms: C8_30  and  N13_31 
ROOT
HETATM    1  N1  UNL     1      37.932   1.774  12.695  1.00  0.00    -0.191 NA
HETATM    2  C1  UNL     1      37.511   0.701  12.597  1.00  0.00     0.107 C 
HETATM    3  C2  UNL     1      36.973  -0.625  12.494  1.00  0.00     0.133 A 
HETATM    4  C3  UNL     1      37.053  -1.433  13.599  1.00  0.00     0.146 A 
HETATM    5  N6  UNL     1      36.553  -2.679  13.518  1.00  0.00    -0.172 N 
ATOM      6  H6  UNL     1      36.613  -3.277  14.341  1.00  0.00     0.186 HD
HETATM    7  C5  UNL     1      35.978  -3.179  12.411  1.00  0.00     0.720 A 
HETATM    8  N12 UNL     1      35.912  -2.373  11.341  1.00  0.00    -0.172 N 
ATOM      9  H12 UNL     1      35.481  -2.726  10.487  1.00  0.00     0.186 HD
HETATM   10  C8  UNL     1      36.393  -1.112  11.353  1.00  0.00     0.139 A 
ENDROOT
BRANCH   4  11
HETATM   11  N2  UNL     1      37.644  -0.980  14.810  1.00  0.00    -0.336 N 
ATOM     12  H2  UNL     1      38.160  -0.099  14.828  1.00  0.00     0.168 HD
BRANCH  11  13
HETATM   13  C4  UNL     1      37.515  -1.755  15.995  1.00  0.00     0.200 C 
HETATM   14  N3  UNL     1      37.109  -1.181  17.072  1.00  0.00    -0.282 N 
ATOM     15  H3  UNL     1      37.013  -1.725  17.930  1.00  0.00     0.189 HD
BRANCH  14  16
HETATM   16  N4  UNL     1      36.800   0.180  17.079  1.00  0.00    -0.248 N 
HETATM   17  N5  UNL     1      35.978   0.628  17.917  1.00  0.00    -0.331 N 
ATOM     18  H52 UNL     1      35.547  -0.014  18.582  1.00  0.00     0.178 HD
ATOM     19  H51 UNL     1      35.752   1.622  17.922  1.00  0.00     0.178 HD
ATOM     20  H4  UNL     1      37.239   0.807  16.406  1.00  0.00     0.207 HD
ENDBRANCH  14  16
ENDBRANCH  11  13
ENDBRANCH   4  11
BRANCH  10  21
HETATM   21  N13 UNL     1      36.315  -0.356  10.307  1.00  0.00    -0.384 N 
ATOM     22 2H13 UNL     1      35.605   0.373  10.233  1.00  0.00     0.157 HD
ATOM     23 1H13 UNL     1      36.977  -0.490   9.543  1.00  0.00     0.157 HD
ENDBRANCH  10  21
BRANCH   7  24
HETATM   24  N7  UNL     1      35.455  -4.511  12.356  1.00  0.00    -0.003 N 
HETATM   25  N8  UNL     1      34.833  -5.028  11.309  1.00  0.00     0.018 NA
HETATM   26  N9  UNL     1      34.459  -6.274  11.538  1.00  0.00    -0.264 N 
HETATM   27  C6  UNL     1      34.864  -6.553  12.788  1.00  0.00     0.171 A 
ATOM     28  H9  UNL     1      33.964  -6.896  10.898  1.00  0.00     0.186 HD
HETATM   29  N11 UNL     1      35.486  -5.444  13.289  1.00  0.00    -0.247 N 
ATOM     30  H11 UNL     1      35.900  -5.354  14.217  1.00  0.00     0.191 HD
BRANCH  27  31
HETATM   31  C7  UNL     1      34.661  -7.821  13.455  1.00  0.00     0.159 C 
HETATM   32  N10 UNL     1      33.346  -8.301  13.641  1.00  0.00    -0.086 NA
HETATM   33  S1  UNL     1      35.915  -8.700  13.994  1.00  0.00    -0.060 SA
ENDBRANCH  27  31
ENDBRANCH   7  24
TORSDOF 6
ENDMDL
MODEL 3
REMARK VINA RESULT: -6.619682043      4.970      7.934
REMARK  6 active torsions:
REMARK  status: ('A' for Active; 'I' for Inactive)
REMARK    1  A    between atoms: C3_4  and  N2_5 
REMARK    2  A    between atoms: N2_5  and  C4_7 
REMARK    3  A    between atoms: N3_8  and  N4_10 
REMARK    4  A    between atoms: C5_17  and  N7_18 
REMARK    5  A    between atoms: C6_22  and  C7_23 
REMARK    6  A    between atoms: C8_30  and  N13_31 
ROOT
HETATM    1  N1  UNL     1      37.644   0.372  13.334  1.00  0.00    -0.191 NA
HETATM    2  C1  UNL     1      37.097  -0.617  13.090  1.00  0.00     0.107 C 
HETATM    3  C2  UNL     1      36.402  -1.839  12.806  1.00  0.00     0.133 A 
HETATM    4  C3  UNL     1      36.270  -2.750  13.823  1.00  0.00     0.146 A 
HETATM    5  N6  UNL     1      35.620  -3.900  13.570  1.00  0.00    -0.172 N 
ATOM      6  H6  UNL     1      35.523  -4.575  14.328  1.00  0.00     0.186 HD
HETATM    7  C5  UNL     1      35.093  -4.211  12.374  1.00  0.00     0.720 A 
HETATM    8  N12 UNL     1      35.234  -3.307  11.393  1.00  0.00    -0.172 N 
ATOM      9  H12 UNL     1      34.843  -3.515  10.474  1.00  0.00     0.186 HD
HETATM   10  C8  UNL     1      35.873  -2.132  11.576  1.00  0.00     0.139 A 
ENDROOT
BRANCH   4  11
HETATM   11  N2  UNL     1      36.798  -2.498  15.118  1.00  0.00    -0.336 N 
ATOM     12  H2  UNL     1      36.410  -1.749  15.691  1.00  0.00     0.168 HD
BRANCH  11  13
HETATM   13  C4  UNL     1      37.868  -3.294  15.613  1.00  0.00     0.200 C 
HETATM   14  N3  UNL     1      38.204  -3.181  16.850  1.00  0.00    -0.282 N 
ATOM     15  H3  UNL     1      38.970  -3.745  17.219  1.00  0.00     0.189 HD
BRANCH  14  16
HETATM   16  N4  UNL     1      37.532  -2.295  17.692  1.00  0.00    -0.248 N 
HETATM   17  N5  UNL     1      38.187  -1.501  18.412  1.00  0.00    -0.331 N 
ATOM     18  H52 UNL     1      39.206  -1.517  18.369  1.00  0.00     0.178 HD
ATOM     19  H51 UNL     1      37.695  -0.853  19.026  1.00  0.00     0.178 HD
ATOM     20  H4  UNL     1      36.513  -2.293  17.723  1.00  0.00     0.207 HD
ENDBRANCH  14  16
ENDBRANCH  11  13
ENDBRANCH   4  11
BRANCH  10  21
HETATM   21  N13 UNL     1      35.995  -1.279  10.613  1.00  0.00    -0.384 N 
ATOM     22 2H13 UNL     1      35.840  -0.283  10.767  1.00  0.00     0.157 HD
ATOM     23 1H13 UNL     1      36.252  -1.608   9.682  1.00  0.00     0.157 HD
ENDBRANCH  10  21
BRANCH   7  24
HETATM   24  N7  UNL     1      34.407  -5.445  12.137  1.00  0.00    -0.003 N 
HETATM   25  N8  UNL     1      33.091  -5.578  12.119  1.00  0.00     0.018 NA
HETATM   26  N9  UNL     1      32.736  -6.828  11.877  1.00  0.00    -0.264 N 
HETATM   27  C6  UNL     1      33.883  -7.512  11.737  1.00  0.00     0.171 A 
ATOM     28  H9  UNL     1      31.787  -7.197  11.810  1.00  0.00     0.186 HD
HETATM   29  N11 UNL     1      34.921  -6.637  11.901  1.00  0.00    -0.247 N 
ATOM     30  H11 UNL     1      35.914  -6.865  11.850  1.00  0.00     0.191 HD
BRANCH  27  31
HETATM   31  C7  UNL     1      33.968  -8.929  11.459  1.00  0.00     0.159 C 
HETATM   32  N10 UNL     1      33.042  -9.808  12.063  1.00  0.00    -0.086 NA
HETATM   33  S1  UNL     1      35.106  -9.527  10.468  1.00  0.00    -0.060 SA
ENDBRANCH  27  31
ENDBRANCH   7  24
TORSDOF 6
ENDMDL
MODEL 4
REMARK VINA RESULT: -6.515193298      3.989      9.963
REMARK  6 active torsions:
REMARK  status: ('A' for Active; 'I' for Inactive)
REMARK    1  A    between atoms: C3_4  and  N2_5 
REMARK    2  A    between atoms: N2_5  and  C4_7 
REMARK    3  A    between atoms: N3_8  and  N4_10 
REMARK    4  A    between atoms: C5_17  and  N7_18 
REMARK    5  A    between atoms: C6_22  and  C7_23 
REMARK    6  A    between atoms: C8_30  and  N13_31 
ROOT
HETATM    1  N1  UNL     1      36.341  -8.558  12.866  1.00  0.00    -0.191 NA
HETATM    2  C1  UNL     1      36.434  -7.407  12.813  1.00  0.00     0.107 C 
HETATM    3  C2  UNL     1      36.526  -5.976  12.758  1.00  0.00     0.133 A 
HETATM    4  C3  UNL     1      35.548  -5.299  12.077  1.00  0.00     0.146 A 
HETATM    5  N6  UNL     1      35.622  -3.957  12.017  1.00  0.00    -0.172 N 
ATOM      6  H6  UNL     1      34.892  -3.457  11.510  1.00  0.00     0.186 HD
HETATM    7  C5  UNL     1      36.604  -3.240  12.587  1.00  0.00     0.720 A 
HETATM    8  N12 UNL     1      37.552  -3.922  13.247  1.00  0.00    -0.172 N 
ATOM      9  H12 UNL     1      38.311  -3.403  13.690  1.00  0.00     0.186 HD
HETATM   10  C8  UNL     1      37.541  -5.268  13.347  1.00  0.00     0.139 A 
ENDROOT
BRANCH   4  11
HETATM   11  N2  UNL     1      34.473  -5.983  11.446  1.00  0.00    -0.336 N 
ATOM     12  H2  UNL     1      34.559  -6.285  10.475  1.00  0.00     0.168 HD
BRANCH  11  13
HETATM   13  C4  UNL     1      33.278  -6.245  12.171  1.00  0.00     0.200 C 
HETATM   14  N3  UNL     1      32.757  -7.420  12.106  1.00  0.00    -0.282 N 
ATOM     15  H3  UNL     1      31.899  -7.621  12.621  1.00  0.00     0.189 HD
BRANCH  14  16
HETATM   16  N4  UNL     1      33.353  -8.420  11.339  1.00  0.00    -0.248 N 
HETATM   17  N5  UNL     1      32.836  -9.564  11.295  1.00  0.00    -0.331 N 
ATOM     18  H52 UNL     1      31.983  -9.744  11.826  1.00  0.00     0.178 HD
ATOM     19  H51 UNL     1      33.271 -10.295  10.734  1.00  0.00     0.178 HD
ATOM     20  H4  UNL     1      34.205  -8.223  10.815  1.00  0.00     0.207 HD
ENDBRANCH  14  16
ENDBRANCH  11  13
ENDBRANCH   4  11
BRANCH  10  21
HETATM   21  N13 UNL     1      38.466  -5.899  13.990  1.00  0.00    -0.384 N 
ATOM     22 2H13 UNL     1      39.059  -6.587  13.523  1.00  0.00     0.157 HD
ATOM     23 1H13 UNL     1      38.609  -5.707  14.981  1.00  0.00     0.157 HD
ENDBRANCH  10  21
BRANCH   7  24
HETATM   24  N7  UNL     1      36.655  -1.811  12.504  1.00  0.00    -0.003 N 
HETATM   25  N8  UNL     1      36.672  -1.128  11.371  1.00  0.00     0.018 NA
HETATM   26  N9  UNL     1      36.720   0.174  11.595  1.00  0.00    -0.264 N 
HETATM   27  C6  UNL     1      36.734   0.314  12.931  1.00  0.00     0.171 A 
ATOM     28  H9  UNL     1      36.742   0.918  10.897  1.00  0.00     0.186 HD
HETATM   29  N11 UNL     1      36.693  -0.933  13.489  1.00  0.00    -0.247 N 
ATOM     30  H11 UNL     1      36.691  -1.147  14.486  1.00  0.00     0.191 HD
BRANCH  27  31
HETATM   31  C7  UNL     1      36.784   1.583  13.625  1.00  0.00     0.159 C 
HETATM   32  N10 UNL     1      35.601   2.341  13.763  1.00  0.00    -0.086 NA
HETATM   33  S1  UNL     1      38.172   2.148  14.246  1.00  0.00    -0.060 SA
ENDBRANCH  27  31
ENDBRANCH   7  24
TORSDOF 6
ENDMDL
MODEL 5
REMARK VINA RESULT: -6.424215712      3.355      7.952
REMARK  6 active torsions:
REMARK  status: ('A' for Active; 'I' for Inactive)
REMARK    1  A    between atoms: C3_4  and  N2_5 
REMARK    2  A    between atoms: N2_5  and  C4_7 
REMARK    3  A    between atoms: N3_8  and  N4_10 
REMARK    4  A    between atoms: C5_17  and  N7_18 
REMARK    5  A    between atoms: C6_22  and  C7_23 
REMARK    6  A    between atoms: C8_30  and  N13_31 
ROOT
HETATM    1  N1  UNL     1      35.590  -6.069  13.021  1.00  0.00    -0.191 NA
HETATM    2  C1  UNL     1      35.793  -4.931  12.975  1.00  0.00     0.107 C 
HETATM    3  C2  UNL     1      36.070  -3.525  12.921  1.00  0.00     0.133 A 
HETATM    4  C3  UNL     1      36.687  -2.954  14.004  1.00  0.00     0.146 A 
HETATM    5  N6  UNL     1      36.953  -1.636  13.968  1.00  0.00    -0.172 N 
ATOM      6  H6  UNL     1      37.413  -1.215  14.775  1.00  0.00     0.186 HD
HETATM    7  C5  UNL     1      36.646  -0.843  12.928  1.00  0.00     0.720 A 
HETATM    8  N12 UNL     1      36.041  -1.421  11.879  1.00  0.00    -0.172 N 
ATOM      9  H12 UNL     1      35.796  -0.843  11.075  1.00  0.00     0.186 HD
HETATM   10  C8  UNL     1      35.745  -2.737  11.848  1.00  0.00     0.139 A 
ENDROOT
BRANCH   4  11
HETATM   11  N2  UNL     1      37.047  -3.723  15.144  1.00  0.00    -0.336 N 
ATOM     12  H2  UNL     1      36.373  -4.366  15.560  1.00  0.00     0.168 HD
BRANCH  11  13
HETATM   13  C4  UNL     1      38.348  -3.594  15.704  1.00  0.00     0.200 C 
HETATM   14  N3  UNL     1      38.494  -2.914  16.787  1.00  0.00    -0.282 N 
ATOM     15  H3  UNL     1      39.422  -2.813  17.199  1.00  0.00     0.189 HD
BRANCH  14  16
HETATM   16  N4  UNL     1      37.396  -2.313  17.402  1.00  0.00    -0.248 N 
HETATM   17  N5  UNL     1      37.295  -1.061  17.413  1.00  0.00    -0.331 N 
ATOM     18  H52 UNL     1      38.022  -0.500  16.969  1.00  0.00     0.178 HD
ATOM     19  H51 UNL     1      36.492  -0.623  17.863  1.00  0.00     0.178 HD
ATOM     20  H4  UNL     1      36.678  -2.889  17.842  1.00  0.00     0.207 HD
ENDBRANCH  14  16
ENDBRANCH  11  13
ENDBRANCH   4  11
BRANCH  10  21
HETATM   21  N13 UNL     1      35.162  -3.268  10.824  1.00  0.00    -0.384 N 
ATOM     22 2H13 UNL     1      34.219  -2.991  10.549  1.00  0.00     0.157 HD
ATOM     23 1H13 UNL     1      35.654  -3.977  10.279  1.00  0.00     0.157 HD
ENDBRANCH  10  21
BRANCH   7  24
HETATM   24  N7  UNL     1      36.941   0.558  12.920  1.00  0.00    -0.003 N 
HETATM   25  N8  UNL     1      38.004   1.095  12.343  1.00  0.00     0.018 NA
HETATM   26  N9  UNL     1      38.022   2.408  12.492  1.00  0.00    -0.264 N 
HETATM   27  C6  UNL     1      36.919   2.709  13.197  1.00  0.00     0.171 A 
ATOM     28  H9  UNL     1      38.727   3.057  12.144  1.00  0.00     0.186 HD
HETATM   29  N11 UNL     1      36.251   1.546  13.458  1.00  0.00    -0.247 N 
ATOM     30  H11 UNL     1      35.377   1.456  13.976  1.00  0.00     0.191 HD
BRANCH  27  31
HETATM   31  C7  UNL     1      36.535   4.047  13.592  1.00  0.00     0.159 C 
HETATM   32  N10 UNL     1      35.165   4.383  13.653  1.00  0.00    -0.086 NA
HETATM   33  S1  UNL     1      37.648   5.167  13.966  1.00  0.00    -0.060 SA
ENDBRANCH  27  31
ENDBRANCH   7  24
TORSDOF 6
ENDMDL
