MODEL 1
REMARK VINA RESULT: -7.016637084      0.000      0.000
REMARK  5 active torsions:
REMARK  status: ('A' for Active; 'I' for Inactive)
REMARK       I    between atoms: C2_3  and  N2_5 
REMARK    1  A    between atoms: N2_5  and  N3_7 
REMARK    2  A    between atoms: C6_18  and  O2_19 
REMARK    3  A    between atoms: O2_19  and  C7_20 
REMARK    4  A    between atoms: C7_20  and  C10_25 
REMARK    5  A    between atoms: C11_29  and  N10_30 
ROOT
HETATM    1  C1  UNL     1      38.572   1.852  17.731  1.00  0.00     0.265 C 
HETATM    2  N1  UNL     1      38.123   0.689  17.129  1.00  0.00    -0.401 NA
HETATM    3  C2  UNL     1      37.686  -0.443  16.543  1.00  0.00     0.406 C 
HETATM    4  O1  UNL     1      37.404  -1.573  17.078  1.00  0.00    -0.229 OA
HETATM    5  N2  UNL     1      37.490  -0.407  15.077  1.00  0.00    -0.238 N 
ATOM      6  H2  UNL     1      37.719   0.453  14.578  1.00  0.00     0.193 HD
ENDROOT
BRANCH   5   7
HETATM    7  N3  UNL     1      37.029  -1.444  14.376  1.00  0.00    -0.280 N 
HETATM    8  C3  UNL     1      36.382  -1.736  13.353  1.00  0.00     0.139 A 
HETATM    9  N4  UNL     1      35.851  -0.823  12.483  1.00  0.00    -0.337 N 
HETATM   10  C12 UNL     1      36.186  -3.077  13.089  1.00  0.00     0.097 A 
HETATM   11  C4  UNL     1      35.158  -1.210  11.399  1.00  0.00     0.183 A 
ATOM     12  H4  UNL     1      35.985   0.172  12.660  1.00  0.00     0.168 HD
HETATM   13  N5  UNL     1      34.988  -2.524  11.174  1.00  0.00    -0.338 N 
HETATM   14  C5  UNL     1      35.484  -3.474  11.990  1.00  0.00     0.127 A 
ATOM     15  H5  UNL     1      34.460  -2.815  10.351  1.00  0.00     0.168 HD
HETATM   16  N6  UNL     1      35.319  -4.801  11.785  1.00  0.00    -0.307 N 
HETATM   17  C6  UNL     1      35.795  -5.763  12.579  1.00  0.00     0.229 A 
ATOM     18  H6  UNL     1      34.791  -5.088  10.961  1.00  0.00     0.171 HD
HETATM   19  N9  UNL     1      36.499  -5.356  13.679  1.00  0.00    -0.307 N 
HETATM   20  C11 UNL     1      36.699  -4.060  13.942  1.00  0.00     0.119 A 
ATOM     21  H9  UNL     1      36.881  -6.057  14.313  1.00  0.00     0.171 HD
ATOM     22  H3  UNL     1      37.304  -2.307  14.846  1.00  0.00     0.188 HD
BRANCH  17  23
HETATM   23  O2  UNL     1      35.603  -7.098  12.334  1.00  0.00    -0.278 OA
BRANCH  23  24
HETATM   24  C7  UNL     1      34.464  -7.857  12.595  1.00  0.00     0.271 C 
HETATM   25  C8  UNL     1      34.431  -8.241  14.011  1.00  0.00     0.117 C 
HETATM   26  N7  UNL     1      34.413  -8.539  15.149  1.00  0.00    -0.193 NA
HETATM   27  C9  UNL     1      33.278  -6.987  12.335  1.00  0.00     0.117 C 
HETATM   28  N8  UNL     1      32.368  -6.289  12.149  1.00  0.00    -0.193 NA
BRANCH  24  29
HETATM   29  C10 UNL     1      34.361  -9.021  11.656  1.00  0.00     0.292 C 
HETATM   30  F1  UNL     1      34.740  -8.670  10.372  1.00  0.00    -0.250 F 
ENDBRANCH  24  29
ENDBRANCH  23  24
ENDBRANCH  17  23
BRANCH  20  31
HETATM   31  N10 UNL     1      37.360  -3.651  14.970  1.00  0.00    -0.385 N 
ATOM     32 2H10 UNL     1      38.150  -4.223  15.265  1.00  0.00     0.157 HD
ATOM     33 1H10 UNL     1      37.120  -2.799  15.478  1.00  0.00     0.157 HD
ENDBRANCH  20  31
ENDBRANCH   5   7
TORSDOF 4
ENDMDL
MODEL 2
REMARK VINA RESULT: -7.000851674      2.650      3.523
REMARK  5 active torsions:
REMARK  status: ('A' for Active; 'I' for Inactive)
REMARK       I    between atoms: C2_3  and  N2_5 
REMARK    1  A    between atoms: N2_5  and  N3_7 
REMARK    2  A    between atoms: C6_18  and  O2_19 
REMARK    3  A    between atoms: O2_19  and  C7_20 
REMARK    4  A    between atoms: C7_20  and  C10_25 
REMARK    5  A    between atoms: C11_29  and  N10_30 
ROOT
HETATM    1  C1  UNL     1      38.955   4.989  12.182  1.00  0.00     0.265 C 
HETATM    2  N1  UNL     1      38.227   3.830  12.393  1.00  0.00    -0.401 NA
HETATM    3  C2  UNL     1      37.520   2.702  12.599  1.00  0.00     0.406 C 
HETATM    4  O1  UNL     1      36.271   2.567  12.858  1.00  0.00    -0.229 OA
HETATM    5  N2  UNL     1      38.257   1.423  12.516  1.00  0.00    -0.238 N 
ATOM      6  H2  UNL     1      39.261   1.452  12.338  1.00  0.00     0.193 HD
ENDROOT
BRANCH   5   7
HETATM    7  N3  UNL     1      37.673   0.232  12.663  1.00  0.00    -0.280 N 
HETATM    8  C3  UNL     1      37.416  -0.645  13.509  1.00  0.00     0.139 A 
HETATM    9  N4  UNL     1      37.766  -0.577  14.830  1.00  0.00    -0.337 N 
HETATM   10  C12 UNL     1      36.734  -1.764  13.073  1.00  0.00     0.097 A 
HETATM   11  C4  UNL     1      37.460  -1.564  15.688  1.00  0.00     0.183 A 
ATOM     12  H4  UNL     1      38.269   0.242  15.171  1.00  0.00     0.168 HD
HETATM   13  N5  UNL     1      36.796  -2.638  15.227  1.00  0.00    -0.338 N 
HETATM   14  C5  UNL     1      36.421  -2.768  13.940  1.00  0.00     0.127 A 
ATOM     15  H5  UNL     1      36.565  -3.387  15.881  1.00  0.00     0.168 HD
HETATM   16  N6  UNL     1      35.757  -3.843  13.456  1.00  0.00    -0.307 N 
HETATM   17  C6  UNL     1      35.379  -4.000  12.185  1.00  0.00     0.229 A 
ATOM     18  H6  UNL     1      35.528  -4.590  14.112  1.00  0.00     0.171 HD
HETATM   19  N9  UNL     1      35.696  -2.987  11.323  1.00  0.00    -0.307 N 
HETATM   20  C11 UNL     1      36.352  -1.897  11.734  1.00  0.00     0.119 A 
ATOM     21  H9  UNL     1      35.426  -3.065  10.343  1.00  0.00     0.171 HD
ATOM     22  H3  UNL     1      37.307  -0.068  11.759  1.00  0.00     0.188 HD
BRANCH  17  23
HETATM   23  O2  UNL     1      34.708  -5.108  11.737  1.00  0.00    -0.278 OA
BRANCH  23  24
HETATM   24  C7  UNL     1      35.105  -6.441  11.830  1.00  0.00     0.271 C 
HETATM   25  C8  UNL     1      36.363  -6.539  12.579  1.00  0.00     0.117 C 
HETATM   26  N7  UNL     1      37.369  -6.605  13.184  1.00  0.00    -0.193 NA
HETATM   27  C9  UNL     1      34.057  -7.164  12.611  1.00  0.00     0.117 C 
HETATM   28  N8  UNL     1      33.242  -7.707  13.238  1.00  0.00    -0.193 NA
BRANCH  24  29
HETATM   29  C10 UNL     1      35.160  -7.086  10.477  1.00  0.00     0.292 C 
HETATM   30  F1  UNL     1      34.778  -8.414  10.535  1.00  0.00    -0.250 F 
ENDBRANCH  24  29
ENDBRANCH  23  24
ENDBRANCH  17  23
BRANCH  20  31
HETATM   31  N10 UNL     1      36.661  -0.928  10.942  1.00  0.00    -0.385 N 
ATOM     32 2H10 UNL     1      36.200  -0.913  10.033  1.00  0.00     0.157 HD
ATOM     33 1H10 UNL     1      37.334  -0.203  11.192  1.00  0.00     0.157 HD
ENDBRANCH  20  31
ENDBRANCH   5   7
TORSDOF 4
ENDMDL
MODEL 3
REMARK VINA RESULT: -6.909412583      1.263      1.708
REMARK  5 active torsions:
REMARK  status: ('A' for Active; 'I' for Inactive)
REMARK       I    between atoms: C2_3  and  N2_5 
REMARK    1  A    between atoms: N2_5  and  N3_7 
REMARK    2  A    between atoms: C6_18  and  O2_19 
REMARK    3  A    between atoms: O2_19  and  C7_20 
REMARK    4  A    between atoms: C7_20  and  C10_25 
REMARK    5  A    between atoms: C11_29  and  N10_30 
ROOT
HETATM    1  C1  UNL     1      38.572   1.672  17.738  1.00  0.00     0.265 C 
HETATM    2  N1  UNL     1      38.127   0.510  17.132  1.00  0.00    -0.401 NA
HETATM    3  C2  UNL     1      37.694  -0.621  16.542  1.00  0.00     0.406 C 
HETATM    4  O1  UNL     1      37.420  -1.756  17.072  1.00  0.00    -0.229 OA
HETATM    5  N2  UNL     1      37.494  -0.580  15.077  1.00  0.00    -0.238 N 
ATOM      6  H2  UNL     1      37.718   0.283  14.581  1.00  0.00     0.193 HD
ENDROOT
BRANCH   5   7
HETATM    7  N3  UNL     1      37.036  -1.617  14.372  1.00  0.00    -0.280 N 
HETATM    8  C3  UNL     1      36.388  -1.907  13.349  1.00  0.00     0.139 A 
HETATM    9  N4  UNL     1      35.851  -0.993  12.484  1.00  0.00    -0.337 N 
HETATM   10  C12 UNL     1      36.199  -3.248  13.080  1.00  0.00     0.097 A 
HETATM   11  C4  UNL     1      35.157  -1.378  11.400  1.00  0.00     0.183 A 
ATOM     12  H4  UNL     1      35.981   0.002  12.666  1.00  0.00     0.168 HD
HETATM   13  N5  UNL     1      34.993  -2.692  11.170  1.00  0.00    -0.338 N 
HETATM   14  C5  UNL     1      35.496  -3.643  11.981  1.00  0.00     0.127 A 
ATOM     15  H5  UNL     1      34.465  -2.982  10.347  1.00  0.00     0.168 HD
HETATM   16  N6  UNL     1      35.337  -4.970  11.770  1.00  0.00    -0.307 N 
HETATM   17  C6  UNL     1      35.820  -5.934  12.559  1.00  0.00     0.229 A 
ATOM     18  H6  UNL     1      34.809  -5.256  10.946  1.00  0.00     0.171 HD
HETATM   19  N9  UNL     1      36.524  -5.527  13.658  1.00  0.00    -0.307 N 
HETATM   20  C11 UNL     1      36.719  -4.232  13.927  1.00  0.00     0.119 A 
ATOM     21  H9  UNL     1      36.911  -6.229  14.288  1.00  0.00     0.171 HD
ATOM     22  H3  UNL     1      37.317  -2.480  14.838  1.00  0.00     0.188 HD
BRANCH  17  23
HETATM   23  O2  UNL     1      35.633  -7.268  12.308  1.00  0.00    -0.278 OA
BRANCH  23  24
HETATM   24  C7  UNL     1      34.446  -7.993  12.386  1.00  0.00     0.271 C 
HETATM   25  C8  UNL     1      33.297  -7.089  12.257  1.00  0.00     0.117 C 
HETATM   26  N7  UNL     1      32.384  -6.356  12.149  1.00  0.00    -0.193 NA
HETATM   27  C9  UNL     1      34.418  -8.928  11.222  1.00  0.00     0.117 C 
HETATM   28  N8  UNL     1      34.402  -9.634  10.299  1.00  0.00    -0.193 NA
BRANCH  24  29
HETATM   29  C10 UNL     1      34.408  -8.839  13.623  1.00  0.00     0.292 C 
HETATM   30  F1  UNL     1      34.037  -8.099  14.731  1.00  0.00    -0.250 F 
ENDBRANCH  24  29
ENDBRANCH  23  24
ENDBRANCH  17  23
BRANCH  20  31
HETATM   31  N10 UNL     1      37.380  -3.824  14.955  1.00  0.00    -0.385 N 
ATOM     32 2H10 UNL     1      37.694  -4.537  15.612  1.00  0.00     0.157 HD
ATOM     33 1H10 UNL     1      37.589  -2.840  15.123  1.00  0.00     0.157 HD
ENDBRANCH  20  31
ENDBRANCH   5   7
TORSDOF 4
ENDMDL
MODEL 4
REMARK VINA RESULT: -6.897773811      2.814      3.848
REMARK  5 active torsions:
REMARK  status: ('A' for Active; 'I' for Inactive)
REMARK       I    between atoms: C2_3  and  N2_5 
REMARK    1  A    between atoms: N2_5  and  N3_7 
REMARK    2  A    between atoms: C6_18  and  O2_19 
REMARK    3  A    between atoms: O2_19  and  C7_20 
REMARK    4  A    between atoms: C7_20  and  C10_25 
REMARK    5  A    between atoms: C11_29  and  N10_30 
ROOT
HETATM    1  C1  UNL     1      38.985   5.107  12.329  1.00  0.00     0.265 C 
HETATM    2  N1  UNL     1      38.257   3.942  12.501  1.00  0.00    -0.401 NA
HETATM    3  C2  UNL     1      37.549   2.809  12.669  1.00  0.00     0.406 C 
HETATM    4  O1  UNL     1      36.297   2.665  12.906  1.00  0.00    -0.229 OA
HETATM    5  N2  UNL     1      38.290   1.533  12.569  1.00  0.00    -0.238 N 
ATOM      6  H2  UNL     1      39.297   1.568  12.407  1.00  0.00     0.193 HD
ENDROOT
BRANCH   5   7
HETATM    7  N3  UNL     1      37.706   0.337  12.679  1.00  0.00    -0.280 N 
HETATM    8  C3  UNL     1      37.424  -0.552  13.503  1.00  0.00     0.139 A 
HETATM    9  N4  UNL     1      37.729  -0.501  14.836  1.00  0.00    -0.337 N 
HETATM   10  C12 UNL     1      36.763  -1.667  13.029  1.00  0.00     0.097 A 
HETATM   11  C4  UNL     1      37.399  -1.502  15.669  1.00  0.00     0.183 A 
ATOM     12  H4  UNL     1      38.218   0.314  15.205  1.00  0.00     0.168 HD
HETATM   13  N5  UNL     1      36.755  -2.572  15.171  1.00  0.00    -0.338 N 
HETATM   14  C5  UNL     1      36.424  -2.685  13.870  1.00  0.00     0.127 A 
ATOM     15  H5  UNL     1      36.505  -3.331  15.806  1.00  0.00     0.168 HD
HETATM   16  N6  UNL     1      35.782  -3.755  13.349  1.00  0.00    -0.307 N 
HETATM   17  C6  UNL     1      35.447  -3.896  12.063  1.00  0.00     0.229 A 
ATOM     18  H6  UNL     1      35.534  -4.512  13.986  1.00  0.00     0.171 HD
HETATM   19  N9  UNL     1      35.789  -2.869  11.227  1.00  0.00    -0.307 N 
HETATM   20  C11 UNL     1      36.426  -1.783  11.675  1.00  0.00     0.119 A 
ATOM     21  H9  UNL     1      35.553  -2.934  10.237  1.00  0.00     0.171 HD
ATOM     22  H3  UNL     1      37.372   0.050  11.759  1.00  0.00     0.188 HD
BRANCH  17  23
HETATM   23  O2  UNL     1      34.797  -5.000  11.577  1.00  0.00    -0.278 OA
BRANCH  23  24
HETATM   24  C7  UNL     1      34.904  -6.316  12.020  1.00  0.00     0.271 C 
HETATM   25  C8  UNL     1      35.213  -7.202  10.891  1.00  0.00     0.117 C 
HETATM   26  N7  UNL     1      35.465  -7.900   9.979  1.00  0.00    -0.193 NA
HETATM   27  C9  UNL     1      36.057  -6.375  12.968  1.00  0.00     0.117 C 
HETATM   28  N8  UNL     1      36.969  -6.407  13.687  1.00  0.00    -0.193 NA
BRANCH  24  29
HETATM   29  C10 UNL     1      33.687  -6.731  12.792  1.00  0.00     0.292 C 
HETATM   30  F1  UNL     1      32.533  -6.217  12.229  1.00  0.00    -0.250 F 
ENDBRANCH  24  29
ENDBRANCH  23  24
ENDBRANCH  17  23
BRANCH  20  31
HETATM   31  N10 UNL     1      36.758  -0.802  10.909  1.00  0.00    -0.385 N 
ATOM     32 2H10 UNL     1      36.005  -0.194  10.588  1.00  0.00     0.157 HD
ATOM     33 1H10 UNL     1      37.721  -0.624  10.623  1.00  0.00     0.157 HD
ENDBRANCH  20  31
ENDBRANCH   5   7
TORSDOF 4
ENDMDL
MODEL 5
REMARK VINA RESULT: -6.893685845      4.865      9.110
REMARK  5 active torsions:
REMARK  status: ('A' for Active; 'I' for Inactive)
REMARK       I    between atoms: C2_3  and  N2_5 
REMARK    1  A    between atoms: N2_5  and  N3_7 
REMARK    2  A    between atoms: C6_18  and  O2_19 
REMARK    3  A    between atoms: O2_19  and  C7_20 
REMARK    4  A    between atoms: C7_20  and  C10_25 
REMARK    5  A    between atoms: C11_29  and  N10_30 
ROOT
HETATM    1  C1  UNL     1      34.244  -6.296  11.941  1.00  0.00     0.265 C 
HETATM    2  N1  UNL     1      34.751  -5.013  11.833  1.00  0.00    -0.401 NA
HETATM    3  C2  UNL     1      35.245  -3.763  11.728  1.00  0.00     0.406 C 
HETATM    4  O1  UNL     1      34.795  -2.770  11.053  1.00  0.00    -0.229 OA
HETATM    5  N2  UNL     1      36.476  -3.463  12.490  1.00  0.00    -0.238 N 
ATOM      6  H2  UNL     1      36.907  -4.213  13.031  1.00  0.00     0.193 HD
ENDROOT
BRANCH   5   7
HETATM    7  N3  UNL     1      37.051  -2.258  12.505  1.00  0.00    -0.280 N 
HETATM    8  C3  UNL     1      38.158  -1.691  12.451  1.00  0.00     0.139 A 
HETATM    9  N4  UNL     1      39.358  -2.339  12.339  1.00  0.00    -0.337 N 
HETATM   10  C12 UNL     1      38.166  -0.312  12.515  1.00  0.00     0.097 A 
HETATM   11  C4  UNL     1      40.518  -1.662  12.293  1.00  0.00     0.183 A 
ATOM     12  H4  UNL     1      39.373  -3.357  12.290  1.00  0.00     0.168 HD
HETATM   13  N5  UNL     1      40.486  -0.319  12.358  1.00  0.00    -0.338 N 
HETATM   14  C5  UNL     1      39.340   0.379  12.468  1.00  0.00     0.127 A 
ATOM     15  H5  UNL     1      41.369   0.192  12.322  1.00  0.00     0.168 HD
HETATM   16  N6  UNL     1      39.288   1.729  12.540  1.00  0.00    -0.307 N 
HETATM   17  C6  UNL     1      38.167   2.447  12.655  1.00  0.00     0.229 A 
ATOM     18  H6  UNL     1      40.172   2.238  12.505  1.00  0.00     0.171 HD
HETATM   19  N9  UNL     1      36.994   1.745  12.701  1.00  0.00    -0.307 N 
HETATM   20  C11 UNL     1      36.973   0.410  12.635  1.00  0.00     0.119 A 
ATOM     21  H9  UNL     1      36.114   2.252  12.788  1.00  0.00     0.171 HD
ATOM     22  H3  UNL     1      36.323  -1.548  12.590  1.00  0.00     0.188 HD
BRANCH  17  23
HETATM   23  O2  UNL     1      38.161   3.815  12.727  1.00  0.00    -0.278 OA
BRANCH  23  24
HETATM   24  C7  UNL     1      37.568   4.615  13.701  1.00  0.00     0.271 C 
HETATM   25  C8  UNL     1      36.121   4.373  13.736  1.00  0.00     0.117 C 
HETATM   26  N7  UNL     1      34.962   4.168  13.757  1.00  0.00    -0.193 NA
HETATM   27  C9  UNL     1      38.127   4.197  15.022  1.00  0.00     0.117 C 
HETATM   28  N8  UNL     1      38.557   3.845  16.042  1.00  0.00    -0.193 NA
BRANCH  24  29
HETATM   29  C10 UNL     1      37.931   6.057  13.514  1.00  0.00     0.292 C 
HETATM   30  F1  UNL     1      36.804   6.847  13.369  1.00  0.00    -0.250 F 
ENDBRANCH  24  29
ENDBRANCH  23  24
ENDBRANCH  17  23
BRANCH  20  31
HETATM   31  N10 UNL     1      35.882  -0.275  12.675  1.00  0.00    -0.385 N 
ATOM     32 2H10 UNL     1      35.453  -0.506  11.779  1.00  0.00     0.157 HD
ATOM     33 1H10 UNL     1      35.451  -0.579  13.548  1.00  0.00     0.157 HD
ENDBRANCH  20  31
ENDBRANCH   5   7
TORSDOF 4
ENDMDL
