MODEL 1
REMARK VINA RESULT: -8.483799302      0.000      0.000
REMARK  7 active torsions:
REMARK  status: ('A' for Active; 'I' for Inactive)
REMARK    1  A    between atoms: C2_2  and  C4_4 
REMARK    2  A    between atoms: C4_4  and  C5_6 
REMARK    3  A    between atoms: C4_4  and  N1_11 
REMARK    4  A    between atoms: C9_12  and  O1_13 
REMARK    5  A    between atoms: C10_15  and  O2_16 
REMARK    6  A    between atoms: C11_18  and  C12_19 
REMARK    7  A    between atoms: C14_23  and  O3_24 
ROOT
HETATM    1  N1  UNL     1      28.452  11.872   1.134  1.00  0.00    -0.259 N 
HETATM    2  C9  UNL     1      29.381  11.770   2.110  1.00  0.00     0.182 A 
HETATM    3  C10 UNL     1      29.391  10.498   2.622  1.00  0.00     0.133 A 
HETATM    4  C11 UNL     1      28.439   9.779   1.945  1.00  0.00     0.101 A 
HETATM    5  C14 UNL     1      27.880  10.656   1.035  1.00  0.00     0.163 A 
ENDROOT
BRANCH   1   6
HETATM    6  C4  UNL     1      28.188  13.084   0.390  1.00  0.00     0.243 C 
HETATM    7  F1  UNL     1      26.852  12.976  -0.034  1.00  0.00    -0.207 F 
BRANCH   6   8
HETATM    8  C2  UNL     1      28.200  14.299   1.265  1.00  0.00    -0.028 C 
HETATM    9  C1  UNL     1      27.346  14.495   2.239  1.00  0.00     0.019 C 
HETATM   10  C3  UNL     1      29.244  15.353   1.031  1.00  0.00     0.048 C 
ENDBRANCH   6   8
BRANCH   6  11
HETATM   11  C5  UNL     1      29.066  13.251  -0.797  1.00  0.00     0.047 A 
HETATM   12  C6  UNL     1      28.739  13.569  -2.087  1.00  0.00     0.021 A 
HETATM   13  C7  UNL     1      29.730  13.659  -2.978  1.00  0.00     0.008 A 
HETATM   14  C8  UNL     1      31.004  13.425  -2.531  1.00  0.00     0.050 A 
HETATM   15  S1  UNL     1      30.761  13.087  -0.874  1.00  0.00    -0.101 SA
ENDBRANCH   6  11
ENDBRANCH   1   6
BRANCH   2  16
HETATM   16  O1  UNL     1      30.209  12.788   2.546  1.00  0.00    -0.344 OA
ATOM     17  H1  UNL     1      30.599  12.856   3.410  1.00  0.00     0.219 HD
ENDBRANCH   2  16
BRANCH   5  18
HETATM   18  O3  UNL     1      26.879  10.315   0.161  1.00  0.00    -0.345 OA
ATOM     19  H3  UNL     1      26.842   9.515  -0.351  1.00  0.00     0.219 HD
ENDBRANCH   5  18
BRANCH   3  20
HETATM   20  O2  UNL     1      30.202  10.028   3.626  1.00  0.00    -0.356 OA
ATOM     21  H2  UNL     1      29.931   9.513   4.377  1.00  0.00     0.218 HD
ENDBRANCH   3  20
BRANCH   4  22
HETATM   22  C12 UNL     1      28.057   8.343   2.128  1.00  0.00     0.274 C 
HETATM   23  C13 UNL     1      26.843   8.321   3.023  1.00  0.00     0.096 C 
HETATM   24  F2  UNL     1      27.782   7.766   0.914  1.00  0.00    -0.201 F 
HETATM   25  F3  UNL     1      29.125   7.658   2.675  1.00  0.00    -0.201 F 
ENDBRANCH   4  22
TORSDOF 7
ENDMDL
MODEL 2
REMARK VINA RESULT: -8.225755001      1.130      2.311
REMARK  7 active torsions:
REMARK  status: ('A' for Active; 'I' for Inactive)
REMARK    1  A    between atoms: C2_2  and  C4_4 
REMARK    2  A    between atoms: C4_4  and  C5_6 
REMARK    3  A    between atoms: C4_4  and  N1_11 
REMARK    4  A    between atoms: C9_12  and  O1_13 
REMARK    5  A    between atoms: C10_15  and  O2_16 
REMARK    6  A    between atoms: C11_18  and  C12_19 
REMARK    7  A    between atoms: C14_23  and  O3_24 
ROOT
HETATM    1  N1  UNL     1      28.146  11.693   0.516  1.00  0.00    -0.259 N 
HETATM    2  C9  UNL     1      27.236  10.727   0.268  1.00  0.00     0.182 A 
HETATM    3  C10 UNL     1      27.545   9.594   0.976  1.00  0.00     0.133 A 
HETATM    4  C11 UNL     1      28.685   9.859   1.691  1.00  0.00     0.101 A 
HETATM    5  C14 UNL     1      29.028  11.162   1.385  1.00  0.00     0.163 A 
ENDROOT
BRANCH   1   6
HETATM    6  C4  UNL     1      28.108  13.013  -0.076  1.00  0.00     0.243 C 
HETATM    7  F1  UNL     1      26.776  13.197  -0.489  1.00  0.00    -0.207 F 
BRANCH   6   8
HETATM    8  C2  UNL     1      28.333  14.094   0.935  1.00  0.00    -0.028 C 
HETATM    9  C1  UNL     1      29.297  14.976   0.844  1.00  0.00     0.019 C 
HETATM   10  C3  UNL     1      27.410  14.190   2.115  1.00  0.00     0.048 C 
ENDBRANCH   6   8
BRANCH   6  11
HETATM   11  C5  UNL     1      29.008  13.160  -1.249  1.00  0.00     0.047 A 
HETATM   12  C6  UNL     1      28.701  13.398  -2.561  1.00  0.00     0.021 A 
HETATM   13  C7  UNL     1      29.710  13.487  -3.432  1.00  0.00     0.008 A 
HETATM   14  C8  UNL     1      30.981  13.333  -2.944  1.00  0.00     0.050 A 
HETATM   15  S1  UNL     1      30.710  13.067  -1.278  1.00  0.00    -0.101 SA
ENDBRANCH   6  11
ENDBRANCH   1   6
BRANCH   2  16
HETATM   16  O1  UNL     1      26.145  10.841  -0.575  1.00  0.00    -0.344 OA
ATOM     17  H1  UNL     1      25.388  10.266  -0.585  1.00  0.00     0.219 HD
ENDBRANCH   2  16
BRANCH   5  18
HETATM   18  O3  UNL     1      30.122  11.807   1.904  1.00  0.00    -0.345 OA
ATOM     19  H3  UNL     1      30.281  12.742   1.866  1.00  0.00     0.219 HD
ENDBRANCH   5  18
BRANCH   3  20
HETATM   20  O2  UNL     1      26.846   8.411   0.972  1.00  0.00    -0.356 OA
ATOM     21  H2  UNL     1      26.844   7.754   1.657  1.00  0.00     0.218 HD
ENDBRANCH   3  20
BRANCH   4  22
HETATM   22  C12 UNL     1      29.430   8.950   2.619  1.00  0.00     0.274 C 
HETATM   23  C13 UNL     1      29.211   9.473   4.017  1.00  0.00     0.096 C 
HETATM   24  F2  UNL     1      28.967   7.664   2.498  1.00  0.00    -0.201 F 
HETATM   25  F3  UNL     1      30.765   8.940   2.265  1.00  0.00    -0.201 F 
ENDBRANCH   4  22
TORSDOF 7
ENDMDL
MODEL 3
REMARK VINA RESULT: -8.186845862      0.826      1.098
REMARK  7 active torsions:
REMARK  status: ('A' for Active; 'I' for Inactive)
REMARK    1  A    between atoms: C2_2  and  C4_4 
REMARK    2  A    between atoms: C4_4  and  C5_6 
REMARK    3  A    between atoms: C4_4  and  N1_11 
REMARK    4  A    between atoms: C9_12  and  O1_13 
REMARK    5  A    between atoms: C10_15  and  O2_16 
REMARK    6  A    between atoms: C11_18  and  C12_19 
REMARK    7  A    between atoms: C14_23  and  O3_24 
ROOT
HETATM    1  N1  UNL     1      28.453  11.654   0.624  1.00  0.00    -0.259 N 
HETATM    2  C9  UNL     1      29.528  11.378   1.393  1.00  0.00     0.182 A 
HETATM    3  C10 UNL     1      29.411  10.124   1.937  1.00  0.00     0.133 A 
HETATM    4  C11 UNL     1      28.224   9.598   1.495  1.00  0.00     0.101 A 
HETATM    5  C14 UNL     1      27.659  10.567   0.687  1.00  0.00     0.163 A 
ENDROOT
BRANCH   1   6
HETATM    6  C4  UNL     1      28.267  12.897  -0.093  1.00  0.00     0.243 C 
HETATM    7  F1  UNL     1      26.893  12.955  -0.387  1.00  0.00    -0.207 F 
BRANCH   6   8
HETATM    8  C2  UNL     1      28.509  14.093   0.775  1.00  0.00    -0.028 C 
HETATM    9  C1  UNL     1      29.484  14.944   0.574  1.00  0.00     0.019 C 
HETATM   10  C3  UNL     1      27.590  14.347   1.935  1.00  0.00     0.048 C 
ENDBRANCH   6   8
BRANCH   6  11
HETATM   11  C5  UNL     1      29.042  12.970  -1.358  1.00  0.00     0.047 A 
HETATM   12  C6  UNL     1      29.260  14.034  -2.189  1.00  0.00     0.021 A 
HETATM   13  C7  UNL     1      30.004  13.832  -3.281  1.00  0.00     0.008 A 
HETATM   14  C8  UNL     1      30.493  12.570  -3.487  1.00  0.00     0.050 A 
HETATM   15  S1  UNL     1      29.889  11.712  -2.138  1.00  0.00    -0.101 SA
ENDBRANCH   6  11
ENDBRANCH   1   6
BRANCH   2  16
HETATM   16  O1  UNL     1      30.602  12.221   1.615  1.00  0.00    -0.344 OA
ATOM     17  H1  UNL     1      31.253  12.123   2.299  1.00  0.00     0.219 HD
ENDBRANCH   2  16
BRANCH   5  18
HETATM   18  O3  UNL     1      26.454  10.422   0.048  1.00  0.00    -0.345 OA
ATOM     19  H3  UNL     1      25.734   9.878   0.344  1.00  0.00     0.219 HD
ENDBRANCH   5  18
BRANCH   3  20
HETATM   20  O2  UNL     1      30.311   9.508   2.771  1.00  0.00    -0.356 OA
ATOM     21  H2  UNL     1      30.698   9.876   3.556  1.00  0.00     0.218 HD
ENDBRANCH   3  20
BRANCH   4  22
HETATM   22  C12 UNL     1      27.631   8.258   1.803  1.00  0.00     0.274 C 
HETATM   23  C13 UNL     1      26.708   8.445   2.981  1.00  0.00     0.096 C 
HETATM   24  F2  UNL     1      26.946   7.780   0.714  1.00  0.00    -0.201 F 
HETATM   25  F3  UNL     1      28.651   7.364   2.070  1.00  0.00    -0.201 F 
ENDBRANCH   4  22
TORSDOF 7
ENDMDL
MODEL 4
REMARK VINA RESULT: -8.080213316      1.084      2.343
REMARK  7 active torsions:
REMARK  status: ('A' for Active; 'I' for Inactive)
REMARK    1  A    between atoms: C2_2  and  C4_4 
REMARK    2  A    between atoms: C4_4  and  C5_6 
REMARK    3  A    between atoms: C4_4  and  N1_11 
REMARK    4  A    between atoms: C9_12  and  O1_13 
REMARK    5  A    between atoms: C10_15  and  O2_16 
REMARK    6  A    between atoms: C11_18  and  C12_19 
REMARK    7  A    between atoms: C14_23  and  O3_24 
ROOT
HETATM    1  N1  UNL     1      28.134  11.752   0.973  1.00  0.00    -0.259 N 
HETATM    2  C9  UNL     1      27.408  10.662   0.646  1.00  0.00     0.182 A 
HETATM    3  C10 UNL     1      27.740   9.611   1.462  1.00  0.00     0.133 A 
HETATM    4  C11 UNL     1      28.705  10.057   2.329  1.00  0.00     0.101 A 
HETATM    5  C14 UNL     1      28.924  11.381   2.000  1.00  0.00     0.163 A 
ENDROOT
BRANCH   1   6
HETATM    6  C4  UNL     1      28.024  13.030   0.303  1.00  0.00     0.243 C 
HETATM    7  F1  UNL     1      26.703  13.086  -0.174  1.00  0.00    -0.207 F 
BRANCH   6   8
HETATM    8  C2  UNL     1      28.122  14.180   1.255  1.00  0.00    -0.028 C 
HETATM    9  C1  UNL     1      27.271  14.383   2.230  1.00  0.00     0.019 C 
HETATM   10  C3  UNL     1      29.254  15.155   1.104  1.00  0.00     0.048 C 
ENDBRANCH   6   8
BRANCH   6  11
HETATM   11  C5  UNL     1      28.963  13.179  -0.839  1.00  0.00     0.047 A 
HETATM   12  C6  UNL     1      28.712  13.542  -2.134  1.00  0.00     0.021 A 
HETATM   13  C7  UNL     1      29.747  13.601  -2.977  1.00  0.00     0.008 A 
HETATM   14  C8  UNL     1      30.985  13.293  -2.480  1.00  0.00     0.050 A 
HETATM   15  S1  UNL     1      30.650  12.930  -0.845  1.00  0.00    -0.101 SA
ENDBRANCH   6  11
ENDBRANCH   1   6
BRANCH   2  16
HETATM   16  O1  UNL     1      26.463  10.592  -0.361  1.00  0.00    -0.344 OA
ATOM     17  H1  UNL     1      26.517  11.026  -1.205  1.00  0.00     0.219 HD
ENDBRANCH   2  16
BRANCH   5  18
HETATM   18  O3  UNL     1      29.828  12.189   2.643  1.00  0.00    -0.345 OA
ATOM     19  H3  UNL     1      30.771  12.073   2.641  1.00  0.00     0.219 HD
ENDBRANCH   5  18
BRANCH   3  20
HETATM   20  O2  UNL     1      27.208   8.345   1.422  1.00  0.00    -0.356 OA
ATOM     21  H2  UNL     1      26.986   7.850   0.643  1.00  0.00     0.218 HD
ENDBRANCH   3  20
BRANCH   4  22
HETATM   22  C12 UNL     1      29.400   9.296   3.415  1.00  0.00     0.274 C 
HETATM   23  C13 UNL     1      30.816   9.061   2.952  1.00  0.00     0.096 C 
HETATM   24  F2  UNL     1      29.379  10.013   4.585  1.00  0.00    -0.201 F 
HETATM   25  F3  UNL     1      28.719   8.116   3.646  1.00  0.00    -0.201 F 
ENDBRANCH   4  22
TORSDOF 7
ENDMDL
MODEL 5
REMARK VINA RESULT: -7.785007549      1.486      1.810
REMARK  7 active torsions:
REMARK  status: ('A' for Active; 'I' for Inactive)
REMARK    1  A    between atoms: C2_2  and  C4_4 
REMARK    2  A    between atoms: C4_4  and  C5_6 
REMARK    3  A    between atoms: C4_4  and  N1_11 
REMARK    4  A    between atoms: C9_12  and  O1_13 
REMARK    5  A    between atoms: C10_15  and  O2_16 
REMARK    6  A    between atoms: C11_18  and  C12_19 
REMARK    7  A    between atoms: C14_23  and  O3_24 
ROOT
HETATM    1  N1  UNL     1      29.171  12.056   1.101  1.00  0.00    -0.259 N 
HETATM    2  C9  UNL     1      29.352  11.937   2.434  1.00  0.00     0.182 A 
HETATM    3  C10 UNL     1      29.071  10.656   2.836  1.00  0.00     0.133 A 
HETATM    4  C11 UNL     1      28.703   9.950   1.719  1.00  0.00     0.101 A 
HETATM    5  C14 UNL     1      28.776  10.844   0.668  1.00  0.00     0.163 A 
ENDROOT
BRANCH   1   6
HETATM    6  C4  UNL     1      29.382  13.283   0.362  1.00  0.00     0.243 C 
HETATM    7  F1  UNL     1      28.720  13.096  -0.864  1.00  0.00    -0.207 F 
BRANCH   6   8
HETATM    8  C2  UNL     1      28.681  14.448   0.986  1.00  0.00    -0.028 C 
HETATM    9  C1  UNL     1      29.231  15.628   1.131  1.00  0.00     0.019 C 
HETATM   10  C3  UNL     1      27.269  14.274   1.468  1.00  0.00     0.048 C 
ENDBRANCH   6   8
BRANCH   6  11
HETATM   11  C5  UNL     1      30.816  13.576   0.104  1.00  0.00     0.047 A 
HETATM   12  C6  UNL     1      31.410  14.118  -1.002  1.00  0.00     0.021 A 
HETATM   13  C7  UNL     1      32.737  14.280  -0.981  1.00  0.00     0.008 A 
HETATM   14  C8  UNL     1      33.403  13.890   0.150  1.00  0.00     0.050 A 
HETATM   15  S1  UNL     1      32.140  13.309   1.144  1.00  0.00    -0.101 SA
ENDBRANCH   6  11
ENDBRANCH   1   6
BRANCH   2  16
HETATM   16  O1  UNL     1      29.759  12.945   3.289  1.00  0.00    -0.344 OA
ATOM     17  H1  UNL     1      30.274  12.830   4.080  1.00  0.00     0.219 HD
ENDBRANCH   2  16
BRANCH   5  18
HETATM   18  O3  UNL     1      28.480  10.520  -0.632  1.00  0.00    -0.345 OA
ATOM     19  H3  UNL     1      27.820  10.942  -1.170  1.00  0.00     0.219 HD
ENDBRANCH   5  18
BRANCH   3  20
HETATM   20  O2  UNL     1      29.144  10.167   4.118  1.00  0.00    -0.356 OA
ATOM     21  H2  UNL     1      28.523   9.583   4.536  1.00  0.00     0.218 HD
ENDBRANCH   3  20
BRANCH   4  22
HETATM   22  C12 UNL     1      28.298   8.512   1.622  1.00  0.00     0.274 C 
HETATM   23  C13 UNL     1      26.855   8.430   2.055  1.00  0.00     0.096 C 
HETATM   24  F2  UNL     1      28.450   8.061   0.335  1.00  0.00    -0.201 F 
HETATM   25  F3  UNL     1      29.131   7.754   2.422  1.00  0.00    -0.201 F 
ENDBRANCH   4  22
TORSDOF 7
ENDMDL
