MODEL 1
REMARK VINA RESULT: -7.658424243      0.000      0.000
REMARK  6 active torsions:
REMARK  status: ('A' for Active; 'I' for Inactive)
REMARK    1  A    between atoms: O1_2  and  C2_3 
REMARK    2  A    between atoms: C3_4  and  O2_5 
REMARK    3  A    between atoms: C4_8  and  C5_9 
REMARK    4  A    between atoms: C10_15  and  O4_16 
REMARK    5  A    between atoms: O4_16  and  C11_17 
REMARK    6  A    between atoms: C13_21  and  O7_22 
ROOT
HETATM    1  C5  UNL     1      29.750  11.157   1.973  1.00  0.00    -0.021 C 
HETATM    2  C6  UNL     1      30.814  11.923   2.110  1.00  0.00    -0.015 C 
HETATM    3  C7  UNL     1      31.085  13.043   1.170  1.00  0.00     0.052 C 
HETATM    4  C8  UNL     1      29.737  13.670   0.898  1.00  0.00     0.116 C 
HETATM    5 CL1  UNL     1      29.847  15.175   0.020  1.00  0.00    -0.120 Cl
HETATM    6  C9  UNL     1      28.778  12.671   0.291  1.00  0.00    -0.035 C 
HETATM    7  C10 UNL     1      28.056  13.033  -0.720  1.00  0.00     0.153 C 
HETATM    8  C12 UNL     1      28.725  11.340   0.886  1.00  0.00     0.079 C 
ENDROOT
BRANCH   1   9
HETATM    9  C4  UNL     1      29.543  10.067   2.934  1.00  0.00     0.120 A 
HETATM   10  O3  UNL     1      29.622  10.190   4.257  1.00  0.00    -0.282 OA
HETATM   11  C3  UNL     1      29.396   9.071   4.878  1.00  0.00     0.221 A 
HETATM   12  C2  UNL     1      29.139   8.086   3.961  1.00  0.00     0.163 A 
HETATM   13  C13 UNL     1      29.237   8.740   2.727  1.00  0.00     0.139 A 
BRANCH  11  14
HETATM   14  O2  UNL     1      29.398   8.836   6.267  1.00  0.00    -0.339 OA
ATOM     15  H2  UNL     1      29.603   9.513   6.902  1.00  0.00     0.220 HD
ENDBRANCH  11  14
BRANCH  12  16
HETATM   16  O1  UNL     1      28.845   6.746   4.146  1.00  0.00    -0.349 OA
HETATM   17  C1  UNL     1      29.940   5.871   4.413  1.00  0.00     0.210 C 
ENDBRANCH  12  16
BRANCH  13  18
HETATM   18  O7  UNL     1      29.050   8.107   1.515  1.00  0.00    -0.355 OA
ATOM     19  H7  UNL     1      29.227   7.185   1.375  1.00  0.00     0.218 HD
ENDBRANCH  13  18
ENDBRANCH   1   9
BRANCH   7  20
HETATM   20  O4  UNL     1      27.143  12.556  -1.530  1.00  0.00    -0.265 OA
BRANCH  20  21
HETATM   21  C11 UNL     1      27.013  11.827  -2.597  1.00  0.00     0.337 C 
HETATM   22  O5  UNL     1      27.688  10.812  -2.776  1.00  0.00    -0.623 OA
HETATM   23  O6  UNL     1      26.087  12.117  -3.661  1.00  0.00    -0.623 OA
ENDBRANCH  20  21
ENDBRANCH   7  20
TORSDOF 6
ENDMDL
MODEL 2
REMARK VINA RESULT: -7.465228318      3.282      6.731
REMARK  6 active torsions:
REMARK  status: ('A' for Active; 'I' for Inactive)
REMARK    1  A    between atoms: O1_2  and  C2_3 
REMARK    2  A    between atoms: C3_4  and  O2_5 
REMARK    3  A    between atoms: C4_8  and  C5_9 
REMARK    4  A    between atoms: C10_15  and  O4_16 
REMARK    5  A    between atoms: O4_16  and  C11_17 
REMARK    6  A    between atoms: C13_21  and  O7_22 
ROOT
HETATM    1  C5  UNL     1      28.708   9.262   1.200  1.00  0.00    -0.021 C 
HETATM    2  C6  UNL     1      28.123   8.212   1.740  1.00  0.00    -0.015 C 
HETATM    3  C7  UNL     1      28.797   7.410   2.795  1.00  0.00     0.052 C 
HETATM    4  C8  UNL     1      29.492   8.419   3.680  1.00  0.00     0.116 C 
HETATM    5 CL1  UNL     1      30.135   7.719   5.144  1.00  0.00    -0.120 Cl
HETATM    6  C9  UNL     1      30.494   9.238   2.897  1.00  0.00    -0.035 C 
HETATM    7  C10 UNL     1      31.665   9.447   3.407  1.00  0.00     0.153 C 
HETATM    8  C12 UNL     1      30.077   9.749   1.596  1.00  0.00     0.079 C 
ENDROOT
BRANCH   1   9
HETATM    9  C4  UNL     1      27.989  10.009   0.161  1.00  0.00     0.120 A 
HETATM   10  O3  UNL     1      26.909  10.758   0.369  1.00  0.00    -0.282 OA
HETATM   11  C3  UNL     1      26.467  11.311  -0.721  1.00  0.00     0.221 A 
HETATM   12  C2  UNL     1      27.265  10.946  -1.773  1.00  0.00     0.163 A 
HETATM   13  C13 UNL     1      28.231  10.116  -1.191  1.00  0.00     0.139 A 
BRANCH  11  14
HETATM   14  O2  UNL     1      25.352  12.160  -0.871  1.00  0.00    -0.339 OA
ATOM     15  H2  UNL     1      24.765  12.367  -0.153  1.00  0.00     0.220 HD
ENDBRANCH  11  14
BRANCH  12  16
HETATM   16  O1  UNL     1      27.190  11.283  -3.114  1.00  0.00    -0.349 OA
HETATM   17  C1  UNL     1      27.995  12.374  -3.557  1.00  0.00     0.210 C 
ENDBRANCH  12  16
BRANCH  13  18
HETATM   18  O7  UNL     1      29.248   9.516  -1.906  1.00  0.00    -0.355 OA
ATOM     19  H7  UNL     1      30.166   9.724  -1.780  1.00  0.00     0.218 HD
ENDBRANCH  13  18
ENDBRANCH   1   9
BRANCH   7  20
HETATM   20  O4  UNL     1      32.792  10.053   3.129  1.00  0.00    -0.265 OA
BRANCH  20  21
HETATM   21  C11 UNL     1      33.257  11.196   2.722  1.00  0.00     0.337 C 
HETATM   22  O5  UNL     1      34.421  11.322   2.335  1.00  0.00    -0.623 OA
HETATM   23  O6  UNL     1      32.484  12.410   2.677  1.00  0.00    -0.623 OA
ENDBRANCH  20  21
ENDBRANCH   7  20
TORSDOF 6
ENDMDL
MODEL 3
REMARK VINA RESULT: -7.463500478      2.871      4.180
REMARK  6 active torsions:
REMARK  status: ('A' for Active; 'I' for Inactive)
REMARK    1  A    between atoms: O1_2  and  C2_3 
REMARK    2  A    between atoms: C3_4  and  O2_5 
REMARK    3  A    between atoms: C4_8  and  C5_9 
REMARK    4  A    between atoms: C10_15  and  O4_16 
REMARK    5  A    between atoms: O4_16  and  C11_17 
REMARK    6  A    between atoms: C13_21  and  O7_22 
ROOT
HETATM    1  C5  UNL     1      28.357   8.567   1.938  1.00  0.00    -0.021 C 
HETATM    2  C6  UNL     1      27.618   8.143   0.932  1.00  0.00    -0.015 C 
HETATM    3  C7  UNL     1      27.366   9.001  -0.257  1.00  0.00     0.052 C 
HETATM    4  C8  UNL     1      28.679   9.698  -0.530  1.00  0.00     0.116 C 
HETATM    5 CL1  UNL     1      28.692  10.562  -2.047  1.00  0.00    -0.120 Cl
HETATM    6  C9  UNL     1      29.119  10.527   0.655  1.00  0.00    -0.035 C 
HETATM    7  C10 UNL     1      29.564  11.725   0.450  1.00  0.00     0.153 C 
HETATM    8  C12 UNL     1      29.011   9.922   1.978  1.00  0.00     0.079 C 
ENDROOT
BRANCH   1   9
HETATM    9  C4  UNL     1      28.564   7.670   3.082  1.00  0.00     0.120 A 
HETATM   10  O3  UNL     1      27.594   7.144   3.825  1.00  0.00    -0.282 OA
HETATM   11  C3  UNL     1      28.049   6.385   4.777  1.00  0.00     0.221 A 
HETATM   12  C2  UNL     1      29.418   6.359   4.723  1.00  0.00     0.163 A 
HETATM   13  C13 UNL     1      29.728   7.184   3.635  1.00  0.00     0.139 A 
BRANCH  11  14
HETATM   14  O2  UNL     1      27.312   5.675   5.745  1.00  0.00    -0.339 OA
ATOM     15  H2  UNL     1      26.500   6.003   6.115  1.00  0.00     0.220 HD
ENDBRANCH  11  14
BRANCH  12  16
HETATM   16  O1  UNL     1      30.332   5.695   5.522  1.00  0.00    -0.349 OA
HETATM   17  C1  UNL     1      30.802   6.380   6.681  1.00  0.00     0.210 C 
ENDBRANCH  12  16
BRANCH  13  18
HETATM   18  O7  UNL     1      31.019   7.441   3.221  1.00  0.00    -0.355 OA
ATOM     19  H7  UNL     1      31.556   8.135   3.586  1.00  0.00     0.218 HD
ENDBRANCH  13  18
ENDBRANCH   1   9
BRANCH   7  20
HETATM   20  O4  UNL     1      30.032  12.754   1.111  1.00  0.00    -0.265 OA
BRANCH  20  21
HETATM   21  C11 UNL     1      30.360  13.127   2.311  1.00  0.00     0.337 C 
HETATM   22  O5  UNL     1      29.531  13.179   3.224  1.00  0.00    -0.623 OA
HETATM   23  O6  UNL     1      31.692  13.509   2.700  1.00  0.00    -0.623 OA
ENDBRANCH  20  21
ENDBRANCH   7  20
TORSDOF 6
ENDMDL
MODEL 4
REMARK VINA RESULT: -7.462429791      2.975      7.382
REMARK  6 active torsions:
REMARK  status: ('A' for Active; 'I' for Inactive)
REMARK    1  A    between atoms: O1_2  and  C2_3 
REMARK    2  A    between atoms: C3_4  and  O2_5 
REMARK    3  A    between atoms: C4_8  and  C5_9 
REMARK    4  A    between atoms: C10_15  and  O4_16 
REMARK    5  A    between atoms: O4_16  and  C11_17 
REMARK    6  A    between atoms: C13_21  and  O7_22 
ROOT
HETATM    1  C5  UNL     1      28.401   9.794  -0.411  1.00  0.00    -0.021 C 
HETATM    2  C6  UNL     1      27.398   8.939  -0.400  1.00  0.00    -0.015 C 
HETATM    3  C7  UNL     1      27.145   8.061   0.773  1.00  0.00     0.052 C 
HETATM    4  C8  UNL     1      27.407   8.928   1.984  1.00  0.00     0.116 C 
HETATM    5 CL1  UNL     1      26.917   8.177   3.482  1.00  0.00    -0.120 Cl
HETATM    6  C9  UNL     1      28.827   9.447   1.990  1.00  0.00    -0.035 C 
HETATM    7  C10 UNL     1      29.503   9.406   3.093  1.00  0.00     0.153 C 
HETATM    8  C12 UNL     1      29.359   9.970   0.736  1.00  0.00     0.079 C 
ENDROOT
BRANCH   1   9
HETATM    9  C4  UNL     1      28.596  10.630  -1.602  1.00  0.00     0.120 A 
HETATM   10  O3  UNL     1      29.755  10.798  -2.236  1.00  0.00    -0.282 OA
HETATM   11  C3  UNL     1      29.654  11.590  -3.261  1.00  0.00     0.221 A 
HETATM   12  C2  UNL     1      28.358  12.019  -3.378  1.00  0.00     0.163 A 
HETATM   13  C13 UNL     1      27.699  11.397  -2.311  1.00  0.00     0.139 A 
BRANCH  11  14
HETATM   14  O2  UNL     1      30.671  11.987  -4.152  1.00  0.00    -0.339 OA
ATOM     15  H2  UNL     1      31.127  12.817  -4.072  1.00  0.00     0.220 HD
ENDBRANCH  11  14
BRANCH  12  16
HETATM   16  O1  UNL     1      27.776  12.866  -4.306  1.00  0.00    -0.349 OA
HETATM   17  C1  UNL     1      26.779  12.308  -5.161  1.00  0.00     0.210 C 
ENDBRANCH  12  16
BRANCH  13  18
HETATM   18  O7  UNL     1      26.353  11.560  -2.051  1.00  0.00    -0.355 OA
ATOM     19  H7  UNL     1      25.967  12.390  -1.800  1.00  0.00     0.218 HD
ENDBRANCH  13  18
ENDBRANCH   1   9
BRANCH   7  20
HETATM   20  O4  UNL     1      30.685   9.718   3.564  1.00  0.00    -0.265 OA
BRANCH  20  21
HETATM   21  C11 UNL     1      31.943   9.428   3.425  1.00  0.00     0.337 C 
HETATM   22  O5  UNL     1      32.386   8.310   3.698  1.00  0.00    -0.623 OA
HETATM   23  O6  UNL     1      32.935  10.356   2.946  1.00  0.00    -0.623 OA
ENDBRANCH  20  21
ENDBRANCH   7  20
TORSDOF 6
ENDMDL
MODEL 5
REMARK VINA RESULT: -7.436397980      1.303      1.308
REMARK  6 active torsions:
REMARK  status: ('A' for Active; 'I' for Inactive)
REMARK    1  A    between atoms: O1_2  and  C2_3 
REMARK    2  A    between atoms: C3_4  and  O2_5 
REMARK    3  A    between atoms: C4_8  and  C5_9 
REMARK    4  A    between atoms: C10_15  and  O4_16 
REMARK    5  A    between atoms: O4_16  and  C11_17 
REMARK    6  A    between atoms: C13_21  and  O7_22 
ROOT
HETATM    1  C5  UNL     1      30.368  11.043   2.230  1.00  0.00    -0.021 C 
HETATM    2  C6  UNL     1      31.457  11.764   2.054  1.00  0.00    -0.015 C 
HETATM    3  C7  UNL     1      31.522  12.824   1.014  1.00  0.00     0.052 C 
HETATM    4  C8  UNL     1      30.172  13.502   1.050  1.00  0.00     0.116 C 
HETATM    5 CL1  UNL     1      30.110  14.958   0.089  1.00  0.00    -0.120 Cl
HETATM    6  C9  UNL     1      29.058  12.522   0.759  1.00  0.00    -0.035 C 
HETATM    7  C10 UNL     1      28.117  12.871  -0.060  1.00  0.00     0.153 C 
HETATM    8  C12 UNL     1      29.110  11.225   1.423  1.00  0.00     0.079 C 
ENDROOT
BRANCH   1   9
HETATM    9  C4  UNL     1      30.371  10.010   3.273  1.00  0.00     0.120 A 
HETATM   10  O3  UNL     1      29.606  10.024   4.363  1.00  0.00    -0.282 OA
HETATM   11  C3  UNL     1      29.805   8.990   5.125  1.00  0.00     0.221 A 
HETATM   12  C2  UNL     1      30.761   8.187   4.562  1.00  0.00     0.163 A 
HETATM   13  C13 UNL     1      31.109   8.853   3.381  1.00  0.00     0.139 A 
BRANCH  11  14
HETATM   14  O2  UNL     1      29.176   8.683   6.348  1.00  0.00    -0.339 OA
ATOM     15  H2  UNL     1      28.233   8.601   6.433  1.00  0.00     0.220 HD
ENDBRANCH  11  14
BRANCH  12  16
HETATM   16  O1  UNL     1      31.297   6.989   5.004  1.00  0.00    -0.349 OA
HETATM   17  C1  UNL     1      30.434   5.853   5.009  1.00  0.00     0.210 C 
ENDBRANCH  12  16
BRANCH  13  18
HETATM   18  O7  UNL     1      32.057   8.383   2.495  1.00  0.00    -0.355 OA
ATOM     19  H7  UNL     1      32.646   7.664   2.692  1.00  0.00     0.218 HD
ENDBRANCH  13  18
ENDBRANCH   1   9
BRANCH   7  20
HETATM   20  O4  UNL     1      27.015  12.401  -0.588  1.00  0.00    -0.265 OA
BRANCH  20  21
HETATM   21  C11 UNL     1      26.596  11.531  -1.457  1.00  0.00     0.337 C 
HETATM   22  O5  UNL     1      26.472  10.337  -1.173  1.00  0.00    -0.623 OA
HETATM   23  O6  UNL     1      26.236  11.856  -2.813  1.00  0.00    -0.623 OA
ENDBRANCH  20  21
ENDBRANCH   7  20
TORSDOF 6
ENDMDL
