MODEL 1
REMARK VINA RESULT: -8.209128904      0.000      0.000
REMARK  6 active torsions:
REMARK  status: ('A' for Active; 'I' for Inactive)
REMARK    1  A    between atoms: C2_2  and  C3_3 
REMARK    2  A    between atoms: C3_3  and  C4_5 
REMARK    3  A    between atoms: C5_6  and  O2_7 
REMARK    4  A    between atoms: C8_11  and  O3_12 
REMARK    5  A    between atoms: C10_17  and  O5_18 
REMARK    6  A    between atoms: C13_22  and  C14_23 
ROOT
HETATM    1  C4  UNL     1      29.155   9.973   2.191  1.00  0.00     0.070 A 
HETATM    2  C5  UNL     1      29.854  11.090   1.713  1.00  0.00     0.117 A 
HETATM    3  C6  UNL     1      29.497  11.758   0.561  1.00  0.00     0.140 A 
HETATM    4  C7  UNL     1      28.408  11.310  -0.149  1.00  0.00     0.143 A 
HETATM    5  C8  UNL     1      27.691  10.221   0.279  1.00  0.00     0.125 A 
HETATM    6  C9  UNL     1      28.081   9.567   1.451  1.00  0.00     0.086 A 
HETATM    7 CL1  UNL     1      27.155   8.177   1.987  1.00  0.00    -0.080 Cl
HETATM    8  O4  UNL     1      27.811  11.760  -1.321  1.00  0.00    -0.315 OA
HETATM    9  C10 UNL     1      28.198  12.408  -2.518  1.00  0.00     0.263 C 
HETATM   10  C11 UNL     1      29.542  13.090  -2.374  1.00  0.00     0.063 C 
HETATM   11  C12 UNL     1      29.530  14.206  -1.392  1.00  0.00     0.040 C 
HETATM   12  C13 UNL     1      30.450  14.058  -0.229  1.00  0.00     0.158 C 
HETATM   13  O6  UNL     1      30.399  12.798   0.397  1.00  0.00    -0.338 OA
ENDROOT
BRANCH   1  14
HETATM   14  C3  UNL     1      29.631   9.367   3.406  1.00  0.00     0.163 C 
HETATM   15  O1  UNL     1      29.374   9.959   4.516  1.00  0.00    -0.292 OA
BRANCH  14  16
HETATM   16  C2  UNL     1      30.402   8.108   3.515  1.00  0.00     0.079 C 
HETATM   17  C1  UNL     1      31.913   8.409   3.520  1.00  0.00     0.013 C 
ENDBRANCH  14  16
ENDBRANCH   1  14
BRANCH   2  18
HETATM   18  O2  UNL     1      30.952  11.555   2.413  1.00  0.00    -0.357 OA
ATOM     19  H2  UNL     1      31.674  11.951   1.939  1.00  0.00     0.217 HD
ENDBRANCH   2  18
BRANCH   5  20
HETATM   20  O3  UNL     1      26.603   9.783  -0.440  1.00  0.00    -0.356 OA
ATOM     21  H3  UNL     1      25.739   9.780  -0.046  1.00  0.00     0.218 HD
ENDBRANCH   5  20
BRANCH  12  22
HETATM   22  C14 UNL     1      31.898  14.334  -0.567  1.00  0.00     0.254 C 
HETATM   23  F1  UNL     1      32.756  13.525   0.148  1.00  0.00    -0.253 F 
ENDBRANCH  12  22
BRANCH   9  24
HETATM   24  O5  UNL     1      28.250  11.535  -3.586  1.00  0.00    -0.371 OA
ATOM     25  H5  UNL     1      27.815  11.886  -4.354  1.00  0.00     0.212 HD
ENDBRANCH   9  24
TORSDOF 6
ENDMDL
MODEL 2
REMARK VINA RESULT: -7.807717609      2.877      6.398
REMARK  6 active torsions:
REMARK  status: ('A' for Active; 'I' for Inactive)
REMARK    1  A    between atoms: C2_2  and  C3_3 
REMARK    2  A    between atoms: C3_3  and  C4_5 
REMARK    3  A    between atoms: C5_6  and  O2_7 
REMARK    4  A    between atoms: C8_11  and  O3_12 
REMARK    5  A    between atoms: C10_17  and  O5_18 
REMARK    6  A    between atoms: C13_22  and  C14_23 
ROOT
HETATM    1  C4  UNL     1      30.395  12.755   0.361  1.00  0.00     0.070 A 
HETATM    2  C5  UNL     1      29.459  11.764   0.688  1.00  0.00     0.117 A 
HETATM    3  C6  UNL     1      29.667  10.841   1.691  1.00  0.00     0.140 A 
HETATM    4  C7  UNL     1      30.844  10.895   2.401  1.00  0.00     0.143 A 
HETATM    5  C8  UNL     1      31.792  11.847   2.118  1.00  0.00     0.125 A 
HETATM    6  C9  UNL     1      31.547  12.768   1.095  1.00  0.00     0.086 A 
HETATM    7 CL1  UNL     1      32.766  13.979   0.745  1.00  0.00    -0.080 Cl
HETATM    8  O4  UNL     1      31.337  10.123   3.446  1.00  0.00    -0.315 OA
HETATM    9  C10 UNL     1      31.237   8.789   3.909  1.00  0.00     0.263 C 
HETATM   10  C11 UNL     1      30.035   8.083   3.320  1.00  0.00     0.063 C 
HETATM   11  C12 UNL     1      28.740   8.673   3.752  1.00  0.00     0.040 C 
HETATM   12  C13 UNL     1      27.874   9.210   2.663  1.00  0.00     0.158 C 
HETATM   13  O6  UNL     1      28.547  10.026   1.734  1.00  0.00    -0.338 OA
ENDROOT
BRANCH   1  14
HETATM   14  C3  UNL     1      30.055  13.657  -0.707  1.00  0.00     0.163 C 
HETATM   15  O1  UNL     1      29.245  14.619  -0.448  1.00  0.00    -0.292 OA
BRANCH  14  16
HETATM   16  C2  UNL     1      30.550  13.594  -2.100  1.00  0.00     0.079 C 
HETATM   17  C1  UNL     1      29.373  13.374  -3.072  1.00  0.00     0.013 C 
ENDBRANCH  14  16
ENDBRANCH   1  14
BRANCH   2  18
HETATM   18  O2  UNL     1      28.270  11.694  -0.014  1.00  0.00    -0.357 OA
ATOM     19  H2  UNL     1      27.908  10.843  -0.235  1.00  0.00     0.217 HD
ENDBRANCH   2  18
BRANCH   5  20
HETATM   20  O3  UNL     1      32.964  11.891   2.836  1.00  0.00    -0.356 OA
ATOM     21  H3  UNL     1      33.488  11.106   2.943  1.00  0.00     0.218 HD
ENDBRANCH   5  20
BRANCH  12  22
HETATM   22  C14 UNL     1      27.155   8.135   1.880  1.00  0.00     0.254 C 
HETATM   23  F1  UNL     1      27.545   8.114   0.558  1.00  0.00    -0.253 F 
ENDBRANCH  12  22
BRANCH   9  24
HETATM   24  O5  UNL     1      32.371   8.056   3.624  1.00  0.00    -0.371 OA
ATOM     25  H5  UNL     1      32.501   7.347   4.242  1.00  0.00     0.212 HD
ENDBRANCH   9  24
TORSDOF 6
ENDMDL
MODEL 3
REMARK VINA RESULT: -7.747757476      1.762      2.245
REMARK  6 active torsions:
REMARK  status: ('A' for Active; 'I' for Inactive)
REMARK    1  A    between atoms: C2_2  and  C3_3 
REMARK    2  A    between atoms: C3_3  and  C4_5 
REMARK    3  A    between atoms: C5_6  and  O2_7 
REMARK    4  A    between atoms: C8_11  and  O3_12 
REMARK    5  A    between atoms: C10_17  and  O5_18 
REMARK    6  A    between atoms: C13_22  and  C14_23 
ROOT
HETATM    1  C4  UNL     1      28.946   9.007   3.167  1.00  0.00     0.070 A 
HETATM    2  C5  UNL     1      30.054   9.859   3.066  1.00  0.00     0.117 A 
HETATM    3  C6  UNL     1      30.114  10.905   2.171  1.00  0.00     0.140 A 
HETATM    4  C7  UNL     1      29.039  11.122   1.340  1.00  0.00     0.143 A 
HETATM    5  C8  UNL     1      27.931  10.315   1.401  1.00  0.00     0.125 A 
HETATM    6  C9  UNL     1      27.904   9.263   2.321  1.00  0.00     0.086 A 
HETATM    7 CL1  UNL     1      26.482   8.240   2.388  1.00  0.00    -0.080 Cl
HETATM    8  O4  UNL     1      28.802  12.072   0.354  1.00  0.00    -0.315 OA
HETATM    9  C10 UNL     1      29.548  12.831  -0.579  1.00  0.00     0.263 C 
HETATM   10  C11 UNL     1      31.015  12.881  -0.212  1.00  0.00     0.063 C 
HETATM   11  C12 UNL     1      31.274  13.596   1.066  1.00  0.00     0.040 C 
HETATM   12  C13 UNL     1      31.920  12.791   2.142  1.00  0.00     0.158 C 
HETATM   13  O6  UNL     1      31.341  11.525   2.349  1.00  0.00    -0.338 OA
ENDROOT
BRANCH   1  14
HETATM   14  C3  UNL     1      29.011   7.953   4.143  1.00  0.00     0.163 C 
HETATM   15  O1  UNL     1      28.758   8.248   5.367  1.00  0.00    -0.292 OA
BRANCH  14  16
HETATM   16  C2  UNL     1      29.344   6.534   3.884  1.00  0.00     0.079 C 
HETATM   17  C1  UNL     1      30.409   6.047   4.885  1.00  0.00     0.013 C 
ENDBRANCH  14  16
ENDBRANCH   1  14
BRANCH   2  18
HETATM   18  O2  UNL     1      31.144   9.657   3.893  1.00  0.00    -0.357 OA
ATOM     19  H2  UNL     1      31.968  10.085   3.692  1.00  0.00     0.217 HD
ENDBRANCH   2  18
BRANCH   5  20
HETATM   20  O3  UNL     1      26.863  10.542   0.564  1.00  0.00    -0.356 OA
ATOM     21  H3  UNL     1      26.655  11.425   0.284  1.00  0.00     0.218 HD
ENDBRANCH   5  20
BRANCH  12  22
HETATM   22  C14 UNL     1      33.402  12.579   1.928  1.00  0.00     0.254 C 
HETATM   23  F1  UNL     1      33.778  11.279   2.192  1.00  0.00    -0.253 F 
ENDBRANCH  12  22
BRANCH   9  24
HETATM   24  O5  UNL     1      29.424  12.339  -1.863  1.00  0.00    -0.371 OA
ATOM     25  H5  UNL     1      30.268  12.158  -2.258  1.00  0.00     0.212 HD
ENDBRANCH   9  24
TORSDOF 6
ENDMDL
MODEL 4
REMARK VINA RESULT: -7.656628025      2.839      5.539
REMARK  6 active torsions:
REMARK  status: ('A' for Active; 'I' for Inactive)
REMARK    1  A    between atoms: C2_2  and  C3_3 
REMARK    2  A    between atoms: C3_3  and  C4_5 
REMARK    3  A    between atoms: C5_6  and  O2_7 
REMARK    4  A    between atoms: C8_11  and  O3_12 
REMARK    5  A    between atoms: C10_17  and  O5_18 
REMARK    6  A    between atoms: C13_22  and  C14_23 
ROOT
HETATM    1  C4  UNL     1      29.697  13.383   0.734  1.00  0.00     0.070 A 
HETATM    2  C5  UNL     1      29.851  12.506   1.817  1.00  0.00     0.117 A 
HETATM    3  C6  UNL     1      29.525  11.168   1.748  1.00  0.00     0.140 A 
HETATM    4  C7  UNL     1      29.028  10.673   0.565  1.00  0.00     0.143 A 
HETATM    5  C8  UNL     1      28.860  11.491  -0.524  1.00  0.00     0.125 A 
HETATM    6  C9  UNL     1      29.201  12.843  -0.418  1.00  0.00     0.086 A 
HETATM    7 CL1  UNL     1      28.981  13.878  -1.817  1.00  0.00    -0.080 Cl
HETATM    8  O4  UNL     1      28.617   9.399   0.188  1.00  0.00    -0.315 OA
HETATM    9  C10 UNL     1      28.040   8.257   0.793  1.00  0.00     0.263 C 
HETATM   10  C11 UNL     1      28.198   8.282   2.297  1.00  0.00     0.063 C 
HETATM   11  C12 UNL     1      29.615   8.198   2.738  1.00  0.00     0.040 C 
HETATM   12  C13 UNL     1      30.118   9.356   3.532  1.00  0.00     0.158 C 
HETATM   13  O6  UNL     1      29.804  10.616   2.988  1.00  0.00    -0.338 OA
ENDROOT
BRANCH   1  14
HETATM   14  C3  UNL     1      30.075  14.755   0.938  1.00  0.00     0.163 C 
HETATM   15  O1  UNL     1      31.327  15.037   0.977  1.00  0.00    -0.292 OA
BRANCH  14  16
HETATM   16  C2  UNL     1      29.156  15.903   1.111  1.00  0.00     0.079 C 
HETATM   17  C1  UNL     1      29.952  17.223   1.128  1.00  0.00     0.013 C 
ENDBRANCH  14  16
ENDBRANCH   1  14
BRANCH   2  18
HETATM   18  O2  UNL     1      30.349  12.986   3.014  1.00  0.00    -0.357 OA
ATOM     19  H2  UNL     1      30.449  12.392   3.749  1.00  0.00     0.217 HD
ENDBRANCH   2  18
BRANCH   5  20
HETATM   20  O3  UNL     1      28.362  10.983  -1.701  1.00  0.00    -0.356 OA
ATOM     21  H3  UNL     1      27.482  10.628  -1.734  1.00  0.00     0.218 HD
ENDBRANCH   5  20
BRANCH  12  22
HETATM   22  C14 UNL     1      29.643   9.355   4.968  1.00  0.00     0.254 C 
HETATM   23  F1  UNL     1      29.393   8.078   5.425  1.00  0.00    -0.253 F 
ENDBRANCH  12  22
BRANCH   9  24
HETATM   24  O5  UNL     1      26.700   8.130   0.485  1.00  0.00    -0.371 OA
ATOM     25  H5  UNL     1      26.566   7.822  -0.404  1.00  0.00     0.212 HD
ENDBRANCH   9  24
TORSDOF 6
ENDMDL
MODEL 5
REMARK VINA RESULT: -7.594250149      1.309      1.420
REMARK  6 active torsions:
REMARK  status: ('A' for Active; 'I' for Inactive)
REMARK    1  A    between atoms: C2_2  and  C3_3 
REMARK    2  A    between atoms: C3_3  and  C4_5 
REMARK    3  A    between atoms: C5_6  and  O2_7 
REMARK    4  A    between atoms: C8_11  and  O3_12 
REMARK    5  A    between atoms: C10_17  and  O5_18 
REMARK    6  A    between atoms: C13_22  and  C14_23 
ROOT
HETATM    1  C4  UNL     1      29.659   9.583   2.935  1.00  0.00     0.070 A 
HETATM    2  C5  UNL     1      30.179  10.720   2.302  1.00  0.00     0.117 A 
HETATM    3  C6  UNL     1      29.522  11.374   1.281  1.00  0.00     0.140 A 
HETATM    4  C7  UNL     1      28.303  10.889   0.867  1.00  0.00     0.143 A 
HETATM    5  C8  UNL     1      27.752   9.779   1.456  1.00  0.00     0.125 A 
HETATM    6  C9  UNL     1      28.445   9.142   2.489  1.00  0.00     0.086 A 
HETATM    7 CL1  UNL     1      27.729   7.725   3.234  1.00  0.00    -0.080 Cl
HETATM    8  O4  UNL     1      27.416  11.317  -0.114  1.00  0.00    -0.315 OA
HETATM    9  C10 UNL     1      27.468  11.974  -1.366  1.00  0.00     0.263 C 
HETATM   10  C11 UNL     1      28.782  12.698  -1.563  1.00  0.00     0.063 C 
HETATM   11  C12 UNL     1      28.984  13.816  -0.604  1.00  0.00     0.040 C 
HETATM   12  C13 UNL     1      30.173  13.700   0.288  1.00  0.00     0.158 C 
HETATM   13  O6  UNL     1      30.321  12.441   0.900  1.00  0.00    -0.338 OA
ENDROOT
BRANCH   1  14
HETATM   14  C3  UNL     1      30.445   8.996   3.987  1.00  0.00     0.163 C 
HETATM   15  O1  UNL     1      31.567   8.457   3.672  1.00  0.00    -0.292 OA
BRANCH  14  16
HETATM   16  C2  UNL     1      30.092   8.944   5.423  1.00  0.00     0.079 C 
HETATM   17  C1  UNL     1      30.208   7.500   5.948  1.00  0.00     0.013 C 
ENDBRANCH  14  16
ENDBRANCH   1  14
BRANCH   2  18
HETATM   18  O2  UNL     1      31.403  11.222   2.705  1.00  0.00    -0.357 OA
ATOM     19  H2  UNL     1      32.201  10.793   2.416  1.00  0.00     0.217 HD
ENDBRANCH   2  18
BRANCH   5  20
HETATM   20  O3  UNL     1      26.532   9.305   1.033  1.00  0.00    -0.356 OA
ATOM     21  H3  UNL     1      26.464   8.441   0.645  1.00  0.00     0.218 HD
ENDBRANCH   5  20
BRANCH  12  22
HETATM   22  C14 UNL     1      31.479  14.021  -0.403  1.00  0.00     0.254 C 
HETATM   23  F1  UNL     1      32.544  13.372   0.185  1.00  0.00    -0.253 F 
ENDBRANCH  12  22
BRANCH   9  24
HETATM   24  O5  UNL     1      27.276  11.100  -2.418  1.00  0.00    -0.371 OA
ATOM     25  H5  UNL     1      26.402  11.169  -2.783  1.00  0.00     0.212 HD
ENDBRANCH   9  24
TORSDOF 6
ENDMDL
