MODEL 1
REMARK VINA RESULT: -8.800671982      0.000      0.000
REMARK  6 active torsions:
REMARK  status: ('A' for Active; 'I' for Inactive)
REMARK    1  A    between atoms: C4_4  and  O1_5 
REMARK    2  A    between atoms: O1_5  and  C5_6 
REMARK    3  A    between atoms: C6_9  and  O2_10 
REMARK    4  A    between atoms: C10_15  and  O3_16 
REMARK    5  A    between atoms: N1_18  and  C11_19 
REMARK    6  A    between atoms: C16_25  and  O5_26 
ROOT
HETATM    1  C1  UNL     1      29.913  14.319  -1.574  1.00  0.00     0.069 C 
HETATM    2  C2  UNL     1      30.001  13.341  -0.469  1.00  0.00     0.024 A 
HETATM    3  C3  UNL     1      29.099  12.325  -0.255  1.00  0.00     0.038 A 
HETATM    4  C4  UNL     1      27.951  11.867  -0.858  1.00  0.00     0.121 A 
HETATM    5  C6  UNL     1      27.263  10.770  -0.337  1.00  0.00     0.110 A 
HETATM    6  C7  UNL     1      27.705  10.122   0.778  1.00  0.00     0.022 A 
HETATM    7  C8  UNL     1      28.861  10.582   1.384  1.00  0.00     0.037 A 
HETATM    8  C9  UNL     1      29.562  11.664   0.892  1.00  0.00     0.044 A 
HETATM    9  C10 UNL     1      30.707  12.308   1.305  1.00  0.00     0.155 A 
HETATM   10  N1  UNL     1      30.971  13.331   0.470  1.00  0.00    -0.326 N 
HETATM   11  C14 UNL     1      29.159   9.755   2.551  1.00  0.00     0.164 C 
HETATM   12  O4  UNL     1      29.867   9.964   3.557  1.00  0.00    -0.292 OA
HETATM   13  C15 UNL     1      28.405   8.491   2.330  1.00  0.00     0.120 C 
HETATM   14  C16 UNL     1      27.207   8.981   1.529  1.00  0.00     0.162 C 
ENDROOT
BRANCH   4  15
HETATM   15  O1  UNL     1      27.445  12.460  -1.980  1.00  0.00    -0.286 OA
BRANCH  15  16
HETATM   16  C5  UNL     1      27.617  12.016  -3.306  1.00  0.00     0.505 C 
HETATM   17  F1  UNL     1      28.365  12.806  -4.107  1.00  0.00    -0.184 F 
HETATM   18  F2  UNL     1      26.305  12.069  -3.858  1.00  0.00    -0.184 F 
ENDBRANCH  15  16
ENDBRANCH   4  15
BRANCH   5  19
HETATM   19  O2  UNL     1      26.125  10.352  -0.971  1.00  0.00    -0.357 OA
ATOM     20  H2  UNL     1      25.787   9.486  -0.773  1.00  0.00     0.217 HD
ENDBRANCH   5  19
BRANCH  10  21
HETATM   21  C11 UNL     1      32.067  14.271   0.520  1.00  0.00     0.092 A 
HETATM   22  C12 UNL     1      32.761  14.609   1.767  1.00  0.00     0.028 A 
HETATM   23  C13 UNL     1      31.740  15.575   1.249  1.00  0.00     0.028 A 
ENDBRANCH  10  21
BRANCH   9  24
HETATM   24  O3  UNL     1      31.526  12.012   2.403  1.00  0.00    -0.345 OA
ATOM     25  H3  UNL     1      32.394  12.344   2.599  1.00  0.00     0.219 HD
ENDBRANCH   9  24
BRANCH  14  26
HETATM   26  O5  UNL     1      26.806   7.913   0.733  1.00  0.00    -0.390 OA
ATOM     27  H5  UNL     1      25.913   7.629   0.888  1.00  0.00     0.210 HD
ENDBRANCH  14  26
TORSDOF 6
ENDMDL
MODEL 2
REMARK VINA RESULT: -8.466452358      2.849      4.869
REMARK  6 active torsions:
REMARK  status: ('A' for Active; 'I' for Inactive)
REMARK    1  A    between atoms: C4_4  and  O1_5 
REMARK    2  A    between atoms: O1_5  and  C5_6 
REMARK    3  A    between atoms: C6_9  and  O2_10 
REMARK    4  A    between atoms: C10_15  and  O3_16 
REMARK    5  A    between atoms: N1_18  and  C11_19 
REMARK    6  A    between atoms: C16_25  and  O5_26 
ROOT
HETATM    1  C1  UNL     1      30.967  13.619  -0.005  1.00  0.00     0.069 C 
HETATM    2  C2  UNL     1      29.942  12.553  -0.016  1.00  0.00     0.024 A 
HETATM    3  C3  UNL     1      29.829  11.571   0.942  1.00  0.00     0.038 A 
HETATM    4  C4  UNL     1      30.489  11.226   2.097  1.00  0.00     0.121 A 
HETATM    5  C6  UNL     1      30.087  10.114   2.840  1.00  0.00     0.110 A 
HETATM    6  C7  UNL     1      29.034   9.342   2.446  1.00  0.00     0.022 A 
HETATM    7  C8  UNL     1      28.370   9.692   1.283  1.00  0.00     0.037 A 
HETATM    8  C9  UNL     1      28.744  10.785   0.528  1.00  0.00     0.044 A 
HETATM    9  C10 UNL     1      28.265  11.327  -0.643  1.00  0.00     0.155 A 
HETATM   10  N1  UNL     1      28.999  12.407  -0.970  1.00  0.00    -0.326 N 
HETATM   11  C14 UNL     1      27.283   8.745   1.043  1.00  0.00     0.164 C 
HETATM   12  O4  UNL     1      26.647   8.458   0.009  1.00  0.00    -0.292 OA
HETATM   13  C15 UNL     1      27.026   8.110   2.364  1.00  0.00     0.120 C 
HETATM   14  C16 UNL     1      28.407   8.156   3.003  1.00  0.00     0.162 C 
ENDROOT
BRANCH   4  15
HETATM   15  O1  UNL     1      31.551  11.949   2.561  1.00  0.00    -0.286 OA
BRANCH  15  16
HETATM   16  C5  UNL     1      32.910  11.712   2.272  1.00  0.00     0.505 C 
HETATM   17  F1  UNL     1      33.621  11.078   3.230  1.00  0.00    -0.184 F 
HETATM   18  F2  UNL     1      33.476  13.017   2.195  1.00  0.00    -0.184 F 
ENDBRANCH  15  16
ENDBRANCH   4  15
BRANCH   5  19
HETATM   19  O2  UNL     1      30.775   9.809   3.983  1.00  0.00    -0.357 OA
ATOM     20  H2  UNL     1      31.393  10.444   4.324  1.00  0.00     0.217 HD
ENDBRANCH   5  19
BRANCH  10  21
HETATM   21  C11 UNL     1      28.853  13.280  -2.113  1.00  0.00     0.092 A 
HETATM   22  C12 UNL     1      28.443  12.790  -3.434  1.00  0.00     0.028 A 
HETATM   23  C13 UNL     1      29.899  13.060  -3.206  1.00  0.00     0.028 A 
ENDBRANCH  10  21
BRANCH   9  24
HETATM   24  O3  UNL     1      27.190  10.889  -1.430  1.00  0.00    -0.345 OA
ATOM     25  H3  UNL     1      27.205  10.573  -2.326  1.00  0.00     0.219 HD
ENDBRANCH   9  24
BRANCH  14  26
HETATM   26  O5  UNL     1      28.199   8.219   4.378  1.00  0.00    -0.390 OA
ATOM     27  H5  UNL     1      27.346   7.905   4.654  1.00  0.00     0.210 HD
ENDBRANCH  14  26
TORSDOF 6
ENDMDL
MODEL 3
REMARK VINA RESULT: -8.422847736      1.401      1.649
REMARK  6 active torsions:
REMARK  status: ('A' for Active; 'I' for Inactive)
REMARK    1  A    between atoms: C4_4  and  O1_5 
REMARK    2  A    between atoms: O1_5  and  C5_6 
REMARK    3  A    between atoms: C6_9  and  O2_10 
REMARK    4  A    between atoms: C10_15  and  O3_16 
REMARK    5  A    between atoms: N1_18  and  C11_19 
REMARK    6  A    between atoms: C16_25  and  O5_26 
ROOT
HETATM    1  C1  UNL     1      29.125  14.089  -0.961  1.00  0.00     0.069 C 
HETATM    2  C2  UNL     1      29.861  13.217  -0.022  1.00  0.00     0.024 A 
HETATM    3  C3  UNL     1      29.349  12.070   0.541  1.00  0.00     0.038 A 
HETATM    4  C4  UNL     1      28.164  11.376   0.484  1.00  0.00     0.121 A 
HETATM    5  C6  UNL     1      27.987  10.208   1.229  1.00  0.00     0.110 A 
HETATM    6  C7  UNL     1      28.978   9.724   2.031  1.00  0.00     0.022 A 
HETATM    7  C8  UNL     1      30.171  10.423   2.087  1.00  0.00     0.037 A 
HETATM    8  C9  UNL     1      30.375  11.580   1.362  1.00  0.00     0.044 A 
HETATM    9  C10 UNL     1      31.440  12.445   1.252  1.00  0.00     0.155 A 
HETATM   10  N1  UNL     1      31.122  13.442   0.406  1.00  0.00    -0.326 N 
HETATM   11  C14 UNL     1      31.091   9.740   2.994  1.00  0.00     0.164 C 
HETATM   12  O4  UNL     1      32.107  10.137   3.599  1.00  0.00    -0.292 OA
HETATM   13  C15 UNL     1      30.571   8.350   3.095  1.00  0.00     0.120 C 
HETATM   14  C16 UNL     1      29.076   8.563   2.899  1.00  0.00     0.162 C 
ENDROOT
BRANCH   4  15
HETATM   15  O1  UNL     1      27.124  11.794  -0.297  1.00  0.00    -0.286 OA
BRANCH  15  16
HETATM   16  C5  UNL     1      26.823  11.339  -1.597  1.00  0.00     0.505 C 
HETATM   17  F1  UNL     1      27.847  11.331  -2.478  1.00  0.00    -0.184 F 
HETATM   18  F2  UNL     1      25.913  12.313  -2.099  1.00  0.00    -0.184 F 
ENDBRANCH  15  16
ENDBRANCH   4  15
BRANCH   5  19
HETATM   19  O2  UNL     1      26.790   9.552   1.140  1.00  0.00    -0.357 OA
ATOM     20  H2  UNL     1      25.993  10.033   1.327  1.00  0.00     0.217 HD
ENDBRANCH   5  19
BRANCH  10  21
HETATM   21  C11 UNL     1      31.933  14.566  -0.004  1.00  0.00     0.092 A 
HETATM   22  C12 UNL     1      33.135  14.981   0.728  1.00  0.00     0.028 A 
HETATM   23  C13 UNL     1      31.875  15.759   0.950  1.00  0.00     0.028 A 
ENDBRANCH  10  21
BRANCH   9  24
HETATM   24  O3  UNL     1      32.690  12.372   1.883  1.00  0.00    -0.345 OA
ATOM     25  H3  UNL     1      33.048  12.945   2.551  1.00  0.00     0.219 HD
ENDBRANCH   9  24
BRANCH  14  26
HETATM   26  O5  UNL     1      28.585   7.390   2.334  1.00  0.00    -0.390 OA
ATOM     27  H5  UNL     1      28.246   6.768   2.967  1.00  0.00     0.210 HD
ENDBRANCH  14  26
TORSDOF 6
ENDMDL
MODEL 4
REMARK VINA RESULT: -8.420485731      2.372      4.823
REMARK  6 active torsions:
REMARK  status: ('A' for Active; 'I' for Inactive)
REMARK    1  A    between atoms: C4_4  and  O1_5 
REMARK    2  A    between atoms: O1_5  and  C5_6 
REMARK    3  A    between atoms: C6_9  and  O2_10 
REMARK    4  A    between atoms: C10_15  and  O3_16 
REMARK    5  A    between atoms: N1_18  and  C11_19 
REMARK    6  A    between atoms: C16_25  and  O5_26 
ROOT
HETATM    1  C1  UNL     1      30.039  13.847  -1.849  1.00  0.00     0.069 C 
HETATM    2  C2  UNL     1      29.203  12.789  -1.245  1.00  0.00     0.024 A 
HETATM    3  C3  UNL     1      29.505  12.131  -0.074  1.00  0.00     0.038 A 
HETATM    4  C4  UNL     1      30.516  12.167   0.857  1.00  0.00     0.121 A 
HETATM    5  C6  UNL     1      30.498  11.311   1.959  1.00  0.00     0.110 A 
HETATM    6  C7  UNL     1      29.484  10.418   2.145  1.00  0.00     0.022 A 
HETATM    7  C8  UNL     1      28.466  10.383   1.208  1.00  0.00     0.037 A 
HETATM    8  C9  UNL     1      28.457  11.217   0.109  1.00  0.00     0.044 A 
HETATM    9  C10 UNL     1      27.587  11.370  -0.947  1.00  0.00     0.155 A 
HETATM   10  N1  UNL     1      28.046  12.332  -1.770  1.00  0.00    -0.326 N 
HETATM   11  C14 UNL     1      27.488   9.368   1.593  1.00  0.00     0.164 C 
HETATM   12  O4  UNL     1      26.617   8.764   0.934  1.00  0.00    -0.292 OA
HETATM   13  C15 UNL     1      27.717   9.143   3.046  1.00  0.00     0.120 C 
HETATM   14  C16 UNL     1      29.207   9.427   3.172  1.00  0.00     0.162 C 
ENDROOT
BRANCH   4  15
HETATM   15  O1  UNL     1      31.565  13.034   0.743  1.00  0.00    -0.286 OA
BRANCH  15  16
HETATM   16  C5  UNL     1      31.636  14.333   1.287  1.00  0.00     0.505 C 
HETATM   17  F1  UNL     1      32.333  14.461   2.437  1.00  0.00    -0.184 F 
HETATM   18  F2  UNL     1      30.288  14.632   1.637  1.00  0.00    -0.184 F 
ENDBRANCH  15  16
ENDBRANCH   4  15
BRANCH   5  19
HETATM   19  O2  UNL     1      31.526  11.383   2.859  1.00  0.00    -0.357 OA
ATOM     20  H2  UNL     1      32.302  10.856   2.706  1.00  0.00     0.217 HD
ENDBRANCH   5  19
BRANCH  10  21
HETATM   21  C11 UNL     1      27.458  12.822  -2.996  1.00  0.00     0.092 A 
HETATM   22  C12 UNL     1      26.460  12.059  -3.753  1.00  0.00     0.028 A 
HETATM   23  C13 UNL     1      27.875  12.044  -4.244  1.00  0.00     0.028 A 
ENDBRANCH  10  21
BRANCH   9  24
HETATM   24  O3  UNL     1      26.394  10.680  -1.200  1.00  0.00    -0.345 OA
ATOM     25  H3  UNL     1      26.027  10.422  -2.038  1.00  0.00     0.219 HD
ENDBRANCH   9  24
BRANCH  14  26
HETATM   26  O5  UNL     1      29.409   9.886   4.470  1.00  0.00    -0.390 OA
ATOM     27  H5  UNL     1      30.179   9.524   4.893  1.00  0.00     0.210 HD
ENDBRANCH  14  26
TORSDOF 6
ENDMDL
MODEL 5
REMARK VINA RESULT: -8.341081460      2.508      4.823
REMARK  6 active torsions:
REMARK  status: ('A' for Active; 'I' for Inactive)
REMARK    1  A    between atoms: C4_4  and  O1_5 
REMARK    2  A    between atoms: O1_5  and  C5_6 
REMARK    3  A    between atoms: C6_9  and  O2_10 
REMARK    4  A    between atoms: C10_15  and  O3_16 
REMARK    5  A    between atoms: N1_18  and  C11_19 
REMARK    6  A    between atoms: C16_25  and  O5_26 
ROOT
HETATM    1  C1  UNL     1      30.294  13.466  -0.905  1.00  0.00     0.069 C 
HETATM    2  C2  UNL     1      29.398  12.346  -0.548  1.00  0.00     0.024 A 
HETATM    3  C3  UNL     1      29.585  11.511   0.531  1.00  0.00     0.038 A 
HETATM    4  C4  UNL     1      30.504  11.384   1.544  1.00  0.00     0.121 A 
HETATM    5  C6  UNL     1      30.378  10.371   2.496  1.00  0.00     0.110 A 
HETATM    6  C7  UNL     1      29.344   9.482   2.451  1.00  0.00     0.022 A 
HETATM    7  C8  UNL     1      28.418   9.612   1.431  1.00  0.00     0.037 A 
HETATM    8  C9  UNL     1      28.518  10.603   0.476  1.00  0.00     0.044 A 
HETATM    9  C10 UNL     1      27.751  10.933  -0.619  1.00  0.00     0.155 A 
HETATM   10  N1  UNL     1      28.292  11.998  -1.240  1.00  0.00    -0.326 N 
HETATM   11  C14 UNL     1      27.401   8.571   1.565  1.00  0.00     0.164 C 
HETATM   12  O4  UNL     1      26.591   8.093   0.745  1.00  0.00    -0.292 OA
HETATM   13  C15 UNL     1      27.492   8.124   2.981  1.00  0.00     0.120 C 
HETATM   14  C16 UNL     1      28.966   8.353   3.284  1.00  0.00     0.162 C 
ENDROOT
BRANCH   4  15
HETATM   15  O1  UNL     1      31.566  12.236   1.661  1.00  0.00    -0.286 OA
BRANCH  15  16
HETATM   16  C5  UNL     1      31.576  13.465   2.351  1.00  0.00     0.505 C 
HETATM   17  F1  UNL     1      30.399  14.127   2.408  1.00  0.00    -0.184 F 
HETATM   18  F2  UNL     1      32.427  14.293   1.563  1.00  0.00    -0.184 F 
ENDBRANCH  15  16
ENDBRANCH   4  15
BRANCH   5  19
HETATM   19  O2  UNL     1      31.318  10.284   3.487  1.00  0.00    -0.357 OA
ATOM     20  H2  UNL     1      31.112   9.781   4.266  1.00  0.00     0.217 HD
ENDBRANCH   5  19
BRANCH  10  21
HETATM   21  C11 UNL     1      27.824  12.681  -2.425  1.00  0.00     0.092 A 
HETATM   22  C12 UNL     1      26.889  12.066  -3.373  1.00  0.00     0.028 A 
HETATM   23  C13 UNL     1      28.342  12.088  -3.735  1.00  0.00     0.028 A 
ENDBRANCH  10  21
BRANCH   9  24
HETATM   24  O3  UNL     1      26.581  10.315  -1.082  1.00  0.00    -0.345 OA
ATOM     25  H3  UNL     1      25.789  10.723  -1.413  1.00  0.00     0.219 HD
ENDBRANCH   9  24
BRANCH  14  26
HETATM   26  O5  UNL     1      29.049   8.606   4.650  1.00  0.00    -0.390 OA
ATOM     27  H5  UNL     1      28.703   9.452   4.908  1.00  0.00     0.210 HD
ENDBRANCH  14  26
TORSDOF 6
ENDMDL
