MODEL 1
REMARK VINA RESULT: -6.258057122      0.000      0.000
REMARK  6 active torsions:
REMARK  status: ('A' for Active; 'I' for Inactive)
REMARK    1  A    between atoms: O1_2  and  C2_3 
REMARK       I    between atoms: C2_3  and  N1_5 
REMARK    2  A    between atoms: N1_5  and  N2_7 
REMARK    3  A    between atoms: N3_9  and  C4_11 
REMARK    4  A    between atoms: C10_22  and  N7_23 
REMARK    5  A    between atoms: N8_26  and  C11_27 
REMARK    6  A    between atoms: C11_27  and  O4_28 
ROOT
HETATM    1  C4  UNL     1     -39.392  -6.232  39.738  1.00  0.00     0.148 A 
HETATM    2  N4  UNL     1     -39.499  -6.044  38.403  1.00  0.00    -0.324 N 
ATOM      3  H4  UNL     1     -40.367  -5.861  37.900  1.00  0.00     0.169 HD
HETATM    4  C5  UNL     1     -38.298  -6.134  37.849  1.00  0.00     0.145 A 
HETATM    5  C6  UNL     1     -37.386  -6.388  38.857  1.00  0.00     0.105 A 
HETATM    6  C7  UNL     1     -38.071  -6.453  40.070  1.00  0.00     0.111 A 
HETATM    7  N5  UNL     1     -37.465  -6.696  41.331  1.00  0.00    -0.097 NA
HETATM    8  C8  UNL     1     -36.075  -6.522  38.524  1.00  0.00     0.277 A 
HETATM    9  O3  UNL     1     -35.251  -6.753  39.447  1.00  0.00    -0.266 OA
HETATM   10  N6  UNL     1     -35.677  -6.410  37.250  1.00  0.00    -0.151 N 
HETATM   11  C9  UNL     1     -34.269  -6.558  36.922  1.00  0.00     0.179 C 
HETATM   12  C10 UNL     1     -36.600  -6.161  36.287  1.00  0.00     0.686 A 
HETATM   13  N8  UNL     1     -37.902  -6.021  36.564  1.00  0.00    -0.145 N 
ENDROOT
BRANCH   1  14
HETATM   14  N3  UNL     1     -40.455  -6.207  40.677  1.00  0.00    -0.269 N 
HETATM   15  N2  UNL     1     -40.759  -7.285  41.259  1.00  0.00    -0.235 N 
ATOM     16  H2  UNL     1     -41.526  -7.240  41.930  1.00  0.00     0.208 HD
ATOM     17  H3  UNL     1     -40.959  -5.343  40.876  1.00  0.00     0.190 HD
BRANCH  15  18
HETATM   18  N1  UNL     1     -40.168  -8.519  41.086  1.00  0.00    -0.226 N 
HETATM   19  C2  UNL     1     -39.363  -9.055  42.116  1.00  0.00     0.382 C 
HETATM   20  O2  UNL     1     -38.820 -10.177  41.968  1.00  0.00    -0.236 OA
HETATM   21  C3  UNL     1     -40.363  -9.266  39.871  1.00  0.00     0.185 C 
BRANCH  19  22
HETATM   22  O1  UNL     1     -39.148  -8.374  43.304  1.00  0.00    -0.308 OA
HETATM   23  C1  UNL     1     -39.902  -8.670  44.479  1.00  0.00     0.215 C 
ENDBRANCH  19  22
ENDBRANCH  15  18
ENDBRANCH   1  14
BRANCH  13  24
HETATM   24  C11 UNL     1     -38.864  -5.756  35.514  1.00  0.00     0.315 C 
BRANCH  24  25
HETATM   25  O4  UNL     1     -38.318  -4.839  34.589  1.00  0.00    -0.381 OA
ATOM     26  H4  UNL     1     -38.576  -5.082  33.708  1.00  0.00     0.211 HD
ENDBRANCH  24  25
ENDBRANCH  13  24
BRANCH  12  27
HETATM   27  N7  UNL     1     -36.129  -6.071  35.092  1.00  0.00    -0.234 N 
ATOM     28  H72 UNL     1     -36.603  -6.470  34.282  1.00  0.00     0.174 HD
ATOM     29  H71 UNL     1     -35.244  -5.571  35.013  1.00  0.00     0.174 HD
ENDBRANCH  12  27
TORSDOF 6
ENDMDL
MODEL 2
REMARK VINA RESULT: -3.727206985      1.577      3.312
REMARK  6 active torsions:
REMARK  status: ('A' for Active; 'I' for Inactive)
REMARK    1  A    between atoms: O1_2  and  C2_3 
REMARK       I    between atoms: C2_3  and  N1_5 
REMARK    2  A    between atoms: N1_5  and  N2_7 
REMARK    3  A    between atoms: N3_9  and  C4_11 
REMARK    4  A    between atoms: C10_22  and  N7_23 
REMARK    5  A    between atoms: N8_26  and  C11_27 
REMARK    6  A    between atoms: C11_27  and  O4_28 
ROOT
HETATM    1  C4  UNL     1     -39.244  -6.672  38.105  1.00  0.00     0.148 A 
HETATM    2  N4  UNL     1     -38.024  -6.910  38.641  1.00  0.00    -0.324 N 
ATOM      3  H4  UNL     1     -37.851  -7.388  39.525  1.00  0.00     0.169 HD
HETATM    4  C5  UNL     1     -37.089  -6.423  37.837  1.00  0.00     0.145 A 
HETATM    5  C6  UNL     1     -37.723  -5.854  36.747  1.00  0.00     0.105 A 
HETATM    6  C7  UNL     1     -39.100  -6.006  36.905  1.00  0.00     0.111 A 
HETATM    7  N5  UNL     1     -40.077  -5.547  35.982  1.00  0.00    -0.097 NA
HETATM    8  C8  UNL     1     -36.957  -5.286  35.779  1.00  0.00     0.277 A 
HETATM    9  O3  UNL     1     -37.542  -4.770  34.790  1.00  0.00    -0.266 OA
HETATM   10  N6  UNL     1     -35.622  -5.278  35.878  1.00  0.00    -0.151 N 
HETATM   11  C9  UNL     1     -34.828  -4.663  34.827  1.00  0.00     0.179 C 
HETATM   12  C10 UNL     1     -35.035  -5.845  36.961  1.00  0.00     0.686 A 
HETATM   13  N8  UNL     1     -35.744  -6.417  37.941  1.00  0.00    -0.145 N 
ENDROOT
BRANCH   1  14
HETATM   14  N3  UNL     1     -40.493  -7.042  38.665  1.00  0.00    -0.269 N 
HETATM   15  N2  UNL     1     -40.593  -7.081  39.923  1.00  0.00    -0.235 N 
ATOM     16  H2  UNL     1     -41.502  -7.348  40.299  1.00  0.00     0.208 HD
ATOM     17  H3  UNL     1     -41.289  -7.270  38.068  1.00  0.00     0.190 HD
BRANCH  15  18
HETATM   18  N1  UNL     1     -39.606  -6.801  40.844  1.00  0.00    -0.226 N 
HETATM   19  C2  UNL     1     -38.962  -7.862  41.518  1.00  0.00     0.382 C 
HETATM   20  O2  UNL     1     -38.061  -7.618  42.358  1.00  0.00    -0.236 OA
HETATM   21  C3  UNL     1     -39.222  -5.442  41.124  1.00  0.00     0.185 C 
BRANCH  19  22
HETATM   22  O1  UNL     1     -39.294  -9.187  41.280  1.00  0.00    -0.308 OA
HETATM   23  C1  UNL     1     -39.517 -10.103  42.351  1.00  0.00     0.215 C 
ENDBRANCH  19  22
ENDBRANCH  15  18
ENDBRANCH   1  14
BRANCH  13  24
HETATM   24  C11 UNL     1     -35.089  -7.015  39.086  1.00  0.00     0.315 C 
BRANCH  24  25
HETATM   25  O4  UNL     1     -33.940  -7.719  38.663  1.00  0.00    -0.381 OA
ATOM     26  H4  UNL     1     -34.199  -8.503  38.194  1.00  0.00     0.211 HD
ENDBRANCH  24  25
ENDBRANCH  13  24
BRANCH  12  27
HETATM   27  N7  UNL     1     -33.748  -5.791  36.974  1.00  0.00    -0.234 N 
ATOM     28  H72 UNL     1     -33.233  -4.912  36.919  1.00  0.00     0.174 HD
ATOM     29  H71 UNL     1     -33.278  -6.694  37.044  1.00  0.00     0.174 HD
ENDBRANCH  12  27
TORSDOF 6
ENDMDL
MODEL 3
REMARK VINA RESULT: -3.577665153      1.090      2.849
REMARK  6 active torsions:
REMARK  status: ('A' for Active; 'I' for Inactive)
REMARK    1  A    between atoms: O1_2  and  C2_3 
REMARK       I    between atoms: C2_3  and  N1_5 
REMARK    2  A    between atoms: N1_5  and  N2_7 
REMARK    3  A    between atoms: N3_9  and  C4_11 
REMARK    4  A    between atoms: C10_22  and  N7_23 
REMARK    5  A    between atoms: N8_26  and  C11_27 
REMARK    6  A    between atoms: C11_27  and  O4_28 
ROOT
HETATM    1  C4  UNL     1     -38.800  -6.097  39.660  1.00  0.00     0.148 A 
HETATM    2  N4  UNL     1     -37.495  -6.346  39.918  1.00  0.00    -0.324 N 
ATOM      3  H4  UNL     1     -37.096  -6.499  40.843  1.00  0.00     0.169 HD
HETATM    4  C5  UNL     1     -36.817  -6.359  38.779  1.00  0.00     0.145 A 
HETATM    5  C6  UNL     1     -37.711  -6.112  37.752  1.00  0.00     0.105 A 
HETATM    6  C7  UNL     1     -38.982  -5.942  38.301  1.00  0.00     0.111 A 
HETATM    7  N5  UNL     1     -40.158  -5.673  37.552  1.00  0.00    -0.097 NA
HETATM    8  C8  UNL     1     -37.238  -6.078  36.478  1.00  0.00     0.277 A 
HETATM    9  O3  UNL     1     -38.058  -5.852  35.550  1.00  0.00    -0.266 OA
HETATM   10  N6  UNL     1     -35.939  -6.279  36.224  1.00  0.00    -0.151 N 
HETATM   11  C9  UNL     1     -35.461  -6.238  34.853  1.00  0.00     0.179 C 
HETATM   12  C10 UNL     1     -35.091  -6.519  37.256  1.00  0.00     0.686 A 
HETATM   13  N8  UNL     1     -35.507  -6.562  38.527  1.00  0.00    -0.145 N 
ENDROOT
BRANCH   1  14
HETATM   14  N3  UNL     1     -39.842  -6.006  40.617  1.00  0.00    -0.269 N 
HETATM   15  N2  UNL     1     -40.297  -7.078  41.105  1.00  0.00    -0.235 N 
ATOM     16  H2  UNL     1     -41.045  -6.985  41.792  1.00  0.00     0.208 HD
ATOM     17  H3  UNL     1     -40.214  -5.100  40.904  1.00  0.00     0.190 HD
BRANCH  15  18
HETATM   18  N1  UNL     1     -39.892  -8.362  40.810  1.00  0.00    -0.226 N 
HETATM   19  C2  UNL     1     -39.140  -9.091  41.759  1.00  0.00     0.382 C 
HETATM   20  O2  UNL     1     -38.767 -10.261  41.499  1.00  0.00    -0.236 OA
HETATM   21  C3  UNL     1     -40.228  -8.970  39.549  1.00  0.00     0.185 C 
BRANCH  19  22
HETATM   22  O1  UNL     1     -38.795  -8.550  42.987  1.00  0.00    -0.308 OA
HETATM   23  C1  UNL     1     -39.644  -8.686  44.126  1.00  0.00     0.215 C 
ENDBRANCH  19  22
ENDBRANCH  15  18
ENDBRANCH   1  14
BRANCH  13  24
HETATM   24  C11 UNL     1     -34.579  -6.820  39.608  1.00  0.00     0.315 C 
BRANCH  24  25
HETATM   25  O4  UNL     1     -33.594  -7.738  39.181  1.00  0.00    -0.381 OA
ATOM     26  H4  UNL     1     -33.247  -7.466  38.340  1.00  0.00     0.211 HD
ENDBRANCH  24  25
ENDBRANCH  13  24
BRANCH  12  27
HETATM   27  N7  UNL     1     -33.862  -6.699  36.920  1.00  0.00    -0.234 N 
ATOM     28  H72 UNL     1     -33.588  -7.074  36.012  1.00  0.00     0.174 HD
ATOM     29  H71 UNL     1     -33.177  -6.441  37.631  1.00  0.00     0.174 HD
ENDBRANCH  12  27
TORSDOF 6
ENDMDL
MODEL 4
REMARK VINA RESULT: -3.527155553      1.369      1.686
REMARK  6 active torsions:
REMARK  status: ('A' for Active; 'I' for Inactive)
REMARK    1  A    between atoms: O1_2  and  C2_3 
REMARK       I    between atoms: C2_3  and  N1_5 
REMARK    2  A    between atoms: N1_5  and  N2_7 
REMARK    3  A    between atoms: N3_9  and  C4_11 
REMARK    4  A    between atoms: C10_22  and  N7_23 
REMARK    5  A    between atoms: N8_26  and  C11_27 
REMARK    6  A    between atoms: C11_27  and  O4_28 
ROOT
HETATM    1  C4  UNL     1     -39.918  -7.223  38.721  1.00  0.00     0.148 A 
HETATM    2  N4  UNL     1     -39.970  -6.355  37.685  1.00  0.00    -0.324 N 
ATOM      3  H4  UNL     1     -40.814  -5.902  37.337  1.00  0.00     0.169 HD
HETATM    4  C5  UNL     1     -38.751  -6.187  37.192  1.00  0.00     0.145 A 
HETATM    5  C6  UNL     1     -37.884  -6.969  37.932  1.00  0.00     0.105 A 
HETATM    6  C7  UNL     1     -38.616  -7.637  38.914  1.00  0.00     0.111 A 
HETATM    7  N5  UNL     1     -38.064  -8.532  39.869  1.00  0.00    -0.097 NA
HETATM    8  C8  UNL     1     -36.564  -6.958  37.606  1.00  0.00     0.277 A 
HETATM    9  O3  UNL     1     -35.782  -7.672  38.286  1.00  0.00    -0.266 OA
HETATM   10  N6  UNL     1     -36.116  -6.207  36.593  1.00  0.00    -0.151 N 
HETATM   11  C9  UNL     1     -34.700  -6.213  36.266  1.00  0.00     0.179 C 
HETATM   12  C10 UNL     1     -36.996  -5.452  35.887  1.00  0.00     0.686 A 
HETATM   13  N8  UNL     1     -38.304  -5.429  36.169  1.00  0.00    -0.145 N 
ENDROOT
BRANCH   1  14
HETATM   14  N3  UNL     1     -41.015  -7.656  39.509  1.00  0.00    -0.269 N 
HETATM   15  N2  UNL     1     -40.874  -7.682  40.763  1.00  0.00    -0.235 N 
ATOM     16  H2  UNL     1     -41.678  -7.996  41.306  1.00  0.00     0.208 HD
ATOM     17  H3  UNL     1     -41.894  -7.939  39.074  1.00  0.00     0.190 HD
BRANCH  15  18
HETATM   18  N1  UNL     1     -39.749  -7.331  41.480  1.00  0.00    -0.226 N 
HETATM   19  C2  UNL     1     -39.182  -8.259  42.382  1.00  0.00     0.382 C 
HETATM   20  O2  UNL     1     -38.158  -7.949  43.039  1.00  0.00    -0.236 OA
HETATM   21  C3  UNL     1     -39.146  -6.034  41.318  1.00  0.00     0.185 C 
BRANCH  19  22
HETATM   22  O1  UNL     1     -39.725  -9.520  42.570  1.00  0.00    -0.308 OA
HETATM   23  C1  UNL     1     -39.154 -10.676  41.958  1.00  0.00     0.215 C 
ENDBRANCH  19  22
ENDBRANCH  15  18
ENDBRANCH   1  14
BRANCH  13  24
HETATM   24  C11 UNL     1     -39.219  -4.613  35.398  1.00  0.00     0.315 C 
BRANCH  24  25
HETATM   25  O4  UNL     1     -39.127  -4.956  34.032  1.00  0.00    -0.381 OA
ATOM     26  H4  UNL     1     -39.754  -4.447  33.531  1.00  0.00     0.211 HD
ENDBRANCH  24  25
ENDBRANCH  13  24
BRANCH  12  27
HETATM   27  N7  UNL     1     -36.478  -4.763  34.930  1.00  0.00    -0.234 N 
ATOM     28  H72 UNL     1     -35.501  -4.853  34.653  1.00  0.00     0.174 HD
ATOM     29  H71 UNL     1     -37.118  -4.118  34.468  1.00  0.00     0.174 HD
ENDBRANCH  12  27
TORSDOF 6
ENDMDL
MODEL 5
REMARK VINA RESULT: -3.460204516      1.917      6.443
REMARK  6 active torsions:
REMARK  status: ('A' for Active; 'I' for Inactive)
REMARK    1  A    between atoms: O1_2  and  C2_3 
REMARK       I    between atoms: C2_3  and  N1_5 
REMARK    2  A    between atoms: N1_5  and  N2_7 
REMARK    3  A    between atoms: N3_9  and  C4_11 
REMARK    4  A    between atoms: C10_22  and  N7_23 
REMARK    5  A    between atoms: N8_26  and  C11_27 
REMARK    6  A    between atoms: C11_27  and  O4_28 
ROOT
HETATM    1  C4  UNL     1     -39.248  -7.105  38.968  1.00  0.00     0.148 A 
HETATM    2  N4  UNL     1     -39.208  -8.457  39.018  1.00  0.00    -0.324 N 
ATOM      3  H4  UNL     1     -39.069  -9.073  38.218  1.00  0.00     0.169 HD
HETATM    4  C5  UNL     1     -39.377  -8.855  40.271  1.00  0.00     0.145 A 
HETATM    5  C6  UNL     1     -39.531  -7.727  41.056  1.00  0.00     0.105 A 
HETATM    6  C7  UNL     1     -39.451  -6.601  40.236  1.00  0.00     0.111 A 
HETATM    7  N5  UNL     1     -39.562  -5.259  40.689  1.00  0.00    -0.097 NA
HETATM    8  C8  UNL     1     -39.721  -7.890  42.392  1.00  0.00     0.277 A 
HETATM    9  O3  UNL     1     -39.860  -6.858  43.099  1.00  0.00    -0.266 OA
HETATM   10  N6  UNL     1     -39.757  -9.114  42.934  1.00  0.00    -0.151 N 
HETATM   11  C9  UNL     1     -39.961  -9.259  44.366  1.00  0.00     0.179 C 
HETATM   12  C10 UNL     1     -39.602 -10.198  42.134  1.00  0.00     0.686 A 
HETATM   13  N8  UNL     1     -39.413 -10.090  40.813  1.00  0.00    -0.145 N 
ENDROOT
BRANCH   1  14
HETATM   14  N3  UNL     1     -39.104  -6.303  37.807  1.00  0.00    -0.269 N 
HETATM   15  N2  UNL     1     -37.936  -6.041  37.407  1.00  0.00    -0.235 N 
ATOM     16  H2  UNL     1     -37.861  -5.464  36.569  1.00  0.00     0.208 HD
ATOM     17  H3  UNL     1     -39.922  -5.949  37.310  1.00  0.00     0.190 HD
BRANCH  15  18
HETATM   18  N1  UNL     1     -36.750  -6.450  37.979  1.00  0.00    -0.226 N 
HETATM   19  C2  UNL     1     -35.643  -6.743  37.151  1.00  0.00     0.382 C 
HETATM   20  O2  UNL     1     -34.559  -7.116  37.662  1.00  0.00    -0.236 OA
HETATM   21  C3  UNL     1     -36.626  -6.580  39.407  1.00  0.00     0.185 C 
BRANCH  19  22
HETATM   22  O1  UNL     1     -35.713  -6.630  35.771  1.00  0.00    -0.308 OA
HETATM   23  C1  UNL     1     -35.242  -5.466  35.094  1.00  0.00     0.215 C 
ENDBRANCH  19  22
ENDBRANCH  15  18
ENDBRANCH   1  14
BRANCH  13  24
HETATM   24  C11 UNL     1     -39.251 -11.266  39.983  1.00  0.00     0.315 C 
BRANCH  24  25
HETATM   25  O4  UNL     1     -40.363 -12.121  40.147  1.00  0.00    -0.381 OA
ATOM     26  H4  UNL     1     -40.764 -12.288  39.302  1.00  0.00     0.211 HD
ENDBRANCH  24  25
ENDBRANCH  13  24
BRANCH  12  27
HETATM   27  N7  UNL     1     -39.652 -11.334  42.738  1.00  0.00    -0.234 N 
ATOM     28  H72 UNL     1     -39.360 -11.455  43.708  1.00  0.00     0.174 HD
ATOM     29  H71 UNL     1     -40.004 -12.108  42.175  1.00  0.00     0.174 HD
ENDBRANCH  12  27
TORSDOF 6
ENDMDL
