MODEL 1
REMARK VINA RESULT: -6.441626242      0.000      0.000
REMARK  5 active torsions:
REMARK  status: ('A' for Active; 'I' for Inactive)
REMARK    1  A    between atoms: O1_2  and  C2_3 
REMARK    2  A    between atoms: C2_3  and  C3_5 
REMARK    3  A    between atoms: C4_8  and  C5_9 
REMARK    4  A    between atoms: C8_12  and  S1_13 
REMARK    5  A    between atoms: S1_13  and  N2_14 
ROOT
HETATM    1  C5  UNL     1     -37.612  -7.105  38.876  1.00  0.00     0.066 A 
HETATM    2  C6  UNL     1     -36.249  -7.157  38.886  1.00  0.00     0.024 A 
HETATM    3  C7  UNL     1     -35.542  -6.516  37.886  1.00  0.00     0.052 A 
HETATM    4  C8  UNL     1     -36.252  -5.849  36.913  1.00  0.00     0.192 A 
HETATM    5  O5  UNL     1     -37.565  -5.818  36.932  1.00  0.00    -0.280 OA
HETATM    6  C9  UNL     1     -38.258  -6.418  37.871  1.00  0.00     0.157 A 
HETATM    7  N3  UNL     1     -39.550  -6.400  37.908  1.00  0.00    -0.379 N 
ATOM      8  H31 UNL     1     -40.028  -5.891  37.165  1.00  0.00     0.158 HD
ATOM      9  H32 UNL     1     -40.088  -6.866  38.638  1.00  0.00     0.158 HD
ENDROOT
BRANCH   1  10
HETATM   10  C4  UNL     1     -38.387  -7.776  39.927  1.00  0.00     0.165 A 
HETATM   11  N1  UNL     1     -39.024  -8.952  39.802  1.00  0.00    -0.328 N 
HETATM   12  C3  UNL     1     -39.624  -9.255  40.961  1.00  0.00     0.159 A 
ATOM     13  H1  UNL     1     -39.048  -9.524  38.958  1.00  0.00     0.168 HD
HETATM   14  C10 UNL     1     -39.335  -8.218  41.814  1.00  0.00     0.192 A 
HETATM   15  O6  UNL     1     -38.595  -7.362  41.152  1.00  0.00    -0.276 OA
HETATM   16  N4  UNL     1     -39.787  -8.141  43.168  1.00  0.00    -0.072 NA
BRANCH  12  17
HETATM   17  C2  UNL     1     -40.429 -10.440  41.279  1.00  0.00     0.313 C 
HETATM   18  O2  UNL     1     -41.617 -10.499  40.899  1.00  0.00    -0.257 OA
BRANCH  17  19
HETATM   19  O1  UNL     1     -39.918 -11.500  41.985  1.00  0.00    -0.321 OA
HETATM   20  C1  UNL     1     -39.055 -12.476  41.384  1.00  0.00     0.213 C 
ENDBRANCH  17  19
ENDBRANCH  12  17
ENDBRANCH   1  10
BRANCH   4  21
HETATM   21  S1  UNL     1     -35.357  -5.042  35.651  1.00  0.00     0.279 S 
HETATM   22  O3  UNL     1     -34.479  -5.989  34.929  1.00  0.00    -0.199 OA
HETATM   23  O4  UNL     1     -34.587  -3.923  36.302  1.00  0.00    -0.199 OA
BRANCH  21  24
HETATM   24  N2  UNL     1     -36.520  -4.321  34.582  1.00  0.00    -0.323 N 
ATOM     25  H22 UNL     1     -37.532  -4.322  34.714  1.00  0.00     0.169 HD
ATOM     26  H21 UNL     1     -36.000  -3.906  33.809  1.00  0.00     0.169 HD
ENDBRANCH  21  24
ENDBRANCH   4  21
TORSDOF 5
ENDMDL
MODEL 2
REMARK VINA RESULT: -6.188500151      0.822      1.019
REMARK  5 active torsions:
REMARK  status: ('A' for Active; 'I' for Inactive)
REMARK    1  A    between atoms: O1_2  and  C2_3 
REMARK    2  A    between atoms: C2_3  and  C3_5 
REMARK    3  A    between atoms: C4_8  and  C5_9 
REMARK    4  A    between atoms: C8_12  and  S1_13 
REMARK    5  A    between atoms: S1_13  and  N2_14 
ROOT
HETATM    1  C5  UNL     1     -37.630  -7.062  38.824  1.00  0.00     0.066 A 
HETATM    2  C6  UNL     1     -36.266  -7.108  38.819  1.00  0.00     0.024 A 
HETATM    3  C7  UNL     1     -35.572  -6.466  37.811  1.00  0.00     0.052 A 
HETATM    4  C8  UNL     1     -36.296  -5.805  36.844  1.00  0.00     0.192 A 
HETATM    5  O5  UNL     1     -37.608  -5.780  36.876  1.00  0.00    -0.280 OA
HETATM    6  C9  UNL     1     -38.289  -6.380  37.824  1.00  0.00     0.157 A 
HETATM    7  N3  UNL     1     -39.580  -6.369  37.874  1.00  0.00    -0.379 N 
ATOM      8  H31 UNL     1     -40.069  -5.864  37.135  1.00  0.00     0.158 HD
ATOM      9  H32 UNL     1     -40.109  -6.835  38.611  1.00  0.00     0.158 HD
ENDROOT
BRANCH   1  10
HETATM   10  C4  UNL     1     -38.390  -7.735  39.884  1.00  0.00     0.165 A 
HETATM   11  N1  UNL     1     -39.036  -8.908  39.763  1.00  0.00    -0.328 N 
HETATM   12  C3  UNL     1     -39.618  -9.213  40.930  1.00  0.00     0.159 A 
ATOM     13  H1  UNL     1     -39.076  -9.475  38.917  1.00  0.00     0.168 HD
HETATM   14  C10 UNL     1     -39.309  -8.182  41.784  1.00  0.00     0.192 A 
HETATM   15  O6  UNL     1     -38.576  -7.326  41.115  1.00  0.00    -0.276 OA
HETATM   16  N4  UNL     1     -39.739  -8.110  43.145  1.00  0.00    -0.072 NA
BRANCH  12  17
HETATM   17  C2  UNL     1     -40.423 -10.396  41.256  1.00  0.00     0.313 C 
HETATM   18  O2  UNL     1     -41.612 -10.455  40.878  1.00  0.00    -0.257 OA
BRANCH  17  19
HETATM   19  O1  UNL     1     -39.913 -11.452  41.968  1.00  0.00    -0.321 OA
HETATM   20  C1  UNL     1     -39.043 -12.427  41.373  1.00  0.00     0.213 C 
ENDBRANCH  17  19
ENDBRANCH  12  17
ENDBRANCH   1  10
BRANCH   4  21
HETATM   21  S1  UNL     1     -35.418  -4.995  35.571  1.00  0.00     0.279 S 
HETATM   22  O3  UNL     1     -36.332  -4.224  34.700  1.00  0.00    -0.199 OA
HETATM   23  O4  UNL     1     -34.659  -6.054  34.816  1.00  0.00    -0.199 OA
BRANCH  21  24
HETATM   24  N2  UNL     1     -34.252  -3.960  36.334  1.00  0.00    -0.323 N 
ATOM     25  H22 UNL     1     -33.452  -4.270  36.888  1.00  0.00     0.169 HD
ATOM     26  H21 UNL     1     -34.520  -2.999  36.123  1.00  0.00     0.169 HD
ENDBRANCH  21  24
ENDBRANCH   4  21
TORSDOF 5
ENDMDL
MODEL 3
REMARK VINA RESULT: -5.405831996      1.513      2.153
REMARK  5 active torsions:
REMARK  status: ('A' for Active; 'I' for Inactive)
REMARK    1  A    between atoms: O1_2  and  C2_3 
REMARK    2  A    between atoms: C2_3  and  C3_5 
REMARK    3  A    between atoms: C4_8  and  C5_9 
REMARK    4  A    between atoms: C8_12  and  S1_13 
REMARK    5  A    between atoms: S1_13  and  N2_14 
ROOT
HETATM    1  C5  UNL     1     -37.838  -7.220  38.795  1.00  0.00     0.066 A 
HETATM    2  C6  UNL     1     -36.480  -7.344  38.828  1.00  0.00     0.024 A 
HETATM    3  C7  UNL     1     -35.718  -6.679  37.887  1.00  0.00     0.052 A 
HETATM    4  C8  UNL     1     -36.370  -5.914  36.946  1.00  0.00     0.192 A 
HETATM    5  O5  UNL     1     -37.680  -5.815  36.940  1.00  0.00    -0.280 OA
HETATM    6  C9  UNL     1     -38.424  -6.437  37.824  1.00  0.00     0.157 A 
HETATM    7  N3  UNL     1     -39.714  -6.353  37.836  1.00  0.00    -0.379 N 
ATOM      8  H31 UNL     1     -40.148  -5.773  37.119  1.00  0.00     0.158 HD
ATOM      9  H32 UNL     1     -40.292  -6.836  38.524  1.00  0.00     0.158 HD
ENDROOT
BRANCH   1  10
HETATM   10  C4  UNL     1     -38.670  -7.916  39.784  1.00  0.00     0.165 A 
HETATM   11  N1  UNL     1     -38.527  -7.847  41.118  1.00  0.00    -0.328 N 
HETATM   12  C3  UNL     1     -39.460  -8.609  41.703  1.00  0.00     0.159 A 
ATOM     13  H1  UNL     1     -37.818  -7.301  41.609  1.00  0.00     0.168 HD
HETATM   14  C10 UNL     1     -40.192  -9.157  40.677  1.00  0.00     0.192 A 
HETATM   15  O6  UNL     1     -39.684  -8.714  39.553  1.00  0.00    -0.276 OA
HETATM   16  N4  UNL     1     -41.297 -10.044  40.864  1.00  0.00    -0.072 NA
BRANCH  12  17
HETATM   17  C2  UNL     1     -39.677  -8.831  43.137  1.00  0.00     0.313 C 
HETATM   18  O2  UNL     1     -39.708  -9.998  43.583  1.00  0.00    -0.257 OA
BRANCH  17  19
HETATM   19  O1  UNL     1     -39.848  -7.793  44.018  1.00  0.00    -0.321 OA
HETATM   20  C1  UNL     1     -40.190  -8.005  45.395  1.00  0.00     0.213 C 
ENDBRANCH  17  19
ENDBRANCH  12  17
ENDBRANCH   1  10
BRANCH   4  21
HETATM   21  S1  UNL     1     -35.406  -5.075  35.758  1.00  0.00     0.279 S 
HETATM   22  O3  UNL     1     -34.470  -5.999  35.080  1.00  0.00    -0.199 OA
HETATM   23  O4  UNL     1     -34.694  -3.958  36.475  1.00  0.00    -0.199 OA
BRANCH  21  24
HETATM   24  N2  UNL     1     -36.506  -4.351  34.626  1.00  0.00    -0.323 N 
ATOM     25  H22 UNL     1     -36.948  -4.827  33.838  1.00  0.00     0.169 HD
ATOM     26  H21 UNL     1     -36.619  -3.376  34.900  1.00  0.00     0.169 HD
ENDBRANCH  21  24
ENDBRANCH   4  21
TORSDOF 5
ENDMDL
MODEL 4
REMARK VINA RESULT: -5.167029752      1.707      2.369
REMARK  5 active torsions:
REMARK  status: ('A' for Active; 'I' for Inactive)
REMARK    1  A    between atoms: O1_2  and  C2_3 
REMARK    2  A    between atoms: C2_3  and  C3_5 
REMARK    3  A    between atoms: C4_8  and  C5_9 
REMARK    4  A    between atoms: C8_12  and  S1_13 
REMARK    5  A    between atoms: S1_13  and  N2_14 
ROOT
HETATM    1  C5  UNL     1     -37.885  -7.200  38.723  1.00  0.00     0.066 A 
HETATM    2  C6  UNL     1     -36.524  -7.299  38.751  1.00  0.00     0.024 A 
HETATM    3  C7  UNL     1     -35.778  -6.620  37.807  1.00  0.00     0.052 A 
HETATM    4  C8  UNL     1     -36.447  -5.868  36.868  1.00  0.00     0.192 A 
HETATM    5  O5  UNL     1     -37.758  -5.793  36.867  1.00  0.00    -0.280 OA
HETATM    6  C9  UNL     1     -38.489  -6.428  37.754  1.00  0.00     0.157 A 
HETATM    7  N3  UNL     1     -39.779  -6.368  37.770  1.00  0.00    -0.379 N 
ATOM      8  H31 UNL     1     -40.227  -5.797  37.054  1.00  0.00     0.158 HD
ATOM      9  H32 UNL     1     -40.347  -6.861  38.460  1.00  0.00     0.158 HD
ENDROOT
BRANCH   1  10
HETATM   10  C4  UNL     1     -38.701  -7.911  39.715  1.00  0.00     0.165 A 
HETATM   11  N1  UNL     1     -38.542  -7.854  41.048  1.00  0.00    -0.328 N 
HETATM   12  C3  UNL     1     -39.463  -8.627  41.636  1.00  0.00     0.159 A 
ATOM     13  H1  UNL     1     -37.831  -7.308  41.535  1.00  0.00     0.168 HD
HETATM   14  C10 UNL     1     -40.204  -9.171  40.614  1.00  0.00     0.192 A 
HETATM   15  O6  UNL     1     -39.711  -8.713  39.489  1.00  0.00    -0.276 OA
HETATM   16  N4  UNL     1     -41.301 -10.066  40.805  1.00  0.00    -0.072 NA
BRANCH  12  17
HETATM   17  C2  UNL     1     -39.661  -8.864  43.071  1.00  0.00     0.313 C 
HETATM   18  O2  UNL     1     -39.679 -10.035  43.506  1.00  0.00    -0.257 OA
BRANCH  17  19
HETATM   19  O1  UNL     1     -39.830  -7.835  43.963  1.00  0.00    -0.321 OA
HETATM   20  C1  UNL     1     -40.088  -8.064  45.356  1.00  0.00     0.213 C 
ENDBRANCH  17  19
ENDBRANCH  12  17
ENDBRANCH   1  10
BRANCH   4  21
HETATM   21  S1  UNL     1     -35.503  -5.011  35.677  1.00  0.00     0.279 S 
HETATM   22  O3  UNL     1     -36.365  -4.169  34.818  1.00  0.00    -0.199 OA
HETATM   23  O4  UNL     1     -34.740  -6.046  34.891  1.00  0.00    -0.199 OA
BRANCH  21  24
HETATM   24  N2  UNL     1     -34.343  -4.051  36.539  1.00  0.00    -0.323 N 
ATOM     25  H22 UNL     1     -34.203  -4.051  37.550  1.00  0.00     0.169 HD
ATOM     26  H21 UNL     1     -33.839  -3.496  35.847  1.00  0.00     0.169 HD
ENDBRANCH  21  24
ENDBRANCH   4  21
TORSDOF 5
ENDMDL
MODEL 5
REMARK VINA RESULT: -4.242604174      1.341      1.631
REMARK  5 active torsions:
REMARK  status: ('A' for Active; 'I' for Inactive)
REMARK    1  A    between atoms: O1_2  and  C2_3 
REMARK    2  A    between atoms: C2_3  and  C3_5 
REMARK    3  A    between atoms: C4_8  and  C5_9 
REMARK    4  A    between atoms: C8_12  and  S1_13 
REMARK    5  A    between atoms: S1_13  and  N2_14 
ROOT
HETATM    1  C5  UNL     1     -37.822  -7.069  38.607  1.00  0.00     0.066 A 
HETATM    2  C6  UNL     1     -36.466  -7.200  38.687  1.00  0.00     0.024 A 
HETATM    3  C7  UNL     1     -35.670  -6.554  37.760  1.00  0.00     0.052 A 
HETATM    4  C8  UNL     1     -36.287  -5.802  36.785  1.00  0.00     0.192 A 
HETATM    5  O5  UNL     1     -37.594  -5.696  36.735  1.00  0.00    -0.280 OA
HETATM    6  C9  UNL     1     -38.372  -6.299  37.605  1.00  0.00     0.157 A 
HETATM    7  N3  UNL     1     -39.660  -6.209  37.573  1.00  0.00    -0.379 N 
ATOM      8  H31 UNL     1     -40.067  -5.638  36.832  1.00  0.00     0.158 HD
ATOM      9  H32 UNL     1     -40.264  -6.677  38.249  1.00  0.00     0.158 HD
ENDROOT
BRANCH   1  10
HETATM   10  C4  UNL     1     -38.690  -7.744  39.579  1.00  0.00     0.165 A 
HETATM   11  N1  UNL     1     -38.484  -7.804  40.906  1.00  0.00    -0.328 N 
HETATM   12  C3  UNL     1     -39.478  -8.499  41.476  1.00  0.00     0.159 A 
ATOM     13  H1  UNL     1     -37.696  -7.387  41.401  1.00  0.00     0.168 HD
HETATM   14  C10 UNL     1     -40.312  -8.871  40.449  1.00  0.00     0.192 A 
HETATM   15  O6  UNL     1     -39.800  -8.397  39.339  1.00  0.00    -0.276 OA
HETATM   16  N4  UNL     1     -41.506  -9.636  40.621  1.00  0.00    -0.072 NA
BRANCH  12  17
HETATM   17  C2  UNL     1     -39.660  -8.813  42.898  1.00  0.00     0.313 C 
HETATM   18  O2  UNL     1     -39.868  -7.889  43.712  1.00  0.00    -0.257 OA
BRANCH  17  19
HETATM   19  O1  UNL     1     -39.611 -10.100  43.372  1.00  0.00    -0.321 OA
HETATM   20  C1  UNL     1     -39.402 -11.226  42.507  1.00  0.00     0.213 C 
ENDBRANCH  17  19
ENDBRANCH  12  17
ENDBRANCH   1  10
BRANCH   4  21
HETATM   21  S1  UNL     1     -35.279  -4.988  35.616  1.00  0.00     0.279 S 
HETATM   22  O3  UNL     1     -34.396  -5.945  34.914  1.00  0.00    -0.199 OA
HETATM   23  O4  UNL     1     -34.507  -3.929  36.359  1.00  0.00    -0.199 OA
BRANCH  21  24
HETATM   24  N2  UNL     1     -36.339  -4.178  34.505  1.00  0.00    -0.323 N 
ATOM     25  H22 UNL     1     -37.356  -4.257  34.487  1.00  0.00     0.169 HD
ATOM     26  H21 UNL     1     -35.753  -3.619  33.885  1.00  0.00     0.169 HD
ENDBRANCH  21  24
ENDBRANCH   4  21
TORSDOF 5
ENDMDL
