MODEL 1
REMARK VINA RESULT: -6.185509127      0.000      0.000
REMARK  1 active torsions:
REMARK  status: ('A' for Active; 'I' for Inactive)
REMARK    1  A    between atoms: C8_8  and  N1_9 
ROOT
HETATM    1  C1  UNL     1       5.574   7.499  48.225  1.00  0.00     0.012 C 
HETATM    2  C2  UNL     1       6.176   8.138  49.052  1.00  0.00    -0.111 C 
HETATM    3  C3  UNL     1       6.917   8.906  50.079  1.00  0.00     0.087 C 
HETATM    4  C4  UNL     1       7.464   7.946  51.056  1.00  0.00     0.019 C 
HETATM    5  C5  UNL     1       8.661   8.375  51.814  1.00  0.00     0.001 C 
HETATM    6  C6  UNL     1       9.557   9.332  51.110  1.00  0.00     0.002 C 
HETATM    7  C7  UNL     1       9.344   9.374  49.623  1.00  0.00     0.026 C 
HETATM    8  C8  UNL     1       7.921   9.745  49.355  1.00  0.00     0.099 C 
ENDROOT
BRANCH   8   9
HETATM    9  N1  UNL     1       7.718   9.763  47.926  1.00  0.00    -0.361 N 
HETATM   10  C9  UNL     1       7.786  10.831  47.212  1.00  0.00     0.197 C 
HETATM   11  N2  UNL     1       8.064  12.118  47.707  1.00  0.00    -0.067 NA
HETATM   12  N3  UNL     1       7.563  10.701  45.809  1.00  0.00    -0.067 NA
ATOM     13  H1  UNL     1       7.510   8.882  47.458  1.00  0.00     0.162 HD
ENDBRANCH   8   9
TORSDOF 1
ENDMDL
MODEL 2
REMARK VINA RESULT: -6.160517693      2.602      4.423
REMARK  1 active torsions:
REMARK  status: ('A' for Active; 'I' for Inactive)
REMARK    1  A    between atoms: C8_8  and  N1_9 
ROOT
HETATM    1  C1  UNL     1       6.206   8.202  49.785  1.00  0.00     0.012 C 
HETATM    2  C2  UNL     1       6.516   7.188  49.211  1.00  0.00    -0.111 C 
HETATM    3  C3  UNL     1       6.885   5.931  48.517  1.00  0.00     0.087 C 
HETATM    4  C4  UNL     1       6.013   4.857  49.031  1.00  0.00     0.019 C 
HETATM    5  C5  UNL     1       5.792   3.696  48.140  1.00  0.00     0.001 C 
HETATM    6  C6  UNL     1       5.862   3.982  46.682  1.00  0.00     0.002 C 
HETATM    7  C7  UNL     1       5.716   5.440  46.348  1.00  0.00     0.026 C 
HETATM    8  C8  UNL     1       6.794   6.201  47.050  1.00  0.00     0.099 C 
ENDROOT
BRANCH   8   9
HETATM    9  N1  UNL     1       6.636   7.602  46.740  1.00  0.00    -0.361 N 
HETATM   10  C9  UNL     1       7.523   8.298  46.121  1.00  0.00     0.197 C 
HETATM   11  N2  UNL     1       8.758   7.808  45.662  1.00  0.00    -0.067 NA
HETATM   12  N3  UNL     1       7.233   9.674  45.883  1.00  0.00    -0.067 NA
ATOM     13  H1  UNL     1       5.774   8.065  47.028  1.00  0.00     0.162 HD
ENDBRANCH   8   9
TORSDOF 1
ENDMDL
MODEL 3
REMARK VINA RESULT: -6.100814881      1.620      1.701
REMARK  1 active torsions:
REMARK  status: ('A' for Active; 'I' for Inactive)
REMARK    1  A    between atoms: C8_8  and  N1_9 
ROOT
HETATM    1  C1  UNL     1       5.621   7.088  48.109  1.00  0.00     0.012 C 
HETATM    2  C2  UNL     1       6.263   7.888  48.743  1.00  0.00    -0.111 C 
HETATM    3  C3  UNL     1       7.046   8.864  49.539  1.00  0.00     0.087 C 
HETATM    4  C4  UNL     1       6.952   8.469  50.957  1.00  0.00     0.019 C 
HETATM    5  C5  UNL     1       8.052   8.909  51.845  1.00  0.00     0.001 C 
HETATM    6  C6  UNL     1       9.377   9.074  51.190  1.00  0.00     0.002 C 
HETATM    7  C7  UNL     1       9.487   8.370  49.867  1.00  0.00     0.026 C 
HETATM    8  C8  UNL     1       8.422   8.894  48.959  1.00  0.00     0.099 C 
ENDROOT
BRANCH   8   9
HETATM    9  N1  UNL     1       8.521   8.200  47.697  1.00  0.00    -0.361 N 
HETATM   10  C9  UNL     1       9.182   8.649  46.688  1.00  0.00     0.197 C 
HETATM   11  N2  UNL     1       9.896   9.860  46.664  1.00  0.00    -0.067 NA
HETATM   12  N3  UNL     1       9.193   7.856  45.502  1.00  0.00    -0.067 NA
ATOM     13  H1  UNL     1       8.041   7.306  47.600  1.00  0.00     0.162 HD
ENDBRANCH   8   9
TORSDOF 1
ENDMDL
MODEL 4
REMARK VINA RESULT: -6.093039120      2.118      3.701
REMARK  1 active torsions:
REMARK  status: ('A' for Active; 'I' for Inactive)
REMARK    1  A    between atoms: C8_8  and  N1_9 
ROOT
HETATM    1  C1  UNL     1      10.640   7.633  49.003  1.00  0.00     0.012 C 
HETATM    2  C2  UNL     1       9.506   7.745  48.607  1.00  0.00    -0.111 C 
HETATM    3  C3  UNL     1       8.112   7.862  48.118  1.00  0.00     0.087 C 
HETATM    4  C4  UNL     1       7.542   6.503  48.045  1.00  0.00     0.019 C 
HETATM    5  C5  UNL     1       6.069   6.393  48.137  1.00  0.00     0.001 C 
HETATM    6  C6  UNL     1       5.395   7.455  48.930  1.00  0.00     0.002 C 
HETATM    7  C7  UNL     1       6.322   8.201  49.848  1.00  0.00     0.026 C 
HETATM    8  C8  UNL     1       7.410   8.816  49.029  1.00  0.00     0.099 C 
ENDROOT
BRANCH   8   9
HETATM    9  N1  UNL     1       8.307   9.514  49.918  1.00  0.00    -0.361 N 
HETATM   10  C9  UNL     1       8.260  10.783  50.125  1.00  0.00     0.197 C 
HETATM   11  N2  UNL     1       7.342  11.665  49.526  1.00  0.00    -0.067 NA
HETATM   12  N3  UNL     1       9.211  11.340  51.031  1.00  0.00    -0.067 NA
ATOM     13  H1  UNL     1       9.018   8.972  50.410  1.00  0.00     0.162 HD
ENDBRANCH   8   9
TORSDOF 1
ENDMDL
MODEL 5
REMARK VINA RESULT: -6.078146766      1.013      1.112
REMARK  1 active torsions:
REMARK  status: ('A' for Active; 'I' for Inactive)
REMARK    1  A    between atoms: C8_8  and  N1_9 
ROOT
HETATM    1  C1  UNL     1       5.739   6.571  48.632  1.00  0.00     0.012 C 
HETATM    2  C2  UNL     1       6.313   7.464  49.205  1.00  0.00    -0.111 C 
HETATM    3  C3  UNL     1       7.019   8.549  49.926  1.00  0.00     0.087 C 
HETATM    4  C4  UNL     1       7.476   8.010  51.221  1.00  0.00     0.019 C 
HETATM    5  C5  UNL     1       8.641   8.676  51.846  1.00  0.00     0.001 C 
HETATM    6  C6  UNL     1       9.607   9.298  50.902  1.00  0.00     0.002 C 
HETATM    7  C7  UNL     1       9.482   8.791  49.492  1.00  0.00     0.026 C 
HETATM    8  C8  UNL     1       8.091   9.052  49.014  1.00  0.00     0.099 C 
ENDROOT
BRANCH   8   9
HETATM    9  N1  UNL     1       7.972   8.546  47.667  1.00  0.00    -0.361 N 
HETATM   10  C9  UNL     1       7.764   9.294  46.642  1.00  0.00     0.197 C 
HETATM   11  N2  UNL     1       7.624  10.693  46.677  1.00  0.00    -0.067 NA
HETATM   12  N3  UNL     1       7.668   8.657  45.369  1.00  0.00    -0.067 NA
ATOM     13  H1  UNL     1       8.058   7.540  47.521  1.00  0.00     0.162 HD
ENDBRANCH   8   9
TORSDOF 1
ENDMDL
