MODEL 1
REMARK VINA RESULT: -5.856291981      0.000      0.000
REMARK  2 active torsions:
REMARK  status: ('A' for Active; 'I' for Inactive)
REMARK    1  A    between atoms: C2_2  and  C3_3 
REMARK    2  A    between atoms: C3_3  and  N1_4 
REMARK       I    between atoms: N1_4  and  C4_6 
REMARK       I    between atoms: C4_6  and  N3_10 
ROOT
HETATM    1  N1  UNL     1       4.898   1.885  50.036  1.00  0.00    -0.223 N 
ATOM      2  H1  UNL     1       5.469   1.058  49.864  1.00  0.00     0.178 HD
HETATM    3  C4  UNL     1       5.559   3.117  50.131  1.00  0.00     0.669 C 
HETATM    4  N2  UNL     1       5.915   3.617  51.289  1.00  0.00    -0.235 N 
ATOM      5  H21 UNL     1       6.396   4.513  51.358  1.00  0.00     0.174 HD
ATOM      6  H22 UNL     1       5.679   3.048  52.102  1.00  0.00     0.174 HD
HETATM    7  N3  UNL     1       5.888   3.911  48.997  1.00  0.00    -0.218 N 
HETATM    8  C5  UNL     1       6.168   3.292  47.708  1.00  0.00     0.141 C 
HETATM    9  C6  UNL     1       7.195   4.185  47.018  1.00  0.00     0.020 C 
HETATM   10  C7  UNL     1       6.458   5.431  46.601  1.00  0.00     0.003 C 
HETATM   11  C8  UNL     1       5.665   5.977  47.741  1.00  0.00     0.020 C 
HETATM   12  C9  UNL     1       5.963   5.346  49.068  1.00  0.00     0.141 C 
ENDROOT
BRANCH   1  13
HETATM   13  C3  UNL     1       3.468   1.697  50.163  1.00  0.00     0.164 C 
BRANCH  13  14
HETATM   14  C2  UNL     1       2.879   0.889  49.087  1.00  0.00    -0.017 C 
HETATM   15  C1  UNL     1       3.655   0.455  48.103  1.00  0.00     0.008 C 
ENDBRANCH  13  14
ENDBRANCH   1  13
TORSDOF 2
ENDMDL
MODEL 2
REMARK VINA RESULT: -5.764965182      4.294      6.255
REMARK  2 active torsions:
REMARK  status: ('A' for Active; 'I' for Inactive)
REMARK    1  A    between atoms: C2_2  and  C3_3 
REMARK    2  A    between atoms: C3_3  and  N1_4 
REMARK       I    between atoms: N1_4  and  C4_6 
REMARK       I    between atoms: C4_6  and  N3_10 
ROOT
HETATM    1  N1  UNL     1       6.139   8.156  47.302  1.00  0.00    -0.223 N 
ATOM      2  H1  UNL     1       5.162   8.373  47.498  1.00  0.00     0.178 HD
HETATM    3  C4  UNL     1       7.108   9.047  47.781  1.00  0.00     0.669 C 
HETATM    4  N2  UNL     1       7.590  10.006  47.030  1.00  0.00    -0.235 N 
ATOM      5  H21 UNL     1       8.295  10.654  47.379  1.00  0.00     0.174 HD
ATOM      6  H22 UNL     1       7.210  10.053  46.085  1.00  0.00     0.174 HD
HETATM    7  N3  UNL     1       7.639   8.980  49.101  1.00  0.00    -0.218 N 
HETATM    8  C5  UNL     1       6.833   8.476  50.204  1.00  0.00     0.141 C 
HETATM    9  C6  UNL     1       7.287   9.235  51.447  1.00  0.00     0.020 C 
HETATM   10  C7  UNL     1       8.650   8.697  51.797  1.00  0.00     0.003 C 
HETATM   11  C8  UNL     1       9.530   8.676  50.593  1.00  0.00     0.020 C 
HETATM   12  C9  UNL     1       8.979   9.406  49.405  1.00  0.00     0.141 C 
ENDROOT
BRANCH   1  13
HETATM   13  C3  UNL     1       6.418   6.951  46.549  1.00  0.00     0.164 C 
BRANCH  13  14
HETATM   14  C2  UNL     1       5.694   5.768  47.035  1.00  0.00    -0.017 C 
HETATM   15  C1  UNL     1       5.665   4.673  46.289  1.00  0.00     0.008 C 
ENDBRANCH  13  14
ENDBRANCH   1  13
TORSDOF 2
ENDMDL
MODEL 3
REMARK VINA RESULT: -5.707201543      4.867      7.355
REMARK  2 active torsions:
REMARK  status: ('A' for Active; 'I' for Inactive)
REMARK    1  A    between atoms: C2_2  and  C3_3 
REMARK    2  A    between atoms: C3_3  and  N1_4 
REMARK       I    between atoms: N1_4  and  C4_6 
REMARK       I    between atoms: C4_6  and  N3_10 
ROOT
HETATM    1  N1  UNL     1       8.853  10.612  48.279  1.00  0.00    -0.223 N 
ATOM      2  H1  UNL     1       8.712  11.092  47.391  1.00  0.00     0.178 HD
HETATM    3  C4  UNL     1       7.711  10.206  48.983  1.00  0.00     0.669 C 
HETATM    4  N2  UNL     1       7.187  10.948  49.927  1.00  0.00    -0.235 N 
ATOM      5  H21 UNL     1       6.356  10.653  50.439  1.00  0.00     0.174 HD
ATOM      6  H22 UNL     1       7.667  11.830  50.106  1.00  0.00     0.174 HD
HETATM    7  N3  UNL     1       7.042   8.975  48.733  1.00  0.00    -0.218 N 
HETATM    8  C5  UNL     1       7.049   8.378  47.405  1.00  0.00     0.141 C 
HETATM    9  C6  UNL     1       5.720   7.643  47.258  1.00  0.00     0.020 C 
HETATM   10  C7  UNL     1       5.813   6.424  48.138  1.00  0.00     0.003 C 
HETATM   11  C8  UNL     1       6.295   6.796  49.500  1.00  0.00     0.020 C 
HETATM   12  C9  UNL     1       6.332   8.270  49.768  1.00  0.00     0.141 C 
ENDROOT
BRANCH   1  13
HETATM   13  C3  UNL     1      10.217  10.403  48.718  1.00  0.00     0.164 C 
BRANCH  13  14
HETATM   14  C2  UNL     1      10.387   9.229  49.585  1.00  0.00    -0.017 C 
HETATM   15  C1  UNL     1      10.566   8.036  49.034  1.00  0.00     0.008 C 
ENDBRANCH  13  14
ENDBRANCH   1  13
TORSDOF 2
ENDMDL
MODEL 4
REMARK VINA RESULT: -5.701974516      3.719      5.553
REMARK  2 active torsions:
REMARK  status: ('A' for Active; 'I' for Inactive)
REMARK    1  A    between atoms: C2_2  and  C3_3 
REMARK    2  A    between atoms: C3_3  and  N1_4 
REMARK       I    between atoms: N1_4  and  C4_6 
REMARK       I    between atoms: C4_6  and  N3_10 
ROOT
HETATM    1  N1  UNL     1       5.418   7.304  47.225  1.00  0.00    -0.223 N 
ATOM      2  H1  UNL     1       4.500   7.644  47.512  1.00  0.00     0.178 HD
HETATM    3  C4  UNL     1       6.497   8.192  47.329  1.00  0.00     0.669 C 
HETATM    4  N2  UNL     1       6.891   8.915  46.310  1.00  0.00    -0.235 N 
ATOM      5  H21 UNL     1       7.677   9.561  46.385  1.00  0.00     0.174 HD
ATOM      6  H22 UNL     1       6.360   8.783  45.449  1.00  0.00     0.174 HD
HETATM    7  N3  UNL     1       7.239   8.375  48.530  1.00  0.00    -0.218 N 
HETATM    8  C5  UNL     1       6.607   8.201  49.831  1.00  0.00     0.141 C 
HETATM    9  C6  UNL     1       7.302   9.175  50.778  1.00  0.00     0.020 C 
HETATM   10  C7  UNL     1       8.676   8.612  51.031  1.00  0.00     0.003 C 
HETATM   11  C8  UNL     1       9.337   8.248  49.744  1.00  0.00     0.020 C 
HETATM   12  C9  UNL     1       8.631   8.740  48.517  1.00  0.00     0.141 C 
ENDROOT
BRANCH   1  13
HETATM   13  C3  UNL     1       5.506   5.942  46.742  1.00  0.00     0.164 C 
BRANCH  13  14
HETATM   14  C2  UNL     1       5.989   4.987  47.749  1.00  0.00    -0.017 C 
HETATM   15  C1  UNL     1       5.925   3.688  47.493  1.00  0.00     0.008 C 
ENDBRANCH  13  14
ENDBRANCH   1  13
TORSDOF 2
ENDMDL
MODEL 5
REMARK VINA RESULT: -5.674583626      3.354      6.324
REMARK  2 active torsions:
REMARK  status: ('A' for Active; 'I' for Inactive)
REMARK    1  A    between atoms: C2_2  and  C3_3 
REMARK    2  A    between atoms: C3_3  and  N1_4 
REMARK       I    between atoms: N1_4  and  C4_6 
REMARK       I    between atoms: C4_6  and  N3_10 
ROOT
HETATM    1  N1  UNL     1       6.649   8.603  46.665  1.00  0.00    -0.223 N 
ATOM      2  H1  UNL     1       6.203   8.823  45.775  1.00  0.00     0.178 HD
HETATM    3  C4  UNL     1       5.965   7.747  47.538  1.00  0.00     0.669 C 
HETATM    4  N2  UNL     1       5.201   8.212  48.496  1.00  0.00    -0.235 N 
ATOM      5  H21 UNL     1       4.702   7.589  49.131  1.00  0.00     0.174 HD
ATOM      6  H22 UNL     1       5.144   9.229  48.555  1.00  0.00     0.174 HD
HETATM    7  N3  UNL     1       6.045   6.329  47.456  1.00  0.00    -0.218 N 
HETATM    8  C5  UNL     1       6.266   5.667  46.177  1.00  0.00     0.141 C 
HETATM    9  C6  UNL     1       5.533   4.331  46.254  1.00  0.00     0.020 C 
HETATM   10  C7  UNL     1       6.335   3.462  47.188  1.00  0.00     0.003 C 
HETATM   11  C8  UNL     1       6.648   4.196  48.448  1.00  0.00     0.020 C 
HETATM   12  C9  UNL     1       5.909   5.490  48.617  1.00  0.00     0.141 C 
ENDROOT
BRANCH   1  13
HETATM   13  C3  UNL     1       7.942   9.200  46.931  1.00  0.00     0.164 C 
BRANCH  13  14
HETATM   14  C2  UNL     1       7.867  10.586  47.414  1.00  0.00    -0.017 C 
HETATM   15  C1  UNL     1       7.852  10.817  48.719  1.00  0.00     0.008 C 
ENDBRANCH  13  14
ENDBRANCH   1  13
TORSDOF 2
ENDMDL
