MODEL 1
REMARK VINA RESULT: -5.882794755      0.000      0.000
REMARK  4 active torsions:
REMARK  status: ('A' for Active; 'I' for Inactive)
REMARK    1  A    between atoms: N1_1  and  N2_4 
REMARK    2  A    between atoms: N2_4  and  C1_5 
REMARK    3  A    between atoms: C1_5  and  N3_6 
REMARK       I    between atoms: N3_6  and  C2_8 
REMARK       I    between atoms: C2_8  and  N4_10 
REMARK    4  A    between atoms: N4_10  and  C3_12 
ROOT
HETATM    1  N3  UNL     1       7.768  10.622  46.810  1.00  0.00    -0.292 N 
ATOM      2  H3  UNL     1       7.180   9.792  46.726  1.00  0.00     0.172 HD
HETATM    3  C2  UNL     1       8.442  10.882  48.053  1.00  0.00     0.322 C 
HETATM    4  O1  UNL     1       9.152  11.919  48.098  1.00  0.00    -0.247 OA
HETATM    5  N4  UNL     1       8.299  10.003  49.158  1.00  0.00    -0.338 N 
ATOM      6  H4  UNL     1       7.713   9.172  49.079  1.00  0.00     0.164 HD
ENDROOT
BRANCH   1   7
HETATM    7  C1  UNL     1       7.902  11.492  45.697  1.00  0.00     0.305 C 
BRANCH   7   8
HETATM    8  N2  UNL     1       7.069  11.462  44.767  1.00  0.00    -0.328 NA
BRANCH   8   9
HETATM    9  N1  UNL     1       6.393  11.438  43.720  1.00  0.00    -0.279 N 
ATOM     10  H12 UNL     1       7.267  11.569  43.209  1.00  0.00     0.191 HD
ATOM     11  H11 UNL     1       5.714  11.398  42.960  1.00  0.00     0.191 HD
ENDBRANCH   8   9
ENDBRANCH   7   8
ENDBRANCH   1   7
BRANCH   5  12
HETATM   12  C3  UNL     1       8.986  10.288  50.392  1.00  0.00     0.086 C 
HETATM   13  C4  UNL     1       9.573   9.047  51.023  1.00  0.00     0.025 C 
HETATM   14  C5  UNL     1       8.492   8.433  51.857  1.00  0.00     0.002 C 
HETATM   15  C6  UNL     1       7.436   9.473  52.071  1.00  0.00     0.002 C 
HETATM   16  C7  UNL     1       7.917  10.743  51.390  1.00  0.00     0.025 C 
ENDBRANCH   5  12
TORSDOF 4
ENDMDL
MODEL 2
REMARK VINA RESULT: -5.609618644      7.901      8.453
REMARK  4 active torsions:
REMARK  status: ('A' for Active; 'I' for Inactive)
REMARK    1  A    between atoms: N1_1  and  N2_4 
REMARK    2  A    between atoms: N2_4  and  C1_5 
REMARK    3  A    between atoms: C1_5  and  N3_6 
REMARK       I    between atoms: N3_6  and  C2_8 
REMARK       I    between atoms: C2_8  and  N4_10 
REMARK    4  A    between atoms: N4_10  and  C3_12 
ROOT
HETATM    1  N3  UNL     1       5.425   5.479  46.428  1.00  0.00    -0.292 N 
ATOM      2  H3  UNL     1       4.594   5.577  45.843  1.00  0.00     0.172 HD
HETATM    3  C2  UNL     1       5.833   4.167  46.852  1.00  0.00     0.322 C 
HETATM    4  O1  UNL     1       6.862   4.108  47.572  1.00  0.00    -0.247 OA
HETATM    5  N4  UNL     1       5.098   3.015  46.469  1.00  0.00    -0.338 N 
ATOM      6  H4  UNL     1       4.268   3.109  45.884  1.00  0.00     0.164 HD
ENDROOT
BRANCH   1   7
HETATM    7  C1  UNL     1       6.150   6.640  46.803  1.00  0.00     0.305 C 
BRANCH   7   8
HETATM    8  N2  UNL     1       5.646   7.475  47.584  1.00  0.00    -0.328 NA
BRANCH   8   9
HETATM    9  N1  UNL     1       5.245   8.216  48.503  1.00  0.00    -0.279 N 
ATOM     10  H12 UNL     1       5.976   7.807  49.087  1.00  0.00     0.191 HD
ATOM     11  H11 UNL     1       4.810   8.874  49.149  1.00  0.00     0.191 HD
ENDBRANCH   8   9
ENDBRANCH   7   8
ENDBRANCH   1   7
BRANCH   5  12
HETATM   12  C3  UNL     1       5.530   1.713  46.909  1.00  0.00     0.086 C 
HETATM   13  C4  UNL     1       5.074   0.613  45.980  1.00  0.00     0.025 C 
HETATM   14  C5  UNL     1       3.698   0.218  46.418  1.00  0.00     0.002 C 
HETATM   15  C6  UNL     1       3.494   0.746  47.804  1.00  0.00     0.002 C 
HETATM   16  C7  UNL     1       4.787   1.428  48.218  1.00  0.00     0.025 C 
ENDBRANCH   5  12
TORSDOF 4
ENDMDL
MODEL 3
REMARK VINA RESULT: -5.573047167      7.588      8.064
REMARK  4 active torsions:
REMARK  status: ('A' for Active; 'I' for Inactive)
REMARK    1  A    between atoms: N1_1  and  N2_4 
REMARK    2  A    between atoms: N2_4  and  C1_5 
REMARK    3  A    between atoms: C1_5  and  N3_6 
REMARK       I    between atoms: N3_6  and  C2_8 
REMARK       I    between atoms: C2_8  and  N4_10 
REMARK    4  A    between atoms: N4_10  and  C3_12 
ROOT
HETATM    1  N3  UNL     1       4.927   2.756  46.267  1.00  0.00    -0.292 N 
ATOM      2  H3  UNL     1       4.160   3.140  45.715  1.00  0.00     0.172 HD
HETATM    3  C2  UNL     1       5.853   3.654  46.902  1.00  0.00     0.322 C 
HETATM    4  O1  UNL     1       6.778   3.123  47.569  1.00  0.00    -0.247 OA
HETATM    5  N4  UNL     1       5.713   5.060  46.770  1.00  0.00    -0.338 N 
ATOM      6  H4  UNL     1       4.948   5.448  46.219  1.00  0.00     0.164 HD
ENDROOT
BRANCH   1   7
HETATM    7  C1  UNL     1       5.055   1.348  46.391  1.00  0.00     0.305 C 
BRANCH   7   8
HETATM    8  N2  UNL     1       4.066   0.605  46.216  1.00  0.00    -0.328 NA
BRANCH   8   9
HETATM    9  N1  UNL     1       3.209  -0.267  45.975  1.00  0.00    -0.279 N 
ATOM     10  H12 UNL     1       3.742  -0.891  46.581  1.00  0.00     0.191 HD
ATOM     11  H11 UNL     1       2.438  -0.869  45.688  1.00  0.00     0.191 HD
ENDBRANCH   8   9
ENDBRANCH   7   8
ENDBRANCH   1   7
BRANCH   5  12
HETATM   12  C3  UNL     1       6.655   5.937  47.417  1.00  0.00     0.086 C 
HETATM   13  C4  UNL     1       6.343   6.137  48.881  1.00  0.00     0.025 C 
HETATM   14  C5  UNL     1       5.359   7.263  48.963  1.00  0.00     0.002 C 
HETATM   15  C6  UNL     1       5.397   7.996  47.659  1.00  0.00     0.002 C 
HETATM   16  C7  UNL     1       6.455   7.323  46.799  1.00  0.00     0.025 C 
ENDBRANCH   5  12
TORSDOF 4
ENDMDL
MODEL 4
REMARK VINA RESULT: -5.551470670      7.209      8.404
REMARK  4 active torsions:
REMARK  status: ('A' for Active; 'I' for Inactive)
REMARK    1  A    between atoms: N1_1  and  N2_4 
REMARK    2  A    between atoms: N2_4  and  C1_5 
REMARK    3  A    between atoms: C1_5  and  N3_6 
REMARK       I    between atoms: N3_6  and  C2_8 
REMARK       I    between atoms: C2_8  and  N4_10 
REMARK    4  A    between atoms: N4_10  and  C3_12 
ROOT
HETATM    1  N3  UNL     1       4.878   2.924  50.313  1.00  0.00    -0.292 N 
ATOM      2  H3  UNL     1       4.595   3.488  51.115  1.00  0.00     0.172 HD
HETATM    3  C2  UNL     1       5.603   3.545  49.238  1.00  0.00     0.322 C 
HETATM    4  O1  UNL     1       5.925   2.800  48.277  1.00  0.00    -0.247 OA
HETATM    5  N4  UNL     1       5.928   4.925  49.279  1.00  0.00    -0.338 N 
ATOM      6  H4  UNL     1       5.647   5.494  50.078  1.00  0.00     0.164 HD
ENDROOT
BRANCH   1   7
HETATM    7  C1  UNL     1       4.548   1.544  50.286  1.00  0.00     0.305 C 
BRANCH   7   8
HETATM    8  N2  UNL     1       3.404   1.175  49.945  1.00  0.00    -0.328 NA
BRANCH   8   9
HETATM    9  N1  UNL     1       2.353   0.650  49.527  1.00  0.00    -0.279 N 
ATOM     10  H12 UNL     1       2.666   0.886  48.585  1.00  0.00     0.191 HD
ATOM     11  H11 UNL     1       1.461   0.193  49.340  1.00  0.00     0.191 HD
ENDBRANCH   8   9
ENDBRANCH   7   8
ENDBRANCH   1   7
BRANCH   5  12
HETATM   12  C3  UNL     1       6.655   5.522  48.188  1.00  0.00     0.086 C 
HETATM   13  C4  UNL     1       7.446   6.735  48.619  1.00  0.00     0.025 C 
HETATM   14  C5  UNL     1       6.518   7.907  48.538  1.00  0.00     0.002 C 
HETATM   15  C6  UNL     1       5.351   7.506  47.692  1.00  0.00     0.002 C 
HETATM   16  C7  UNL     1       5.607   6.083  47.222  1.00  0.00     0.025 C 
ENDBRANCH   5  12
TORSDOF 4
ENDMDL
MODEL 5
REMARK VINA RESULT: -5.535613917      7.232      7.654
REMARK  4 active torsions:
REMARK  status: ('A' for Active; 'I' for Inactive)
REMARK    1  A    between atoms: N1_1  and  N2_4 
REMARK    2  A    between atoms: N2_4  and  C1_5 
REMARK    3  A    between atoms: C1_5  and  N3_6 
REMARK       I    between atoms: N3_6  and  C2_8 
REMARK       I    between atoms: C2_8  and  N4_10 
REMARK    4  A    between atoms: N4_10  and  C3_12 
ROOT
HETATM    1  N3  UNL     1       5.553   2.721  47.211  1.00  0.00    -0.292 N 
ATOM      2  H3  UNL     1       5.788   2.412  48.155  1.00  0.00     0.172 HD
HETATM    3  C2  UNL     1       5.821   4.081  46.831  1.00  0.00     0.322 C 
HETATM    4  O1  UNL     1       5.509   4.404  45.656  1.00  0.00    -0.247 OA
HETATM    5  N4  UNL     1       6.405   4.993  47.747  1.00  0.00    -0.338 N 
ATOM      6  H4  UNL     1       6.642   4.689  48.691  1.00  0.00     0.164 HD
ENDROOT
BRANCH   1   7
HETATM    7  C1  UNL     1       4.969   1.798  46.305  1.00  0.00     0.305 C 
BRANCH   7   8
HETATM    8  N2  UNL     1       4.024   1.066  46.669  1.00  0.00    -0.328 NA
BRANCH   8   9
HETATM    9  N1  UNL     1       3.212   0.189  47.022  1.00  0.00    -0.279 N 
ATOM     10  H12 UNL     1       2.478   0.775  46.623  1.00  0.00     0.191 HD
ATOM     11  H11 UNL     1       2.675  -0.606  47.368  1.00  0.00     0.191 HD
ENDBRANCH   8   9
ENDBRANCH   7   8
ENDBRANCH   1   7
BRANCH   5  12
HETATM   12  C3  UNL     1       6.663   6.351  47.339  1.00  0.00     0.086 C 
HETATM   13  C4  UNL     1       7.756   6.999  48.156  1.00  0.00     0.025 C 
HETATM   14  C5  UNL     1       7.102   7.572  49.375  1.00  0.00     0.002 C 
HETATM   15  C6  UNL     1       5.631   7.649  49.109  1.00  0.00     0.002 C 
HETATM   16  C7  UNL     1       5.408   7.155  47.689  1.00  0.00     0.025 C 
ENDBRANCH   5  12
TORSDOF 4
ENDMDL
