MODEL 1
REMARK VINA RESULT: -8.823365955      0.000      0.000
REMARK  2 active torsions:
REMARK  status: ('A' for Active; 'I' for Inactive)
REMARK    1  A    between atoms: N2_12  and  C8_13 
REMARK    2  A    between atoms: C11_16  and  C12_17 
ROOT
HETATM    1  O1  UNL     1      12.900 -16.516  22.930  1.00  0.00    -0.245 OA
HETATM    2  C1  UNL     1      13.067 -15.406  22.395  1.00  0.00     0.345 C 
HETATM    3  N1  UNL     1      13.126 -15.061  21.010  1.00  0.00    -0.307 N 
ATOM      4  H1  UNL     1      13.177 -15.700  20.216  1.00  0.00     0.167 HD
HETATM    5  C2  UNL     1      13.098 -13.622  20.972  1.00  0.00     0.165 C 
HETATM    6  C3  UNL     1      14.015 -13.079  19.901  1.00  0.00     0.064 C 
HETATM    7  C4  UNL     1      13.800 -11.624  19.667  1.00  0.00     0.005 C 
HETATM    8  C5  UNL     1      12.341 -11.320  19.377  1.00  0.00     0.000 C 
HETATM    9  C6  UNL     1      11.578 -11.680  20.654  1.00  0.00     0.005 C 
HETATM   10  C7  UNL     1      11.674 -13.189  20.784  1.00  0.00     0.064 C 
HETATM   11  O2  UNL     1      13.607 -13.260  22.193  1.00  0.00    -0.240 OA
HETATM   12  N2  UNL     1      13.242 -14.185  23.103  1.00  0.00    -0.200 N 
ENDROOT
BRANCH  12  13
HETATM   13  C8  UNL     1      13.089 -13.888  24.495  1.00  0.00     0.120 C 
HETATM   14  C9  UNL     1      13.200 -12.422  24.814  1.00  0.00     0.028 C 
HETATM   15  C10 UNL     1      13.951 -12.248  26.090  1.00  0.00     0.012 C 
HETATM   16  C11 UNL     1      13.596 -13.274  27.145  1.00  0.00     0.051 C 
HETATM   17  C13 UNL     1      13.773 -14.679  26.676  1.00  0.00     0.012 C 
HETATM   18  C14 UNL     1      14.240 -14.608  25.216  1.00  0.00     0.028 C 
BRANCH  16  19
HETATM   19  C12 UNL     1      14.503 -12.979  28.347  1.00  0.00     0.357 C 
HETATM   20  F1  UNL     1      15.341 -14.042  28.574  1.00  0.00    -0.214 F 
HETATM   21  F2  UNL     1      15.246 -11.850  28.157  1.00  0.00    -0.214 F 
ENDBRANCH  16  19
ENDBRANCH  12  13
TORSDOF 2
ENDMDL
MODEL 2
REMARK VINA RESULT: -8.375872191      2.067      2.686
REMARK  2 active torsions:
REMARK  status: ('A' for Active; 'I' for Inactive)
REMARK    1  A    between atoms: N2_12  and  C8_13 
REMARK    2  A    between atoms: C11_16  and  C12_17 
ROOT
HETATM    1  O1  UNL     1      11.151 -13.737  20.711  1.00  0.00    -0.245 OA
HETATM    2  C1  UNL     1      11.900 -12.749  20.612  1.00  0.00     0.345 C 
HETATM    3  N1  UNL     1      12.189 -11.935  19.474  1.00  0.00    -0.307 N 
ATOM      4  H1  UNL     1      11.929 -12.115  18.504  1.00  0.00     0.167 HD
HETATM    5  C2  UNL     1      12.925 -10.808  19.985  1.00  0.00     0.165 C 
HETATM    6  C3  UNL     1      14.034 -10.399  19.044  1.00  0.00     0.064 C 
HETATM    7  C4  UNL     1      14.628  -9.086  19.419  1.00  0.00     0.005 C 
HETATM    8  C5  UNL     1      13.561  -8.013  19.547  1.00  0.00     0.000 C 
HETATM    9  C6  UNL     1      12.671  -8.445  20.714  1.00  0.00     0.005 C 
HETATM   10  C7  UNL     1      11.952  -9.696  20.247  1.00  0.00     0.064 C 
HETATM   11  O2  UNL     1      13.498 -11.295  21.132  1.00  0.00    -0.240 OA
HETATM   12  N2  UNL     1      12.664 -12.201  21.680  1.00  0.00    -0.200 N 
ENDROOT
BRANCH  12  13
HETATM   13  C8  UNL     1      12.632 -12.482  23.084  1.00  0.00     0.120 C 
HETATM   14  C9  UNL     1      12.742 -11.254  23.946  1.00  0.00     0.028 C 
HETATM   15  C10 UNL     1      13.603 -11.553  25.125  1.00  0.00     0.012 C 
HETATM   16  C11 UNL     1      13.368 -12.928  25.713  1.00  0.00     0.051 C 
HETATM   17  C13 UNL     1      13.530 -14.025  24.716  1.00  0.00     0.012 C 
HETATM   18  C14 UNL     1      13.860 -13.362  23.371  1.00  0.00     0.028 C 
BRANCH  16  19
HETATM   19  C12 UNL     1      14.374 -13.077  26.861  1.00  0.00     0.357 C 
HETATM   20  F1  UNL     1      15.427 -12.214  26.677  1.00  0.00    -0.214 F 
HETATM   21  F2  UNL     1      13.799 -12.836  28.076  1.00  0.00    -0.214 F 
ENDBRANCH  16  19
ENDBRANCH  12  13
TORSDOF 2
ENDMDL
MODEL 3
REMARK VINA RESULT: -8.309513885      1.546      2.072
REMARK  2 active torsions:
REMARK  status: ('A' for Active; 'I' for Inactive)
REMARK    1  A    between atoms: N2_12  and  C8_13 
REMARK    2  A    between atoms: C11_16  and  C12_17 
ROOT
HETATM    1  O1  UNL     1      12.073 -15.469  20.653  1.00  0.00    -0.245 OA
HETATM    2  C1  UNL     1      12.530 -14.316  20.738  1.00  0.00     0.345 C 
HETATM    3  N1  UNL     1      12.664 -13.313  19.730  1.00  0.00    -0.307 N 
ATOM      4  H1  UNL     1      12.529 -13.426  18.725  1.00  0.00     0.167 HD
HETATM    5  C2  UNL     1      13.030 -12.110  20.431  1.00  0.00     0.165 C 
HETATM    6  C3  UNL     1      14.047 -11.305  19.656  1.00  0.00     0.064 C 
HETATM    7  C4  UNL     1      14.235  -9.944  20.229  1.00  0.00     0.005 C 
HETATM    8  C5  UNL     1      12.911  -9.213  20.365  1.00  0.00     0.000 C 
HETATM    9  C6  UNL     1      12.095 -10.012  21.383  1.00  0.00     0.005 C 
HETATM   10  C7  UNL     1      11.776 -11.335  20.713  1.00  0.00     0.064 C 
HETATM   11  O2  UNL     1      13.634 -12.577  21.571  1.00  0.00    -0.240 OA
HETATM   12  N2  UNL     1      13.042 -13.733  21.930  1.00  0.00    -0.200 N 
ENDROOT
BRANCH  12  13
HETATM   13  C8  UNL     1      12.993 -14.194  23.285  1.00  0.00     0.120 C 
HETATM   14  C9  UNL     1      12.999 -13.083  24.300  1.00  0.00     0.028 C 
HETATM   15  C10 UNL     1      13.847 -13.478  25.460  1.00  0.00     0.012 C 
HETATM   16  C11 UNL     1      13.687 -14.929  25.860  1.00  0.00     0.051 C 
HETATM   17  C13 UNL     1      13.947 -15.876  24.737  1.00  0.00     0.012 C 
HETATM   18  C14 UNL     1      14.267 -15.027  23.500  1.00  0.00     0.028 C 
BRANCH  16  19
HETATM   19  C12 UNL     1      14.671 -15.163  27.014  1.00  0.00     0.357 C 
HETATM   20  F1  UNL     1      14.629 -14.105  27.888  1.00  0.00    -0.214 F 
HETATM   21  F2  UNL     1      14.398 -16.317  27.688  1.00  0.00    -0.214 F 
ENDBRANCH  16  19
ENDBRANCH  12  13
TORSDOF 2
ENDMDL
MODEL 4
REMARK VINA RESULT: -8.305450597      0.811      1.357
REMARK  2 active torsions:
REMARK  status: ('A' for Active; 'I' for Inactive)
REMARK    1  A    between atoms: N2_12  and  C8_13 
REMARK    2  A    between atoms: C11_16  and  C12_17 
ROOT
HETATM    1  O1  UNL     1      12.785 -16.233  22.530  1.00  0.00    -0.245 OA
HETATM    2  C1  UNL     1      12.941 -15.119  22.000  1.00  0.00     0.345 C 
HETATM    3  N1  UNL     1      12.480 -14.641  20.735  1.00  0.00    -0.307 N 
ATOM      4  H1  UNL     1      12.054 -15.187  19.986  1.00  0.00     0.167 HD
HETATM    5  C2  UNL     1      12.744 -13.225  20.742  1.00  0.00     0.165 C 
HETATM    6  C3  UNL     1      13.214 -12.743  19.389  1.00  0.00     0.064 C 
HETATM    7  C4  UNL     1      13.234 -11.257  19.302  1.00  0.00     0.005 C 
HETATM    8  C5  UNL     1      11.891 -10.663  19.685  1.00  0.00     0.000 C 
HETATM    9  C6  UNL     1      11.682 -11.016  21.159  1.00  0.00     0.005 C 
HETATM   10  C7  UNL     1      11.502 -12.522  21.204  1.00  0.00     0.064 C 
HETATM   11  O2  UNL     1      13.786 -13.099  21.625  1.00  0.00    -0.240 OA
HETATM   12  N2  UNL     1      13.654 -14.036  22.584  1.00  0.00    -0.200 N 
ENDROOT
BRANCH  12  13
HETATM   13  C8  UNL     1      14.171 -13.872  23.909  1.00  0.00     0.120 C 
HETATM   14  C9  UNL     1      13.871 -15.031  24.821  1.00  0.00     0.028 C 
HETATM   15  C10 UNL     1      13.536 -14.518  26.179  1.00  0.00     0.012 C 
HETATM   16  C11 UNL     1      14.403 -13.357  26.618  1.00  0.00     0.051 C 
HETATM   17  C13 UNL     1      14.377 -12.215  25.659  1.00  0.00     0.012 C 
HETATM   18  C14 UNL     1      13.473 -12.631  24.490  1.00  0.00     0.028 C 
BRANCH  16  19
HETATM   19  C12 UNL     1      13.877 -12.929  27.994  1.00  0.00     0.357 C 
HETATM   20  F1  UNL     1      14.598 -13.548  28.985  1.00  0.00    -0.214 F 
HETATM   21  F2  UNL     1      13.942 -11.577  28.165  1.00  0.00    -0.214 F 
ENDBRANCH  16  19
ENDBRANCH  12  13
TORSDOF 2
ENDMDL
MODEL 5
REMARK VINA RESULT: -7.911241120      2.241      3.174
REMARK  2 active torsions:
REMARK  status: ('A' for Active; 'I' for Inactive)
REMARK    1  A    between atoms: N2_12  and  C8_13 
REMARK    2  A    between atoms: C11_16  and  C12_17 
ROOT
HETATM    1  O1  UNL     1      11.275 -13.724  20.704  1.00  0.00    -0.245 OA
HETATM    2  C1  UNL     1      12.019 -12.747  20.504  1.00  0.00     0.345 C 
HETATM    3  N1  UNL     1      11.882 -11.674  19.572  1.00  0.00    -0.307 N 
ATOM      4  H1  UNL     1      11.208 -11.601  18.809  1.00  0.00     0.167 HD
HETATM    5  C2  UNL     1      12.894 -10.717  19.937  1.00  0.00     0.165 C 
HETATM    6  C3  UNL     1      13.527 -10.089  18.718  1.00  0.00     0.064 C 
HETATM    7  C4  UNL     1      14.375  -8.917  19.070  1.00  0.00     0.005 C 
HETATM    8  C5  UNL     1      13.604  -7.905  19.900  1.00  0.00     0.000 C 
HETATM    9  C6  UNL     1      13.262  -8.614  21.212  1.00  0.00     0.005 C 
HETATM   10  C7  UNL     1      12.269  -9.703  20.849  1.00  0.00     0.064 C 
HETATM   11  O2  UNL     1      13.844 -11.482  20.564  1.00  0.00    -0.240 OA
HETATM   12  N2  UNL     1      13.228 -12.492  21.209  1.00  0.00    -0.200 N 
ENDROOT
BRANCH  12  13
HETATM   13  C8  UNL     1      13.773 -13.119  22.375  1.00  0.00     0.120 C 
HETATM   14  C9  UNL     1      13.681 -14.621  22.350  1.00  0.00     0.028 C 
HETATM   15  C10 UNL     1      13.337 -15.118  23.712  1.00  0.00     0.012 C 
HETATM   16  C11 UNL     1      14.047 -14.377  24.824  1.00  0.00     0.051 C 
HETATM   17  C13 UNL     1      13.818 -12.903  24.784  1.00  0.00     0.012 C 
HETATM   18  C14 UNL     1      12.932 -12.622  23.562  1.00  0.00     0.028 C 
BRANCH  16  19
HETATM   19  C12 UNL     1      13.527 -14.977  26.136  1.00  0.00     0.357 C 
HETATM   20  F1  UNL     1      14.496 -15.762  26.710  1.00  0.00    -0.214 F 
HETATM   21  F2  UNL     1      13.146 -14.011  27.022  1.00  0.00    -0.214 F 
ENDBRANCH  16  19
ENDBRANCH  12  13
TORSDOF 2
ENDMDL
