MODEL 1
REMARK VINA RESULT: -7.951388344      0.000      0.000
REMARK  2 active torsions:
REMARK  status: ('A' for Active; 'I' for Inactive)
REMARK    1  A    between atoms: C1_2  and  C2_4 
REMARK    2  A    between atoms: C11_16  and  N3_17 
ROOT
HETATM    1  C2  UNL     1      13.760 -14.860  25.452  1.00  0.00     0.076 A 
HETATM    2  C3  UNL     1      13.568 -15.729  24.392  1.00  0.00     0.062 A 
HETATM    3  C4  UNL     1      13.531 -15.071  23.185  1.00  0.00     0.055 A 
HETATM    4  C5  UNL     1      13.722 -13.683  23.595  1.00  0.00     0.043 A 
HETATM    5  N1  UNL     1      13.844 -13.649  24.890  1.00  0.00    -0.356 N 
ATOM      6  H1  UNL     1      13.988 -12.791  25.421  1.00  0.00     0.166 HD
HETATM    7  C6  UNL     1      13.701 -12.778  22.382  1.00  0.00     0.073 C 
HETATM    8  C7  UNL     1      14.816 -13.185  21.455  1.00  0.00     0.033 C 
HETATM    9  C8  UNL     1      14.680 -14.672  21.049  1.00  0.00     0.123 C 
HETATM   10  N2  UNL     1      13.412 -14.995  21.782  1.00  0.00    -0.379 N 
HETATM   11  C9  UNL     1      12.230 -14.959  20.936  1.00  0.00     0.125 C 
HETATM   12  C10 UNL     1      12.070 -13.428  20.580  1.00  0.00     0.056 C 
HETATM   13  C11 UNL     1      12.358 -12.607  21.801  1.00  0.00     0.234 C 
ENDROOT
BRANCH  13  14
HETATM   14  N3  UNL     1      11.934 -11.249  21.684  1.00  0.00     0.093 N 
HETATM   15  C12 UNL     1      11.784 -10.742  20.373  1.00  0.00     0.273 C 
HETATM   16  C13 UNL     1      12.978  -9.869  20.061  1.00  0.00     0.032 C 
HETATM   17  C14 UNL     1      13.437  -9.438  21.421  1.00  0.00     0.032 C 
HETATM   18  C15 UNL     1      12.612 -10.264  22.401  1.00  0.00     0.273 C 
ENDBRANCH  13  14
BRANCH   1  19
HETATM   19  C1  UNL     1      13.857 -15.166  26.887  1.00  0.00     0.403 C 
HETATM   20  F1  UNL     1      14.515 -14.147  27.590  1.00  0.00    -0.208 F 
HETATM   21  F2  UNL     1      14.573 -16.320  27.143  1.00  0.00    -0.208 F 
ENDBRANCH   1  19
TORSDOF 2
ENDMDL
MODEL 2
REMARK VINA RESULT: -7.798717492      1.149      1.356
REMARK  2 active torsions:
REMARK  status: ('A' for Active; 'I' for Inactive)
REMARK    1  A    between atoms: C1_2  and  C2_4 
REMARK    2  A    between atoms: C11_16  and  N3_17 
ROOT
HETATM    1  C2  UNL     1      13.876 -13.469  26.151  1.00  0.00     0.076 A 
HETATM    2  C3  UNL     1      13.874 -14.698  25.515  1.00  0.00     0.062 A 
HETATM    3  C4  UNL     1      13.871 -14.570  24.145  1.00  0.00     0.055 A 
HETATM    4  C5  UNL     1      13.871 -13.119  23.981  1.00  0.00     0.043 A 
HETATM    5  N1  UNL     1      13.874 -12.571  25.160  1.00  0.00    -0.356 N 
ATOM      6  H1  UNL     1      13.876 -11.563  25.314  1.00  0.00     0.166 HD
HETATM    7  C6  UNL     1      13.856 -12.766  22.510  1.00  0.00     0.073 C 
HETATM    8  C7  UNL     1      15.086 -13.344  21.861  1.00  0.00     0.033 C 
HETATM    9  C8  UNL     1      15.151 -14.876  22.069  1.00  0.00     0.123 C 
HETATM   10  N2  UNL     1      13.867 -15.060  22.823  1.00  0.00    -0.379 N 
HETATM   11  C9  UNL     1      12.767 -15.515  21.989  1.00  0.00     0.125 C 
HETATM   12  C10 UNL     1      12.471 -14.279  21.051  1.00  0.00     0.056 C 
HETATM   13  C11 UNL     1      12.558 -13.017  21.859  1.00  0.00     0.234 C 
ENDROOT
BRANCH  13  14
HETATM   14  N3  UNL     1      11.999 -11.882  21.198  1.00  0.00     0.093 N 
HETATM   15  C12 UNL     1      12.211 -11.790  19.804  1.00  0.00     0.273 C 
HETATM   16  C13 UNL     1      13.298 -10.769  19.555  1.00  0.00     0.032 C 
HETATM   17  C14 UNL     1      13.219  -9.898  20.771  1.00  0.00     0.032 C 
HETATM   18  C15 UNL     1      12.251 -10.610  21.710  1.00  0.00     0.273 C 
ENDBRANCH  13  14
BRANCH   1  19
HETATM   19  C1  UNL     1      13.881 -13.179  27.593  1.00  0.00     0.403 C 
HETATM   20  F1  UNL     1      13.991 -11.804  27.845  1.00  0.00    -0.208 F 
HETATM   21  F2  UNL     1      14.941 -13.768  28.256  1.00  0.00    -0.208 F 
ENDBRANCH   1  19
TORSDOF 2
ENDMDL
MODEL 3
REMARK VINA RESULT: -7.617929640      1.912      3.824
REMARK  2 active torsions:
REMARK  status: ('A' for Active; 'I' for Inactive)
REMARK    1  A    between atoms: C1_2  and  C2_4 
REMARK    2  A    between atoms: C11_16  and  N3_17 
ROOT
HETATM    1  C2  UNL     1      14.350 -12.368  26.736  1.00  0.00     0.076 A 
HETATM    2  C3  UNL     1      14.519 -11.132  26.138  1.00  0.00     0.062 A 
HETATM    3  C4  UNL     1      14.107 -11.133  24.826  1.00  0.00     0.055 A 
HETATM    4  C5  UNL     1      13.657 -12.511  24.655  1.00  0.00     0.043 A 
HETATM    5  N1  UNL     1      13.827 -13.142  25.779  1.00  0.00    -0.356 N 
ATOM      6  H1  UNL     1      13.587 -14.123  25.917  1.00  0.00     0.166 HD
HETATM    7  C6  UNL     1      13.165 -12.721  23.240  1.00  0.00     0.073 C 
HETATM    8  C7  UNL     1      12.016 -11.783  22.982  1.00  0.00     0.033 C 
HETATM    9  C8  UNL     1      12.440 -10.314  23.215  1.00  0.00     0.123 C 
HETATM   10  N2  UNL     1      13.881 -10.544  23.565  1.00  0.00    -0.379 N 
HETATM   11  C9  UNL     1      14.789 -10.323  22.451  1.00  0.00     0.125 C 
HETATM   12  C10 UNL     1      14.457 -11.504  21.456  1.00  0.00     0.056 C 
HETATM   13  C11 UNL     1      14.248 -12.765  22.242  1.00  0.00     0.234 C 
ENDROOT
BRANCH  13  14
HETATM   14  N3  UNL     1      14.263 -13.943  21.437  1.00  0.00     0.093 N 
HETATM   15  C12 UNL     1      14.120 -13.761  20.043  1.00  0.00     0.273 C 
HETATM   16  C13 UNL     1      12.704 -14.124  19.659  1.00  0.00     0.032 C 
HETATM   17  C14 UNL     1      12.297 -15.070  20.748  1.00  0.00     0.032 C 
HETATM   18  C15 UNL     1      13.423 -15.003  21.774  1.00  0.00     0.273 C 
ENDBRANCH  13  14
BRANCH   1  19
HETATM   19  C1  UNL     1      14.665 -12.775  28.114  1.00  0.00     0.403 C 
HETATM   20  F1  UNL     1      15.248 -14.049  28.157  1.00  0.00    -0.208 F 
HETATM   21  F2  UNL     1      13.546 -12.848  28.922  1.00  0.00    -0.208 F 
ENDBRANCH   1  19
TORSDOF 2
ENDMDL
MODEL 4
REMARK VINA RESULT: -7.598225416      2.202      4.438
REMARK  2 active torsions:
REMARK  status: ('A' for Active; 'I' for Inactive)
REMARK    1  A    between atoms: C1_2  and  C2_4 
REMARK    2  A    between atoms: C11_16  and  N3_17 
ROOT
HETATM    1  C2  UNL     1      14.109 -11.081  26.109  1.00  0.00     0.076 A 
HETATM    2  C3  UNL     1      14.222 -10.154  25.088  1.00  0.00     0.062 A 
HETATM    3  C4  UNL     1      13.805 -10.662  23.880  1.00  0.00     0.055 A 
HETATM    4  C5  UNL     1      13.415 -12.021  24.246  1.00  0.00     0.043 A 
HETATM    5  N1  UNL     1      13.616 -12.177  25.521  1.00  0.00    -0.356 N 
ATOM      6  H1  UNL     1      13.419 -13.044  26.021  1.00  0.00     0.166 HD
HETATM    7  C6  UNL     1      12.926 -12.764  23.022  1.00  0.00     0.073 C 
HETATM    8  C7  UNL     1      11.737 -12.036  22.455  1.00  0.00     0.033 C 
HETATM    9  C8  UNL     1      12.100 -10.571  22.113  1.00  0.00     0.123 C 
HETATM   10  N2  UNL     1      13.550 -10.598  22.495  1.00  0.00    -0.379 N 
HETATM   11  C9  UNL     1      14.443 -10.776  21.362  1.00  0.00     0.125 C 
HETATM   12  C10 UNL     1      14.158 -12.256  20.887  1.00  0.00     0.056 C 
HETATM   13  C11 UNL     1      14.007 -13.137  22.092  1.00  0.00     0.234 C 
ENDROOT
BRANCH  13  14
HETATM   14  N3  UNL     1      14.069 -14.530  21.786  1.00  0.00     0.093 N 
HETATM   15  C12 UNL     1      12.915 -15.294  22.073  1.00  0.00     0.273 C 
HETATM   16  C13 UNL     1      13.167 -16.076  23.342  1.00  0.00     0.032 C 
HETATM   17  C14 UNL     1      14.661 -16.182  23.375  1.00  0.00     0.032 C 
HETATM   18  C15 UNL     1      15.150 -15.276  22.250  1.00  0.00     0.273 C 
ENDBRANCH  13  14
BRANCH   1  19
HETATM   19  C1  UNL     1      14.446 -10.930  27.532  1.00  0.00     0.403 C 
HETATM   20  F1  UNL     1      14.982  -9.664  27.806  1.00  0.00    -0.208 F 
HETATM   21  F2  UNL     1      15.396 -11.839  27.959  1.00  0.00    -0.208 F 
ENDBRANCH   1  19
TORSDOF 2
ENDMDL
MODEL 5
REMARK VINA RESULT: -7.534084318      1.198      1.592
REMARK  2 active torsions:
REMARK  status: ('A' for Active; 'I' for Inactive)
REMARK    1  A    between atoms: C1_2  and  C2_4 
REMARK    2  A    between atoms: C11_16  and  N3_17 
ROOT
HETATM    1  C2  UNL     1      13.633 -13.499  25.418  1.00  0.00     0.076 A 
HETATM    2  C3  UNL     1      13.304 -14.659  24.738  1.00  0.00     0.062 A 
HETATM    3  C4  UNL     1      13.614 -14.578  23.400  1.00  0.00     0.055 A 
HETATM    4  C5  UNL     1      14.176 -13.234  23.304  1.00  0.00     0.043 A 
HETATM    5  N1  UNL     1      14.152 -12.692  24.486  1.00  0.00    -0.356 N 
ATOM      6  H1  UNL     1      14.493 -11.751  24.682  1.00  0.00     0.166 HD
HETATM    7  C6  UNL     1      14.577 -12.944  21.874  1.00  0.00     0.073 C 
HETATM    8  C7  UNL     1      15.610 -13.952  21.446  1.00  0.00     0.033 C 
HETATM    9  C8  UNL     1      15.068 -15.394  21.595  1.00  0.00     0.123 C 
HETATM   10  N2  UNL     1      13.687 -15.070  22.081  1.00  0.00    -0.379 N 
HETATM   11  C9  UNL     1      12.680 -15.113  21.033  1.00  0.00     0.125 C 
HETATM   12  C10 UNL     1      13.045 -13.882  20.112  1.00  0.00     0.056 C 
HETATM   13  C11 UNL     1      13.430 -12.719  20.977  1.00  0.00     0.234 C 
ENDROOT
BRANCH  13  14
HETATM   14  N3  UNL     1      13.465 -11.477  20.274  1.00  0.00     0.093 N 
HETATM   15  C12 UNL     1      14.158 -10.415  20.896  1.00  0.00     0.273 C 
HETATM   16  C13 UNL     1      13.141  -9.470  21.495  1.00  0.00     0.032 C 
HETATM   17  C14 UNL     1      11.922  -9.723  20.660  1.00  0.00     0.032 C 
HETATM   18  C15 UNL     1      12.271 -10.934  19.802  1.00  0.00     0.273 C 
ENDBRANCH  13  14
BRANCH   1  19
HETATM   19  C1  UNL     1      13.464 -13.189  26.845  1.00  0.00     0.403 C 
HETATM   20  F1  UNL     1      13.835 -11.868  27.136  1.00  0.00    -0.208 F 
HETATM   21  F2  UNL     1      14.241 -13.986  27.664  1.00  0.00    -0.208 F 
ENDBRANCH   1  19
TORSDOF 2
ENDMDL
