MODEL 1
REMARK VINA RESULT: -8.527670144      0.000      0.000
REMARK  4 active torsions:
REMARK  status: ('A' for Active; 'I' for Inactive)
REMARK    1  A    between atoms: C1_4  and  O1_5 
REMARK    2  A    between atoms: C1_4  and  C9_17 
REMARK    3  A    between atoms: O1_5  and  C2_6 
REMARK    4  A    between atoms: C2_6  and  C3_7 
REMARK       I    between atoms: C3_7  and  N2_9 
ROOT
HETATM    1  O1  UNL     1      13.814 -15.943  25.626  1.00  0.00    -0.330 OA
ENDROOT
BRANCH   1   2
HETATM    2  C1  UNL     1      14.294 -15.175  26.700  1.00  0.00     0.119 C 
HETATM    3  N1  UNL     1      14.466 -15.808  27.797  1.00  0.00    -0.383 N 
ATOM      4  H12 UNL     1      14.266 -16.805  27.871  1.00  0.00     0.158 HD
ATOM      5  H11 UNL     1      14.815 -15.250  28.576  1.00  0.00     0.158 HD
BRANCH   2   6
HETATM    6  C9  UNL     1      14.580 -13.753  26.593  1.00  0.00     0.082 C 
HETATM    7  C10 UNL     1      14.853 -13.120  27.930  1.00  0.00    -0.018 C 
HETATM    8  C11 UNL     1      14.808 -11.809  27.993  1.00  0.00    -0.030 C 
HETATM    9  C12 UNL     1      14.511 -10.916  26.862  1.00  0.00     0.027 C 
HETATM   10  C13 UNL     1      13.743 -11.546  25.759  1.00  0.00     0.005 C 
HETATM   11  C14 UNL     1      13.438 -13.010  25.980  1.00  0.00     0.017 C 
ENDBRANCH   2   6
ENDBRANCH   1   2
BRANCH   1  12
HETATM   12  C2  UNL     1      14.594 -16.284  24.517  1.00  0.00     0.280 C 
BRANCH  12  13
HETATM   13  C3  UNL     1      13.841 -16.322  23.247  1.00  0.00     0.244 C 
HETATM   14  O2  UNL     1      13.293 -17.375  22.873  1.00  0.00    -0.271 OA
HETATM   15  N2  UNL     1      13.748 -15.158  22.460  1.00  0.00    -0.350 N 
HETATM   16  C4  UNL     1      14.368 -13.905  22.850  1.00  0.00     0.131 C 
HETATM   17  C8  UNL     1      13.016 -15.185  21.220  1.00  0.00     0.131 C 
HETATM   18  C5  UNL     1      14.756 -13.056  21.669  1.00  0.00     0.099 C 
HETATM   19  C6  UNL     1      13.632 -12.896  20.677  1.00  0.00     0.246 C 
HETATM   20  F1  UNL     1      14.121 -13.270  19.434  1.00  0.00    -0.206 F 
HETATM   21  F2  UNL     1      13.191 -11.612  20.584  1.00  0.00    -0.206 F 
HETATM   22  C7  UNL     1      12.458 -13.792  20.993  1.00  0.00     0.099 C 
ENDBRANCH  12  13
ENDBRANCH   1  12
TORSDOF 4
ENDMDL
MODEL 2
REMARK VINA RESULT: -8.244881845      3.857      6.553
REMARK  4 active torsions:
REMARK  status: ('A' for Active; 'I' for Inactive)
REMARK    1  A    between atoms: C1_4  and  O1_5 
REMARK    2  A    between atoms: C1_4  and  C9_17 
REMARK    3  A    between atoms: O1_5  and  C2_6 
REMARK    4  A    between atoms: C2_6  and  C3_7 
REMARK       I    between atoms: C3_7  and  N2_9 
ROOT
HETATM    1  O1  UNL     1      14.315 -10.476  21.677  1.00  0.00    -0.330 OA
ENDROOT
BRANCH   1   2
HETATM    2  C1  UNL     1      14.204 -11.785  21.179  1.00  0.00     0.119 C 
HETATM    3  N1  UNL     1      13.912 -11.879  19.938  1.00  0.00    -0.383 N 
ATOM      4  H12 UNL     1      13.774 -11.050  19.361  1.00  0.00     0.158 HD
ATOM      5  H11 UNL     1      13.832 -12.830  19.576  1.00  0.00     0.158 HD
BRANCH   2   6
HETATM    6  C9  UNL     1      14.402 -12.967  22.003  1.00  0.00     0.082 C 
HETATM    7  C10 UNL     1      15.462 -13.881  21.450  1.00  0.00    -0.018 C 
HETATM    8  C11 UNL     1      15.502 -15.106  21.922  1.00  0.00    -0.030 C 
HETATM    9  C12 UNL     1      14.594 -15.650  22.945  1.00  0.00     0.027 C 
HETATM   10  C13 UNL     1      13.292 -14.947  23.055  1.00  0.00     0.005 C 
HETATM   11  C14 UNL     1      13.147 -13.768  22.121  1.00  0.00     0.017 C 
ENDBRANCH   2   6
ENDBRANCH   1   2
BRANCH   1  12
HETATM   12  C2  UNL     1      13.671 -10.039  22.838  1.00  0.00     0.280 C 
BRANCH  12  13
HETATM   13  C3  UNL     1      14.576  -9.862  23.992  1.00  0.00     0.244 C 
HETATM   14  O2  UNL     1      15.476  -9.004  23.959  1.00  0.00    -0.271 OA
HETATM   15  N2  UNL     1      14.413 -10.674  25.131  1.00  0.00    -0.350 N 
HETATM   16  C4  UNL     1      13.380 -11.689  25.221  1.00  0.00     0.131 C 
HETATM   17  C8  UNL     1      15.291 -10.509  26.262  1.00  0.00     0.131 C 
HETATM   18  C5  UNL     1      13.772 -12.840  26.108  1.00  0.00     0.099 C 
HETATM   19  C6  UNL     1      14.297 -12.387  27.447  1.00  0.00     0.246 C 
HETATM   20  F1  UNL     1      15.534 -12.989  27.631  1.00  0.00    -0.206 F 
HETATM   21  F2  UNL     1      13.494 -12.757  28.480  1.00  0.00    -0.206 F 
HETATM   22  C7  UNL     1      14.505 -10.892  27.504  1.00  0.00     0.099 C 
ENDBRANCH  12  13
ENDBRANCH   1  12
TORSDOF 4
ENDMDL
MODEL 3
REMARK VINA RESULT: -8.191713362      0.348      1.146
REMARK  4 active torsions:
REMARK  status: ('A' for Active; 'I' for Inactive)
REMARK    1  A    between atoms: C1_4  and  O1_5 
REMARK    2  A    between atoms: C1_4  and  C9_17 
REMARK    3  A    between atoms: O1_5  and  C2_6 
REMARK    4  A    between atoms: C2_6  and  C3_7 
REMARK       I    between atoms: C3_7  and  N2_9 
ROOT
HETATM    1  O1  UNL     1      13.504 -15.570  25.503  1.00  0.00    -0.330 OA
ENDROOT
BRANCH   1   2
HETATM    2  C1  UNL     1      13.948 -14.989  26.703  1.00  0.00     0.119 C 
HETATM    3  N1  UNL     1      14.423 -15.802  27.567  1.00  0.00    -0.383 N 
ATOM      4  H12 UNL     1      14.471 -16.804  27.383  1.00  0.00     0.158 HD
ATOM      5  H11 UNL     1      14.746 -15.381  28.438  1.00  0.00     0.158 HD
BRANCH   2   6
HETATM    6  C9  UNL     1      13.880 -13.560  26.966  1.00  0.00     0.082 C 
HETATM    7  C10 UNL     1      13.566 -12.763  25.728  1.00  0.00    -0.018 C 
HETATM    8  C11 UNL     1      13.790 -11.470  25.775  1.00  0.00    -0.030 C 
HETATM    9  C12 UNL     1      14.323 -10.744  26.939  1.00  0.00     0.027 C 
HETATM   10  C13 UNL     1      15.101 -11.580  27.887  1.00  0.00     0.005 C 
HETATM   11  C14 UNL     1      15.171 -13.040  27.507  1.00  0.00     0.017 C 
ENDBRANCH   2   6
ENDBRANCH   1   2
BRANCH   1  12
HETATM   12  C2  UNL     1      14.370 -16.039  24.511  1.00  0.00     0.280 C 
BRANCH  12  13
HETATM   13  C3  UNL     1      13.741 -16.163  23.181  1.00  0.00     0.244 C 
HETATM   14  O2  UNL     1      13.299 -17.260  22.794  1.00  0.00    -0.271 OA
HETATM   15  N2  UNL     1      13.645 -15.030  22.351  1.00  0.00    -0.350 N 
HETATM   16  C4  UNL     1      14.143 -13.727  22.753  1.00  0.00     0.131 C 
HETATM   17  C8  UNL     1      13.033 -15.140  21.051  1.00  0.00     0.131 C 
HETATM   18  C5  UNL     1      14.583 -12.887  21.584  1.00  0.00     0.099 C 
HETATM   19  C6  UNL     1      13.546 -12.829  20.490  1.00  0.00     0.246 C 
HETATM   20  F1  UNL     1      14.171 -13.203  19.309  1.00  0.00    -0.206 F 
HETATM   21  F2  UNL     1      13.034 -11.582  20.315  1.00  0.00    -0.206 F 
HETATM   22  C7  UNL     1      12.409 -13.794  20.729  1.00  0.00     0.099 C 
ENDBRANCH  12  13
ENDBRANCH   1  12
TORSDOF 4
ENDMDL
MODEL 4
REMARK VINA RESULT: -8.068536821      1.303      2.042
REMARK  4 active torsions:
REMARK  status: ('A' for Active; 'I' for Inactive)
REMARK    1  A    between atoms: C1_4  and  O1_5 
REMARK    2  A    between atoms: C1_4  and  C9_17 
REMARK    3  A    between atoms: O1_5  and  C2_6 
REMARK    4  A    between atoms: C2_6  and  C3_7 
REMARK       I    between atoms: C3_7  and  N2_9 
ROOT
HETATM    1  O1  UNL     1      12.849 -15.704  24.494  1.00  0.00    -0.330 OA
ENDROOT
BRANCH   1   2
HETATM    2  C1  UNL     1      13.758 -15.384  25.516  1.00  0.00     0.119 C 
HETATM    3  N1  UNL     1      14.651 -16.266  25.756  1.00  0.00    -0.383 N 
ATOM      4  H12 UNL     1      14.690 -17.139  25.230  1.00  0.00     0.158 HD
ATOM      5  H11 UNL     1      15.311 -16.033  26.498  1.00  0.00     0.158 HD
BRANCH   2   6
HETATM    6  C9  UNL     1      13.702 -14.139  26.266  1.00  0.00     0.082 C 
HETATM    7  C10 UNL     1      13.955 -12.935  25.400  1.00  0.00    -0.018 C 
HETATM    8  C11 UNL     1      14.241 -11.808  26.009  1.00  0.00    -0.030 C 
HETATM    9  C12 UNL     1      14.334 -11.632  27.467  1.00  0.00     0.027 C 
HETATM   10  C13 UNL     1      14.616 -12.877  28.224  1.00  0.00     0.005 C 
HETATM   11  C14 UNL     1      14.717 -14.114  27.362  1.00  0.00     0.017 C 
ENDBRANCH   2   6
ENDBRANCH   1   2
BRANCH   1  12
HETATM   12  C2  UNL     1      13.226 -16.314  23.294  1.00  0.00     0.280 C 
BRANCH  12  13
HETATM   13  C3  UNL     1      14.196 -15.529  22.505  1.00  0.00     0.244 C 
HETATM   14  O2  UNL     1      15.418 -15.723  22.639  1.00  0.00    -0.271 OA
HETATM   15  N2  UNL     1      13.730 -14.557  21.600  1.00  0.00    -0.350 N 
HETATM   16  C4  UNL     1      12.316 -14.291  21.405  1.00  0.00     0.131 C 
HETATM   17  C8  UNL     1      14.668 -13.787  20.825  1.00  0.00     0.131 C 
HETATM   18  C5  UNL     1      12.043 -12.869  20.996  1.00  0.00     0.099 C 
HETATM   19  C6  UNL     1      12.909 -12.421  19.846  1.00  0.00     0.246 C 
HETATM   20  F1  UNL     1      13.537 -11.246  20.234  1.00  0.00    -0.206 F 
HETATM   21  F2  UNL     1      12.194 -12.160  18.719  1.00  0.00    -0.206 F 
HETATM   22  C7  UNL     1      13.987 -13.426  19.517  1.00  0.00     0.099 C 
ENDBRANCH  12  13
ENDBRANCH   1  12
TORSDOF 4
ENDMDL
MODEL 5
REMARK VINA RESULT: -8.026577213      1.747      2.385
REMARK  4 active torsions:
REMARK  status: ('A' for Active; 'I' for Inactive)
REMARK    1  A    between atoms: C1_4  and  O1_5 
REMARK    2  A    between atoms: C1_4  and  C9_17 
REMARK    3  A    between atoms: O1_5  and  C2_6 
REMARK    4  A    between atoms: C2_6  and  C3_7 
REMARK       I    between atoms: C3_7  and  N2_9 
ROOT
HETATM    1  O1  UNL     1      13.134 -15.353  23.820  1.00  0.00    -0.330 OA
ENDROOT
BRANCH   1   2
HETATM    2  C1  UNL     1      13.830 -15.437  25.038  1.00  0.00     0.119 C 
HETATM    3  N1  UNL     1      14.569 -16.470  25.180  1.00  0.00    -0.383 N 
ATOM      4  H12 UNL     1      14.641 -17.176  24.448  1.00  0.00     0.158 HD
ATOM      5  H11 UNL     1      15.075 -16.531  26.064  1.00  0.00     0.158 HD
BRANCH   2   6
HETATM    6  C9  UNL     1      13.727 -14.429  26.082  1.00  0.00     0.082 C 
HETATM    7  C10 UNL     1      13.889 -13.031  25.548  1.00  0.00    -0.018 C 
HETATM    8  C11 UNL     1      14.131 -12.081  26.420  1.00  0.00    -0.030 C 
HETATM    9  C12 UNL     1      14.256 -12.276  27.874  1.00  0.00     0.027 C 
HETATM   10  C13 UNL     1      14.627 -13.653  28.284  1.00  0.00     0.005 C 
HETATM   11  C14 UNL     1      14.771 -14.622  27.133  1.00  0.00     0.017 C 
ENDBRANCH   2   6
ENDBRANCH   1   2
BRANCH   1  12
HETATM   12  C2  UNL     1      13.768 -15.284  22.577  1.00  0.00     0.280 C 
BRANCH  12  13
HETATM   13  C3  UNL     1      12.925 -14.712  21.508  1.00  0.00     0.244 C 
HETATM   14  O2  UNL     1      12.189 -15.449  20.826  1.00  0.00    -0.271 OA
HETATM   15  N2  UNL     1      12.959 -13.326  21.264  1.00  0.00    -0.350 N 
HETATM   16  C4  UNL     1      13.798 -12.422  22.029  1.00  0.00     0.131 C 
HETATM   17  C8  UNL     1      12.140 -12.759  20.223  1.00  0.00     0.131 C 
HETATM   18  C5  UNL     1      14.226 -11.216  21.238  1.00  0.00     0.099 C 
HETATM   19  C6  UNL     1      13.070 -10.535  20.549  1.00  0.00     0.246 C 
HETATM   20  F1  UNL     1      13.398 -10.421  19.206  1.00  0.00    -0.206 F 
HETATM   21  F2  UNL     1      12.834  -9.285  21.029  1.00  0.00    -0.206 F 
HETATM   22  C7  UNL     1      11.795 -11.340  20.641  1.00  0.00     0.099 C 
ENDBRANCH  12  13
ENDBRANCH   1  12
TORSDOF 4
ENDMDL
