MODEL 1
REMARK VINA RESULT: -7.583134485      0.000      0.000
REMARK  3 active torsions:
REMARK  status: ('A' for Active; 'I' for Inactive)
REMARK    1  A    between atoms: C7_8  and  C8_9 
REMARK    2  A    between atoms: C10_11  and  C11_12 
REMARK    3  A    between atoms: C11_12  and  O1_13 
ROOT
HETATM    1  N1  UNL     1      13.285 -17.639  23.285  1.00  0.00    -0.196 NA
HETATM    2  C1  UNL     1      13.593 -16.522  23.127  1.00  0.00     0.073 C 
HETATM    3  C2  UNL     1      13.987 -15.129  22.929  1.00  0.00     0.074 C 
HETATM    4  C3  UNL     1      14.746 -14.996  21.671  1.00  0.00    -0.005 C 
HETATM    5  C4  UNL     1      14.764 -13.860  20.977  1.00  0.00    -0.021 C 
HETATM    6  C5  UNL     1      13.952 -12.744  21.590  1.00  0.00     0.048 C 
HETATM    7  C6  UNL     1      14.491 -12.419  22.927  1.00  0.00     0.022 C 
HETATM    8  C7  UNL     1      13.828 -13.318  23.973  1.00  0.00    -0.025 C 
HETATM    9  C12 UNL     1      14.665 -14.513  24.163  1.00  0.00     0.039 C 
HETATM   10  C13 UNL     1      12.898 -14.126  23.122  1.00  0.00     0.060 C 
HETATM   11  C14 UNL     1      12.597 -13.330  21.877  1.00  0.00     0.126 C 
HETATM   12 CL1  UNL     1      12.064 -14.385  20.552  1.00  0.00    -0.100 Cl
HETATM   13 CL2  UNL     1      11.382 -12.112  22.237  1.00  0.00    -0.100 Cl
ENDROOT
BRANCH   8  14
HETATM   14  C8  UNL     1      13.249 -12.558  25.105  1.00  0.00     0.001 A 
HETATM   15  C9  UNL     1      13.288 -13.054  26.525  1.00  0.00     0.013 A 
HETATM   16  C10 UNL     1      13.802 -11.649  26.054  1.00  0.00     0.014 A 
BRANCH  16  17
HETATM   17  C11 UNL     1      15.166 -11.410  26.557  1.00  0.00     0.169 C 
BRANCH  17  18
HETATM   18  O1  UNL     1      15.361 -10.263  27.312  1.00  0.00    -0.400 OA
ATOM     19  H1  UNL     1      16.261 -10.007  27.476  1.00  0.00     0.209 HD
ENDBRANCH  17  18
ENDBRANCH  16  17
ENDBRANCH   8  14
TORSDOF 3
ENDMDL
MODEL 2
REMARK VINA RESULT: -7.466777412      1.482      1.606
REMARK  3 active torsions:
REMARK  status: ('A' for Active; 'I' for Inactive)
REMARK    1  A    between atoms: C7_8  and  C8_9 
REMARK    2  A    between atoms: C10_11  and  C11_12 
REMARK    3  A    between atoms: C11_12  and  O1_13 
ROOT
HETATM    1  N1  UNL     1      13.245 -17.607  23.357  1.00  0.00    -0.196 NA
HETATM    2  C1  UNL     1      13.561 -16.518  23.070  1.00  0.00     0.073 C 
HETATM    3  C2  UNL     1      13.965 -15.160  22.711  1.00  0.00     0.074 C 
HETATM    4  C3  UNL     1      14.782 -15.189  21.482  1.00  0.00    -0.005 C 
HETATM    5  C4  UNL     1      14.833 -14.152  20.648  1.00  0.00    -0.021 C 
HETATM    6  C5  UNL     1      13.994 -12.970  21.073  1.00  0.00     0.048 C 
HETATM    7  C6  UNL     1      14.471 -12.471  22.380  1.00  0.00     0.022 C 
HETATM    8  C7  UNL     1      13.760 -13.231  23.502  1.00  0.00    -0.025 C 
HETATM    9  C12 UNL     1      14.586 -14.386  23.885  1.00  0.00     0.039 C 
HETATM   10  C13 UNL     1      12.869 -14.147  22.721  1.00  0.00     0.060 C 
HETATM   11  C14 UNL     1      12.626 -13.521  21.371  1.00  0.00     0.126 C 
HETATM   12 CL1  UNL     1      12.155 -14.742  20.172  1.00  0.00    -0.100 Cl
HETATM   13 CL2  UNL     1      11.397 -12.273  21.514  1.00  0.00    -0.100 Cl
ENDROOT
BRANCH   8  14
HETATM   14  C8  UNL     1      13.129 -12.333  24.497  1.00  0.00     0.001 A 
HETATM   15  C9  UNL     1      13.905 -11.667  25.602  1.00  0.00     0.013 A 
HETATM   16  C10 UNL     1      12.984 -10.917  24.579  1.00  0.00     0.014 A 
BRANCH  16  17
HETATM   17  C11 UNL     1      13.708  -9.784  23.976  1.00  0.00     0.169 C 
BRANCH  17  18
HETATM   18  O1  UNL     1      13.038  -9.065  22.996  1.00  0.00    -0.400 OA
ATOM     19  H1  UNL     1      13.520  -8.361  22.578  1.00  0.00     0.209 HD
ENDBRANCH  17  18
ENDBRANCH  16  17
ENDBRANCH   8  14
TORSDOF 3
ENDMDL
MODEL 3
REMARK VINA RESULT: -7.307064602      3.483      4.728
REMARK  3 active torsions:
REMARK  status: ('A' for Active; 'I' for Inactive)
REMARK    1  A    between atoms: C7_8  and  C8_9 
REMARK    2  A    between atoms: C10_11  and  C11_12 
REMARK    3  A    between atoms: C11_12  and  O1_13 
ROOT
HETATM    1  N1  UNL     1      15.317  -8.599  22.933  1.00  0.00    -0.196 NA
HETATM    2  C1  UNL     1      14.581  -9.501  22.818  1.00  0.00     0.073 C 
HETATM    3  C2  UNL     1      13.656 -10.623  22.678  1.00  0.00     0.074 C 
HETATM    4  C3  UNL     1      12.459 -10.194  21.929  1.00  0.00    -0.005 C 
HETATM    5  C4  UNL     1      11.738 -11.049  21.206  1.00  0.00    -0.021 C 
HETATM    6  C5  UNL     1      12.252 -12.469  21.227  1.00  0.00     0.048 C 
HETATM    7  C6  UNL     1      12.231 -12.981  22.613  1.00  0.00     0.022 C 
HETATM    8  C7  UNL     1      13.545 -12.618  23.308  1.00  0.00    -0.025 C 
HETATM    9  C12 UNL     1      13.368 -11.337  24.008  1.00  0.00     0.039 C 
HETATM   10  C13 UNL     1      14.271 -11.901  22.212  1.00  0.00     0.060 C 
HETATM   11  C14 UNL     1      13.717 -12.382  20.895  1.00  0.00     0.126 C 
HETATM   12 CL1  UNL     1      14.009 -11.198  19.605  1.00  0.00    -0.100 Cl
HETATM   13 CL2  UNL     1      14.426 -13.938  20.491  1.00  0.00    -0.100 Cl
ENDROOT
BRANCH   8  14
HETATM   14  C8  UNL     1      14.210 -13.786  23.931  1.00  0.00     0.001 A 
HETATM   15  C9  UNL     1      13.602 -14.558  25.072  1.00  0.00     0.013 A 
HETATM   16  C10 UNL     1      14.101 -15.194  23.728  1.00  0.00     0.014 A 
BRANCH  16  17
HETATM   17  C11 UNL     1      13.057 -16.060  23.154  1.00  0.00     0.169 C 
BRANCH  17  18
HETATM   18  O1  UNL     1      13.366 -17.407  23.023  1.00  0.00    -0.400 OA
ATOM     19  H1  UNL     1      13.845 -17.661  22.242  1.00  0.00     0.209 HD
ENDBRANCH  17  18
ENDBRANCH  16  17
ENDBRANCH   8  14
TORSDOF 3
ENDMDL
MODEL 4
REMARK VINA RESULT: -7.276940345      2.925      3.853
REMARK  3 active torsions:
REMARK  status: ('A' for Active; 'I' for Inactive)
REMARK    1  A    between atoms: C7_8  and  C8_9 
REMARK    2  A    between atoms: C10_11  and  C11_12 
REMARK    3  A    between atoms: C11_12  and  O1_13 
ROOT
HETATM    1  N1  UNL     1      11.978  -9.541  20.688  1.00  0.00    -0.196 NA
HETATM    2  C1  UNL     1      12.086 -10.619  21.130  1.00  0.00     0.073 C 
HETATM    3  C2  UNL     1      12.213 -11.965  21.683  1.00  0.00     0.074 C 
HETATM    4  C3  UNL     1      11.446 -12.919  20.859  1.00  0.00    -0.005 C 
HETATM    5  C4  UNL     1      11.783 -14.205  20.775  1.00  0.00    -0.021 C 
HETATM    6  C5  UNL     1      12.998 -14.584  21.588  1.00  0.00     0.048 C 
HETATM    7  C6  UNL     1      12.738 -14.319  23.018  1.00  0.00     0.022 C 
HETATM    8  C7  UNL     1      13.115 -12.872  23.342  1.00  0.00    -0.025 C 
HETATM    9  C12 UNL     1      11.920 -12.028  23.190  1.00  0.00     0.039 C 
HETATM   10  C13 UNL     1      13.606 -12.389  22.013  1.00  0.00     0.060 C 
HETATM   11  C14 UNL     1      14.066 -13.588  21.223  1.00  0.00     0.126 C 
HETATM   12 CL1  UNL     1      14.055 -13.251  19.480  1.00  0.00    -0.100 Cl
HETATM   13 CL2  UNL     1      15.668 -14.068  21.760  1.00  0.00    -0.100 Cl
ENDROOT
BRANCH   8  14
HETATM   14  C8  UNL     1      14.032 -12.761  24.502  1.00  0.00     0.001 A 
HETATM   15  C9  UNL     1      13.585 -12.257  25.848  1.00  0.00     0.013 A 
HETATM   16  C10 UNL     1      14.319 -13.621  25.603  1.00  0.00     0.014 A 
BRANCH  16  17
HETATM   17  C11 UNL     1      13.585 -14.719  26.254  1.00  0.00     0.169 C 
BRANCH  17  18
HETATM   18  O1  UNL     1      14.327 -15.582  27.047  1.00  0.00    -0.400 OA
ATOM     19  H1  UNL     1      13.849 -16.274  27.489  1.00  0.00     0.209 HD
ENDBRANCH  17  18
ENDBRANCH  16  17
ENDBRANCH   8  14
TORSDOF 3
ENDMDL
MODEL 5
REMARK VINA RESULT: -7.240055739      3.438      4.651
REMARK  3 active torsions:
REMARK  status: ('A' for Active; 'I' for Inactive)
REMARK    1  A    between atoms: C7_8  and  C8_9 
REMARK    2  A    between atoms: C10_11  and  C11_12 
REMARK    3  A    between atoms: C11_12  and  O1_13 
ROOT
HETATM    1  N1  UNL     1      14.075  -9.025  24.683  1.00  0.00    -0.196 NA
HETATM    2  C1  UNL     1      13.650 -10.001  24.200  1.00  0.00     0.073 C 
HETATM    3  C2  UNL     1      13.111 -11.219  23.599  1.00  0.00     0.074 C 
HETATM    4  C3  UNL     1      12.077 -10.872  22.605  1.00  0.00    -0.005 C 
HETATM    5  C4  UNL     1      11.810 -11.658  21.564  1.00  0.00    -0.021 C 
HETATM    6  C5  UNL     1      12.649 -12.912  21.500  1.00  0.00     0.048 C 
HETATM    7  C6  UNL     1      12.406 -13.730  22.707  1.00  0.00     0.022 C 
HETATM    8  C7  UNL     1      13.359 -13.288  23.819  1.00  0.00    -0.025 C 
HETATM    9  C12 UNL     1      12.686 -12.268  24.638  1.00  0.00     0.039 C 
HETATM   10  C13 UNL     1      14.132 -12.204  23.133  1.00  0.00     0.060 C 
HETATM   11  C14 UNL     1      14.077 -12.462  21.649  1.00  0.00     0.126 C 
HETATM   12 CL1  UNL     1      14.375 -10.974  20.727  1.00  0.00    -0.100 Cl
HETATM   13 CL2  UNL     1      15.240 -13.708  21.223  1.00  0.00    -0.100 Cl
ENDROOT
BRANCH   8  14
HETATM   14  C8  UNL     1      14.120 -14.415  24.409  1.00  0.00     0.001 A 
HETATM   15  C9  UNL     1      13.594 -15.243  25.551  1.00  0.00     0.013 A 
HETATM   16  C10 UNL     1      14.106 -15.823  24.186  1.00  0.00     0.014 A 
BRANCH  16  17
HETATM   17  C11 UNL     1      13.112 -16.753  23.623  1.00  0.00     0.169 C 
BRANCH  17  18
HETATM   18  O1  UNL     1      13.569 -18.013  23.263  1.00  0.00    -0.400 OA
ATOM     19  H1  UNL     1      14.275 -18.046  22.627  1.00  0.00     0.209 HD
ENDBRANCH  17  18
ENDBRANCH  16  17
ENDBRANCH   8  14
TORSDOF 3
ENDMDL
